data_PCOD9015880
_publ_section_title
;
Structure prediction by ZEFSAII (Michael W. Deem and Ramdas Pophale) SiO2 
 PCOD9015880
Probable space group: P -1
;
_chemical_formula_sum "Si O2"
_cell_formula_units_Z 15
_cell_length_a 15.864032
_cell_length_b 6.340574
_cell_length_c 9.112632
_cell_angle_alpha 110.124381
_cell_angle_beta 48.898698
_cell_angle_gamma 98.377753
_cell_volume 644.333417
_symmetry_space_group_name_H-M "P -1"
_symmetry_group_IT_number 2
_symmetry_cell_setting 'triclinic'
loop_
_space_group_symop_operation_xyz
x,y,z
-x,-y,-z
loop_
_atom_site_type_symbol
_atom_site_label
_atom_site_fract_x
_atom_site_fract_y
_atom_site_fract_z
Si Si1 0.581436 0.041921 0.640584
Si Si2 0.621729 0.165838 0.305808
Si Si3 0.887940 0.663024 0.206866
Si Si4 0.500000 0.500000 0.000000
Si Si5 0.774953 0.453777 0.046545
Si Si6 0.785631 0.767667 0.878101
Si Si7 0.971366 0.034637 0.711933
Si Si8 0.705615 0.689804 0.635842
O O1 0.631837 0.149688 0.464674
O O2 0.512035 0.241222 0.859469
O O3 0.501234 0.870594 0.619078
O O4 0.661407 0.895068 0.627188
O O5 0.665567 0.382660 0.233479
O O6 0.701156 0.955646 0.097936
O O7 0.808512 0.559330 0.393342
O O8 0.929098 0.888999 0.283095
O O9 0.816590 0.661841 0.138916
O O10 0.000000 0.500000 0.000000
O O11 0.603403 0.562857 0.782933
O O12 0.756893 0.530529 0.918832
O O13 0.871519 0.243007 0.888031
O O14 0.763662 0.780660 0.734721
O O15 0.913426 0.815519 0.774747
O O16 0.000000 0.000000 0.500000
#
# Coordination Sequence:
#
# PCOD9015880 Si02
#       8
#     2   2   2   1   2   2   2   2
#     4  11  25  44  70  98 141 188 235 287 347 415
#     4  10  23  45  66  98 138 184 233 287 344 417
#     4  10  22  46  71  99 137 184 241 289 344 414
#     4  12  26  42  68 108 140 182 228 288 350 420
#     4  10  23  41  68  97 138 177 230 287 347 423
#     4  11  23  41  69 101 136 184 229 285 354 419
#     4  10  21  42  65  95 135 174 230 290 344 406
#     4  12  25  43  70 105 146 184 234 287 353 420
#
# _framework density 23.279872000000001
#
# number of rings (size 3 to 8) (size 9 to 14) (size 15 to 20)
#    0.000    1.333    2.667    2.000    1.867    2.133 
#    0.000    6.000    0.000    0.000    0.000    0.000 
#    0.000    0.000    0.000    0.000    0.000    0.000 
#
# Total GULP energy -83541.187334 kJ/mol
# GULP energy per Si atom -5569.412489 kJ/mol
# Density = 2.322689 g / cm^3
# Si number density = 23.279872 Si / 1000 Ang^3
#
#
#
# Elastic Constant Matrix: (Units=GPa)
#
#
# Indices 1 2 3 4 5 6 
#
# 1 79.9849 49.1648 35.1737 -17.2510 15.8560 4.7552
# 2 49.1648 78.0734 39.7085 -25.7348 2.3246 14.0421
# 3 35.1737 39.7085 172.0394 -18.2979 2.0059 7.5517
# 4 -17.2510 -25.7348 -18.2979 47.9770 7.8976 0.4020
# 5 15.8560 2.3246 2.0059 7.8976 33.8568 -4.4868
# 6 4.7552 14.0421 7.5517 0.4020 -4.4868 24.3105
#
#
#
# Elastic Compliance Matrix: (Units=1/GPa)
#
#
# Indices 1 2 3 4 5 6 
#
# 1 0.024005 -0.013483 -0.001466 0.002576 -0.010626 0.001544
# 2 -0.013483 0.027655 -0.002102 0.009173 0.000717 -0.012703
# 3 -0.001466 -0.002102 0.006715 0.000887 0.000150 -0.000572
# 4 0.002576 0.009173 0.000887 0.028693 -0.009687 -0.008340
# 5 -0.010626 0.000717 0.000150 -0.009687 0.037876 0.008768
# 6 0.001544 -0.012703 -0.000572 -0.008340 0.008768 0.050104
#
#
# Mechanical properties :
#
#
# Convention : Reuss Voigt Hill
#
# Bulk Modulus (GPa) = 41.19615 64.24353 52.71984
# Shear Modulus (GPa) = 23.01602 34.96558 28.99080
#
# Velocity S-wave (km/s) = 3.14772 3.87973 3.53273
# Velocity P-wave (km/s) = 5.56285 6.90838 6.27180
#
# Compressibility (1/GPa) = 0.02427411
#
# Stress axis : x y z
#
# Youngs Moduli (GPa) = 41.65796 36.15976 148.91957
#
# Poissons Ratio (x) = 0.48755 0.21827
# Poissons Ratio (y) = 0.56169 0.31296
# Poissons Ratio (z) = 0.06106 0.07599
#
# Static dielectric constant tensor:
#      x y z
#    x 1.904590 0.023920 -0.017800 
#    y 0.023920 1.929450 -0.022760 
#    z -0.017800 -0.022760 1.874120 
# 
# From -- ./inp_files/322704.got.cif
#   From: 2010.05.17/outbox.cif.g08.bks.cpg/sg2_162_cif.got.tgz:322704.got - 2010.06.03 11:33:40.
