data_PCOD9015624
_publ_section_title
;
Structure prediction by ZEFSAII (Michael W. Deem and Ramdas Pophale) SiO2 
 PCOD9015624
Probable space group: P -1
;
_chemical_formula_sum "Si O2"
_cell_formula_units_Z 16
_cell_length_a 13.964478
_cell_length_b 8.708069
_cell_length_c 13.494296
_cell_angle_alpha 129.936547
_cell_angle_beta 52.212755
_cell_angle_gamma 84.952686
_cell_volume 604.096276
_symmetry_space_group_name_H-M "P -1"
_symmetry_group_IT_number 2
_symmetry_cell_setting 'triclinic'
loop_
_space_group_symop_operation_xyz
x,y,z
-x,-y,-z
loop_
_atom_site_type_symbol
_atom_site_label
_atom_site_fract_x
_atom_site_fract_y
_atom_site_fract_z
Si Si1 0.342987 0.590700 0.484053
Si Si2 0.715325 0.539172 0.168023
Si Si3 0.854408 0.743480 0.053016
Si Si4 0.294730 0.328121 0.567308
Si Si5 0.293942 0.726121 0.104814
Si Si6 0.971130 0.190045 0.350448
Si Si7 0.563304 0.716711 0.995611
Si Si8 0.236470 0.149740 0.075104
O O1 0.270975 0.560073 0.613649
O O2 0.579643 0.244174 0.188444
O O3 0.268234 0.912749 0.679149
O O4 0.241627 0.616461 0.464612
O O5 0.827623 0.577021 0.062478
O O6 0.602663 0.759017 0.428317
O O7 0.611225 0.550294 0.150979
O O8 0.885561 0.162195 0.941835
O O9 0.786674 0.793617 0.003924
O O10 0.084334 0.506162 0.800372
O O11 0.419450 0.019832 0.289950
O O12 0.071519 0.046905 0.336300
O O13 0.415150 0.772866 0.049929
O O14 0.306259 0.607876 0.155210
O O15 0.036430 0.314713 0.313332
O O16 0.693097 0.729862 0.875049
#
# Coordination Sequence:
#
# PCOD9015624 Si02
#       8
#     2   2   2   2   2   2   2   2
#     4  11  23  38  61  94 134 164 205 256 317 376
#     4  10  22  38  63  90 125 165 208 258 314 364
#     4  12  20  39  60  90 132 170 200 261 319 365
#     4  11  22  37  64  95 123 167 205 262 312 374
#     4   9  21  44  64  85 130 167 200 272 305 367
#     4  10  21  42  64  89 130 166 204 260 311 363
#     4  10  22  43  66  89 125 165 214 253 320 371
#     4  11  22  38  64  96 120 171 212 252 313 380
#
# _framework density 26.485842999999999
#
# number of rings (size 3 to 8) (size 9 to 14) (size 15 to 20)
#    0.750    0.750    3.750    1.875    0.000    3.000 
#    0.000    3.125    2.750    0.000    0.000    0.000 
#    0.000    0.000    0.000    0.000    0.000    0.000 
#
# Total GULP energy -89682.287808 kJ/mol
# GULP energy per Si atom -5605.142988 kJ/mol
# Density = 2.642556 g / cm^3
# Si number density = 26.485843 Si / 1000 Ang^3
#
#
#
# Elastic Constant Matrix: (Units=GPa)
#
#
# Indices 1 2 3 4 5 6 
#
# 1 188.8877 41.0972 34.6389 -5.7521 -0.8950 22.5340
# 2 41.0972 115.9849 9.9392 -3.7572 -6.8537 27.0420
# 3 34.6389 9.9392 70.6296 -0.9102 -9.1990 16.8678
# 4 -5.7521 -3.7572 -0.9102 22.9779 4.6143 -3.6654
# 5 -0.8950 -6.8537 -9.1990 4.6143 48.0134 1.9077
# 6 22.5340 27.0420 16.8678 -3.6654 1.9077 56.8736
#
#
#
# Elastic Compliance Matrix: (Units=1/GPa)
#
#
# Indices 1 2 3 4 5 6 
#
# 1 0.006318 -0.001844 -0.002754 0.001211 -0.000761 -0.000706
# 2 -0.001844 0.010361 0.000741 0.000200 0.001745 -0.004462
# 3 -0.002754 0.000741 0.016929 -0.001338 0.003605 -0.004489
# 4 0.001211 0.000200 -0.001338 0.045201 -0.004664 0.002891
# 5 -0.000761 0.001745 0.003605 -0.004664 0.022306 -0.002646
# 6 -0.000706 -0.004462 -0.004489 0.002891 -0.002646 0.021591
#
#
# Mechanical properties :
#
#
# Convention : Reuss Voigt Hill
#
# Bulk Modulus (GPa) = 38.61599 60.76140 49.68870
# Shear Modulus (GPa) = 35.95813 44.89476 40.42645
#
# Velocity S-wave (km/s) = 3.68861 4.12156 3.91108
# Velocity P-wave (km/s) = 5.72299 6.75578 6.26072
#
# Compressibility (1/GPa) = 0.02589601
#
# Stress axis : x y z
#
# Youngs Moduli (GPa) = 158.28185 96.51223 59.06998
#
# Poissons Ratio (x) = 0.17794 0.16267
# Poissons Ratio (y) = 0.29183 -0.04380
# Poissons Ratio (z) = 0.43589 -0.07156
#
# Static dielectric constant tensor:
#      x y z
#    x 2.074090 -0.023570 0.031910 
#    y -0.023570 2.034890 -0.007260 
#    z 0.031910 -0.007260 2.110970 
# 
# From -- ./inp_files/530140.got.cif
#   From: 2010.05.17/outbox.cif.g08.bks.cpg/sg2_266_cif.got.tgz:530140.got - 2010.06.03 11:33:40.
