data_PCOD9015549
_publ_section_title
;
Structure prediction by ZEFSAII (Michael W. Deem and Ramdas Pophale) SiO2 
 PCOD9015549
Probable space group: P -1
;
_chemical_formula_sum "Si O2"
_cell_formula_units_Z 16
_cell_length_a 11.798576
_cell_length_b 25.219260
_cell_length_c 8.028422
_cell_angle_alpha 134.250824
_cell_angle_beta 146.340802
_cell_angle_gamma 31.960722
_cell_volume 700.575902
_symmetry_space_group_name_H-M "P -1"
_symmetry_group_IT_number 2
_symmetry_cell_setting 'triclinic'
loop_
_space_group_symop_operation_xyz
x,y,z
-x,-y,-z
loop_
_atom_site_type_symbol
_atom_site_label
_atom_site_fract_x
_atom_site_fract_y
_atom_site_fract_z
Si Si1 0.451697 0.579955 0.489226
Si Si2 0.627688 0.775721 0.981564
Si Si3 0.844114 0.560280 0.692500
Si Si4 0.640852 0.934917 0.258511
Si Si5 0.991825 0.963058 0.589152
Si Si6 0.895257 0.287207 0.355606
Si Si7 0.073580 0.090734 0.103560
Si Si8 0.632006 0.528044 0.038633
O O1 0.500000 0.500000 0.500000
O O2 0.724582 0.551348 0.691237
O O3 0.257093 0.680105 0.578501
O O4 0.308274 0.573372 0.142561
O O5 0.673145 0.838827 0.064224
O O6 0.806853 0.750639 0.313784
O O7 0.738342 0.671256 0.816512
O O8 0.294945 0.856193 0.770864
O O9 0.713362 0.546398 0.349029
O O10 0.169658 0.480495 0.874276
O O11 0.822115 0.916707 0.600295
O O12 0.760609 0.956815 0.308387
O O13 0.334691 0.022634 0.149128
O O14 0.000000 0.000000 0.500000
O O15 0.926872 0.047868 0.817317
O O16 0.904962 0.204807 0.103403
O O17 0.692788 0.383867 0.203625
#
# Coordination Sequence:
#
# PCOD9015549 Si02
#       8
#     2   2   2   2   2   2   2   2
#     4  10  22  42  65  94 132 173 217 263 320 380
#     4  10  23  39  65  98 127 169 220 257 326 385
#     4  11  23  41  70  96 130 173 212 270 325 387
#     4   9  20  43  63  90 131 166 210 271 313 381
#     4  11  24  40  66  94 131 172 213 264 330 384
#     4  10  21  42  63  94 133 165 216 267 315 387
#     4   9  20  38  62  92 124 170 215 257 322 379
#     4  10  23  43  64  96 132 165 218 268 328 378
#
# _framework density 22.838353999999999
#
# number of rings (size 3 to 8) (size 9 to 14) (size 15 to 20)
#    0.000    2.000    1.250    1.500    5.250    4.000 
#    0.000    1.250    0.000    0.000    0.000    0.000 
#    0.000    0.000    0.000    0.000    0.000    0.000 
#
# Total GULP energy -89230.926227 kJ/mol
# GULP energy per Si atom -5576.932889 kJ/mol
# Density = 2.278637 g / cm^3
# Si number density = 22.838354 Si / 1000 Ang^3
#
#
#
# Elastic Constant Matrix: (Units=GPa)
#
#
# Indices 1 2 3 4 5 6 
#
# 1 116.4415 20.6313 25.6534 6.5799 27.0598 3.7231
# 2 20.6313 91.9175 23.1160 5.3668 6.5814 -7.4060
# 3 25.6534 23.1160 117.3837 2.7464 8.9344 -1.7279
# 4 6.5799 5.3668 2.7464 47.0930 -3.3380 2.9339
# 5 27.0598 6.5814 8.9344 -3.3380 40.8254 2.6069
# 6 3.7231 -7.4060 -1.7279 2.9339 2.6069 7.8945
#
#
#
# Elastic Compliance Matrix: (Units=1/GPa)
#
#
# Indices 1 2 3 4 5 6 
#
# 1 0.011001 -0.001906 -0.001574 -0.001395 -0.006456 -0.004671
# 2 -0.001906 0.013129 -0.001795 -0.002113 -0.001534 0.014115
# 3 -0.001574 -0.001795 0.009307 -0.000268 -0.000820 0.001465
# 4 -0.001395 -0.002113 -0.000268 0.022652 0.003883 -0.011084
# 5 -0.006456 -0.001534 -0.000820 0.003883 0.030155 -0.009975
# 6 -0.004671 0.014115 0.001465 -0.011084 -0.009975 0.149848
#
#
# Mechanical properties :
#
#
# Convention : Reuss Voigt Hill
#
# Bulk Modulus (GPa) = 43.69216 51.61602 47.65409
# Shear Modulus (GPa) = 19.66419 36.25205 27.95812
#
# Velocity S-wave (km/s) = 2.93749 3.98846 3.50262
# Velocity P-wave (km/s) = 5.53875 6.62269 6.10482
#
# Compressibility (1/GPa) = 0.02288740
#
# Stress axis : x y z
#
# Youngs Moduli (GPa) = 90.90269 76.16693 107.44993
#
# Poissons Ratio (x) = 0.14518 0.16908
# Poissons Ratio (y) = 0.17327 0.19286
# Poissons Ratio (z) = 0.14304 0.13671
#
# Static dielectric constant tensor:
#      x y z
#    x 1.904010 0.032570 -0.025210 
#    y 0.032570 1.896350 0.006270 
#    z -0.025210 0.006270 1.925360 
# 
# From -- ./inp_files/285855.got.cif
#   From: 2010.05.17/outbox.cif.g08.bks.cpg/sg2_143_cif.got.tgz:285855.got - 2010.06.03 11:33:40.
