data_PCOD9015498
_publ_section_title
;
Structure prediction by ZEFSAII (Michael W. Deem and Ramdas Pophale) SiO2 
 PCOD9015498
Probable space group: P -1
;
_chemical_formula_sum "Si O2"
_cell_formula_units_Z 16
_cell_length_a 5.370941
_cell_length_b 17.008884
_cell_length_c 8.565024
_cell_angle_alpha 114.378313
_cell_angle_beta 113.252139
_cell_angle_gamma 92.611351
_cell_volume 634.146743
_symmetry_space_group_name_H-M "P -1"
_symmetry_group_IT_number 2
_symmetry_cell_setting 'triclinic'
loop_
_space_group_symop_operation_xyz
x,y,z
-x,-y,-z
loop_
_atom_site_type_symbol
_atom_site_label
_atom_site_fract_x
_atom_site_fract_y
_atom_site_fract_z
Si Si1 0.232848 0.304650 0.923874
Si Si2 0.564480 0.746870 0.756884
Si Si3 0.235213 0.473692 0.287144
Si Si4 0.172294 0.065715 0.972522
Si Si5 0.032918 0.358686 0.403527
Si Si6 0.690777 0.983476 0.343994
Si Si7 0.255681 0.860482 0.298057
Si Si8 0.512173 0.580235 0.187449
O O1 0.391183 0.258930 0.050942
O O2 0.225801 0.393277 0.095673
O O3 0.409191 0.333142 0.832891
O O4 0.925644 0.236177 0.772728
O O5 0.785784 0.704195 0.683653
O O6 0.247060 0.692558 0.622474
O O7 0.630242 0.850374 0.824598
O O8 0.500000 0.500000 0.500000
O O9 0.992828 0.425586 0.309259
O O10 0.264445 0.554655 0.235957
O O11 0.951962 0.102597 0.839680
O O12 0.320986 0.017273 0.843757
O O13 0.000000 0.000000 0.000000
O O14 0.223032 0.411319 0.629342
O O15 0.620646 0.069915 0.474944
O O16 0.530795 0.883894 0.277987
O O17 0.000000 0.000000 0.500000
O O18 0.500000 0.500000 0.000000
#
# Coordination Sequence:
#
# PCOD9015498 Si02
#       8
#     2   2   2   2   2   2   2   2
#     4   9  18  35  61  90 119 164 207 256 304 370
#     4  10  23  41  63  90 125 164 209 251 314 375
#     4   8  16  33  59  87 123 159 197 247 309 365
#     4  10  22  37  58  87 117 161 203 257 308 365
#     4  10  21  42  63  91 125 167 203 255 311 372
#     4   9  19  37  57  82 119 154 202 252 308 370
#     4   9  19  37  58  85 115 162 204 248 314 368
#     4   9  18  38  62  94 125 160 209 258 308 367
#
# _framework density 25.230754000000001
#
# number of rings (size 3 to 8) (size 9 to 14) (size 15 to 20)
#    0.000    2.750    0.000    0.000    5.250    1.500 
#    6.750   27.500    0.000    0.000    0.000    0.000 
#    0.000    0.000    0.000    0.000    0.000    0.000 
#
# Total GULP energy -89186.586379 kJ/mol
# GULP energy per Si atom -5574.161649 kJ/mol
# Density = 2.517333 g / cm^3
# Si number density = 25.230754 Si / 1000 Ang^3
#
#
#
# Elastic Constant Matrix: (Units=GPa)
#
#
# Indices 1 2 3 4 5 6 
#
# 1 69.1772 31.5526 41.0774 6.5333 -16.9963 16.2326
# 2 31.5526 181.1942 62.9976 4.7703 -14.9898 37.1372
# 3 41.0774 62.9976 113.6319 11.0343 -24.0453 8.6664
# 4 6.5333 4.7703 11.0343 44.2159 6.9604 5.4074
# 5 -16.9963 -14.9898 -24.0453 6.9604 41.2751 -1.2230
# 6 16.2326 37.1372 8.6664 5.4074 -1.2230 30.8220
#
#
#
# Elastic Compliance Matrix: (Units=1/GPa)
#
#
# Indices 1 2 3 4 5 6 
#
# 1 0.021666 0.001062 -0.006322 -0.001331 0.005539 -0.010460
# 2 0.001062 0.009088 -0.004636 0.001208 0.000526 -0.010398
# 3 -0.006322 -0.004636 0.014652 -0.003706 0.005041 0.005646
# 4 -0.001331 0.001208 -0.003706 0.025191 -0.006647 -0.004396
# 5 0.005539 0.000526 0.005041 -0.006647 0.030680 -0.002584
# 6 -0.010460 -0.010398 0.005646 -0.004396 -0.002584 0.049562
#
#
# Mechanical properties :
#
#
# Convention : Reuss Voigt Hill
#
# Bulk Modulus (GPa) = 39.03914 70.58426 54.81170
# Shear Modulus (GPa) = 27.90640 38.48764 33.19702
#
# Velocity S-wave (km/s) = 3.32934 3.90991 3.63124
# Velocity P-wave (km/s) = 5.50325 6.95840 6.27316
#
# Compressibility (1/GPa) = 0.02561532
#
# Stress axis : x y z
#
# Youngs Moduli (GPa) = 46.15496 110.02919 68.25084
#
# Poissons Ratio (x) = -0.11687 0.43148
# Poissons Ratio (y) = -0.04903 0.31639
# Poissons Ratio (z) = 0.29179 0.51007
#
# Static dielectric constant tensor:
#      x y z
#    x 2.273860 -0.013050 -0.032620 
#    y -0.013050 2.126880 0.091410 
#    z -0.032620 0.091410 2.034480 
# 
# From -- ./inp_files/140743.got.cif
#   From: 2010.05.17/outbox.cif.g08.bks.cpg/sg2_71_cif.got.tgz:140743.got - 2010.06.03 11:33:40.
