data_PCOD9015541
_publ_section_title
;
Structure prediction by ZEFSAII (Michael W. Deem and Ramdas Pophale) SiO2 
 PCOD9015541
Probable space group: P -1
;
_chemical_formula_sum "Si O2"
_cell_formula_units_Z 14
_cell_length_a 10.745696
_cell_length_b 8.333408
_cell_length_c 9.864051
_cell_angle_alpha 84.876707
_cell_angle_beta 43.253649
_cell_angle_gamma 108.799093
_cell_volume 496.386211
_symmetry_space_group_name_H-M "P -1"
_symmetry_group_IT_number 2
_symmetry_cell_setting 'triclinic'
loop_
_space_group_symop_operation_xyz
x,y,z
-x,-y,-z
loop_
_atom_site_type_symbol
_atom_site_label
_atom_site_fract_x
_atom_site_fract_y
_atom_site_fract_z
Si Si1 0.915205 0.281674 0.635380
Si Si2 0.334953 0.923734 0.768758
Si Si3 0.416153 0.624916 0.662141
Si Si4 0.578165 0.331767 0.952293
Si Si5 0.942419 0.870609 0.226171
Si Si6 0.544590 0.346246 0.663131
Si Si7 0.139376 0.231988 0.237369
O O1 0.677971 0.205934 0.888976
O O2 0.000000 0.500000 0.500000
O O3 0.935307 0.182310 0.495059
O O4 0.040160 0.255468 0.659572
O O5 0.328231 0.728201 0.813508
O O6 0.085259 0.871454 0.986303
O O7 0.500000 0.000000 0.500000
O O8 0.315866 0.219444 0.580302
O O9 0.400108 0.433651 0.738891
O O10 0.314109 0.586462 0.594271
O O11 0.604085 0.397826 0.768109
O O12 0.725252 0.532673 0.903530
O O13 0.318579 0.222031 0.184930
O O14 0.059426 0.084319 0.187714
O O15 0.452087 0.117192 0.753388
#
# Coordination Sequence:
#
# PCOD9015541 Si02
#       7
#     2   2   2   2   2   2   2
#     4  10  23  39  61  96 136 176 223 275 335 405
#     4  10  24  46  69 103 135 183 233 281 351 402
#     4  10  24  43  72  97 140 176 230 293 341 405
#     4  10  21  42  63  93 140 175 226 273 341 417
#     4  12  24  43  67 107 134 176 237 279 346 415
#     4  10  21  46  68  98 135 185 225 283 349 403
#     4  10  22  38  63  97 129 180 218 273 341 401
#
# _framework density 28.203845999999999
#
# number of rings (size 3 to 8) (size 9 to 14) (size 15 to 20)
#    0.000    1.714    1.429    2.143    2.000    7.429 
#    0.000    6.429    0.000    0.000    0.000    0.000 
#    0.000    0.000    0.000    0.000    0.000    0.000 
#
# Total GULP energy -78111.065790 kJ/mol
# GULP energy per Si atom -5579.361842 kJ/mol
# Density = 2.813965 g / cm^3
# Si number density = 28.203846 Si / 1000 Ang^3
#
#
#
# Elastic Constant Matrix: (Units=GPa)
#
#
# Indices 1 2 3 4 5 6 
#
# 1 83.6432 73.4901 35.4330 7.6392 0.8666 9.5860
# 2 73.4901 241.0811 92.2406 36.0514 -10.5888 13.5919
# 3 35.4330 92.2406 103.5476 22.2375 11.7344 11.2651
# 4 7.6392 36.0514 22.2375 82.1535 -11.5793 -6.8932
# 5 0.8666 -10.5888 11.7344 -11.5793 52.0349 5.1483
# 6 9.5860 13.5919 11.2651 -6.8932 5.1483 49.1265
#
#
#
# Elastic Compliance Matrix: (Units=1/GPa)
#
#
# Indices 1 2 3 4 5 6 
#
# 1 0.016727 -0.004519 -0.001618 0.000664 -0.000538 -0.001493
# 2 -0.004519 0.007984 -0.005553 -0.001239 0.002727 -0.000514
# 3 -0.001618 -0.005553 0.016548 -0.002785 -0.005278 -0.001780
# 4 0.000664 -0.001239 -0.002785 0.014075 0.003251 0.002486
# 5 -0.000538 0.002727 -0.005278 0.003251 0.021821 -0.001270
# 6 -0.001493 -0.000514 -0.001780 0.002486 -0.001270 0.021679
#
#
# Mechanical properties :
#
#
# Convention : Reuss Voigt Hill
#
# Bulk Modulus (GPa) = 55.92980 92.28880 74.10930
# Shear Modulus (GPa) = 39.00939 51.80352 45.40645
#
# Velocity S-wave (km/s) = 3.72307 4.29039 4.01676
# Velocity P-wave (km/s) = 6.19316 7.57207 6.91707
#
# Compressibility (1/GPa) = 0.01787956
#
# Stress axis : x y z
#
# Youngs Moduli (GPa) = 59.78277 125.24650 60.43105
#
# Poissons Ratio (x) = 0.56597 0.09776
# Poissons Ratio (y) = 0.27015 0.33559
# Poissons Ratio (z) = 0.09671 0.69552
#
# Static dielectric constant tensor:
#      x y z
#    x 2.308060 -0.021790 -0.110630 
#    y -0.021790 2.199210 -0.029190 
#    z -0.110630 -0.029190 2.430310 
# 
# From -- ./inp_files/414195.got.cif
#   From: 2010.05.17/outbox.cif.g08.bks.cpg/sg2_208_cif.got.tgz:414195.got - 2010.06.03 11:33:40.
