data_PCOD9015548
_publ_section_title
;
Structure prediction by ZEFSAII (Michael W. Deem and Ramdas Pophale) SiO2 
 PCOD9015548
Probable space group: P -1
;
_chemical_formula_sum "Si O2"
_cell_formula_units_Z 16
_cell_length_a 18.220858
_cell_length_b 7.689713
_cell_length_c 7.741158
_cell_angle_alpha 54.404777
_cell_angle_beta 49.699390
_cell_angle_gamma 71.792808
_cell_volume 669.053125
_symmetry_space_group_name_H-M "P -1"
_symmetry_group_IT_number 2
_symmetry_cell_setting 'triclinic'
loop_
_space_group_symop_operation_xyz
x,y,z
-x,-y,-z
loop_
_atom_site_type_symbol
_atom_site_label
_atom_site_fract_x
_atom_site_fract_y
_atom_site_fract_z
Si Si1 0.925565 0.203151 0.379509
Si Si2 0.061463 0.948057 0.102261
Si Si3 0.224650 0.167426 0.175557
Si Si4 0.751063 0.825083 0.449314
Si Si5 0.443071 0.273895 0.781206
Si Si6 0.598373 0.515382 0.947174
Si Si7 0.416358 0.896571 0.562161
Si Si8 0.084266 0.531471 0.108123
O O1 0.983565 0.382688 0.308194
O O2 0.831643 0.056090 0.676613
O O3 0.897657 0.329353 0.175562
O O4 0.997869 0.028865 0.306920
O O5 0.156755 0.113463 0.843505
O O6 0.081073 0.702031 0.172362
O O7 0.000000 0.000000 0.000000
O O8 0.223123 0.148471 0.400680
O O9 0.165703 0.370040 0.106218
O O10 0.334581 0.210033 0.911430
O O11 0.674248 0.982007 0.412922
O O12 0.693911 0.589171 0.651421
O O13 0.500000 0.500000 0.500000
O O14 0.420609 0.295672 0.001583
O O15 0.522443 0.123593 0.693278
O O16 0.616132 0.322309 0.158815
O O17 0.500000 0.500000 0.000000
O O18 0.500000 0.000000 0.500000
#
# Coordination Sequence:
#
# PCOD9015548 Si02
#       8
#     2   2   2   2   2   2   2   2
#     4  10  22  44  65  97 137 170 225 279 333 402
#     4  10  21  43  64  95 135 173 215 273 336 397
#     4  11  22  40  67  96 130 175 230 268 331 416
#     4  11  23  39  67  93 132 175 218 273 335 402
#     4   9  23  40  67  93 132 174 215 274 338 391
#     4  10  21  42  63  94 131 170 219 275 325 401
#     4  11  23  44  65  93 135 173 219 281 340 390
#     4  10  22  40  68  92 133 177 212 282 335 387
#
# _framework density 23.914391999999999
#
# number of rings (size 3 to 8) (size 9 to 14) (size 15 to 20)
#    0.000    1.750    3.750    0.375    5.250    3.500 
#    0.000    5.000    0.000    0.000    0.000    0.000 
#    0.000    0.000    0.000    0.000    0.000    0.000 
#
# Total GULP energy -89347.242280 kJ/mol
# GULP energy per Si atom -5584.202642 kJ/mol
# Density = 2.385996 g / cm^3
# Si number density = 23.914392 Si / 1000 Ang^3
#
#
#
# Elastic Constant Matrix: (Units=GPa)
#
#
# Indices 1 2 3 4 5 6 
#
# 1 92.4454 14.0932 54.1958 -7.8614 -7.8468 -24.2547
# 2 14.0932 59.5911 44.7913 -20.1487 1.2168 -16.8101
# 3 54.1958 44.7913 166.6943 -20.0269 -27.6216 -11.6875
# 4 -7.8614 -20.1487 -20.0269 38.1340 -0.0143 4.9150
# 5 -7.8468 1.2168 -27.6216 -0.0143 56.0303 -7.9455
# 6 -24.2547 -16.8101 -11.6875 4.9150 -7.9455 43.7580
#
#
#
# Elastic Compliance Matrix: (Units=1/GPa)
#
#
# Indices 1 2 3 4 5 6 
#
# 1 0.015702 0.002732 -0.004981 0.000973 0.000886 0.008474
# 2 0.002732 0.027121 -0.006725 0.010256 -0.002304 0.008567
# 3 -0.004981 -0.006725 0.010088 0.000978 0.004137 -0.002009
# 4 0.000973 0.010256 0.000978 0.032199 0.000578 0.001229
# 5 0.000886 -0.002304 0.004137 0.000578 0.020685 0.004402
# 6 0.008474 0.008567 -0.002009 0.001229 0.004402 0.030966
#
#
# Mechanical properties :
#
#
# Convention : Reuss Voigt Hill
#
# Bulk Modulus (GPa) = 28.60195 60.54348 44.57271
# Shear Modulus (GPa) = 30.05476 41.29448 35.67462
#
# Velocity S-wave (km/s) = 3.54893 4.15994 3.86653
# Velocity P-wave (km/s) = 5.36464 6.96026 6.21388
#
# Compressibility (1/GPa) = 0.03496266
#
# Stress axis : x y z
#
# Youngs Moduli (GPa) = 63.68473 36.87197 99.13125
#
# Poissons Ratio (x) = -0.10073 0.49382
# Poissons Ratio (y) = -0.17398 0.66662
# Poissons Ratio (z) = 0.31724 0.24795
#
# Static dielectric constant tensor:
#      x y z
#    x 2.007880 0.091820 0.000590 
#    y 0.091820 1.987530 -0.044190 
#    z 0.000590 -0.044190 2.233460 
# 
# From -- ./inp_files/328361.got.cif
#   From: 2010.05.17/outbox.cif.g08.bks.cpg/sg2_165_cif.got.tgz:328361.got - 2010.06.03 11:33:40.
