data_PCOD9015220
_publ_section_title
;
Structure prediction by ZEFSAII (Michael W. Deem and Ramdas Pophale) SiO2 
 PCOD9015220
Probable space group: P -1
;
_chemical_formula_sum "Si O2"
_cell_formula_units_Z 14
_cell_length_a 21.841322
_cell_length_b 4.884048
_cell_length_c 17.018451
_cell_angle_alpha 99.582550
_cell_angle_beta 158.422356
_cell_angle_gamma 67.481842
_cell_volume 511.671711
_symmetry_space_group_name_H-M "P -1"
_symmetry_group_IT_number 2
_symmetry_cell_setting 'triclinic'
loop_
_space_group_symop_operation_xyz
x,y,z
-x,-y,-z
loop_
_atom_site_type_symbol
_atom_site_label
_atom_site_fract_x
_atom_site_fract_y
_atom_site_fract_z
Si Si1 0.738316 0.644332 0.286546
Si Si2 0.424493 0.171727 0.730313
Si Si3 0.238203 0.800814 0.434986
Si Si4 0.146593 0.610556 0.749373
Si Si5 0.360558 0.312805 0.239107
Si Si6 0.788898 0.539040 0.758563
Si Si7 0.824782 0.054220 0.054132
O O1 0.703448 0.601176 0.333265
O O2 0.799291 0.370553 0.275819
O O3 0.923123 0.682156 0.498584
O O4 0.500000 0.000000 0.000000
O O5 0.423246 0.426164 0.680970
O O6 0.292797 0.062491 0.526472
O O7 0.655935 0.801076 0.010221
O O8 0.197041 0.735782 0.295709
O O9 0.030497 0.932036 0.243525
O O10 0.142764 0.871955 0.815848
O O11 0.257854 0.492524 0.209004
O O12 0.589304 0.939373 0.512481
O O13 0.359101 0.576616 0.193054
O O14 0.221432 0.219635 0.026312
O O15 0.000000 0.500000 0.000000
#
# Coordination Sequence:
#
# PCOD9015220 Si02
#       7
#     2   2   2   2   2   2   2
#     4   9  20  42  70 101 138 174 223 274 333 397
#     4  11  24  46  68  99 136 176 225 276 330 396
#     4  12  25  44  71  99 135 178 224 278 332 396
#     4  10  21  41  72  99 135 179 222 274 336 395
#     4  11  27  47  68 100 136 175 225 280 329 400
#     4  11  25  46  69 100 135 179 223 276 339 395
#     4  12  24  46  71  99 135 177 225 276 334 393
#
# _framework density 27.361291999999999
#
# number of rings (size 3 to 8) (size 9 to 14) (size 15 to 20)
#    0.000    1.143    2.857    2.571    0.000    4.000 
#    0.000    8.571    0.000    0.000    0.000    0.000 
#    0.000    0.000    0.000    0.000    0.000    0.000 
#
# Total GULP energy -78708.512512 kJ/mol
# GULP energy per Si atom -5622.036608 kJ/mol
# Density = 2.729902 g / cm^3
# Si number density = 27.361292 Si / 1000 Ang^3
#
#
#
# Elastic Constant Matrix: (Units=GPa)
#
#
# Indices 1 2 3 4 5 6 
#
# 1 228.7591 86.8830 39.1688 29.6738 -14.7551 -47.1314
# 2 86.8830 124.6884 50.2731 -1.5826 -13.2852 -22.8887
# 3 39.1688 50.2731 157.1359 1.5429 26.5027 -22.1137
# 4 29.6738 -1.5826 1.5429 45.2999 -7.1001 -6.8513
# 5 -14.7551 -13.2852 26.5027 -7.1001 48.3242 9.0029
# 6 -47.1314 -22.8887 -22.1137 -6.8513 9.0029 69.3187
#
#
#
# Elastic Compliance Matrix: (Units=1/GPa)
#
#
# Indices 1 2 3 4 5 6 
#
# 1 0.007338 -0.004750 0.000249 -0.004582 -0.000454 0.003106
# 2 -0.004750 0.013555 -0.004127 0.004503 0.005259 -0.000308
# 3 0.000249 -0.004127 0.009111 -0.001297 -0.006703 0.002456
# 4 -0.004582 0.004503 -0.001297 0.025957 0.004372 -0.000045
# 5 -0.000454 0.005259 -0.006703 0.004372 0.027025 -0.003789
# 6 0.003106 -0.000308 0.002456 -0.000045 -0.003789 0.017707
#
#
# Mechanical properties :
#
#
# Convention : Reuss Voigt Hill
#
# Bulk Modulus (GPa) = 78.44262 95.91480 87.17871
# Shear Modulus (GPa) = 40.91724 54.87246 47.89485
#
# Velocity S-wave (km/s) = 3.87129 4.48311 4.18839
# Velocity P-wave (km/s) = 6.97954 7.86948 7.43783
#
# Compressibility (1/GPa) = 0.01274817
#
# Stress axis : x y z
#
# Youngs Moduli (GPa) = 136.27922 73.77604 109.75586
#
# Poissons Ratio (x) = 0.35043 -0.02736
# Poissons Ratio (y) = 0.64731 0.45298
# Poissons Ratio (z) = -0.03397 0.30448
#
# Static dielectric constant tensor:
#      x y z
#    x 2.086510 -0.057130 -0.016410 
#    y -0.057130 2.090880 -0.112000 
#    z -0.016410 -0.112000 2.195780 
# 
# From -- ./inp_files/578652.got.cif
#   From: 2010.05.17/outbox.cif.g08.bks.cpg/sg2_290_cif.got.tgz:578652.got - 2010.06.03 11:33:40.
