data_PCOD9015854
_publ_section_title
;
Structure prediction by ZEFSAII (Michael W. Deem and Ramdas Pophale) SiO2 
 PCOD9015854
Probable space group: P -1
;
_chemical_formula_sum "Si O2"
_cell_formula_units_Z 16
_cell_length_a 7.661765
_cell_length_b 20.486134
_cell_length_c 8.484221
_cell_angle_alpha 92.916343
_cell_angle_beta 67.426955
_cell_angle_gamma 139.267782
_cell_volume 735.987019
_symmetry_space_group_name_H-M "P -1"
_symmetry_group_IT_number 2
_symmetry_cell_setting 'triclinic'
loop_
_space_group_symop_operation_xyz
x,y,z
-x,-y,-z
loop_
_atom_site_type_symbol
_atom_site_label
_atom_site_fract_x
_atom_site_fract_y
_atom_site_fract_z
Si Si1 0.435073 0.552622 0.959017
Si Si2 0.346881 0.352792 0.591031
Si Si3 0.467789 0.680044 0.201148
Si Si4 0.716739 0.857217 0.736302
Si Si5 0.570162 0.889799 0.477816
Si Si6 0.066744 0.228821 0.372706
Si Si7 0.119292 0.424928 0.765733
Si Si8 0.696366 0.869323 0.093036
O O1 0.133212 0.461153 0.937582
O O2 0.736731 0.659676 0.767171
O O3 0.500000 0.500000 0.000000
O O4 0.409129 0.600693 0.104831
O O5 0.505394 0.340265 0.636824
O O6 0.200534 0.371056 0.745714
O O7 0.609364 0.461884 0.409953
O O8 0.089279 0.250422 0.552943
O O9 0.762594 0.809445 0.079811
O O10 0.184229 0.648718 0.245275
O O11 0.551722 0.838288 0.632688
O O12 0.749218 0.787910 0.718686
O O13 0.568903 0.840061 0.952313
O O14 0.080162 0.982741 0.621968
O O15 0.289849 0.865161 0.575168
O O16 0.539322 0.845149 0.313011
O O17 0.000000 0.000000 0.000000
#
# Coordination Sequence:
#
# PCOD9015854 Si02
#       8
#     2   2   2   2   2   2   2   2
#     4  11  23  41  59  90 130 161 213 266 306 382
#     4  10  22  38  60  89 126 158 211 263 307 383
#     4  12  21  40  65  86 123 171 206 258 326 371
#     4  10  21  42  65  94 128 164 213 264 316 381
#     4  10  22  41  67  94 126 166 212 264 318 380
#     4  11  22  41  62  89 127 168 207 259 325 371
#     4  10  22  39  59  90 123 164 210 259 314 378
#     4  10  22  41  65  96 128 161 212 265 312 381
#
# _framework density 21.739512000000001
#
# number of rings (size 3 to 8) (size 9 to 14) (size 15 to 20)
#    0.000    1.500    2.500    2.625    0.000    1.000 
#    9.000    0.000    0.000    9.750    0.000    0.000 
#    0.000    0.000    0.000    0.000    0.000    0.000 
#
# Total GULP energy -89214.478498 kJ/mol
# GULP energy per Si atom -5575.904906 kJ/mol
# Density = 2.169003 g / cm^3
# Si number density = 21.739512 Si / 1000 Ang^3
#
#
#
# Elastic Constant Matrix: (Units=GPa)
#
#
# Indices 1 2 3 4 5 6 
#
# 1 87.3867 28.5130 21.7863 4.8654 27.6092 7.3861
# 2 28.5130 82.0978 15.7481 14.0428 12.6788 -12.6367
# 3 21.7863 15.7481 80.6568 21.3330 24.2103 0.6223
# 4 4.8654 14.0428 21.3330 30.7598 -1.2166 5.3725
# 5 27.6092 12.6788 24.2103 -1.2166 27.6100 -0.5396
# 6 7.3861 -12.6367 0.6223 5.3725 -0.5396 39.9680
#
#
#
# Elastic Compliance Matrix: (Units=1/GPa)
#
#
# Indices 1 2 3 4 5 6 
#
# 1 0.018852 -0.004382 0.002073 -0.002319 -0.018854 -0.004844
# 2 -0.004382 0.017033 0.002167 -0.010109 -0.005640 0.007444
# 3 0.002073 0.002167 0.023984 -0.019319 -0.024908 0.002189
# 4 -0.002319 -0.010109 -0.019319 0.053548 0.026079 -0.009313
# 5 -0.018854 -0.005640 -0.024908 0.026079 0.080646 -0.000328
# 6 -0.004844 0.007444 0.002189 -0.009313 -0.000328 0.029482
#
#
# Mechanical properties :
#
#
# Convention : Reuss Voigt Hill
#
# Bulk Modulus (GPa) = 16.78252 42.47068 29.62660
# Shear Modulus (GPa) = 20.51786 31.94050 26.22918
#
# Velocity S-wave (km/s) = 3.07547 3.83722 3.47727
# Velocity P-wave (km/s) = 4.51087 6.26186 5.45706
#
# Compressibility (1/GPa) = 0.05958582
#
# Stress axis : x y z
#
# Youngs Moduli (GPa) = 53.04597 58.70991 41.69384
#
# Poissons Ratio (x) = 0.25729 -0.08645
# Poissons Ratio (y) = 0.23247 -0.09037
# Poissons Ratio (z) = -0.10999 -0.12725
#
# Static dielectric constant tensor:
#      x y z
#    x 1.760230 0.011010 -0.024190 
#    y 0.011010 1.862860 0.013460 
#    z -0.024190 0.013460 1.835540 
# 
# From -- ./inp_files/138962.got.cif
#   From: 2010.05.17/outbox.cif.g08.bks.cpg/sg2_70_cif.got.tgz:138962.got - 2010.06.03 11:33:40.
