data_PCOD9015623
_publ_section_title
;
Structure prediction by ZEFSAII (Michael W. Deem and Ramdas Pophale) SiO2 
 PCOD9015623
Probable space group: P -1
;
_chemical_formula_sum "Si O2"
_cell_formula_units_Z 14
_cell_length_a 5.196872
_cell_length_b 16.989875
_cell_length_c 8.177186
_cell_angle_alpha 82.449120
_cell_angle_beta 58.261530
_cell_angle_gamma 79.496576
_cell_volume 603.195831
_symmetry_space_group_name_H-M "P -1"
_symmetry_group_IT_number 2
_symmetry_cell_setting 'triclinic'
loop_
_space_group_symop_operation_xyz
x,y,z
-x,-y,-z
loop_
_atom_site_type_symbol
_atom_site_label
_atom_site_fract_x
_atom_site_fract_y
_atom_site_fract_z
Si Si1 0.477976 0.725579 0.248111
Si Si2 0.943728 0.099821 0.177507
Si Si3 0.675541 0.939293 0.271809
Si Si4 0.330815 0.455765 0.702160
Si Si5 0.805873 0.254611 0.008028
Si Si6 0.262754 0.568720 0.989252
Si Si7 0.946711 0.131677 0.523740
O O1 0.479895 0.628961 0.280916
O O2 0.238518 0.777952 0.432676
O O3 0.361161 0.757265 0.101622
O O4 0.828709 0.743377 0.141402
O O5 0.761827 0.185609 0.167993
O O6 0.092011 0.111455 0.301874
O O7 0.735025 0.028956 0.271167
O O8 0.165708 0.079817 0.953142
O O9 0.330363 0.922853 0.365817
O O10 0.843087 0.887088 0.380819
O O11 0.500000 0.500000 0.500000
O O12 0.214917 0.529746 0.841415
O O13 0.008383 0.424668 0.788976
O O14 0.663854 0.342903 0.088853
O O15 0.500000 0.500000 0.000000
#
# Coordination Sequence:
#
# PCOD9015623 Si02
#       7
#     2   2   2   2   2   2   2
#     4  11  22  43  63  95 135 166 210 283 318 381
#     4  11  25  43  71  96 129 182 217 267 340 392
#     4  11  26  45  65  98 135 168 224 278 321 393
#     4  10  23  40  64  93 128 171 219 265 330 394
#     4  11  23  43  65  94 133 168 217 269 329 387
#     4  10  21  42  64  89 128 171 211 272 323 383
#     4  12  24  44  67  97 134 172 220 275 326 393
#
# _framework density 23.209709
#
# number of rings (size 3 to 8) (size 9 to 14) (size 15 to 20)
#    0.000    1.143    4.286    0.857    2.000    6.286 
#    0.000    1.429    0.000    0.000    0.000    0.000 
#    0.000    0.000    0.000    0.000    0.000    0.000 
#
# Total GULP energy -78095.155304 kJ/mol
# GULP energy per Si atom -5578.225379 kJ/mol
# Density = 2.315688 g / cm^3
# Si number density = 23.209709 Si / 1000 Ang^3
#
#
#
# Elastic Constant Matrix: (Units=GPa)
#
#
# Indices 1 2 3 4 5 6 
#
# 1 99.8047 -2.3806 28.0831 6.0899 9.0976 -13.0577
# 2 -2.3806 144.1175 11.3853 -4.1795 1.4774 -3.8486
# 3 28.0831 11.3853 93.8726 7.6972 15.6654 -4.2326
# 4 6.0899 -4.1795 7.6972 38.5219 5.4752 6.6645
# 5 9.0976 1.4774 15.6654 5.4752 19.9359 1.2266
# 6 -13.0577 -3.8486 -4.2326 6.6645 1.2266 35.8776
#
#
#
# Elastic Compliance Matrix: (Units=1/GPa)
#
#
# Indices 1 2 3 4 5 6 
#
# 1 0.011757 0.000514 -0.002735 -0.001580 -0.003091 0.004411
# 2 0.000514 0.007071 -0.001008 0.000801 -0.000229 0.000686
# 3 -0.002735 -0.001008 0.013203 -0.001239 -0.008772 0.000984
# 4 -0.001580 0.000801 -0.001239 0.028355 -0.005802 -0.005704
# 5 -0.003091 -0.000229 -0.008772 -0.005802 0.060270 -0.003167
# 6 0.004411 0.000686 0.000984 -0.005704 -0.003167 0.030835
#
#
# Mechanical properties :
#
#
# Convention : Reuss Voigt Hill
#
# Bulk Modulus (GPa) = 39.10500 45.77449 42.43974
# Shear Modulus (GPa) = 30.03493 38.91421 34.47457
#
# Velocity S-wave (km/s) = 3.60122 4.09912 3.85821
# Velocity P-wave (km/s) = 5.84609 6.49374 6.17841
#
# Compressibility (1/GPa) = 0.02557218
#
# Stress axis : x y z
#
# Youngs Moduli (GPa) = 85.05797 141.42695 75.73976
#
# Poissons Ratio (x) = -0.07268 0.20716
# Poissons Ratio (y) = -0.04371 0.07634
# Poissons Ratio (z) = 0.23265 0.14255
#
# Static dielectric constant tensor:
#      x y z
#    x 1.977500 0.081340 -0.119450 
#    y 0.081340 1.896620 0.035640 
#    z -0.119450 0.035640 1.870190 
# 
# From -- ./inp_files/137430.got.cif
#   From: 2010.05.17/outbox.cif.g08.bks.cpg/sg2_69_cif.got.tgz:137430.got - 2010.06.03 11:33:40.
