data_PCOD9015599
_publ_section_title
;
Structure prediction by ZEFSAII (Michael W. Deem and Ramdas Pophale) SiO2 
 PCOD9015599
Probable space group: P -1
;
_chemical_formula_sum "Si O2"
_cell_formula_units_Z 12
_cell_length_a 11.891428
_cell_length_b 5.492403
_cell_length_c 8.171787
_cell_angle_alpha 91.010586
_cell_angle_beta 75.588014
_cell_angle_gamma 92.925878
_cell_volume 516.243815
_symmetry_space_group_name_H-M "P -1"
_symmetry_group_IT_number 2
_symmetry_cell_setting 'triclinic'
loop_
_space_group_symop_operation_xyz
x,y,z
-x,-y,-z
loop_
_atom_site_type_symbol
_atom_site_label
_atom_site_fract_x
_atom_site_fract_y
_atom_site_fract_z
Si Si1 0.385663 0.926169 0.852039
Si Si2 0.930758 0.244807 0.565229
Si Si3 0.440677 0.683671 0.142079
Si Si4 0.993722 0.752438 0.110978
Si Si5 0.416241 0.352518 0.406079
Si Si6 0.780587 0.983582 0.355186
O O1 0.491314 0.788382 0.734291
O O2 0.443068 0.195524 0.817791
O O3 0.272197 0.890872 0.784539
O O4 0.376078 0.863567 0.046696
O O5 0.914915 0.247037 0.769118
O O6 0.000000 0.500000 0.500000
O O7 0.830701 0.186209 0.466327
O O8 0.000000 0.000000 0.500000
O O9 0.363034 0.542835 0.301563
O O10 0.500000 0.500000 0.000000
O O11 0.872731 0.793210 0.252600
O O12 0.000000 0.500000 0.000000
O O13 0.000000 0.000000 0.000000
O O14 0.500000 0.500000 0.500000
O O15 0.322293 0.170207 0.518439
#
# Coordination Sequence:
#
# PCOD9015599 Si02
#       6
#     2   2   2   2   2   2
#     4  10  21  42  64 103 146 184 231 284 343 439
#     4  10  23  48  74 103 137 180 245 315 361 428
#     4   9  20  41  63  92 157 179 226 290 334 410
#     4  11  25  51  74 103 142 186 248 323 364 430
#     4  11  22  39  66 105 145 188 232 284 343 443
#     4  11  24  44  74 105 137 197 239 292 381 425
#
# _framework density 23.24483
#
# number of rings (size 3 to 8) (size 9 to 14) (size 15 to 20)
#    0.000    1.667    1.667    2.500    0.000    4.000 
#    9.000    0.000    0.000    0.000    0.000    0.000 
#    0.000    0.000    0.000    0.000    0.000    0.000 
#
# Total GULP energy -66894.717603 kJ/mol
# GULP energy per Si atom -5574.559800 kJ/mol
# Density = 2.319192 g / cm^3
# Si number density = 23.244830 Si / 1000 Ang^3
#
#
#
# Elastic Constant Matrix: (Units=GPa)
#
#
# Indices 1 2 3 4 5 6 
#
# 1 107.3812 38.8820 49.9418 7.0326 27.1923 16.5745
# 2 38.8820 155.1131 67.7164 9.7512 15.7040 25.7634
# 3 49.9418 67.7164 117.3243 5.8472 36.7200 11.6851
# 4 7.0326 9.7512 5.8472 56.7259 -8.2458 4.6376
# 5 27.1923 15.7040 36.7200 -8.2458 53.1339 13.8436
# 6 16.5745 25.7634 11.6851 4.6376 13.8436 38.2479
#
#
#
# Elastic Compliance Matrix: (Units=1/GPa)
#
#
# Indices 1 2 3 4 5 6 
#
# 1 0.012548 -0.000764 -0.003554 -0.001335 -0.003301 -0.002481
# 2 -0.000764 0.009728 -0.005613 -0.000141 0.002807 -0.005506
# 3 -0.003554 -0.005613 0.015686 -0.001786 -0.008649 0.003876
# 4 -0.001335 -0.000141 -0.001786 0.019098 0.005751 -0.003178
# 5 -0.003301 0.002807 -0.008649 0.005751 0.028887 -0.008971
# 6 -0.002481 -0.005506 0.003876 -0.003178 -0.008971 0.033377
#
#
# Mechanical properties :
#
#
# Convention : Reuss Voigt Hill
#
# Bulk Modulus (GPa) = 55.24566 76.98877 66.11721
# Shear Modulus (GPa) = 34.43073 44.50675 39.46874
#
# Velocity S-wave (km/s) = 3.85284 4.38047 4.12510
# Velocity P-wave (km/s) = 6.60386 7.66664 7.15501
#
# Compressibility (1/GPa) = 0.01810097
#
# Stress axis : x y z
#
# Youngs Moduli (GPa) = 79.69201 102.79815 63.75204
#
# Poissons Ratio (x) = 0.07852 0.22657
# Poissons Ratio (y) = 0.06087 0.35782
# Poissons Ratio (z) = 0.28322 0.57698
#
# Static dielectric constant tensor:
#      x y z
#    x 2.005560 -0.059280 0.056920 
#    y -0.059280 1.806760 -0.073580 
#    z 0.056920 -0.073580 1.899310 
# 
# From -- ./inp_files/228200.got.cif
#   From: 2010.05.17/outbox.cif.g08.bks.cpg/sg2_115_cif.got.tgz:228200.got - 2010.06.03 11:33:40.
