data_PCOD9015902
_publ_section_title
;
Structure prediction by ZEFSAII (Michael W. Deem and Ramdas Pophale) SiO2 
 PCOD9015902
Probable space group: P -1
;
_chemical_formula_sum "Si O2"
_cell_formula_units_Z 12
_cell_length_a 19.322432
_cell_length_b 7.652310
_cell_length_c 7.343242
_cell_angle_alpha 112.614319
_cell_angle_beta 39.531876
_cell_angle_gamma 131.943973
_cell_volume 493.976347
_symmetry_space_group_name_H-M "P -1"
_symmetry_group_IT_number 2
_symmetry_cell_setting 'triclinic'
loop_
_space_group_symop_operation_xyz
x,y,z
-x,-y,-z
loop_
_atom_site_type_symbol
_atom_site_label
_atom_site_fract_x
_atom_site_fract_y
_atom_site_fract_z
Si Si1 0.744429 0.860169 0.488186
Si Si2 0.363796 0.650972 0.616822
Si Si3 0.344191 0.212057 0.964057
Si Si4 0.233346 0.484669 0.174084
Si Si5 0.357900 0.881041 0.357921
Si Si6 0.055400 0.774456 0.481880
O O1 0.735151 0.637943 0.345622
O O2 0.642461 0.759261 0.831452
O O3 0.688152 0.951626 0.496060
O O4 0.890464 0.083331 0.377050
O O5 0.305696 0.667730 0.929491
O O6 0.239512 0.631594 0.389872
O O7 0.517900 0.734709 0.366100
O O8 0.322443 0.397458 0.004847
O O9 0.193576 0.943435 0.143557
O O10 0.368541 0.800471 0.501203
O O11 0.075859 0.259883 0.348859
O O12 0.500000 0.000000 0.000000
O O13 0.000000 0.500000 0.500000
#
# Coordination Sequence:
#
# PCOD9015902 Si02
#       6
#     2   2   2   2   2   2
#     4  10  22  42  70  89 136 176 218 263 337 386
#     4  12  25  44  68 107 129 169 229 280 323 390
#     4  10  21  42  69  91 135 178 213 268 338 389
#     4  12  24  42  71 100 131 175 226 272 333 392
#     4  12  22  43  68  94 138 178 211 273 337 390
#     4  10  21  42  65  96 133 181 218 263 335 402
#
# _framework density 24.292660000000001
#
# number of rings (size 3 to 8) (size 9 to 14) (size 15 to 20)
#    1.000    0.000    5.000    2.500    0.000    1.333 
#    6.000    0.833    0.000    0.000    0.000    0.000 
#    0.000    0.000    0.000    0.000    0.000    0.000 
#
# Total GULP energy -67189.469989 kJ/mol
# GULP energy per Si atom -5599.122499 kJ/mol
# Density = 2.423737 g / cm^3
# Si number density = 24.292660 Si / 1000 Ang^3
#
#
#
# Elastic Constant Matrix: (Units=GPa)
#
#
# Indices 1 2 3 4 5 6 
#
# 1 158.3008 52.1977 27.9971 -4.7400 -15.8336 -27.8207
# 2 52.1977 125.2219 4.9165 1.3808 2.0881 6.2530
# 3 27.9971 4.9165 52.7472 -14.7754 -2.5873 0.3197
# 4 -4.7400 1.3808 -14.7754 37.2578 -0.4383 -3.4643
# 5 -15.8336 2.0881 -2.5873 -0.4383 29.8239 -9.6450
# 6 -27.8207 6.2530 0.3197 -3.4643 -9.6450 46.7432
#
#
#
# Elastic Compliance Matrix: (Units=1/GPa)
#
#
# Indices 1 2 3 4 5 6 
#
# 1 0.011566 -0.005260 -0.005075 0.000651 0.009171 0.009563
# 2 -0.005260 0.010515 0.001264 -0.001152 -0.005286 -0.005722
# 3 -0.005075 0.001264 0.023846 0.008462 -0.001576 -0.003051
# 4 0.000651 -0.001152 0.008462 0.030661 0.002681 0.003309
# 5 0.009171 -0.005286 -0.001576 0.002681 0.043646 0.015381
# 6 0.009563 -0.005722 -0.003051 0.003309 0.015381 0.031291
#
#
# Mechanical properties :
#
#
# Convention : Reuss Voigt Hill
#
# Bulk Modulus (GPa) = 35.98788 56.27692 46.13240
# Shear Modulus (GPa) = 27.94444 39.50888 33.72666
#
# Velocity S-wave (km/s) = 3.39532 4.03720 3.73010
# Velocity P-wave (km/s) = 5.49704 6.70437 6.13050
#
# Compressibility (1/GPa) = 0.02778713
#
# Stress axis : x y z
#
# Youngs Moduli (GPa) = 86.45764 95.10021 41.93660
#
# Poissons Ratio (x) = 0.50020 0.21282
# Poissons Ratio (y) = 0.45474 -0.05303
# Poissons Ratio (z) = 0.43875 -0.12025
#
# Static dielectric constant tensor:
#      x y z
#    x 1.940240 0.017760 -0.013350 
#    y 0.017760 1.965640 0.000660 
#    z -0.013350 0.000660 1.906030 
# 
# From -- ./inp_files/230369.got.cif
#   From: 2010.05.17/outbox.cif.g08.bks.cpg/sg2_116_cif.got.tgz:230369.got - 2010.06.03 11:33:40.
