data_PCOD9015956
_publ_section_title
;
Structure prediction by ZEFSAII (Michael W. Deem and Ramdas Pophale) SiO2 
 PCOD9015956
Probable space group: P -1
;
_chemical_formula_sum "Si O2"
_cell_formula_units_Z 16
_cell_length_a 9.756951
_cell_length_b 9.948753
_cell_length_c 8.793398
_cell_angle_alpha 51.933024
_cell_angle_beta 117.653386
_cell_angle_gamma 106.190112
_cell_volume 595.212661
_symmetry_space_group_name_H-M "P -1"
_symmetry_group_IT_number 2
_symmetry_cell_setting 'triclinic'
loop_
_space_group_symop_operation_xyz
x,y,z
-x,-y,-z
loop_
_atom_site_type_symbol
_atom_site_label
_atom_site_fract_x
_atom_site_fract_y
_atom_site_fract_z
Si Si1 0.806498 0.905364 0.249315
Si Si2 0.562792 0.474380 0.380050
Si Si3 0.851153 0.567674 0.646122
Si Si4 0.053078 0.801056 0.076576
Si Si5 0.300889 0.213612 0.022525
Si Si6 0.157328 0.882618 0.636659
Si Si7 0.721497 0.485580 0.961237
Si Si8 0.322910 0.875711 0.404427
O O1 0.726627 0.000910 0.281996
O O2 0.906438 0.061174 0.125398
O O3 0.906273 0.744612 0.479079
O O4 0.683772 0.833554 0.114995
O O5 0.500000 0.500000 0.500000
O O6 0.738361 0.518377 0.480027
O O7 0.448822 0.576287 0.137627
O O8 0.560905 0.282883 0.446974
O O9 0.949545 0.396264 0.837287
O O10 0.779304 0.586515 0.766956
O O11 0.173752 0.683695 0.838483
O O12 0.189977 0.827665 0.246913
O O13 0.883597 0.827865 0.033546
O O14 0.303850 0.394064 0.987923
O O15 0.384285 0.062876 0.264129
O O16 0.232343 0.882191 0.510425
O O17 0.000000 0.000000 0.500000
#
# Coordination Sequence:
#
# PCOD9015956 Si02
#       8
#     2   2   2   2   2   2   2   2
#     4  11  23  42  66 100 139 183 233 285 359 422
#     4   9  22  46  74  97 140 189 239 302 352 411
#     4  10  22  42  71  97 133 186 235 288 361 415
#     4  10  21  42  66 100 142 183 228 294 356 425
#     4  11  24  40  67 105 138 186 236 288 364 431
#     4  12  25  42  68 105 148 186 230 294 359 425
#     4  11  25  44  69 101 142 188 238 293 352 423
#     4  10  22  42  70  97 141 187 238 292 354 417
#
# _framework density 26.881150999999999
#
# number of rings (size 3 to 8) (size 9 to 14) (size 15 to 20)
#    0.000    1.500    1.250    3.750    7.000    2.000 
#    0.000    0.625    0.000    0.000    0.000    0.000 
#    0.000    0.000    0.000    0.000    0.000    0.000 
#
# Total GULP energy -89251.051700 kJ/mol
# GULP energy per Si atom -5578.190731 kJ/mol
# Density = 2.681997 g / cm^3
# Si number density = 26.881151 Si / 1000 Ang^3
#
#
#
# Elastic Constant Matrix: (Units=GPa)
#
#
# Indices 1 2 3 4 5 6 
#
# 1 38.0188 46.1696 21.4533 -10.8476 -10.0605 -12.1824
# 2 46.1696 234.0768 70.9539 -17.7728 -19.3117 -15.7987
# 3 21.4533 70.9539 152.8170 -9.1986 -19.2859 -5.6515
# 4 -10.8476 -17.7728 -9.1986 49.9007 -1.4606 -4.5576
# 5 -10.0605 -19.3117 -19.2859 -1.4606 46.1734 0.9342
# 6 -12.1824 -15.7987 -5.6515 -4.5576 0.9342 37.6419
#
#
#
# Elastic Compliance Matrix: (Units=1/GPa)
#
#
# Indices 1 2 3 4 5 6 
#
# 1 0.041966 -0.005941 -0.001455 0.007984 0.006068 0.011686
# 2 -0.005941 0.006134 -0.001901 0.000596 0.000487 0.000427
# 3 -0.001455 -0.001901 0.007941 0.000529 0.002223 -0.000068
# 4 0.007984 0.000596 0.000529 0.022678 0.002814 0.005589
# 5 0.006068 0.000487 0.002223 0.002814 0.024155 0.002243
# 6 0.011686 0.000427 -0.000068 0.005589 0.002243 0.031138
#
#
# Mechanical properties :
#
#
# Convention : Reuss Voigt Hill
#
# Bulk Modulus (GPa) = 26.70362 78.00736 52.35549
# Shear Modulus (GPa) = 30.28665 45.83225 38.05945
#
# Velocity S-wave (km/s) = 3.36026 4.13364 3.76685
# Velocity P-wave (km/s) = 5.00106 7.20173 6.19982
#
# Compressibility (1/GPa) = 0.03744811
#
# Stress axis : x y z
#
# Youngs Moduli (GPa) = 23.82855 163.01380 125.93640
#
# Poissons Ratio (x) = 0.96848 0.18318
# Poissons Ratio (y) = 0.14157 0.23941
# Poissons Ratio (z) = 0.03466 0.30990
#
# Static dielectric constant tensor:
#      x y z
#    x 2.249560 0.092480 0.124330 
#    y 0.092480 2.212100 0.166670 
#    z 0.124330 0.166670 3.105010 
# 
# From -- ./inp_files/258257.got.cif
#   From: 2010.05.17/outbox.cif.g08.bks.cpg/sg2_130_cif.got.tgz:258257.got - 2010.06.03 11:33:40.
