data_PCOD9015525
_publ_section_title
;
Structure prediction by ZEFSAII (Michael W. Deem and Ramdas Pophale) SiO2 
 PCOD9015525
Probable space group: P -1
;
_chemical_formula_sum "Si O2"
_cell_formula_units_Z 12
_cell_length_a 9.213053
_cell_length_b 9.227452
_cell_length_c 12.239913
_cell_angle_alpha 48.515189
_cell_angle_beta 61.920486
_cell_angle_gamma 49.810418
_cell_volume 593.777142
_symmetry_space_group_name_H-M "P -1"
_symmetry_group_IT_number 2
_symmetry_cell_setting 'triclinic'
loop_
_space_group_symop_operation_xyz
x,y,z
-x,-y,-z
loop_
_atom_site_type_symbol
_atom_site_label
_atom_site_fract_x
_atom_site_fract_y
_atom_site_fract_z
Si Si1 0.467473 0.073106 0.101686
Si Si2 0.699539 0.961066 0.493521
Si Si3 0.115475 0.093479 0.975843
Si Si4 0.995056 0.956150 0.718724
Si Si5 0.359948 0.755401 0.427066
Si Si6 0.099125 0.371577 0.209811
O O1 0.277919 0.298455 0.097873
O O2 0.444350 0.886285 0.266590
O O3 0.500000 0.000000 0.000000
O O4 0.668365 0.047537 0.072887
O O5 0.807297 0.751964 0.645332
O O6 0.500000 0.000000 0.500000
O O7 0.658003 0.167665 0.482054
O O8 0.839039 0.985721 0.346765
O O9 0.098766 0.052091 0.130651
O O10 0.027079 0.362363 0.862931
O O11 0.000000 0.000000 0.000000
O O12 0.015204 0.742539 0.748015
O O13 0.843763 0.162028 0.595360
O O14 0.500000 0.500000 0.500000
#
# Coordination Sequence:
#
# PCOD9015525 Si02
#       6
#     2   2   2   2   2   2
#     4  10  21  42  63  93 125 160 218 248 306 383
#     4  10  23  42  61  93 126 159 205 260 317 362
#     4  12  26  40  64  96 128 163 206 266 315 364
#     4  10  22  43  63  91 124 165 211 249 312 380
#     4  10  22  38  65  91 119 166 207 253 304 375
#     4  10  23  44  66  89 126 172 205 257 310 373
#
# _framework density 20.209602
#
# number of rings (size 3 to 8) (size 9 to 14) (size 15 to 20)
#    0.000    2.000    3.333    2.500    9.333    2.000 
#    0.000    1.667    0.000    0.000    0.000    0.000 
#    0.000    0.000    0.000    0.000    0.000    0.000 
#
# Total GULP energy -66852.853304 kJ/mol
# GULP energy per Si atom -5571.071109 kJ/mol
# Density = 2.016360 g / cm^3
# Si number density = 20.209602 Si / 1000 Ang^3
#
#
#
# Elastic Constant Matrix: (Units=GPa)
#
#
# Indices 1 2 3 4 5 6 
#
# 1 137.2008 -2.6182 15.1218 0.6999 -22.6946 -14.6368
# 2 -2.6182 56.0777 1.7175 -16.1589 -1.2274 -4.7851
# 3 15.1218 1.7175 37.6135 20.1105 -11.1720 -8.1044
# 4 0.6999 -16.1589 20.1105 26.5658 -7.4499 -6.4063
# 5 -22.6946 -1.2274 -11.1720 -7.4499 32.6350 16.6339
# 6 -14.6368 -4.7851 -8.1044 -6.4063 16.6339 16.6649
#
#
#
# Elastic Compliance Matrix: (Units=1/GPa)
#
#
# Indices 1 2 3 4 5 6 
#
# 1 0.009319 0.004194 -0.006933 0.010060 0.003100 0.006790
# 2 0.004194 0.031751 -0.020586 0.038805 -0.006317 0.024012
# 3 -0.006933 -0.020586 0.062218 -0.060262 0.009057 -0.013949
# 4 0.010060 0.038805 -0.060262 0.114682 -0.007554 0.042298
# 5 0.003100 -0.006317 0.009057 -0.007554 0.066581 -0.064047
# 6 0.006790 0.024012 -0.013949 0.042298 -0.064047 0.146270
#
#
# Mechanical properties :
#
#
# Convention : Reuss Voigt Hill
#
# Bulk Modulus (GPa) = 17.65629 28.81492 23.23560
# Shear Modulus (GPa) = 10.07355 29.61787 19.84571
#
# Velocity S-wave (km/s) = 2.23503 3.83238 3.13708
# Velocity P-wave (km/s) = 3.92632 5.81995 4.96427
#
# Compressibility (1/GPa) = 0.05663705
#
# Stress axis : x y z
#
# Youngs Moduli (GPa) = 107.31223 31.49496 16.07256
#
# Poissons Ratio (x) = -0.13208 0.11143
# Poissons Ratio (y) = -0.45002 0.33087
# Poissons Ratio (z) = 0.74398 0.64835
#
# Static dielectric constant tensor:
#      x y z
#    x 1.762610 -0.030190 0.017170 
#    y -0.030190 1.684020 0.015580 
#    z 0.017170 0.015580 1.710890 
# 
# From -- ./inp_files/144561.got.cif
#   From: 2010.05.17/outbox.cif.g08.bks.cpg/sg2_73_cif.got.tgz:144561.got - 2010.06.03 11:33:40.
