data_PCOD9015928
_publ_section_title
;
Structure prediction by ZEFSAII (Michael W. Deem and Ramdas Pophale) SiO2 
 PCOD9015928
Probable space group: P -1
;
_chemical_formula_sum "Si O2"
_cell_formula_units_Z 15
_cell_length_a 10.695441
_cell_length_b 20.684145
_cell_length_c 6.077774
_cell_angle_alpha 56.648661
_cell_angle_beta 62.239975
_cell_angle_gamma 32.175163
_cell_volume 598.078549
_symmetry_space_group_name_H-M "P -1"
_symmetry_group_IT_number 2
_symmetry_cell_setting 'triclinic'
loop_
_space_group_symop_operation_xyz
x,y,z
-x,-y,-z
loop_
_atom_site_type_symbol
_atom_site_label
_atom_site_fract_x
_atom_site_fract_y
_atom_site_fract_z
Si Si1 0.965757 0.402426 0.616418
Si Si2 0.534770 0.650188 0.736300
Si Si3 0.399862 0.141944 0.023582
Si Si4 0.511521 0.220223 0.106437
Si Si5 0.161156 0.818081 0.351191
Si Si6 0.000000 0.500000 0.000000
Si Si7 0.203885 0.063613 0.254778
Si Si8 0.790817 0.313972 0.823542
O O1 0.805580 0.522796 0.689414
O O2 0.808927 0.397061 0.684329
O O3 0.183617 0.277307 0.819069
O O4 0.036781 0.413524 0.313714
O O5 0.373347 0.712098 0.543274
O O6 0.473276 0.758889 0.693764
O O7 0.454668 0.617328 0.030796
O O8 0.460451 0.157978 0.170864
O O9 0.620260 0.050217 0.850412
O O10 0.334204 0.080786 0.220200
O O11 0.743749 0.154209 0.927263
O O12 0.278769 0.370164 0.941198
O O13 0.142816 0.748425 0.351397
O O14 0.921600 0.934166 0.464791
O O15 0.987422 0.192609 0.050902
#
# Coordination Sequence:
#
# PCOD9015928 Si02
#       8
#     2   2   2   2   2   1   2   2
#     4  11  23  42  68  98 138 177 215 271 336 394
#     4  10  21  42  65  98 137 168 225 271 323 405
#     4  10  23  44  70  99 131 177 219 274 341 382
#     4  11  24  40  64  98 133 177 213 270 332 396
#     4  10  21  42  67  95 137 172 221 274 324 391
#     4  12  26  40  62 102 142 172 220 268 324 416
#     4   9  21  46  70  99 129 166 231 281 317 399
#     4   9  21  41  71 100 127 174 222 276 331 382
#
# _framework density 25.080318999999999
#
# number of rings (size 3 to 8) (size 9 to 14) (size 15 to 20)
#    0.000    1.867    1.333    1.200    3.733    2.133 
#    4.800    8.000    0.000    0.000    0.000    0.000 
#    0.000    0.000    0.000    0.000    0.000    0.000 
#
# Total GULP energy -83758.470983 kJ/mol
# GULP energy per Si atom -5583.898066 kJ/mol
# Density = 2.502323 g / cm^3
# Si number density = 25.080319 Si / 1000 Ang^3
#
#
#
# Elastic Constant Matrix: (Units=GPa)
#
#
# Indices 1 2 3 4 5 6 
#
# 1 121.2574 32.5010 24.8645 13.6556 -3.7371 26.1802
# 2 32.5010 116.1275 46.4973 33.3850 -15.8558 -8.5530
# 3 24.8645 46.4973 90.9892 12.4312 -24.3956 -2.5937
# 4 13.6556 33.3850 12.4312 44.9511 -9.8165 -3.5073
# 5 -3.7371 -15.8558 -24.3956 -9.8165 27.5537 13.9644
# 6 26.1802 -8.5530 -2.5937 -3.5073 13.9644 43.2448
#
#
#
# Elastic Compliance Matrix: (Units=1/GPa)
#
#
# Indices 1 2 3 4 5 6 
#
# 1 0.011191 -0.002596 -0.001015 -0.001201 0.002955 -0.008401
# 2 -0.002596 0.014021 -0.005892 -0.008225 -0.002529 0.004141
# 3 -0.001015 -0.005892 0.017932 0.002777 0.015493 -0.004253
# 4 -0.001201 -0.008225 0.002777 0.029773 0.008750 -0.001143
# 5 0.002955 -0.002529 0.015493 0.008750 0.062657 -0.020883
# 6 -0.008401 0.004141 -0.004253 -0.001143 -0.020883 0.035425
#
#
# Mechanical properties :
#
#
# Convention : Reuss Voigt Hill
#
# Bulk Modulus (GPa) = 41.42659 59.56663 50.49661
# Shear Modulus (GPa) = 25.24622 38.11732 31.68177
#
# Velocity S-wave (km/s) = 3.17616 3.90270 3.55803
# Velocity P-wave (km/s) = 5.47760 6.64154 6.08745
#
# Compressibility (1/GPa) = 0.02413909
#
# Stress axis : x y z
#
# Youngs Moduli (GPa) = 89.35860 71.32193 55.76644
#
# Poissons Ratio (x) = 0.18512 0.05658
# Poissons Ratio (y) = 0.23194 0.32858
# Poissons Ratio (z) = 0.09067 0.42023
#
# Static dielectric constant tensor:
#      x y z
#    x 2.000050 0.020720 0.039860 
#    y 0.020720 1.980640 0.043070 
#    z 0.039860 0.043070 2.063950 
# 
# From -- ./inp_files/83028.got.cif
#   From: 2010.05.17/outbox.cif.g08.bks.cpg/sg2_42_cif.got.tgz:83028.got - 2010.06.03 11:33:40.
