data_PCOD9015717
_publ_section_title
;
Structure prediction by ZEFSAII (Michael W. Deem and Ramdas Pophale) SiO2 
 PCOD9015717
Probable space group: P -1
;
_chemical_formula_sum "Si O2"
_cell_formula_units_Z 16
_cell_length_a 21.556607
_cell_length_b 9.199341
_cell_length_c 25.278661
_cell_angle_alpha 28.447256
_cell_angle_beta 16.689880
_cell_angle_gamma 35.372103
_cell_volume 672.491379
_symmetry_space_group_name_H-M "P -1"
_symmetry_group_IT_number 2
_symmetry_cell_setting 'triclinic'
loop_
_space_group_symop_operation_xyz
x,y,z
-x,-y,-z
loop_
_atom_site_type_symbol
_atom_site_label
_atom_site_fract_x
_atom_site_fract_y
_atom_site_fract_z
Si Si1 0.479927 0.652712 0.024852
Si Si2 0.870897 0.619463 0.799003
Si Si3 0.715928 0.306991 0.631760
Si Si4 0.615819 0.505264 0.479046
Si Si5 0.779634 0.647709 0.573531
Si Si6 0.932805 0.746556 0.825059
Si Si7 0.630000 0.011023 0.225604
Si Si8 0.469155 0.661021 0.657865
O O1 0.684345 0.628666 0.904720
O O2 0.510002 0.026102 0.879838
O O3 0.500000 0.500000 0.000000
O O4 0.273457 0.479434 0.283023
O O5 0.849312 0.774548 0.823958
O O6 0.093495 0.750832 0.544325
O O7 0.843691 0.257314 0.954558
O O8 0.786257 0.373283 0.613859
O O9 0.647504 0.625316 0.567633
O O10 0.643290 0.855014 0.321652
O O11 0.423769 0.284606 0.673994
O O12 0.538914 0.468474 0.613442
O O13 0.841521 0.385069 0.324576
O O14 0.571527 0.807324 0.675948
O O15 0.992510 0.922265 0.313149
O O16 0.764441 0.499151 0.075908
O O17 0.500000 0.000000 0.500000
#
# Coordination Sequence:
#
# PCOD9015717 Si02
#       8
#     2   2   2   2   2   2   2   2
#     4  11  25  46  73  96 136 181 228 288 352 414
#     4  11  23  42  67  98 137 176 232 277 350 405
#     4  12  25  42  68 104 138 181 231 284 346 407
#     4  10  21  42  64  96 135 188 230 277 343 391
#     4  10  23  44  65  99 137 174 233 288 342 407
#     4  11  24  43  70  99 140 186 229 282 340 410
#     4   9  21  40  65  91 137 181 227 282 337 405
#     4  12  26  41  67 102 144 180 238 279 335 409
#
# _framework density 23.792124000000001
#
# number of rings (size 3 to 8) (size 9 to 14) (size 15 to 20)
#    0.000    1.250    1.250    4.500    7.000    1.000 
#    0.000    4.375    0.000    0.000    0.000    0.000 
#    0.000    0.000    0.000    0.000    0.000    0.000 
#
# Total GULP energy -89459.155143 kJ/mol
# GULP energy per Si atom -5591.197196 kJ/mol
# Density = 2.373797 g / cm^3
# Si number density = 23.792124 Si / 1000 Ang^3
#
#
#
# Elastic Constant Matrix: (Units=GPa)
#
#
# Indices 1 2 3 4 5 6 
#
# 1 129.4504 31.2630 39.8400 -6.4450 24.1826 15.4522
# 2 31.2630 62.6691 28.6624 -10.5145 15.3292 11.3207
# 3 39.8400 28.6624 134.1372 -0.6705 17.8581 23.9332
# 4 -6.4450 -10.5145 -0.6705 38.3530 3.6194 6.9021
# 5 24.1826 15.3292 17.8581 3.6194 41.3782 2.1266
# 6 15.4522 11.3207 23.9332 6.9021 2.1266 41.8215
#
#
#
# Elastic Compliance Matrix: (Units=1/GPa)
#
#
# Indices 1 2 3 4 5 6 
#
# 1 0.009936 -0.002560 -0.001427 0.001748 -0.004281 -0.002232
# 2 -0.002560 0.021664 -0.002250 0.006831 -0.005927 -0.004456
# 3 -0.001427 -0.002250 0.009398 0.000266 -0.002197 -0.004174
# 4 0.001748 0.006831 0.000266 0.030121 -0.005926 -0.007317
# 5 -0.004281 -0.005927 -0.002197 -0.005926 0.030131 0.003889
# 6 -0.002232 -0.004456 -0.004174 -0.007317 0.003889 0.029341
#
#
# Mechanical properties :
#
#
# Convention : Reuss Voigt Hill
#
# Bulk Modulus (GPa) = 35.05959 58.42083 46.74021
# Shear Modulus (GPa) = 32.77098 39.40996 36.09047
#
# Velocity S-wave (km/s) = 3.71534 4.07434 3.89898
# Velocity P-wave (km/s) = 5.75959 6.83679 6.32117
#
# Compressibility (1/GPa) = 0.02852286
#
# Stress axis : x y z
#
# Youngs Moduli (GPa) = 100.64831 46.15932 106.40126
#
# Poissons Ratio (x) = 0.11817 0.15184
# Poissons Ratio (y) = 0.25767 0.23945
# Poissons Ratio (z) = 0.14363 0.10388
#
# Static dielectric constant tensor:
#      x y z
#    x 1.989410 -0.024120 0.009170 
#    y -0.024120 1.990210 -0.026260 
#    z 0.009170 -0.026260 1.892630 
# 
# From -- ./inp_files/613569.got.cif
#   From: 2010.05.17/outbox.cif.g08.bks.cpg/sg2_307_cif.got.tgz:613569.got - 2010.06.03 11:33:40.
