data_PCOD9015783
_publ_section_title
;
Structure prediction by ZEFSAII (Michael W. Deem and Ramdas Pophale) SiO2 
 PCOD9015783
Probable space group: P -1
;
_chemical_formula_sum "Si O2"
_cell_formula_units_Z 12
_cell_length_a 8.280030
_cell_length_b 12.932812
_cell_length_c 12.868645
_cell_angle_alpha 35.950456
_cell_angle_beta 86.220780
_cell_angle_gamma 61.833853
_cell_volume 564.630053
_symmetry_space_group_name_H-M "P -1"
_symmetry_group_IT_number 2
_symmetry_cell_setting 'triclinic'
loop_
_space_group_symop_operation_xyz
x,y,z
-x,-y,-z
loop_
_atom_site_type_symbol
_atom_site_label
_atom_site_fract_x
_atom_site_fract_y
_atom_site_fract_z
Si Si1 0.892620 0.799989 0.176704
Si Si2 0.637895 0.882072 0.698111
Si Si3 0.001718 0.088483 0.594035
Si Si4 0.755454 0.772982 0.418136
Si Si5 0.142521 0.656035 0.823677
Si Si6 0.251984 0.779996 0.295097
O O1 0.740423 0.831831 0.248832
O O2 0.050929 0.528925 0.337261
O O3 0.070177 0.793242 0.233395
O O4 0.756551 0.024148 0.918655
O O5 0.881812 0.788948 0.748250
O O6 0.500000 0.000000 0.500000
O O7 0.482669 0.086638 0.629334
O O8 0.692588 0.636574 0.924252
O O9 0.834054 0.147286 0.642539
O O10 0.147453 0.133414 0.600809
O O11 0.858282 0.274080 0.351116
O O12 0.167711 0.804612 0.776246
O O13 0.500000 0.500000 0.500000
#
# Coordination Sequence:
#
# PCOD9015783 Si02
#       6
#     2   2   2   2   2   2
#     4   9  22  42  60  91 122 153 205 249 293 362
#     4  11  23  40  64  88 119 165 203 241 307 349
#     4  10  22  42  60  89 127 154 199 255 293 358
#     4  10  21  42  65  87 124 160 196 253 302 350
#     4  10  24  42  59  92 125 154 205 250 290 365
#     4  10  22  39  63  90 119 160 201 245 306 350
#
# _framework density 21.252853000000002
#
# number of rings (size 3 to 8) (size 9 to 14) (size 15 to 20)
#    0.000    2.000    1.667    0.000    7.000    0.667 
#    0.000    2.500    0.000    0.000    0.000    0.000 
#    0.000    0.000    0.000    0.000    0.000    0.000 
#
# Total GULP energy -67112.744684 kJ/mol
# GULP energy per Si atom -5592.728724 kJ/mol
# Density = 2.120448 g / cm^3
# Si number density = 21.252853 Si / 1000 Ang^3
#
#
#
# Elastic Constant Matrix: (Units=GPa)
#
#
# Indices 1 2 3 4 5 6 
#
# 1 45.9199 28.8524 29.1405 -1.2488 -3.8231 4.0799
# 2 28.8524 133.2515 77.4641 -5.8534 -1.7256 -15.9530
# 3 29.1405 77.4641 143.8763 4.2226 -25.1100 -19.9536
# 4 -1.2488 -5.8534 4.2226 18.8993 -0.4939 -10.0973
# 5 -3.8231 -1.7256 -25.1100 -0.4939 25.6462 -9.5071
# 6 4.0799 -15.9530 -19.9536 -10.0973 -9.5071 39.9618
#
#
#
# Elastic Compliance Matrix: (Units=1/GPa)
#
#
# Indices 1 2 3 4 5 6 
#
# 1 0.028272 -0.004251 -0.005514 -0.003357 -0.005011 -0.009377
# 2 -0.004251 0.012957 -0.006921 0.006457 -0.005496 0.002475
# 3 -0.005514 -0.006921 0.016531 -0.000101 0.018788 0.010499
# 4 -0.003357 0.006457 -0.000101 0.066661 0.009242 0.021912
# 5 -0.005011 -0.005496 0.018788 0.009242 0.065988 0.025733
# 6 -0.009377 0.002475 0.010499 0.021912 0.025733 0.043870
#
#
# Mechanical properties :
#
#
# Convention : Reuss Voigt Hill
#
# Bulk Modulus (GPa) = 41.00191 65.99574 53.49883
# Shear Modulus (GPa) = 18.13045 29.40751 23.76898
#
# Velocity S-wave (km/s) = 2.92393 3.72384 3.34786
# Velocity P-wave (km/s) = 5.54378 7.04339 6.33809
#
# Compressibility (1/GPa) = 0.02438911
#
# Stress axis : x y z
#
# Youngs Moduli (GPa) = 35.37100 77.17777 60.49197
#
# Poissons Ratio (x) = 0.32811 0.33352
# Poissons Ratio (y) = 0.15037 0.41864
# Poissons Ratio (z) = 0.19502 0.53411
#
# Static dielectric constant tensor:
#      x y z
#    x 1.794580 0.006220 -0.007420 
#    y 0.006220 1.746470 0.009760 
#    z -0.007420 0.009760 1.730930 
# 
# From -- ./inp_files/21827.got.cif
#   From: 2010.05.17/outbox.cif.g08.bks.cpg/sg2_11_cif.got.tgz:21827.got - 2010.06.03 11:33:40.
