data_PCOD9015360
_publ_section_title
;
Structure prediction by ZEFSAII (Michael W. Deem and Ramdas Pophale) SiO2 
 PCOD9015360
Probable space group: P -1
;
_chemical_formula_sum "Si O2"
_cell_formula_units_Z 14
_cell_length_a 6.792084
_cell_length_b 8.331745
_cell_length_c 20.670078
_cell_angle_alpha 127.601127
_cell_angle_beta 46.551951
_cell_angle_gamma 127.706290
_cell_volume 634.218813
_symmetry_space_group_name_H-M "P -1"
_symmetry_group_IT_number 2
_symmetry_cell_setting 'triclinic'
loop_
_space_group_symop_operation_xyz
x,y,z
-x,-y,-z
loop_
_atom_site_type_symbol
_atom_site_label
_atom_site_fract_x
_atom_site_fract_y
_atom_site_fract_z
Si Si1 0.836902 0.137367 0.111583
Si Si2 0.666264 0.481674 0.564539
Si Si3 0.420738 0.429148 0.073436
Si Si4 0.728437 0.848222 0.185177
Si Si5 0.659663 0.842734 0.863647
Si Si6 0.704373 0.420546 0.685869
Si Si7 0.213888 0.239381 0.508023
O O1 0.596672 0.159412 0.124555
O O2 0.073650 0.363513 0.133564
O O3 0.701058 0.013802 0.177361
O O4 0.000000 0.000000 0.000000
O O5 0.577165 0.450077 0.651672
O O6 0.464266 0.291766 0.517990
O O7 0.664381 0.688482 0.573925
O O8 0.000000 0.500000 0.500000
O O9 0.632846 0.623105 0.113771
O O10 0.439940 0.217910 0.054384
O O11 0.500000 0.500000 0.000000
O O12 0.516132 0.786424 0.278931
O O13 0.061608 0.946783 0.153175
O O14 0.746569 0.638440 0.769429
O O15 0.009479 0.382726 0.603397
O O16 0.000000 0.000000 0.500000
#
# Coordination Sequence:
#
# PCOD9015360 Si02
#       7
#     2   2   2   2   2   2   2
#     4  11  23  42  61  90 122 162 216 270 316 375
#     4   9  21  40  64  94 129 162 206 250 310 369
#     4  10  21  42  61  90 122 157 212 266 316 381
#     4  10  23  41  62  92 123 167 215 258 322 376
#     4  10  25  41  63  89 126 169 211 264 324 370
#     4  10  23  41  60  93 132 163 206 259 314 380
#     4  10  22  40  68  98 124 165 207 254 307 374
#
# _framework density 22.074397999999999
#
# number of rings (size 3 to 8) (size 9 to 14) (size 15 to 20)
#    0.000    2.000    1.429    0.000    0.000   17.714 
#    0.000    0.000    0.000    1.714    0.000    0.000 
#    0.000    0.000    0.000    0.000    0.000    0.000 
#
# Total GULP energy -78059.158344 kJ/mol
# GULP energy per Si atom -5575.654167 kJ/mol
# Density = 2.202416 g / cm^3
# Si number density = 22.074398 Si / 1000 Ang^3
#
#
#
# Elastic Constant Matrix: (Units=GPa)
#
#
# Indices 1 2 3 4 5 6 
#
# 1 169.9208 51.2439 45.0479 -13.2999 18.2174 34.3760
# 2 51.2439 145.7292 32.7457 -28.4198 10.0610 34.1767
# 3 45.0479 32.7457 78.3909 -22.9965 20.0848 -10.7793
# 4 -13.2999 -28.4198 -22.9965 46.0769 -14.8184 6.4433
# 5 18.2174 10.0610 20.0848 -14.8184 44.9066 -4.7427
# 6 34.3760 34.1767 -10.7793 6.4433 -4.7427 35.3615
#
#
#
# Elastic Compliance Matrix: (Units=1/GPa)
#
#
# Indices 1 2 3 4 5 6 
#
# 1 0.011128 0.002376 -0.008454 0.001996 -0.002336 -0.016367
# 2 0.002376 0.013874 -0.007396 0.008244 -0.000102 -0.019489
# 3 -0.008454 -0.007396 0.024999 0.001290 -0.003313 0.022307
# 4 0.001996 0.008244 0.001290 0.031893 0.005753 -0.014555
# 5 -0.002336 -0.000102 -0.003313 0.005753 0.027035 0.003937
# 6 -0.016367 -0.019489 0.022307 -0.014555 0.003937 0.073007
#
#
# Mechanical properties :
#
#
# Convention : Reuss Voigt Hill
#
# Bulk Modulus (GPa) = 43.37959 72.45731 57.91845
# Shear Modulus (GPa) = 23.08757 42.93592 33.01174
#
# Velocity S-wave (km/s) = 3.23754 4.41506 3.87133
# Velocity P-wave (km/s) = 5.80257 7.67371 6.80278
#
# Compressibility (1/GPa) = 0.02305232
#
# Stress axis : x y z
#
# Youngs Moduli (GPa) = 89.86593 72.07751 40.00227
#
# Poissons Ratio (x) = -0.17123 0.33817
# Poissons Ratio (y) = -0.21349 0.29585
# Poissons Ratio (z) = 0.75970 0.53307
#
# Static dielectric constant tensor:
#      x y z
#    x 1.793120 -0.023930 0.010760 
#    y -0.023930 1.832280 0.004610 
#    z 0.010760 0.004610 1.923130 
# 
# From -- ./inp_files/582459.got.cif
#   From: 2010.05.17/outbox.cif.g08.bks.cpg/sg2_292_cif.got.tgz:582459.got - 2010.06.03 11:33:40.
