data_PCOD9015157
_publ_section_title
;
Structure prediction by ZEFSAII (Michael W. Deem and Ramdas Pophale) SiO2 
 PCOD9015157
Probable space group: P -1
;
_chemical_formula_sum "Si O2"
_cell_formula_units_Z 14
_cell_length_a 7.185442
_cell_length_b 17.547265
_cell_length_c 6.924575
_cell_angle_alpha 137.915795
_cell_angle_beta 79.931649
_cell_angle_gamma 107.777030
_cell_volume 555.383716
_symmetry_space_group_name_H-M "P -1"
_symmetry_group_IT_number 2
_symmetry_cell_setting 'triclinic'
loop_
_space_group_symop_operation_xyz
x,y,z
-x,-y,-z
loop_
_atom_site_type_symbol
_atom_site_label
_atom_site_fract_x
_atom_site_fract_y
_atom_site_fract_z
Si Si1 0.977454 0.732515 0.746313
Si Si2 0.386547 0.083509 0.782173
Si Si3 0.183410 0.114209 0.221446
Si Si4 0.202284 0.578951 0.209732
Si Si5 0.292381 0.493138 0.426923
Si Si6 0.680774 0.291697 0.930369
Si Si7 0.047748 0.875502 0.372795
O O1 0.853068 0.778009 0.693327
O O2 0.844846 0.627768 0.699085
O O3 0.142417 0.685635 0.526297
O O4 0.059042 0.834848 0.076157
O O5 0.487433 0.210670 0.914648
O O6 0.500000 0.000000 0.500000
O O7 0.168540 0.011612 0.625917
O O8 0.370758 0.089692 0.030757
O O9 0.154023 0.142076 0.503187
O O10 0.000000 0.000000 0.000000
O O11 0.282983 0.508610 0.227768
O O12 0.348844 0.640277 0.129883
O O13 0.000000 0.500000 0.000000
O O14 0.500000 0.500000 0.500000
O O15 0.226074 0.602074 0.740120
O O16 0.826624 0.208428 0.707466
#
# Coordination Sequence:
#
# PCOD9015157 Si02
#       7
#     2   2   2   2   2   2   2
#     4  12  23  42  73 104 138 188 246 302 352 432
#     4   9  21  41  67  98 144 189 229 299 367 428
#     4  10  22  41  67 100 134 180 241 292 352 428
#     4  12  24  44  76 107 139 201 251 288 359 442
#     4  12  27  44  68 108 153 186 237 308 371 425
#     4  11  21  44  68 101 147 187 238 296 366 426
#     4  10  21  41  72 100 136 189 245 295 351 428
#
# _framework density 25.207796999999999
#
# number of rings (size 3 to 8) (size 9 to 14) (size 15 to 20)
#    0.000    1.143    4.286    2.143    0.000    2.857 
#    0.000    9.286    0.000    0.000    0.000    0.000 
#    0.000    0.000    0.000    0.000    0.000    0.000 
#
# Total GULP energy -78260.368790 kJ/mol
# GULP energy per Si atom -5590.026342 kJ/mol
# Density = 2.515042 g / cm^3
# Si number density = 25.207797 Si / 1000 Ang^3
#
#
#
# Elastic Constant Matrix: (Units=GPa)
#
#
# Indices 1 2 3 4 5 6 
#
# 1 69.9846 23.4713 14.0097 -14.6859 -11.9969 -4.4525
# 2 23.4713 148.5022 15.4877 -21.6879 -4.1983 -3.1081
# 3 14.0097 15.4877 94.9148 -25.7691 -23.6463 -2.7206
# 4 -14.6859 -21.6879 -25.7691 58.3946 3.3620 -5.6113
# 5 -11.9969 -4.1983 -23.6463 3.3620 40.5088 -10.4658
# 6 -4.4525 -3.1081 -2.7206 -5.6113 -10.4658 40.5380
#
#
#
# Elastic Compliance Matrix: (Units=1/GPa)
#
#
# Indices 1 2 3 4 5 6 
#
# 1 0.016843 -0.001920 0.000343 0.003704 0.005636 0.003694
# 2 -0.001920 0.007403 -0.000312 0.002191 0.000000 0.000639
# 3 0.000343 -0.000312 0.014667 0.006321 0.009204 0.004249
# 4 0.003704 0.002191 0.006321 0.021898 0.004541 0.005203
# 5 0.005636 0.000000 0.009204 0.004541 0.034108 0.010671
# 6 0.003694 0.000639 0.004249 0.005203 0.010671 0.028883
#
#
# Mechanical properties :
#
#
# Convention : Reuss Voigt Hill
#
# Bulk Modulus (GPa) = 28.46109 46.59323 37.52716
# Shear Modulus (GPa) = 35.89593 45.25047 40.57320
#
# Velocity S-wave (km/s) = 3.77769 4.24146 4.01627
# Velocity P-wave (km/s) = 5.50845 6.52000 6.03545
#
# Compressibility (1/GPa) = 0.03513568
#
# Stress axis : x y z
#
# Youngs Moduli (GPa) = 59.37300 135.07705 68.17986
#
# Poissons Ratio (x) = 0.25937 -0.02339
# Poissons Ratio (y) = 0.11401 0.02124
# Poissons Ratio (z) = -0.02037 0.04208
#
# Static dielectric constant tensor:
#      x y z
#    x 2.170180 -0.065990 0.027950 
#    y -0.065990 1.983580 -0.022570 
#    z 0.027950 -0.022570 2.054380 
# 
# From -- ./inp_files/34987.got.cif
#   From: 2010.05.17/outbox.cif.g08.bks.cpg/sg2_18_cif.got.tgz:34987.got - 2010.06.03 11:33:40.
