data_PCOD9015027
_publ_section_title
;
Structure prediction by ZEFSAII (Michael W. Deem and Ramdas Pophale) SiO2 
 PCOD9015027
Probable space group: P -1
;
_chemical_formula_sum "Si O2"
_cell_formula_units_Z 16
_cell_length_a 12.547850
_cell_length_b 19.133714
_cell_length_c 9.809353
_cell_angle_alpha 45.680025
_cell_angle_beta 132.303972
_cell_angle_gamma 153.899676
_cell_volume 733.449299
_symmetry_space_group_name_H-M "P -1"
_symmetry_group_IT_number 2
_symmetry_cell_setting 'triclinic'
loop_
_space_group_symop_operation_xyz
x,y,z
-x,-y,-z
loop_
_atom_site_type_symbol
_atom_site_label
_atom_site_fract_x
_atom_site_fract_y
_atom_site_fract_z
Si Si1 0.223713 0.330914 0.941363
Si Si2 0.401832 0.993027 0.787797
Si Si3 0.078787 0.639872 0.297834
Si Si4 0.055566 0.514786 0.186950
Si Si5 0.183938 0.274259 0.668611
Si Si6 0.492410 0.363846 0.595371
Si Si7 0.065095 0.145712 0.323140
Si Si8 0.264099 0.849193 0.590563
O O1 0.223102 0.292093 0.839317
O O2 0.070376 0.347934 0.794847
O O3 0.500000 0.500000 0.000000
O O4 0.097240 0.188968 0.133913
O O5 0.630680 0.183821 0.674925
O O6 0.342732 0.883447 0.768499
O O7 0.151293 0.909581 0.723068
O O8 0.500000 0.000000 0.000000
O O9 0.000000 0.500000 0.500000
O O10 0.017114 0.584175 0.161189
O O11 0.884618 0.329129 0.337555
O O12 0.339565 0.638039 0.279899
O O13 0.000000 0.500000 0.000000
O O14 0.315636 0.261709 0.713579
O O15 0.312503 0.441963 0.488576
O O16 0.903207 0.145161 0.573880
O O17 0.322777 0.301881 0.408119
O O18 0.000000 0.000000 0.500000
O O19 0.500000 0.000000 0.500000
#
# Coordination Sequence:
#
# PCOD9015027 Si02
#       8
#     2   2   2   2   2   2   2   2
#     4  12  26  43  72 102 139 184 239 290 348 424
#     4  12  24  44  71 101 140 187 235 286 352 414
#     4  12  26  46  71 104 141 182 235 290 346 421
#     4  11  25  42  70 100 134 180 234 285 340 421
#     4  10  21  41  70  97 132 180 230 279 348 418
#     4  10  21  43  68  98 136 180 229 281 350 421
#     4  12  26  45  69 101 139 185 232 292 355 417
#     4  11  23  42  66  99 137 181 224 284 352 406
#
# _framework density 21.814731999999999
#
# number of rings (size 3 to 8) (size 9 to 14) (size 15 to 20)
#    0.000    0.750    3.750    4.500    3.500    0.000 
#    0.000    0.625    0.000    0.000    0.000    0.000 
#    0.000    0.000    0.000    0.000    0.000    0.000 
#
# Total GULP energy -89467.875647 kJ/mol
# GULP energy per Si atom -5591.742228 kJ/mol
# Density = 2.176508 g / cm^3
# Si number density = 21.814732 Si / 1000 Ang^3
#
#
#
# Elastic Constant Matrix: (Units=GPa)
#
#
# Indices 1 2 3 4 5 6 
#
# 1 97.0351 18.6462 35.0815 3.9985 -19.0755 14.4762
# 2 18.6462 74.1019 11.6944 4.0347 -0.4999 20.6346
# 3 35.0815 11.6944 97.7002 4.5690 -16.0188 10.0441
# 4 3.9985 4.0347 4.5690 43.8560 -1.6549 -3.1387
# 5 -19.0755 -0.4999 -16.0188 -1.6549 38.9311 8.3569
# 6 14.4762 20.6346 10.0441 -3.1387 8.3569 43.9534
#
#
#
# Elastic Compliance Matrix: (Units=1/GPa)
#
#
# Indices 1 2 3 4 5 6 
#
# 1 0.013679 -0.001670 -0.003217 -0.000826 0.006230 -0.004230
# 2 -0.001670 0.016073 -0.000392 -0.001772 0.000690 -0.007164
# 3 -0.003217 -0.000392 0.012386 -0.000983 0.003992 -0.002416
# 4 -0.000826 -0.001772 -0.000983 0.023345 -0.000503 0.003092
# 5 0.006230 0.000690 0.003992 -0.000503 0.032405 -0.009485
# 6 -0.004230 -0.007164 -0.002416 0.003092 -0.009485 0.030084
#
#
# Mechanical properties :
#
#
# Convention : Reuss Voigt Hill
#
# Bulk Modulus (GPa) = 31.66398 44.40902 38.03650
# Shear Modulus (GPa) = 33.54420 38.90913 36.22666
#
# Velocity S-wave (km/s) = 3.92559 4.22787 4.07953
# Velocity P-wave (km/s) = 5.92397 6.65092 6.29794
#
# Compressibility (1/GPa) = 0.03158163
#
# Stress axis : x y z
#
# Youngs Moduli (GPa) = 73.10313 62.21653 80.73389
#
# Poissons Ratio (x) = 0.10387 0.25972
# Poissons Ratio (y) = 0.12205 0.03164
# Poissons Ratio (z) = 0.23517 0.02439
#
# Static dielectric constant tensor:
#      x y z
#    x 1.794510 -0.045250 -0.021710 
#    y -0.045250 1.957850 -0.117670 
#    z -0.021710 -0.117670 1.836270 
# 
# From -- ./inp_files/244454.got.cif
#   From: 2010.05.17/outbox.cif.g08.bks.cpg/sg2_123_cif.got.tgz:244454.got - 2010.06.03 11:33:40.
