data_PCOD9015610
_publ_section_title
;
Structure prediction by ZEFSAII (Michael W. Deem and Ramdas Pophale) SiO2 
 PCOD9015610
Probable space group: P -1
;
_chemical_formula_sum "Si O2"
_cell_formula_units_Z 10
_cell_length_a 16.739318
_cell_length_b 16.173456
_cell_length_c 12.987522
_cell_angle_alpha 157.250639
_cell_angle_beta 152.209985
_cell_angle_gamma 17.751854
_cell_volume 413.959769
_symmetry_space_group_name_H-M "P -1"
_symmetry_group_IT_number 2
_symmetry_cell_setting 'triclinic'
loop_
_space_group_symop_operation_xyz
x,y,z
-x,-y,-z
loop_
_atom_site_type_symbol
_atom_site_label
_atom_site_fract_x
_atom_site_fract_y
_atom_site_fract_z
Si Si1 0.761918 0.890935 0.661014
Si Si2 0.741838 0.712239 0.016121
Si Si3 0.304559 0.680789 0.752728
Si Si4 0.925983 0.707588 0.421199
Si Si5 0.844235 0.305541 0.835359
O O1 0.795143 0.939127 0.636403
O O2 0.000000 0.500000 0.500000
O O3 0.500000 0.000000 0.500000
O O4 0.751774 0.096499 0.964343
O O5 0.755231 0.467712 0.806570
O O6 0.755459 0.861325 0.299363
O O7 0.000000 0.500000 0.000000
O O8 0.500000 0.000000 0.000000
O O9 0.593694 0.453894 0.780517
O O10 0.205176 0.548620 0.532109
O O11 0.098238 0.920401 0.699289
O O12 0.938914 0.441754 0.149232
#
# Coordination Sequence:
#
# PCOD9015610 Si02
#       5
#     2   2   2   2   2
#     4  12  21  40  63  90 128 165 195 253 308 362
#     4  10  21  42  64  87 123 163 201 259 310 350
#     4  12  22  43  63  96 124 164 204 248 310 373
#     4  10  25  40  68  91 125 165 207 252 306 368
#     4  10  24  41  65  88 131 155 207 257 304 359
#
# _framework density 24.156936000000002
#
# number of rings (size 3 to 8) (size 9 to 14) (size 15 to 20)
#    1.200    0.000    4.000    1.800    0.000    6.400 
#    0.000   10.000    0.000    0.000    0.000    0.000 
#    0.000    0.000    0.000    0.000    0.000    0.000 
#
# Total GULP energy -55874.802266 kJ/mol
# GULP energy per Si atom -5587.480227 kJ/mol
# Density = 2.410195 g / cm^3
# Si number density = 24.156936 Si / 1000 Ang^3
#
#
#
# Elastic Constant Matrix: (Units=GPa)
#
#
# Indices 1 2 3 4 5 6 
#
# 1 168.1918 53.4324 54.5636 -17.8490 -2.7326 -22.1393
# 2 53.4324 123.5145 42.4926 -21.4200 9.9836 -23.7573
# 3 54.5636 42.4926 75.1462 -21.1555 13.7089 -7.0353
# 4 -17.8490 -21.4200 -21.1555 27.2253 -6.7626 2.1038
# 5 -2.7326 9.9836 13.7089 -6.7626 57.8052 -24.8232
# 6 -22.1393 -23.7573 -7.0353 2.1038 -24.8232 39.7988
#
#
#
# Elastic Compliance Matrix: (Units=1/GPa)
#
#
# Indices 1 2 3 4 5 6 
#
# 1 0.009339 -0.000756 -0.006257 0.001416 0.005124 0.006759
# 2 -0.000756 0.012194 -0.004561 0.005677 0.002833 0.007519
# 3 -0.006257 -0.004561 0.023751 0.009565 -0.006965 -0.006855
# 4 0.001416 0.005677 0.009565 0.050430 0.005590 0.006688
# 5 0.005124 0.002833 -0.006965 0.005590 0.028208 0.020609
# 6 0.006759 0.007519 -0.006855 0.006688 0.020609 0.044663
#
#
# Mechanical properties :
#
#
# Convention : Reuss Voigt Hill
#
# Bulk Modulus (GPa) = 45.17396 74.20333 59.68864
# Shear Modulus (GPa) = 25.11152 39.39011 32.25082
#
# Velocity S-wave (km/s) = 3.22765 4.04244 3.65780
# Velocity P-wave (km/s) = 5.71236 7.25068 6.52700
#
# Compressibility (1/GPa) = 0.02213665
#
# Stress axis : x y z
#
# Youngs Moduli (GPa) = 107.08142 82.00613 42.10308
#
# Poissons Ratio (x) = 0.06200 0.26342
# Poissons Ratio (y) = 0.08095 0.19204
# Poissons Ratio (z) = 0.66996 0.37404
#
# Static dielectric constant tensor:
#      x y z
#    x 1.951270 0.076460 -0.012160 
#    y 0.076460 1.904980 0.029970 
#    z -0.012160 0.029970 1.951630 
# 
# From -- ./inp_files/796.got.cif
#   From: 2010.05.17/outbox.cif.g08.bks.cpg/sg2_1_cif.got.tgz:796.got - 2010.06.03 11:33:40.
