data_PCOD9015218
_publ_section_title
;
Structure prediction by ZEFSAII (Michael W. Deem and Ramdas Pophale) SiO2 
 PCOD9015218
Probable space group: P -1
;
_chemical_formula_sum "Si O2"
_cell_formula_units_Z 16
_cell_length_a 9.394073
_cell_length_b 8.843796
_cell_length_c 15.553318
_cell_angle_alpha 140.880491
_cell_angle_beta 97.972713
_cell_angle_gamma 67.690915
_cell_volume 726.884922
_symmetry_space_group_name_H-M "P -1"
_symmetry_group_IT_number 2
_symmetry_cell_setting 'triclinic'
loop_
_space_group_symop_operation_xyz
x,y,z
-x,-y,-z
loop_
_atom_site_type_symbol
_atom_site_label
_atom_site_fract_x
_atom_site_fract_y
_atom_site_fract_z
Si Si1 0.167832 0.114571 0.331351
Si Si2 0.875831 0.086712 0.945777
Si Si3 0.619425 0.162064 0.264012
Si Si4 0.950459 0.001687 0.400686
Si Si5 0.509593 0.191001 0.663725
Si Si6 0.584672 0.199977 0.091869
Si Si7 0.201665 0.329854 0.816236
Si Si8 0.698385 0.519597 0.546487
O O1 0.346524 0.950097 0.317273
O O2 0.171726 0.396452 0.443602
O O3 0.113864 0.069196 0.210962
O O4 0.059669 0.055282 0.364609
O O5 0.706223 0.134221 0.994604
O O6 0.863691 0.365369 0.032244
O O7 0.000000 0.000000 0.000000
O O8 0.677542 0.133080 0.159822
O O9 0.629122 0.422886 0.418030
O O10 0.432879 0.245687 0.304875
O O11 0.721860 0.886870 0.198497
O O12 0.777508 0.251261 0.489208
O O13 0.936960 0.732516 0.261503
O O14 0.000000 0.000000 0.500000
O O15 0.514471 0.475282 0.767836
O O16 0.342167 0.270086 0.732991
O O17 0.500000 0.000000 0.500000
O O18 0.500000 0.000000 0.000000
#
# Coordination Sequence:
#
# PCOD9015218 Si02
#       8
#     2   2   2   2   2   2   2   2
#     4  12  25  44  70  99 139 184 226 283 343 409
#     4  11  29  48  66  96 141 191 228 276 345 419
#     4  10  21  41  72  99 131 174 227 288 342 406
#     4  11  26  41  68 103 138 175 225 285 348 416
#     4  11  24  44  73 103 136 177 231 290 353 408
#     4  11  26  42  72 102 137 178 237 286 340 411
#     4  10  24  46  67  94 138 176 232 282 344 411
#     4  10  22  41  68 100 135 174 224 282 353 404
#
# _framework density 22.011735999999999
#
# number of rings (size 3 to 8) (size 9 to 14) (size 15 to 20)
#    0.000    1.250    1.250    2.625   12.250    3.500 
#    0.000    0.000    0.000    0.000    0.000    0.000 
#    0.000    0.000    0.000    0.000    0.000    0.000 
#
# Total GULP energy -89154.527585 kJ/mol
# GULP energy per Si atom -5572.157974 kJ/mol
# Density = 2.196164 g / cm^3
# Si number density = 22.011736 Si / 1000 Ang^3
#
#
#
# Elastic Constant Matrix: (Units=GPa)
#
#
# Indices 1 2 3 4 5 6 
#
# 1 75.7951 7.2910 31.8517 -0.8271 22.8239 13.5933
# 2 7.2910 67.0843 40.0387 -7.7880 12.8726 16.5572
# 3 31.8517 40.0387 81.0235 -6.5678 19.3379 16.5775
# 4 -0.8271 -7.7880 -6.5678 42.8638 13.5364 4.3454
# 5 22.8239 12.8726 19.3379 13.5364 28.7527 6.4748
# 6 13.5933 16.5572 16.5775 4.3454 6.4748 32.8606
#
#
#
# Elastic Compliance Matrix: (Units=1/GPa)
#
#
# Indices 1 2 3 4 5 6 
#
# 1 0.021863 0.007204 -0.005613 0.007510 -0.018732 -0.007144
# 2 0.007204 0.025747 -0.010047 0.008081 -0.012140 -0.009561
# 3 -0.005613 -0.010047 0.022148 0.004022 -0.007181 -0.002906
# 4 0.007510 0.008081 0.004022 0.034883 -0.026784 -0.008543
# 5 -0.018732 -0.012140 -0.007181 -0.026784 0.070935 0.007053
# 6 -0.007144 -0.009561 -0.002906 -0.008543 0.007053 0.039410
#
#
# Mechanical properties :
#
#
# Convention : Reuss Voigt Hill
#
# Bulk Modulus (GPa) = 18.92289 42.47396 30.69843
# Shear Modulus (GPa) = 20.03888 30.54352 25.29120
#
# Velocity S-wave (km/s) = 3.02051 3.72909 3.39335
# Velocity P-wave (km/s) = 4.55851 6.15463 5.41569
#
# Compressibility (1/GPa) = 0.05284605
#
# Stress axis : x y z
#
# Youngs Moduli (GPa) = 45.73872 38.83911 45.15063
#
# Poissons Ratio (x) = -0.27978 0.25345
# Poissons Ratio (y) = -0.32949 0.45361
# Poissons Ratio (z) = 0.25675 0.39020
#
# Static dielectric constant tensor:
#      x y z
#    x 1.898240 -0.049110 -0.029400 
#    y -0.049110 1.802990 0.050200 
#    z -0.029400 0.050200 1.805470 
# 
# From -- ./inp_files/495875.got.cif
#   From: 2010.05.17/outbox.cif.g08.bks.cpg/sg2_248_cif.got.tgz:495875.got - 2010.06.03 11:33:40.
