data_PCOD9015445
_publ_section_title
;
Structure prediction by ZEFSAII (Michael W. Deem and Ramdas Pophale) SiO2 
 PCOD9015445
Probable space group: P -1
;
_chemical_formula_sum "Si O2"
_cell_formula_units_Z 16
_cell_length_a 15.329405
_cell_length_b 7.726903
_cell_length_c 12.203140
_cell_angle_alpha 97.265088
_cell_angle_beta 152.443208
_cell_angle_gamma 75.875830
_cell_volume 635.341555
_symmetry_space_group_name_H-M "P -1"
_symmetry_group_IT_number 2
_symmetry_cell_setting 'triclinic'
loop_
_space_group_symop_operation_xyz
x,y,z
-x,-y,-z
loop_
_atom_site_type_symbol
_atom_site_label
_atom_site_fract_x
_atom_site_fract_y
_atom_site_fract_z
Si Si1 0.414255 0.322222 0.587140
Si Si2 0.942336 0.144064 0.761712
Si Si3 0.768274 0.082040 0.241616
Si Si4 0.987777 0.713437 0.757407
Si Si5 0.820173 0.420153 0.824767
Si Si6 0.419949 0.783725 0.759011
Si Si7 0.288348 0.565605 0.906541
Si Si8 0.358271 0.060378 0.140322
O O1 0.361197 0.441049 0.427767
O O2 0.552990 0.393932 0.828664
O O3 0.215332 0.317383 0.429964
O O4 0.531162 0.112154 0.678136
O O5 0.869584 0.223859 0.805151
O O6 0.782208 0.258547 0.505662
O O7 0.964397 0.930130 0.752170
O O8 0.155702 0.169466 0.978207
O O9 0.664580 0.053291 0.235902
O O10 0.720545 0.301013 0.193924
O O11 0.000000 0.000000 0.500000
O O12 0.698462 0.013556 0.045935
O O13 0.158263 0.615686 0.026047
O O14 0.075661 0.627030 0.732661
O O15 0.000000 0.500000 0.000000
O O16 0.611289 0.646183 0.016137
O O17 0.495777 0.831183 0.729862
#
# Coordination Sequence:
#
# PCOD9015445 Si02
#       8
#     2   2   2   2   2   2   2   2
#     4  10  21  42  62  94 130 169 209 272 312 379
#     4  12  22  44  65  96 133 169 219 268 320 384
#     4  11  22  45  66  95 134 169 212 271 321 381
#     4  11  22  43  65  93 131 173 216 265 329 373
#     4  10  24  41  66  96 134 166 216 276 318 382
#     4  12  24  41  68  98 129 174 218 261 327 382
#     4  11  24  42  67  96 131 169 217 267 320 384
#     4  11  24  41  69  93 133 174 214 261 324 390
#
# _framework density 25.183306000000002
#
# number of rings (size 3 to 8) (size 9 to 14) (size 15 to 20)
#    0.000    1.000    6.250    1.125    3.500    0.500 
#    0.000    3.125    0.000    0.000    0.000    0.000 
#    0.000    0.000    0.000    0.000    0.000    0.000 
#
# Total GULP energy -89491.152740 kJ/mol
# GULP energy per Si atom -5593.197046 kJ/mol
# Density = 2.512599 g / cm^3
# Si number density = 25.183306 Si / 1000 Ang^3
#
#
#
# Elastic Constant Matrix: (Units=GPa)
#
#
# Indices 1 2 3 4 5 6 
#
# 1 90.6327 9.2935 15.3185 -4.4556 18.4209 4.4137
# 2 9.2935 67.8977 16.9284 -24.8259 12.2507 0.5341
# 3 15.3185 16.9284 101.9024 -22.0433 18.4857 10.3125
# 4 -4.4556 -24.8259 -22.0433 40.5494 0.5357 -4.1152
# 5 18.4209 12.2507 18.4857 0.5357 38.6354 -7.2621
# 6 4.4137 0.5341 10.3125 -4.1152 -7.2621 23.4968
#
#
#
# Elastic Compliance Matrix: (Units=1/GPa)
#
#
# Indices 1 2 3 4 5 6 
#
# 1 0.012695 -0.000111 0.000002 0.000979 -0.006845 -0.004327
# 2 -0.000111 0.020626 0.000794 0.013069 -0.007186 -0.000729
# 3 0.000002 0.000794 0.013431 0.007168 -0.008126 -0.007169
# 4 0.000979 0.013069 0.007168 0.036798 -0.008516 0.000186
# 5 -0.006845 -0.007186 -0.008126 -0.008516 0.038320 0.015367
# 6 -0.004327 -0.000729 -0.007169 0.000186 0.015367 0.051317
#
#
# Mechanical properties :
#
#
# Convention : Reuss Voigt Hill
#
# Bulk Modulus (GPa) = 20.78054 38.16818 29.47436
# Shear Modulus (GPa) = 26.61602 35.12912 30.87257
#
# Velocity S-wave (km/s) = 3.25451 3.73894 3.50510
# Velocity P-wave (km/s) = 4.73203 5.81623 5.30192
#
# Compressibility (1/GPa) = 0.04812195
#
# Stress axis : x y z
#
# Youngs Moduli (GPa) = 78.77252 48.48319 74.45328
#
# Poissons Ratio (x) = 0.00537 -0.00011
# Poissons Ratio (y) = 0.00873 -0.05915
# Poissons Ratio (z) = -0.00012 -0.03852
#
# Static dielectric constant tensor:
#      x y z
#    x 1.955110 0.021350 0.001020 
#    y 0.021350 2.117080 0.015300 
#    z 0.001020 0.015300 1.967160 
# 
# From -- ./inp_files/202451.got.cif
#   From: 2010.05.17/outbox.cif.g08.bks.cpg/sg2_102_cif.got.tgz:202451.got - 2010.06.03 11:33:40.
