data_PCOD9015014
_publ_section_title
;
Structure prediction by ZEFSAII (Michael W. Deem and Ramdas Pophale) SiO2 
 PCOD9015014
Probable space group: P -1
;
_chemical_formula_sum "Si O2"
_cell_formula_units_Z 16
_cell_length_a 29.456888
_cell_length_b 16.636594
_cell_length_c 9.384276
_cell_angle_alpha 133.302157
_cell_angle_beta 143.212999
_cell_angle_gamma 18.144311
_cell_volume 784.810570
_symmetry_space_group_name_H-M "P -1"
_symmetry_group_IT_number 2
_symmetry_cell_setting 'triclinic'
loop_
_space_group_symop_operation_xyz
x,y,z
-x,-y,-z
loop_
_atom_site_type_symbol
_atom_site_label
_atom_site_fract_x
_atom_site_fract_y
_atom_site_fract_z
Si Si1 0.284806 0.785086 0.243473
Si Si2 0.719857 0.716680 0.766721
Si Si3 0.763950 0.910363 0.503933
Si Si4 0.912785 0.380589 0.559341
Si Si5 0.915863 0.672814 0.283898
Si Si6 0.862800 0.355932 0.932444
Si Si7 0.974883 0.043370 0.322741
Si Si8 0.592460 0.765660 0.009547
O O1 0.500000 0.500000 0.500000
O O2 0.262890 0.935640 0.300227
O O3 0.226916 0.751436 0.972492
O O4 0.091309 0.050638 0.178115
O O5 0.869647 0.476472 0.728079
O O6 0.782277 0.561569 0.875882
O O7 0.500000 0.000000 0.500000
O O8 0.757764 0.794390 0.989434
O O9 0.867313 0.781263 0.452238
O O10 0.888865 0.660499 0.609822
O O11 0.563522 0.119666 0.221631
O O12 0.984103 0.159651 0.454921
O O13 0.043467 0.289041 0.684930
O O14 0.702617 0.655855 0.292691
O O15 0.742259 0.519668 0.970833
O O16 0.862477 0.245156 0.702498
O O17 0.000000 0.000000 0.500000
O O18 0.500000 0.000000 0.000000
#
# Coordination Sequence:
#
# PCOD9015014 Si02
#       8
#     2   2   2   2   2   2   2   2
#     4  10  21  41  70  96 131 182 236 280 345 406
#     4  12  24  42  68  98 139 183 225 285 359 425
#     4  11  22  41  66  97 140 171 227 289 350 398
#     4  12  23  40  68  99 132 179 236 277 348 423
#     4  11  23  41  65 100 136 176 223 293 348 403
#     4  10  23  44  69  96 140 180 232 280 352 406
#     4  10  22  45  70  94 141 188 226 287 353 409
#     4  12  23  40  69 105 137 179 229 288 350 416
#
# _framework density 20.387086
#
# number of rings (size 3 to 8) (size 9 to 14) (size 15 to 20)
#    0.750    0.250    3.750    4.125    0.000    0.500 
#    2.250    0.000    0.000    1.500    0.000    0.000 
#    0.000    0.000    0.000    0.000    0.000    0.000 
#
# Total GULP energy -89181.848703 kJ/mol
# GULP energy per Si atom -5573.865544 kJ/mol
# Density = 2.034068 g / cm^3
# Si number density = 20.387086 Si / 1000 Ang^3
#
#
#
# Elastic Constant Matrix: (Units=GPa)
#
#
# Indices 1 2 3 4 5 6 
#
# 1 82.9840 32.6408 22.3980 7.8238 5.5688 11.9135
# 2 32.6408 91.4516 31.0066 5.4768 8.1355 6.7223
# 3 22.3980 31.0066 99.6820 2.3589 7.6265 7.9327
# 4 7.8238 5.4768 2.3589 45.6655 3.3901 7.0062
# 5 5.5688 8.1355 7.6265 3.3901 29.3931 10.3933
# 6 11.9135 6.7223 7.9327 7.0062 10.3933 32.6976
#
#
#
# Elastic Compliance Matrix: (Units=1/GPa)
#
#
# Indices 1 2 3 4 5 6 
#
# 1 0.014906 -0.004421 -0.001657 -0.001360 0.000383 -0.003951
# 2 -0.004421 0.013785 -0.003140 -0.000627 -0.002225 0.000380
# 3 -0.001657 -0.003140 0.011577 0.000350 -0.001446 -0.001175
# 4 -0.001360 -0.000627 0.000350 0.022880 -0.000851 -0.004092
# 5 0.000383 -0.002225 -0.001446 -0.000851 0.039136 -0.011589
# 6 -0.003951 0.000380 -0.001175 -0.004092 -0.011589 0.036790
#
#
# Mechanical properties :
#
#
# Convention : Reuss Voigt Hill
#
# Bulk Modulus (GPa) = 45.80260 49.57871 47.69065
# Shear Modulus (GPa) = 30.34246 34.08939 32.21593
#
# Velocity S-wave (km/s) = 3.86206 4.09358 3.97950
# Velocity P-wave (km/s) = 6.51173 6.83481 6.67522
#
# Compressibility (1/GPa) = 0.02183282
#
# Stress axis : x y z
#
# Youngs Moduli (GPa) = 67.08564 72.54446 86.38090
#
# Poissons Ratio (x) = 0.32070 0.14313
# Poissons Ratio (y) = 0.29657 0.27120
# Poissons Ratio (z) = 0.11116 0.22776
#
# Static dielectric constant tensor:
#      x y z
#    x 1.697510 0.011520 0.026040 
#    y 0.011520 1.682560 -0.021040 
#    z 0.026040 -0.021040 1.754510 
# 
# From -- ./inp_files/357446.got.cif
#   From: 2010.05.17/outbox.cif.g08.bks.cpg/sg2_179_cif.got.tgz:357446.got - 2010.06.03 11:33:40.
