data_PCOD9015181
_publ_section_title
;
Structure prediction by ZEFSAII (Michael W. Deem and Ramdas Pophale) SiO2 
 PCOD9015181
Probable space group: P -1
;
_chemical_formula_sum "Si O2"
_cell_formula_units_Z 13
_cell_length_a 5.036792
_cell_length_b 19.889335
_cell_length_c 5.361323
_cell_angle_alpha 73.244600
_cell_angle_beta 94.466785
_cell_angle_gamma 68.775020
_cell_volume 469.300928
_symmetry_space_group_name_H-M "P -1"
_symmetry_group_IT_number 2
_symmetry_cell_setting 'triclinic'
loop_
_space_group_symop_operation_xyz
x,y,z
-x,-y,-z
loop_
_atom_site_type_symbol
_atom_site_label
_atom_site_fract_x
_atom_site_fract_y
_atom_site_fract_z
Si Si1 0.572979 0.858636 0.194942
Si Si2 0.500000 0.000000 0.000000
Si Si3 0.665803 0.221601 0.338699
Si Si4 0.049495 0.934954 0.767043
Si Si5 0.074067 0.268966 0.033647
Si Si6 0.843250 0.404666 0.517358
Si Si7 0.246014 0.456064 0.266343
O O1 0.418108 0.810964 0.380568
O O2 0.797865 0.801432 0.078758
O O3 0.305758 0.936167 0.973831
O O4 0.671053 0.914142 0.306030
O O5 0.755250 0.952314 0.867041
O O6 0.783126 0.148468 0.243323
O O7 0.360220 0.279275 0.137130
O O8 0.913057 0.253610 0.280310
O O9 0.000000 0.000000 0.500000
O O10 0.861718 0.339502 0.781102
O O11 0.152414 0.390284 0.435188
O O12 0.782278 0.481014 0.592549
O O13 0.589327 0.421072 0.277618
O O14 0.000000 0.500000 0.000000
#
# Coordination Sequence:
#
# PCOD9015181 Si02
#       7
#     2   1   2   2   2   2   2
#     4  11  26  40  63  94 128 172 231 285 344 419
#     4  12  22  40  66  88 124 172 228 284 350 410
#     4  11  25  42  65  92 131 177 229 281 349 414
#     4  11  24  39  61  91 123 169 224 290 349 407
#     4  11  25  45  65  96 137 182 222 285 345 411
#     4  10  22  42  68 102 144 181 232 285 342 416
#     4  10  21  41  72 106 139 181 230 284 341 412
#
# _framework density 27.700776000000001
#
# number of rings (size 3 to 8) (size 9 to 14) (size 15 to 20)
#    0.000    1.231    3.077    1.846    2.154    1.846 
#    0.000    3.077    0.000    0.000    0.000    0.000 
#    0.000    0.000    0.000    0.000    0.000    0.000 
#
# Total GULP energy -72636.098222 kJ/mol
# GULP energy per Si atom -5587.392171 kJ/mol
# Density = 2.763773 g / cm^3
# Si number density = 27.700776 Si / 1000 Ang^3
#
#
#
# Elastic Constant Matrix: (Units=GPa)
#
#
# Indices 1 2 3 4 5 6 
#
# 1 175.2583 19.3875 63.5228 -2.1735 -14.7099 -22.5484
# 2 19.3875 111.7178 8.4721 9.6909 -13.2804 -2.0423
# 3 63.5228 8.4721 137.1089 -17.2822 -14.9450 -12.2369
# 4 -2.1735 9.6909 -17.2822 39.5743 -2.4200 1.4291
# 5 -14.7099 -13.2804 -14.9450 -2.4200 57.8070 1.5146
# 6 -22.5484 -2.0423 -12.2369 1.4291 1.5146 22.4226
#
#
#
# Elastic Compliance Matrix: (Units=1/GPa)
#
#
# Indices 1 2 3 4 5 6 
#
# 1 0.007723 -0.000832 -0.003007 -0.000855 0.000802 0.006050
# 2 -0.000832 0.009541 -0.000321 -0.002408 0.001799 -0.000111
# 3 -0.003007 -0.000321 0.009581 0.004141 0.001764 0.001792
# 4 -0.000855 -0.002408 0.004141 0.027735 0.001479 -0.000687
# 5 0.000802 0.001799 0.001764 0.001479 0.018419 0.000595
# 6 0.006050 -0.000111 0.001792 -0.000687 0.000595 0.051653
#
#
# Mechanical properties :
#
#
# Convention : Reuss Voigt Hill
#
# Bulk Modulus (GPa) = 53.98604 67.42775 60.70689
# Shear Modulus (GPa) = 35.93332 46.14095 41.03714
#
# Velocity S-wave (km/s) = 3.60557 4.08572 3.85313
# Velocity P-wave (km/s) = 6.07164 6.83021 6.46206
#
# Compressibility (1/GPa) = 0.01852331
#
# Stress axis : x y z
#
# Youngs Moduli (GPa) = 129.48546 104.81479 104.37708
#
# Poissons Ratio (x) = 0.08722 0.31386
# Poissons Ratio (y) = 0.10774 0.03355
# Poissons Ratio (z) = 0.38935 0.03369
#
# Static dielectric constant tensor:
#      x y z
#    x 2.362770 0.059540 0.050600 
#    y 0.059540 2.152940 -0.144900 
#    z 0.050600 -0.144900 2.561490 
# 
# From -- ./inp_files/8786.got.cif
#   From: 2010.05.17/outbox.cif.g08.bks.cpg/sg2_5_cif.got.tgz:8786.got - 2010.06.03 11:33:40.
