data_PCOD9015503
_publ_section_title
;
Structure prediction by ZEFSAII (Michael W. Deem and Ramdas Pophale) SiO2 
 PCOD9015503
Probable space group: P -1
;
_chemical_formula_sum "Si O2"
_cell_formula_units_Z 16
_cell_length_a 25.630142
_cell_length_b 8.878822
_cell_length_c 12.665765
_cell_angle_alpha 30.917824
_cell_angle_beta 30.107596
_cell_angle_gamma 37.205412
_cell_volume 726.198397
_symmetry_space_group_name_H-M "P -1"
_symmetry_group_IT_number 2
_symmetry_cell_setting 'triclinic'
loop_
_space_group_symop_operation_xyz
x,y,z
-x,-y,-z
loop_
_atom_site_type_symbol
_atom_site_label
_atom_site_fract_x
_atom_site_fract_y
_atom_site_fract_z
Si Si1 0.764449 0.911239 0.512641
Si Si2 0.108983 0.927821 0.598205
Si Si3 0.762813 0.717794 0.242944
Si Si4 0.952062 0.859828 0.068623
Si Si5 0.382031 0.508955 0.662824
Si Si6 0.552801 0.699555 0.529904
Si Si7 0.085789 0.197094 0.256431
Si Si8 0.674671 0.384255 0.073858
O O1 0.833190 0.884851 0.300666
O O2 0.826414 0.000171 0.454357
O O3 0.666000 0.186406 0.499346
O O4 0.733033 0.595350 0.776879
O O5 0.150487 0.580809 0.696021
O O6 0.118624 0.136483 0.356922
O O7 0.986793 0.983203 0.822678
O O8 0.658376 0.580199 0.485017
O O9 0.722563 0.027056 0.192321
O O10 0.814872 0.834154 0.977373
O O11 0.018803 0.526075 0.155709
O O12 0.000000 0.000000 0.000000
O O13 0.500000 0.500000 0.500000
O O14 0.398262 0.254142 0.698851
O O15 0.317341 0.510066 0.882569
O O16 0.451012 0.549875 0.779649
O O17 0.500000 0.000000 0.500000
O O18 0.000000 0.000000 0.500000
#
# Coordination Sequence:
#
# PCOD9015503 Si02
#       8
#     2   2   2   2   2   2   2   2
#     4  11  22  39  65  97 126 169 216 262 316 385
#     4  10  23  41  65  91 128 176 213 261 325 379
#     4  10  21  42  63  91 131 170 211 261 325 378
#     4   9  22  40  61  90 130 162 212 264 318 379
#     4  10  22  40  64  95 130 165 209 264 319 370
#     4   9  19  40  63  90 126 166 204 260 314 375
#     4  11  24  40  62  92 126 165 222 269 311 381
#     4  10  23  37  66  94 130 167 216 264 313 372
#
# _framework density 22.032547999999998
#
# number of rings (size 3 to 8) (size 9 to 14) (size 15 to 20)
#    0.000    2.000    1.250    0.750    1.750   10.000 
#    0.000    0.000    0.000    6.750    0.000    0.000 
#    0.000    0.000    0.000    0.000    0.000    0.000 
#
# Total GULP energy -89140.991201 kJ/mol
# GULP energy per Si atom -5571.311950 kJ/mol
# Density = 2.198240 g / cm^3
# Si number density = 22.032548 Si / 1000 Ang^3
#
#
#
# Elastic Constant Matrix: (Units=GPa)
#
#
# Indices 1 2 3 4 5 6 
#
# 1 76.2340 19.9227 18.3653 7.8268 0.8671 -4.3128
# 2 19.9227 85.5984 8.2418 26.8051 -7.0788 16.9706
# 3 18.3653 8.2418 59.9698 9.5629 -9.0883 3.8575
# 4 7.8268 26.8051 9.5629 26.1067 7.3777 1.4163
# 5 0.8671 -7.0788 -9.0883 7.3777 31.0143 1.0780
# 6 -4.3128 16.9706 3.8575 1.4163 1.0780 25.8477
#
#
#
# Elastic Compliance Matrix: (Units=1/GPa)
#
#
# Indices 1 2 3 4 5 6 
#
# 1 0.016469 -0.007212 -0.006404 0.005969 -0.005693 0.008349
# 2 -0.007212 0.028786 0.007702 -0.034170 0.017857 -0.020125
# 3 -0.006404 0.007702 0.022975 -0.017633 0.013182 -0.009138
# 4 0.005969 -0.034170 -0.017633 0.086578 -0.034519 0.022758
# 5 -0.005693 0.017857 0.013182 -0.034519 0.049066 -0.014796
# 6 0.008349 -0.020125 -0.009138 0.022758 -0.014796 0.054028
#
#
# Mechanical properties :
#
#
# Convention : Reuss Voigt Hill
#
# Bulk Modulus (GPa) = 17.72973 34.98463 26.35718
# Shear Modulus (GPa) = 17.32904 28.27858 22.80381
#
# Velocity S-wave (km/s) = 2.80754 3.58647 3.22064
# Velocity P-wave (km/s) = 4.30978 5.75008 5.08122
#
# Compressibility (1/GPa) = 0.05640245
#
# Stress axis : x y z
#
# Youngs Moduli (GPa) = 60.71903 34.73856 43.52554
#
# Poissons Ratio (x) = 0.25053 0.27874
# Poissons Ratio (y) = 0.43790 -0.33523
# Poissons Ratio (z) = 0.38885 -0.26755
#
# Static dielectric constant tensor:
#      x y z
#    x 1.925690 0.004630 -0.036310 
#    y 0.004630 1.821690 0.047560 
#    z -0.036310 0.047560 1.807280 
# 
# From -- ./inp_files/273426.got.cif
#   From: 2010.05.17/outbox.cif.g08.bks.cpg/sg2_137_cif.got.tgz:273426.got - 2010.06.03 11:33:40.
