data_PCOD9015778
_publ_section_title
;
Structure prediction by ZEFSAII (Michael W. Deem and Ramdas Pophale) SiO2 
 PCOD9015778
Probable space group: P -1
;
_chemical_formula_sum "Si O2"
_cell_formula_units_Z 16
_cell_length_a 16.421365
_cell_length_b 12.500737
_cell_length_c 19.461626
_cell_angle_alpha 45.677205
_cell_angle_beta 158.922675
_cell_angle_gamma 145.625457
_cell_volume 759.307909
_symmetry_space_group_name_H-M "P -1"
_symmetry_group_IT_number 2
_symmetry_cell_setting 'triclinic'
loop_
_space_group_symop_operation_xyz
x,y,z
-x,-y,-z
loop_
_atom_site_type_symbol
_atom_site_label
_atom_site_fract_x
_atom_site_fract_y
_atom_site_fract_z
Si Si1 0.249342 0.365026 0.920140
Si Si2 0.338976 0.069986 0.377136
Si Si3 0.885551 0.379816 0.246303
Si Si4 0.238747 0.696011 0.268093
Si Si5 0.231623 0.235969 0.598765
Si Si6 0.200764 0.225678 0.087335
Si Si7 0.392974 0.307939 0.543413
Si Si8 0.665211 0.928230 0.129446
O O1 0.083805 0.450835 0.765396
O O2 0.014087 0.135942 0.810170
O O3 0.367203 0.365636 0.088076
O O4 0.500000 0.500000 0.000000
O O5 0.500000 0.000000 0.500000
O O6 0.480350 0.153992 0.525238
O O7 0.382441 0.234899 0.289422
O O8 0.040754 0.479947 0.248569
O O9 0.044555 0.303466 0.435257
O O10 0.525369 0.188391 0.036970
O O11 0.026778 0.747365 0.077536
O O12 0.385828 0.720546 0.300421
O O13 0.431429 0.346078 0.638219
O O14 0.388231 0.237843 0.788044
O O15 0.000000 0.000000 0.500000
O O16 0.000000 0.000000 0.000000
O O17 0.500000 0.500000 0.500000
O O18 0.031330 0.116170 0.329113
O O19 0.500000 0.000000 0.000000
#
# Coordination Sequence:
#
# PCOD9015778 Si02
#       8
#     2   2   2   2   2   2   2   2
#     4  10  23  41  62  95 130 157 210 262 301 370
#     4  11  20  42  69  85 124 174 204 248 317 363
#     4  11  21  41  65  88 128 164 204 253 314 366
#     4  11  22  40  65  94 126 162 213 256 303 369
#     4  10  21  42  65  86 124 167 201 247 322 366
#     4   9  19  40  63  86 124 166 204 251 309 362
#     4  11  22  42  64  94 126 155 213 264 297 375
#     4  11  22  42  65  87 125 167 202 252 318 367
#
# _framework density 21.071821
#
# number of rings (size 3 to 8) (size 9 to 14) (size 15 to 20)
#    0.000    1.500    7.500    0.000    1.750    2.000 
#   11.250    1.875    0.000    0.000    0.000    0.000 
#    0.000    0.000    0.000    0.000    0.000    0.000 
#
# Total GULP energy -89321.157528 kJ/mol
# GULP energy per Si atom -5582.572346 kJ/mol
# Density = 2.102386 g / cm^3
# Si number density = 21.071821 Si / 1000 Ang^3
#
#
#
# Elastic Constant Matrix: (Units=GPa)
#
#
# Indices 1 2 3 4 5 6 
#
# 1 81.7746 28.2545 32.9637 -11.8448 13.9373 20.9440
# 2 28.2545 99.2872 44.3691 -15.6132 3.9811 11.5492
# 3 32.9637 44.3691 96.3248 -24.6581 2.8677 12.7957
# 4 -11.8448 -15.6132 -24.6581 55.1623 -2.1662 0.3667
# 5 13.9373 3.9811 2.8677 -2.1662 31.1058 6.1799
# 6 20.9440 11.5492 12.7957 0.3667 6.1799 36.5957
#
#
#
# Elastic Compliance Matrix: (Units=1/GPa)
#
#
# Indices 1 2 3 4 5 6 
#
# 1 0.017354 -0.002101 -0.003503 0.001390 -0.005677 -0.007099
# 2 -0.002101 0.013179 -0.004905 0.001096 0.000033 -0.001258
# 3 -0.003503 -0.004905 0.015294 0.004771 0.001537 -0.002102
# 4 0.001390 0.001096 0.004771 0.020925 0.000884 -0.003168
# 5 -0.005677 0.000033 0.001537 0.000884 0.035255 -0.003262
# 6 -0.007099 -0.001258 -0.002102 -0.003168 -0.003262 0.033103
#
#
# Mechanical properties :
#
#
# Convention : Reuss Voigt Hill
#
# Bulk Modulus (GPa) = 40.30725 54.28460 47.29593
# Shear Modulus (GPa) = 30.41396 36.02605 33.22000
#
# Velocity S-wave (km/s) = 3.80326 4.13931 3.97484
# Velocity P-wave (km/s) = 6.20133 6.97588 6.59997
#
# Compressibility (1/GPa) = 0.02480943
#
# Stress axis : x y z
#
# Youngs Moduli (GPa) = 57.62424 75.87885 65.38399
#
# Poissons Ratio (x) = 0.15942 0.22905
# Poissons Ratio (y) = 0.12107 0.32069
# Poissons Ratio (z) = 0.20186 0.37216
#
# Static dielectric constant tensor:
#      x y z
#    x 1.750210 -0.006010 -0.022980 
#    y -0.006010 1.806590 0.022530 
#    z -0.022980 0.022530 1.804320 
# 
# From -- ./inp_files/600291.got.cif
#   From: 2010.05.17/outbox.cif.g08.bks.cpg/sg2_301_cif.got.tgz:600291.got - 2010.06.03 11:33:40.
