data_PCOD9015184
_publ_section_title
;
Structure prediction by ZEFSAII (Michael W. Deem and Ramdas Pophale) SiO2 
 PCOD9015184
Probable space group: P -1
;
_chemical_formula_sum "Si O2"
_cell_formula_units_Z 12
_cell_length_a 11.713106
_cell_length_b 16.401711
_cell_length_c 14.674613
_cell_angle_alpha 25.255209
_cell_angle_beta 28.176951
_cell_angle_gamma 25.375040
_cell_volume 482.496062
_symmetry_space_group_name_H-M "P -1"
_symmetry_group_IT_number 2
_symmetry_cell_setting 'triclinic'
loop_
_space_group_symop_operation_xyz
x,y,z
-x,-y,-z
loop_
_atom_site_type_symbol
_atom_site_label
_atom_site_fract_x
_atom_site_fract_y
_atom_site_fract_z
Si Si1 0.775333 0.947764 0.442154
Si Si2 0.755697 0.716735 0.198494
Si Si3 0.751354 0.157770 0.919730
Si Si4 0.591474 0.590836 0.928763
Si Si5 0.729760 0.715381 0.426433
Si Si6 0.626248 0.218173 0.757298
O O1 0.354322 0.205251 0.333228
O O2 0.545893 0.175076 0.424852
O O3 0.054964 0.829592 0.431019
O O4 0.937174 0.942345 0.241430
O O5 0.704487 0.661132 0.393372
O O6 0.586745 0.666142 0.293042
O O7 0.093209 0.592344 0.074282
O O8 0.656169 0.976114 0.994617
O O9 0.640132 0.322287 0.916583
O O10 0.753287 0.935464 0.171640
O O11 0.546394 0.299588 0.835615
O O12 0.500000 0.500000 0.000000
O O13 0.000000 0.500000 0.500000
#
# Coordination Sequence:
#
# PCOD9015184 Si02
#       6
#     2   2   2   2   2   2
#     4   9  21  46  70 103 144 193 237 297 364 421
#     4  10  21  42  69 107 139 183 249 292 352 439
#     4   8  20  46  69 103 145 190 236 301 360 421
#     4  11  24  43  71 104 146 192 242 298 359 431
#     4  10  21  41  72 106 150 192 233 290 363 440
#     4   8  19  44  74  97 136 191 238 303 363 409
#
# _framework density 24.870668999999999
#
# number of rings (size 3 to 8) (size 9 to 14) (size 15 to 20)
#    1.000    1.667    0.000    0.000    0.000    4.667 
#    6.000   15.000    0.000    0.000    0.000    0.000 
#    0.000    0.000    0.000    0.000    0.000    0.000 
#
# Total GULP energy -67063.021512 kJ/mol
# GULP energy per Si atom -5588.585126 kJ/mol
# Density = 2.481406 g / cm^3
# Si number density = 24.870669 Si / 1000 Ang^3
#
#
#
# Elastic Constant Matrix: (Units=GPa)
#
#
# Indices 1 2 3 4 5 6 
#
# 1 260.7543 120.6883 78.1345 16.4379 9.5718 -20.4075
# 2 120.6883 153.1909 57.2306 21.5552 25.1526 5.5600
# 3 78.1345 57.2306 126.9382 22.4787 7.0306 5.3590
# 4 16.4379 21.5552 22.4787 45.9303 0.1894 2.8330
# 5 9.5718 25.1526 7.0306 0.1894 51.8573 0.5632
# 6 -20.4075 5.5600 5.3590 2.8330 0.5632 48.0453
#
#
#
# Elastic Compliance Matrix: (Units=1/GPa)
#
#
# Indices 1 2 3 4 5 6 
#
# 1 0.007202 -0.005265 -0.002458 0.000851 0.001512 0.003875
# 2 -0.005265 0.012581 -0.001478 -0.003074 -0.004883 -0.003289
# 3 -0.002458 -0.001478 0.010786 -0.003589 -0.000258 -0.001861
# 4 0.000851 -0.003074 -0.003589 0.024682 0.001734 -0.000358
# 5 0.001512 -0.004883 -0.000258 0.001734 0.021392 0.000883
# 6 0.003875 -0.003289 -0.001861 -0.000358 0.000883 0.023058
#
#
# Mechanical properties :
#
#
# Convention : Reuss Voigt Hill
#
# Bulk Modulus (GPa) = 82.18038 116.99891 99.58964
# Shear Modulus (GPa) = 40.93041 48.15526 44.54284
#
# Velocity S-wave (km/s) = 4.06116 4.40503 4.23659
# Velocity P-wave (km/s) = 7.42331 8.54503 8.00384
#
# Compressibility (1/GPa) = 0.01216835
#
# Stress axis : x y z
#
# Youngs Moduli (GPa) = 138.84557 79.48287 92.71686
#
# Poissons Ratio (x) = 0.41845 0.22786
# Poissons Ratio (y) = 0.73097 0.13705
# Poissons Ratio (z) = 0.34123 0.11749
#
# Static dielectric constant tensor:
#      x y z
#    x 2.068330 -0.019110 -0.028720 
#    y -0.019110 1.974980 -0.086100 
#    z -0.028720 -0.086100 2.059540 
# 
# From -- ./inp_files/523423.got.cif
#   From: 2010.05.17/outbox.cif.g08.bks.cpg/sg2_262_cif.got.tgz:523423.got - 2010.06.03 11:33:40.
