data_PCOD9015144
_publ_section_title
;
Structure prediction by ZEFSAII (Michael W. Deem and Ramdas Pophale) SiO2 
 PCOD9015144
Probable space group: P -1
;
_chemical_formula_sum "Si O2"
_cell_formula_units_Z 14
_cell_length_a 15.613972
_cell_length_b 7.339382
_cell_length_c 5.412364
_cell_angle_alpha 102.317704
_cell_angle_beta 80.355634
_cell_angle_gamma 91.334492
_cell_volume 597.347834
_symmetry_space_group_name_H-M "P -1"
_symmetry_group_IT_number 2
_symmetry_cell_setting 'triclinic'
loop_
_space_group_symop_operation_xyz
x,y,z
-x,-y,-z
loop_
_atom_site_type_symbol
_atom_site_label
_atom_site_fract_x
_atom_site_fract_y
_atom_site_fract_z
Si Si1 0.402154 0.275044 0.559939
Si Si2 0.807327 0.144272 0.108539
Si Si3 0.025868 0.658558 0.837239
Si Si4 0.863097 0.615692 0.626206
Si Si5 0.244932 0.062501 0.427005
Si Si6 0.437536 0.606165 0.255250
Si Si7 0.285342 0.536403 0.997138
O O1 0.340584 0.357460 0.830109
O O2 0.346261 0.114300 0.418620
O O3 0.410959 0.450086 0.420986
O O4 0.500014 0.243628 0.603009
O O5 0.909238 0.189577 0.044201
O O6 0.752949 0.338256 0.166896
O O7 0.785824 0.051646 0.353134
O O8 0.776412 0.028162 0.852629
O O9 0.085097 0.552763 0.575221
O O10 0.937034 0.726491 0.772665
O O11 0.000000 0.500000 0.000000
O O12 0.811808 0.745387 0.496810
O O13 0.793783 0.532284 0.821996
O O14 0.500000 0.500000 0.000000
O O15 0.351242 0.659900 0.164648
#
# Coordination Sequence:
#
# PCOD9015144 Si02
#       7
#     2   2   2   2   2   2   2
#     4  10  21  41  71  99 130 176 232 280 325 403
#     4  12  28  43  66 103 144 177 222 283 350 402
#     4  11  25  45  71  97 131 177 241 281 323 403
#     4  11  24  44  74  96 131 182 233 280 331 404
#     4  12  27  44  67 103 144 177 217 284 355 402
#     4   9  20  37  72 101 126 167 243 277 317 391
#     4  11  21  43  72  98 129 184 235 272 329 409
#
# _framework density 23.436931000000001
#
# number of rings (size 3 to 8) (size 9 to 14) (size 15 to 20)
#    0.000    1.143    2.857    2.571    8.000    1.143 
#    0.000    1.429    0.000    0.000    0.000    0.000 
#    0.000    0.000    0.000    0.000    0.000    0.000 
#
# Total GULP energy -78343.631801 kJ/mol
# GULP energy per Si atom -5595.973700 kJ/mol
# Density = 2.338359 g / cm^3
# Si number density = 23.436931 Si / 1000 Ang^3
#
#
#
# Elastic Constant Matrix: (Units=GPa)
#
#
# Indices 1 2 3 4 5 6 
#
# 1 108.6484 27.7141 17.6087 3.9217 22.6503 35.3335
# 2 27.7141 80.0634 21.8364 5.3903 10.1928 28.2154
# 3 17.6087 21.8364 85.0044 -4.7177 -2.7280 15.4421
# 4 3.9217 5.3903 -4.7177 51.2819 8.0857 16.2461
# 5 22.6503 10.1928 -2.7280 8.0857 60.3891 6.0661
# 6 35.3335 28.2154 15.4421 16.2461 6.0661 50.1620
#
#
#
# Elastic Compliance Matrix: (Units=1/GPa)
#
#
# Indices 1 2 3 4 5 6 
#
# 1 0.013260 -0.000830 -0.000923 0.002479 -0.004316 -0.008870
# 2 -0.000830 0.016473 -0.002630 0.000905 -0.001912 -0.007934
# 3 -0.000923 -0.002630 0.013323 0.002265 0.001377 -0.002872
# 4 0.002479 0.000905 0.002265 0.023094 -0.003062 -0.010062
# 5 -0.004316 -0.001912 0.001377 -0.003062 0.018730 0.002418
# 6 -0.008870 -0.007934 -0.002872 -0.010062 0.002418 0.034497
#
#
# Mechanical properties :
#
#
# Convention : Reuss Voigt Hill
#
# Bulk Modulus (GPa) = 29.16250 45.33718 37.24984
# Shear Modulus (GPa) = 35.82380 46.13707 40.98043
#
# Velocity S-wave (km/s) = 3.91387 4.44166 4.18609
# Velocity P-wave (km/s) = 5.73537 6.75950 6.26838
#
# Compressibility (1/GPa) = 0.03429062
#
# Stress axis : x y z
#
# Youngs Moduli (GPa) = 75.41298 60.70553 75.06079
#
# Poissons Ratio (x) = 0.05036 0.06930
# Poissons Ratio (y) = 0.06257 0.19739
# Poissons Ratio (z) = 0.06963 0.15964
#
# Static dielectric constant tensor:
#      x y z
#    x 1.915170 0.027560 0.024350 
#    y 0.027560 1.936700 0.079910 
#    z 0.024350 0.079910 1.929510 
# 
# From -- ./inp_files/90156.got.cif
#   From: 2010.05.17/outbox.cif.g08.bks.cpg/sg2_46_cif.got.tgz:90156.got - 2010.06.03 11:33:40.
