data_PCOD9015872
_publ_section_title
;
Structure prediction by ZEFSAII (Michael W. Deem and Ramdas Pophale) SiO2 
 PCOD9015872
Probable space group: P -1
;
_chemical_formula_sum "Si O2"
_cell_formula_units_Z 16
_cell_length_a 7.929586
_cell_length_b 11.587828
_cell_length_c 13.556428
_cell_angle_alpha 107.826638
_cell_angle_beta 43.413113
_cell_angle_gamma 122.754686
_cell_volume 711.778471
_symmetry_space_group_name_H-M "P -1"
_symmetry_group_IT_number 2
_symmetry_cell_setting 'triclinic'
loop_
_space_group_symop_operation_xyz
x,y,z
-x,-y,-z
loop_
_atom_site_type_symbol
_atom_site_label
_atom_site_fract_x
_atom_site_fract_y
_atom_site_fract_z
Si Si1 0.803265 0.445431 0.385921
Si Si2 0.775492 0.079060 0.508190
Si Si3 0.708422 0.354111 0.091681
Si Si4 0.208244 0.822204 0.675738
Si Si5 0.163447 0.874641 0.928535
Si Si6 0.355522 0.596220 0.082991
Si Si7 0.708273 0.673141 0.568858
Si Si8 0.588252 0.844418 0.196758
O O1 0.869377 0.329166 0.368623
O O2 0.828276 0.566194 0.477752
O O3 0.491736 0.362535 0.450656
O O4 0.020839 0.509699 0.219823
O O5 0.863957 0.105332 0.363384
O O6 0.582189 0.150002 0.635793
O O7 0.048041 0.167514 0.482192
O O8 0.545508 0.918391 0.576091
O O9 0.755633 0.228693 0.077937
O O10 0.490507 0.363135 0.261455
O O11 0.586439 0.328704 0.026693
O O12 0.000000 0.500000 0.000000
O O13 0.077352 0.817316 0.837117
O O14 0.395650 0.034066 0.851000
O O15 0.905549 0.879697 0.092084
O O16 0.455908 0.701292 0.158617
O O17 0.500000 0.500000 0.000000
#
# Coordination Sequence:
#
# PCOD9015872 Si02
#       8
#     2   2   2   2   2   2   2   2
#     4  11  23  43  64  93 133 170 215 273 334 385
#     4  10  23  41  65  95 129 168 218 263 332 393
#     4  12  24  43  65  94 130 172 218 266 335 390
#     4  10  21  42  65  95 125 168 218 267 322 392
#     4  10  22  44  68  91 132 172 218 273 327 391
#     4  12  25  42  69  96 130 172 223 273 330 394
#     4  11  24  42  62  94 130 170 215 271 327 393
#     4  10  22  44  66  95 129 170 220 272 326 391
#
# _framework density 22.478905000000001
#
# number of rings (size 3 to 8) (size 9 to 14) (size 15 to 20)
#    0.000    1.250    3.750    1.500    3.500    3.500 
#    0.000    0.000    0.000    0.000    0.000    0.000 
#    0.000    0.000    0.000    0.000    0.000    0.000 
#
# Total GULP energy -89335.015600 kJ/mol
# GULP energy per Si atom -5583.438475 kJ/mol
# Density = 2.242774 g / cm^3
# Si number density = 22.478905 Si / 1000 Ang^3
#
#
#
# Elastic Constant Matrix: (Units=GPa)
#
#
# Indices 1 2 3 4 5 6 
#
# 1 53.1986 13.7386 13.6258 9.4953 4.7676 -4.8083
# 2 13.7386 110.0414 9.3890 13.4802 -3.7428 -8.5584
# 3 13.6258 9.3890 99.2252 14.1309 -0.3074 -16.2989
# 4 9.4953 13.4802 14.1309 30.8234 5.9636 -11.3334
# 5 4.7676 -3.7428 -0.3074 5.9636 24.8737 -6.5187
# 6 -4.8083 -8.5584 -16.2989 -11.3334 -6.5187 38.0162
#
#
#
# Elastic Compliance Matrix: (Units=1/GPa)
#
#
# Indices 1 2 3 4 5 6 
#
# 1 0.020886 -0.002090 -0.002201 -0.004043 -0.003528 -0.000583
# 2 -0.002090 0.010037 0.000141 -0.003903 0.003227 0.001445
# 3 -0.002201 0.000141 0.011565 -0.003687 0.002530 0.004046
# 4 -0.004043 -0.003903 -0.003687 0.041552 -0.007698 0.008097
# 5 -0.003528 0.003227 0.002530 -0.007698 0.045021 0.006790
# 6 -0.000583 0.001445 0.004046 0.008097 0.006790 0.031869
#
#
# Mechanical properties :
#
#
# Convention : Reuss Voigt Hill
#
# Bulk Modulus (GPa) = 29.25180 37.33022 33.29101
# Shear Modulus (GPa) = 27.68141 33.79010 30.73575
#
# Velocity S-wave (km/s) = 3.51299 3.88131 3.70173
# Velocity P-wave (km/s) = 5.43103 6.06044 5.75435
#
# Compressibility (1/GPa) = 0.03418593
#
# Stress axis : x y z
#
# Youngs Moduli (GPa) = 47.87871 99.63419 86.47080
#
# Poissons Ratio (x) = 0.20823 0.19035
# Poissons Ratio (y) = 0.10006 -0.01215
# Poissons Ratio (z) = 0.10540 -0.01400
#
# Static dielectric constant tensor:
#      x y z
#    x 1.861500 0.028790 -0.031700 
#    y 0.028790 1.858130 -0.036870 
#    z -0.031700 -0.036870 1.836350 
# 
# From -- ./inp_files/399768.got.cif
#   From: 2010.05.17/outbox.cif.g08.bks.cpg/sg2_200_cif.got.tgz:399768.got - 2010.06.03 11:33:40.
