data_PCOD9015550
_publ_section_title
;
Structure prediction by ZEFSAII (Michael W. Deem and Ramdas Pophale) SiO2 
 PCOD9015550
Probable space group: P -1
;
_chemical_formula_sum "Si O2"
_cell_formula_units_Z 16
_cell_length_a 15.662676
_cell_length_b 13.103571
_cell_length_c 12.908119
_cell_angle_alpha 117.583058
_cell_angle_beta 26.587212
_cell_angle_gamma 134.485318
_cell_volume 726.443726
_symmetry_space_group_name_H-M "P -1"
_symmetry_group_IT_number 2
_symmetry_cell_setting 'triclinic'
loop_
_space_group_symop_operation_xyz
x,y,z
-x,-y,-z
loop_
_atom_site_type_symbol
_atom_site_label
_atom_site_fract_x
_atom_site_fract_y
_atom_site_fract_z
Si Si1 0.698955 0.359993 0.809435
Si Si2 0.813568 0.870684 0.049181
Si Si3 0.305642 0.518499 0.756710
Si Si4 0.223107 0.408590 0.030032
Si Si5 0.423516 0.850225 0.341880
Si Si6 0.213049 0.125012 0.562306
Si Si7 0.591168 0.159022 0.024050
Si Si8 0.132360 0.789680 0.044924
O O1 0.620375 0.450815 0.983878
O O2 0.532254 0.218185 0.835878
O O3 0.715928 0.289171 0.859113
O O4 0.000000 0.500000 0.500000
O O5 0.705415 0.694864 0.102355
O O6 0.567055 0.851062 0.283349
O O7 0.014493 0.965285 0.775699
O O8 0.000000 0.000000 0.000000
O O9 0.500000 0.500000 0.500000
O O10 0.498226 0.712860 0.619347
O O11 0.025128 0.372109 0.930651
O O12 0.264345 0.485470 0.909393
O O13 0.897856 0.271275 0.346087
O O14 0.583577 0.037623 0.230579
O O15 0.056565 0.176386 0.730306
O O16 0.318835 0.102449 0.337956
O O17 0.803075 0.228709 0.920077
O O18 0.500000 0.000000 0.000000
#
# Coordination Sequence:
#
# PCOD9015550 Si02
#       8
#     2   2   2   2   2   2   2   2
#     4  10  23  44  62  94 131 160 214 266 310 378
#     4  11  24  42  68  96 127 171 214 255 316 385
#     4  10  21  42  63  94 134 159 206 270 311 371
#     4  11  22  43  68  90 132 173 202 265 320 365
#     4  10  22  43  64  97 128 164 217 261 310 380
#     4  10  23  43  62  99 129 161 212 265 315 373
#     4  12  23  42  68  91 122 173 215 258 316 380
#     4  10  22  40  67  94 129 162 211 266 311 377
#
# _framework density 22.025105
#
# number of rings (size 3 to 8) (size 9 to 14) (size 15 to 20)
#    0.000    1.500    2.500    3.000    1.750    4.500 
#   13.500    0.000    0.000    0.000    0.000    0.000 
#    0.000    0.000    0.000    0.000    0.000    0.000 
#
# Total GULP energy -89405.883536 kJ/mol
# GULP energy per Si atom -5587.867721 kJ/mol
# Density = 2.197498 g / cm^3
# Si number density = 22.025105 Si / 1000 Ang^3
#
#
#
# Elastic Constant Matrix: (Units=GPa)
#
#
# Indices 1 2 3 4 5 6 
#
# 1 78.0853 -10.2551 2.7907 -2.9738 1.0142 -0.6203
# 2 -10.2551 79.9656 -8.0996 -4.4609 1.7770 -1.1305
# 3 2.7907 -8.0996 65.2412 -3.3598 12.9627 0.6443
# 4 -2.9738 -4.4609 -3.3598 36.6002 0.8376 3.3855
# 5 1.0142 1.7770 12.9627 0.8376 27.0302 0.4335
# 6 -0.6203 -1.1305 0.6443 3.3855 0.4335 32.0451
#
#
#
# Elastic Compliance Matrix: (Units=1/GPa)
#
#
# Indices 1 2 3 4 5 6 
#
# 1 0.013099 0.001748 -0.000168 0.001257 -0.000568 0.000193
# 2 0.001748 0.013092 0.002039 0.001944 -0.001969 0.000276
# 3 -0.000168 0.002039 0.017392 0.002062 -0.008526 -0.000384
# 4 0.001257 0.001944 0.002062 0.028164 -0.001990 -0.002897
# 5 -0.000568 -0.001969 -0.008526 -0.001990 0.041301 -0.000257
# 6 0.000193 0.000276 -0.000384 -0.002897 -0.000257 0.031537
#
#
# Mechanical properties :
#
#
# Convention : Reuss Voigt Hill
#
# Bulk Modulus (GPa) = 19.67596 21.35154 20.51375
# Shear Modulus (GPa) = 32.40727 35.05882 33.73304
#
# Velocity S-wave (km/s) = 3.84002 3.99402 3.91778
# Velocity P-wave (km/s) = 5.34919 5.56640 5.45888
#
# Compressibility (1/GPa) = 0.05082345
#
# Stress axis : x y z
#
# Youngs Moduli (GPa) = 76.34229 76.38088 57.49735
#
# Poissons Ratio (x) = -0.13354 0.00963
# Poissons Ratio (y) = -0.13348 -0.11725
# Poissons Ratio (z) = 0.01279 -0.15576
#
# Static dielectric constant tensor:
#      x y z
#    x 1.789470 0.004590 -0.014740 
#    y 0.004590 1.864640 0.014980 
#    z -0.014740 0.014980 1.801250 
# 
# From -- ./inp_files/455784.got.cif
#   From: 2010.05.17/outbox.cif.g08.bks.cpg/sg2_228_cif.got.tgz:455784.got - 2010.06.03 11:33:40.
