data_PCOD9015614
_publ_section_title
;
Structure prediction by ZEFSAII (Michael W. Deem and Ramdas Pophale) SiO2 
 PCOD9015614
Probable space group: P -1
;
_chemical_formula_sum "Si O2"
_cell_formula_units_Z 14
_cell_length_a 27.313298
_cell_length_b 8.806011
_cell_length_c 17.568230
_cell_angle_alpha 38.113826
_cell_angle_beta 164.069491
_cell_angle_gamma 137.913447
_cell_volume 713.246549
_symmetry_space_group_name_H-M "P -1"
_symmetry_group_IT_number 2
_symmetry_cell_setting 'triclinic'
loop_
_space_group_symop_operation_xyz
x,y,z
-x,-y,-z
loop_
_atom_site_type_symbol
_atom_site_label
_atom_site_fract_x
_atom_site_fract_y
_atom_site_fract_z
Si Si1 0.477689 0.458054 0.352719
Si Si2 0.285723 0.464233 0.467480
Si Si3 0.603404 0.829917 0.510714
Si Si4 0.080945 0.388475 0.741262
Si Si5 0.014589 0.670347 0.218023
Si Si6 0.024420 0.104688 0.164143
Si Si7 0.373083 0.590035 0.705081
O O1 0.616301 0.444028 0.496648
O O2 0.504578 0.705625 0.342999
O O3 0.487557 0.245532 0.516138
O O4 0.283303 0.449650 0.029126
O O5 0.404460 0.450721 0.726495
O O6 0.198680 0.212608 0.416055
O O7 0.121822 0.669701 0.157844
O O8 0.606393 0.121230 0.392997
O O9 0.808564 0.702270 0.870756
O O10 0.983113 0.473282 0.640922
O O11 0.000000 0.500000 0.500000
O O12 0.060658 0.094429 0.830490
O O13 0.168318 0.561382 0.435915
O O14 0.938768 0.054547 0.794683
O O15 0.500000 0.500000 0.000000
#
# Coordination Sequence:
#
# PCOD9015614 Si02
#       7
#     2   2   2   2   2   2   2
#     4  10  22  38  68  89 115 158 208 255 286 353
#     4  11  22  37  61  95 119 149 208 253 294 350
#     4  10  21  42  64  88 117 164 205 242 302 359
#     4   9  20  39  61  82 117 164 198 237 301 361
#     4   9  20  41  60  83 117 167 200 237 295 365
#     4   9  21  38  61  91 111 161 200 247 299 351
#     4  12  25  37  59  93 129 157 194 253 309 351
#
# _framework density 19.628556
#
# number of rings (size 3 to 8) (size 9 to 14) (size 15 to 20)
#    0.857    1.143    1.429    1.286    6.000    3.429 
#    0.000    2.143    0.000    3.429    0.000    0.000 
#    0.000    0.000    0.000    0.000    0.000    0.000 
#
# Total GULP energy -78062.384091 kJ/mol
# GULP energy per Si atom -5575.884578 kJ/mol
# Density = 1.958388 g / cm^3
# Si number density = 19.628556 Si / 1000 Ang^3
#
#
#
# Elastic Constant Matrix: (Units=GPa)
#
#
# Indices 1 2 3 4 5 6 
#
# 1 111.0032 19.4140 46.0722 14.3926 -11.2110 13.0738
# 2 19.4140 65.8801 36.9688 25.2421 -11.3495 8.2145
# 3 46.0722 36.9688 70.7514 16.8865 -23.8536 8.8984
# 4 14.3926 25.2421 16.8865 9.7345 8.4234 14.6659
# 5 -11.2110 -11.3495 -23.8536 8.4234 23.8302 -8.2535
# 6 13.0738 8.2145 8.8984 14.6659 -8.2535 0.8755
#
#
#
# Elastic Compliance Matrix: (Units=1/GPa)
#
#
# Indices 1 2 3 4 5 6 
#
# 1 0.013641 0.005087 -0.007977 -0.008958 0.001329 -0.007775
# 2 0.005087 0.028887 -0.012271 -0.012727 -0.002304 -0.030811
# 3 -0.007977 -0.012271 0.032148 0.003849 0.014632 -0.019026
# 4 -0.008958 -0.012727 0.003849 0.016174 0.014058 0.075640
# 5 0.001329 -0.002304 0.014632 0.014058 0.035885 -0.044127
# 6 -0.007775 -0.030811 -0.019026 0.075640 -0.044127 0.057707
#
#
# Mechanical properties :
#
#
# Convention : Reuss Voigt Hill
#
# Bulk Modulus (GPa) = 22.54565 50.28274 36.41419
# Shear Modulus (GPa) = 21.78180 16.56669 19.17425
#
# Velocity S-wave (km/s) = 3.33483 2.90834 3.12886
# Velocity P-wave (km/s) = 5.13217 6.07870 5.62538
#
# Compressibility (1/GPa) = 0.04435446
#
# Stress axis : x y z
#
# Youngs Moduli (GPa) = 73.30579 34.61754 31.10645
#
# Poissons Ratio (x) = -0.17611 0.24815
# Poissons Ratio (y) = -0.37292 0.38170
# Poissons Ratio (z) = 0.58479 0.42478
#
# Static dielectric constant tensor:
#      x y z
#    x 1.728270 0.000480 -0.015450 
#    y 0.000480 1.691650 0.006830 
#    z -0.015450 0.006830 1.692170 
# 
# From -- ./inp_files/380458.got.cif
#   From: 2010.05.17/outbox.cif.g08.bks.cpg/sg2_191_cif.got.tgz:380458.got - 2010.06.03 11:33:40.
