data_PCOD9015747
_publ_section_title
;
Structure prediction by ZEFSAII (Michael W. Deem and Ramdas Pophale) SiO2 
 PCOD9015747
Probable space group: P -1
;
_chemical_formula_sum "Si O2"
_cell_formula_units_Z 14
_cell_length_a 7.844744
_cell_length_b 6.657610
_cell_length_c 13.962412
_cell_angle_alpha 66.336118
_cell_angle_beta 56.555650
_cell_angle_gamma 67.320036
_cell_volume 544.269125
_symmetry_space_group_name_H-M "P -1"
_symmetry_group_IT_number 2
_symmetry_cell_setting 'triclinic'
loop_
_space_group_symop_operation_xyz
x,y,z
-x,-y,-z
loop_
_atom_site_type_symbol
_atom_site_label
_atom_site_fract_x
_atom_site_fract_y
_atom_site_fract_z
Si Si1 0.154567 0.155783 0.703554
Si Si2 0.785266 0.409705 0.496972
Si Si3 0.574088 0.671914 0.088420
Si Si4 0.375460 0.733160 0.620310
Si Si5 0.897687 0.596439 0.147823
Si Si6 0.793504 0.086184 0.714521
Si Si7 0.666404 0.664534 0.858153
O O1 0.112313 0.409057 0.624365
O O2 0.187992 0.190140 0.797740
O O3 0.952805 0.061436 0.758013
O O4 0.340121 0.979314 0.629299
O O5 0.604678 0.577364 0.580206
O O6 0.690265 0.277269 0.468748
O O7 0.884985 0.222447 0.577959
O O8 0.808859 0.654274 0.058189
O O9 0.423037 0.783092 0.198808
O O10 0.490856 0.444789 0.133671
O O11 0.554508 0.778300 0.967842
O O12 0.222544 0.598997 0.747905
O O13 0.138875 0.517214 0.121509
O O14 0.761706 0.845764 0.736724
#
# Coordination Sequence:
#
# PCOD9015747 Si02
#       7
#     2   2   2   2   2   2   2
#     4  11  23  40  69  97 139 176 217 277 334 399
#     4  10  23  40  65  99 136 176 226 271 328 403
#     4  11  25  46  70  99 131 179 230 277 338 393
#     4  10  21  42  64  99 134 176 227 273 325 400
#     4  11  22  45  69  99 136 177 222 277 335 401
#     4  12  23  43  66 101 138 175 221 280 338 394
#     4  11  25  46  71  97 137 173 227 287 329 397
#
# _framework density 25.722570000000001
#
# number of rings (size 3 to 8) (size 9 to 14) (size 15 to 20)
#    0.000    1.143    4.286    1.714    0.000    2.857 
#    0.000    0.714    0.000    0.000    0.000    0.000 
#    0.000    0.000    0.000    0.000    0.000    0.000 
#
# Total GULP energy -78246.311029 kJ/mol
# GULP energy per Si atom -5589.022216 kJ/mol
# Density = 2.566402 g / cm^3
# Si number density = 25.722570 Si / 1000 Ang^3
#
#
#
# Elastic Constant Matrix: (Units=GPa)
#
#
# Indices 1 2 3 4 5 6 
#
# 1 99.2012 22.1277 -1.5215 3.5677 10.3523 19.2974
# 2 22.1277 114.6208 8.9304 11.8521 19.1105 23.3374
# 3 -1.5215 8.9304 36.0487 -3.0887 11.0663 4.8727
# 4 3.5677 11.8521 -3.0887 35.0789 1.8932 -13.0181
# 5 10.3523 19.1105 11.0663 1.8932 38.2242 6.2794
# 6 19.2974 23.3374 4.8727 -13.0181 6.2794 31.3354
#
#
#
# Elastic Compliance Matrix: (Units=1/GPa)
#
#
# Indices 1 2 3 4 5 6 
#
# 1 0.012311 0.000256 0.002048 -0.004576 -0.002261 -0.009539
# 2 0.000256 0.012843 -0.001116 -0.008910 -0.003670 -0.012516
# 3 0.002048 -0.001116 0.031351 0.002468 -0.008781 -0.002520
# 4 -0.004576 -0.008910 0.002468 0.042283 -0.001541 0.026946
# 5 -0.002261 -0.003670 -0.008781 -0.001541 0.031466 -0.001454
# 6 -0.009539 -0.012516 -0.002520 0.026946 -0.001454 0.058986
#
#
# Mechanical properties :
#
#
# Convention : Reuss Voigt Hill
#
# Bulk Modulus (GPa) = 16.98347 34.32711 25.65529
# Shear Modulus (GPa) = 24.21394 35.61662 29.91528
#
# Velocity S-wave (km/s) = 3.07147 3.72512 3.41397
# Velocity P-wave (km/s) = 4.38126 5.64589 5.05330
#
# Compressibility (1/GPa) = 0.05888077
#
# Stress axis : x y z
#
# Youngs Moduli (GPa) = 81.22899 77.86047 31.89697
#
# Poissons Ratio (x) = -0.01995 -0.06531
# Poissons Ratio (y) = -0.02081 0.03560
# Poissons Ratio (z) = -0.16632 0.08689
#
# Static dielectric constant tensor:
#      x y z
#    x 2.032920 -0.088910 -0.024690 
#    y -0.088910 2.075330 0.006130 
#    z -0.024690 0.006130 2.086820 
# 
# From -- ./inp_files/49430.got.cif
#   From: 2010.05.17/outbox.cif.g08.bks.cpg/sg2_25_cif.got.tgz:49430.got - 2010.06.03 11:33:40.
