data_PCOD9015742
_publ_section_title
;
Structure prediction by ZEFSAII (Michael W. Deem and Ramdas Pophale) SiO2 
 PCOD9015742
Probable space group: P -1
;
_chemical_formula_sum "Si O2"
_cell_formula_units_Z 16
_cell_length_a 11.648536
_cell_length_b 12.024613
_cell_length_c 7.964978
_cell_angle_alpha 120.722287
_cell_angle_beta 70.822761
_cell_angle_gamma 133.136441
_cell_volume 699.474796
_symmetry_space_group_name_H-M "P -1"
_symmetry_group_IT_number 2
_symmetry_cell_setting 'triclinic'
loop_
_space_group_symop_operation_xyz
x,y,z
-x,-y,-z
loop_
_atom_site_type_symbol
_atom_site_label
_atom_site_fract_x
_atom_site_fract_y
_atom_site_fract_z
Si Si1 0.128291 0.718760 0.279386
Si Si2 0.220758 0.635397 0.853156
Si Si3 0.186278 0.019830 0.052981
Si Si4 0.185428 0.593304 0.465513
Si Si5 0.855275 0.723069 0.868492
Si Si6 0.157110 0.021014 0.449633
Si Si7 0.391936 0.349259 0.785831
Si Si8 0.510299 0.315059 0.022645
O O1 0.221275 0.694686 0.353514
O O2 0.945565 0.552491 0.227407
O O3 0.135368 0.873293 0.446782
O O4 0.190851 0.732276 0.071655
O O5 0.265476 0.688841 0.677487
O O6 0.346045 0.638561 0.901998
O O7 0.152454 0.150219 0.137123
O O8 0.193276 0.005491 0.233493
O O9 0.360088 0.123107 0.977011
O O10 0.040638 0.839367 0.914580
O O11 0.195608 0.445530 0.320275
O O12 0.000000 0.500000 0.500000
O O13 0.749094 0.684056 0.054913
O O14 0.300503 0.201563 0.586139
O O15 0.000000 0.000000 0.500000
O O16 0.494303 0.535375 0.806099
O O17 0.498787 0.332470 0.841687
#
# Coordination Sequence:
#
# PCOD9015742 Si02
#       8
#     2   2   2   2   2   2   2   2
#     4  10  24  43  68 100 127 170 233 274 318 396
#     4  10  22  43  69  94 129 180 219 272 323 397
#     4  10  24  38  66  98 136 166 216 277 328 393
#     4  10  23  37  69  98 126 173 222 277 321 386
#     4  10  21  42  64  99 129 169 224 273 321 386
#     4  12  24  40  69 100 127 174 220 275 331 388
#     4  10  22  41  67  94 135 174 213 274 332 391
#     4  10  22  43  63  97 135 173 212 271 339 389
#
# _framework density 22.874306000000001
#
# number of rings (size 3 to 8) (size 9 to 14) (size 15 to 20)
#    0.000    1.750    1.250    1.500   10.500    0.500 
#    6.750    1.250    0.000    0.000    0.000    0.000 
#    0.000    0.000    0.000    0.000    0.000    0.000 
#
# Total GULP energy -89270.190228 kJ/mol
# GULP energy per Si atom -5579.386889 kJ/mol
# Density = 2.282224 g / cm^3
# Si number density = 22.874306 Si / 1000 Ang^3
#
#
#
# Elastic Constant Matrix: (Units=GPa)
#
#
# Indices 1 2 3 4 5 6 
#
# 1 94.0863 12.0529 27.1143 0.8735 25.5479 0.4563
# 2 12.0529 64.3088 28.5937 2.3023 4.6508 2.4880
# 3 27.1143 28.5937 82.2318 -3.6693 22.5528 -4.3130
# 4 0.8735 2.3023 -3.6693 25.6381 -0.3825 0.6542
# 5 25.5479 4.6508 22.5528 -0.3825 41.8489 4.9015
# 6 0.4563 2.4880 -4.3130 0.6542 4.9015 18.7270
#
#
#
# Elastic Compliance Matrix: (Units=1/GPa)
#
#
# Indices 1 2 3 4 5 6 
#
# 1 0.013266 -0.001091 -0.002038 -0.000782 -0.007029 0.001219
# 2 -0.001091 0.019169 -0.007552 -0.002590 0.003167 -0.004998
# 3 -0.002038 -0.007552 0.018359 0.003056 -0.008654 0.007439
# 4 -0.000782 -0.002590 0.003056 0.039699 -0.000497 -0.000190
# 5 -0.007029 0.003167 -0.008654 -0.000497 0.033790 -0.011069
# 6 0.001219 -0.004998 0.007439 -0.000190 -0.011069 0.058650
#
#
# Mechanical properties :
#
#
# Convention : Reuss Voigt Hill
#
# Bulk Modulus (GPa) = 33.97749 41.79433 37.88591
# Shear Modulus (GPa) = 23.35301 28.76720 26.06011
#
# Velocity S-wave (km/s) = 3.19866 3.55014 3.37898
# Velocity P-wave (km/s) = 5.34118 5.92585 5.64109
#
# Compressibility (1/GPa) = 0.02943125
#
# Stress axis : x y z
#
# Youngs Moduli (GPa) = 75.38342 52.16621 54.47010
#
# Poissons Ratio (x) = 0.05691 0.11100
# Poissons Ratio (y) = 0.08224 0.41138
# Poissons Ratio (z) = 0.15362 0.39398
#
# Static dielectric constant tensor:
#      x y z
#    x 1.882490 0.002160 -0.036720 
#    y 0.002160 1.896350 -0.046590 
#    z -0.036720 -0.046590 1.853910 
# 
# From -- ./inp_files/260093.got.cif
#   From: 2010.05.17/outbox.cif.g08.bks.cpg/sg2_131_cif.got.tgz:260093.got - 2010.06.03 11:33:40.
