data_PCOD9015700
_publ_section_title
;
Structure prediction by ZEFSAII (Michael W. Deem and Ramdas Pophale) SiO2 
 PCOD9015700
Probable space group: P -1
;
_chemical_formula_sum "Si O2"
_cell_formula_units_Z 13
_cell_length_a 13.936613
_cell_length_b 10.782621
_cell_length_c 8.023208
_cell_angle_alpha 43.559273
_cell_angle_beta 135.839456
_cell_angle_gamma 130.704147
_cell_volume 556.410263
_symmetry_space_group_name_H-M "P -1"
_symmetry_group_IT_number 2
_symmetry_cell_setting 'triclinic'
loop_
_space_group_symop_operation_xyz
x,y,z
-x,-y,-z
loop_
_atom_site_type_symbol
_atom_site_label
_atom_site_fract_x
_atom_site_fract_y
_atom_site_fract_z
Si Si1 0.868480 0.986906 0.722414
Si Si2 0.575567 0.889497 0.945821
Si Si3 0.000000 0.500000 0.000000
Si Si4 0.544101 0.785706 0.625533
Si Si5 0.884774 0.415115 0.303265
Si Si6 0.801209 0.749705 0.546831
Si Si7 0.604471 0.472184 0.827409
O O1 0.856599 0.194336 0.475505
O O2 0.712312 0.877225 0.705965
O O3 0.882149 0.885262 0.664364
O O4 0.000000 0.000000 0.000000
O O5 0.533603 0.802464 0.794318
O O6 0.549889 0.092676 0.699242
O O7 0.728872 0.872324 0.215129
O O8 0.466889 0.748122 0.072554
O O9 0.096851 0.353630 0.318428
O O10 0.937242 0.498951 0.108432
O O11 0.509299 0.579343 0.706920
O O12 0.000000 0.500000 0.500000
O O13 0.742023 0.473387 0.109359
O O14 0.670558 0.593705 0.629261
#
# Coordination Sequence:
#
# PCOD9015700 Si02
#       7
#     2   2   1   2   2   2   2
#     4  11  23  44  67  95 133 179 224 280 346 405
#     4  11  22  43  64  98 134 175 221 278 333 405
#     4  10  24  44  60 106 126 170 236 270 338 410
#     4  10  23  41  65  99 132 173 228 270 332 413
#     4  11  23  44  70  92 136 180 222 284 343 400
#     4  10  24  42  68  97 134 173 223 286 336 398
#     4  10  21  42  64  95 130 177 219 270 342 396
#
# _framework density 23.364052999999998
#
# number of rings (size 3 to 8) (size 9 to 14) (size 15 to 20)
#    0.000    1.538    1.538    3.692    4.308    3.077 
#    8.308    0.000    0.000    0.000    0.000    0.000 
#    0.000    0.000    0.000    0.000    0.000    0.000 
#
# Total GULP energy -72434.540714 kJ/mol
# GULP energy per Si atom -5571.887747 kJ/mol
# Density = 2.331088 g / cm^3
# Si number density = 23.364053 Si / 1000 Ang^3
#
#
#
# Elastic Constant Matrix: (Units=GPa)
#
#
# Indices 1 2 3 4 5 6 
#
# 1 57.6193 8.7890 26.1077 -8.9772 14.2297 -17.2974
# 2 8.7890 62.2172 36.0882 -11.5410 -4.5628 -12.4433
# 3 26.1077 36.0882 202.8004 -2.1897 29.0839 -13.6087
# 4 -8.9772 -11.5410 -2.1897 44.6090 -6.1161 7.1482
# 5 14.2297 -4.5628 29.0839 -6.1161 40.8702 -8.5042
# 6 -17.2974 -12.4433 -13.6087 7.1482 -8.5042 23.1376
#
#
#
# Elastic Compliance Matrix: (Units=1/GPa)
#
#
# Indices 1 2 3 4 5 6 
#
# 1 0.023753 0.000756 -0.001636 0.001959 -0.003546 0.015293
# 2 0.000756 0.022468 -0.004498 0.005066 0.008619 0.011605
# 3 -0.001636 -0.004498 0.006580 -0.001689 -0.005102 -0.001126
# 4 0.001959 0.005066 -0.001689 0.025099 0.004215 -0.003010
# 5 -0.003546 0.008619 -0.005102 0.004215 0.032965 0.009797
# 6 0.015293 0.011605 -0.001126 -0.003010 0.009797 0.064763
#
#
# Mechanical properties :
#
#
# Convention : Reuss Voigt Hill
#
# Bulk Modulus (GPa) = 23.78498 51.62298 37.70398
# Shear Modulus (GPa) = 24.95014 38.50017 31.72515
#
# Velocity S-wave (km/s) = 3.27140 4.06376 3.68892
# Velocity P-wave (km/s) = 4.94688 6.64544 5.85805
#
# Compressibility (1/GPa) = 0.04204335
#
# Stress axis : x y z
#
# Youngs Moduli (GPa) = 42.09915 44.50811 151.97740
#
# Poissons Ratio (x) = -0.03363 0.24870
# Poissons Ratio (y) = -0.03181 0.68360
# Poissons Ratio (z) = 0.06889 0.20020
#
# Static dielectric constant tensor:
#      x y z
#    x 1.846690 0.042480 -0.012080 
#    y 0.042480 1.907230 -0.014200 
#    z -0.012080 -0.014200 1.983690 
# 
# From -- ./inp_files/281276.got.cif
#   From: 2010.05.17/outbox.cif.g08.bks.cpg/sg2_141_cif.got.tgz:281276.got - 2010.06.03 11:33:40.
