data_PCOD9015512
_publ_section_title
;
Structure prediction by ZEFSAII (Michael W. Deem and Ramdas Pophale) SiO2 
 PCOD9015512
Probable space group: P -1
;
_chemical_formula_sum "Si O2"
_cell_formula_units_Z 14
_cell_length_a 9.103185
_cell_length_b 7.692857
_cell_length_c 13.793714
_cell_angle_alpha 62.554352
_cell_angle_beta 55.201010
_cell_angle_gamma 52.362932
_cell_volume 618.685291
_symmetry_space_group_name_H-M "P -1"
_symmetry_group_IT_number 2
_symmetry_cell_setting 'triclinic'
loop_
_space_group_symop_operation_xyz
x,y,z
-x,-y,-z
loop_
_atom_site_type_symbol
_atom_site_label
_atom_site_fract_x
_atom_site_fract_y
_atom_site_fract_z
Si Si1 0.739240 0.303415 0.314240
Si Si2 0.490456 0.738865 0.926408
Si Si3 0.779916 0.191941 0.820633
Si Si4 0.137065 0.194025 0.262843
Si Si5 0.698799 0.507420 0.615001
Si Si6 0.837522 0.856862 0.508745
Si Si7 0.142963 0.948954 0.862986
O O1 0.499884 0.470269 0.369311
O O2 0.801227 0.244190 0.191476
O O3 0.899746 0.365294 0.288040
O O4 0.774359 0.080210 0.415311
O O5 0.711536 0.714972 0.848923
O O6 0.358984 0.882475 0.847099
O O7 0.500000 0.500000 0.000000
O O8 0.355083 0.859626 0.040227
O O9 0.677209 0.434606 0.750735
O O10 0.820834 0.016127 0.765666
O O11 0.989126 0.155476 0.801604
O O12 0.183707 0.111871 0.376285
O O13 0.709477 0.735947 0.552621
O O14 0.922636 0.319627 0.548371
O O15 0.000000 0.000000 0.000000
#
# Coordination Sequence:
#
# PCOD9015512 Si02
#       7
#     2   2   2   2   2   2   2
#     4  11  22  41  65  93 133 165 211 262 319 373
#     4  11  22  40  67  92 124 168 219 260 316 382
#     4  10  21  42  63  92 130 162 213 265 318 378
#     4  11  23  41  61  92 133 167 204 268 326 368
#     4  11  23  41  69  93 125 172 217 255 315 378
#     4  11  23  42  65  93 132 166 216 262 309 381
#     4   9  19  37  62  88 122 164 202 259 312 366
#
# _framework density 22.628627999999999
#
# number of rings (size 3 to 8) (size 9 to 14) (size 15 to 20)
#    0.000    1.429    2.857    3.857    0.000    0.571 
#    0.000   10.714    0.000    0.000    0.000    0.000 
#    0.000    0.000    0.000    0.000    0.000    0.000 
#
# Total GULP energy -78042.004254 kJ/mol
# GULP energy per Si atom -5574.428875 kJ/mol
# Density = 2.257712 g / cm^3
# Si number density = 22.628628 Si / 1000 Ang^3
#
#
#
# Elastic Constant Matrix: (Units=GPa)
#
#
# Indices 1 2 3 4 5 6 
#
# 1 108.4509 27.4740 49.8957 -9.0875 -36.1660 -27.9281
# 2 27.4740 49.2727 13.4475 -3.6093 -10.5794 -22.6643
# 3 49.8957 13.4475 100.1786 -4.2706 -4.8681 -3.5025
# 4 -9.0875 -3.6093 -4.2706 26.7077 5.0931 1.2062
# 5 -36.1660 -10.5794 -4.8681 5.0931 46.3400 12.4980
# 6 -27.9281 -22.6643 -3.5025 1.2062 12.4980 40.1522
#
#
#
# Elastic Compliance Matrix: (Units=1/GPa)
#
#
# Indices 1 2 3 4 5 6 
#
# 1 0.020027 -0.002361 -0.008698 0.002504 0.011713 0.008117
# 2 -0.002361 0.029044 -0.002111 0.002046 0.000469 0.014360
# 3 -0.008698 -0.002111 0.014221 0.000104 -0.004551 -0.004588
# 4 0.002504 0.002046 0.000104 0.038956 -0.002530 0.002523
# 5 0.011713 0.000469 -0.004551 -0.002530 0.031053 -0.001575
# 6 0.008117 0.014360 -0.004588 0.002523 -0.001575 0.038672
#
#
# Mechanical properties :
#
#
# Convention : Reuss Voigt Hill
#
# Bulk Modulus (GPa) = 27.06227 48.83739 37.94983
# Shear Modulus (GPa) = 23.73858 33.77897 28.75878
#
# Velocity S-wave (km/s) = 3.24242 3.86781 3.56884
# Velocity P-wave (km/s) = 5.09931 6.44791 5.81285
#
# Compressibility (1/GPa) = 0.03695181
#
# Stress axis : x y z
#
# Youngs Moduli (GPa) = 49.93330 34.43101 70.32039
#
# Poissons Ratio (x) = 0.08128 0.61165
# Poissons Ratio (y) = 0.11788 0.14843
# Poissons Ratio (z) = 0.43432 0.07268
#
# Static dielectric constant tensor:
#      x y z
#    x 1.855630 0.003870 0.018090 
#    y 0.003870 1.904230 0.089840 
#    z 0.018090 0.089840 1.917690 
# 
# From -- ./inp_files/382367.got.cif
#   From: 2010.05.17/outbox.cif.g08.bks.cpg/sg2_192_cif.got.tgz:382367.got - 2010.06.03 11:33:40.
