data_PCOD9015025
_publ_section_title
;
Structure prediction by ZEFSAII (Michael W. Deem and Ramdas Pophale) SiO2 
 PCOD9015025
Probable space group: P -1
;
_chemical_formula_sum "Si O2"
_cell_formula_units_Z 14
_cell_length_a 8.939888
_cell_length_b 7.243423
_cell_length_c 12.296009
_cell_angle_alpha 50.019212
_cell_angle_beta 67.848595
_cell_angle_gamma 52.114236
_cell_volume 481.328136
_symmetry_space_group_name_H-M "P -1"
_symmetry_group_IT_number 2
_symmetry_cell_setting 'triclinic'
loop_
_space_group_symop_operation_xyz
x,y,z
-x,-y,-z
loop_
_atom_site_type_symbol
_atom_site_label
_atom_site_fract_x
_atom_site_fract_y
_atom_site_fract_z
Si Si1 0.811884 0.599271 0.448841
Si Si2 0.556146 0.296824 0.421807
Si Si3 0.679753 0.047820 0.707233
Si Si4 0.774865 0.338005 0.892439
Si Si5 0.192289 0.207716 0.023379
Si Si6 0.058951 0.576096 0.733832
Si Si7 0.333399 0.794203 0.805793
O O1 0.647200 0.674055 0.551096
O O2 0.000000 0.500000 0.500000
O O3 0.860456 0.384717 0.416302
O O4 0.732670 0.881428 0.293319
O O5 0.646782 0.065554 0.579976
O O6 0.463795 0.624104 0.354426
O O7 0.689545 0.230178 0.307679
O O8 0.910360 0.879607 0.713884
O O9 0.661160 0.888340 0.879358
O O10 0.917790 0.451684 0.796645
O O11 0.557179 0.584165 0.840986
O O12 0.776247 0.257471 0.049683
O O13 0.810973 0.071732 0.908371
O O14 0.220722 0.339506 0.856554
O O15 0.000000 0.500000 0.000000
#
# Coordination Sequence:
#
# PCOD9015025 Si02
#       7
#     2   2   2   2   2   2   2
#     4  12  25  39  67 101 134 172 225 278 328 391
#     4  11  23  44  66  94 138 182 220 270 332 401
#     4  10  23  44  68  93 138 180 222 271 331 406
#     4  11  22  42  72  99 133 171 224 284 330 396
#     4  10  21  41  70  97 132 170 223 282 336 386
#     4  11  23  42  67 101 132 171 224 279 338 384
#     4  11  23  40  67  98 133 173 226 273 330 391
#
# _framework density 29.086186000000001
#
# number of rings (size 3 to 8) (size 9 to 14) (size 15 to 20)
#    0.000    1.143    2.857    3.429    0.000    0.571 
#    0.000   10.000    0.000    0.000    0.000    0.000 
#    0.000    0.000    0.000    0.000    0.000    0.000 
#
# Total GULP energy -78229.788125 kJ/mol
# GULP energy per Si atom -5587.842009 kJ/mol
# Density = 2.901998 g / cm^3
# Si number density = 29.086186 Si / 1000 Ang^3
#
#
#
# Elastic Constant Matrix: (Units=GPa)
#
#
# Indices 1 2 3 4 5 6 
#
# 1 108.4127 33.1031 52.5650 -6.7371 -6.3953 -21.7272
# 2 33.1031 150.4578 42.0956 12.6567 -4.6478 -0.4663
# 3 52.5650 42.0956 146.2435 3.7686 22.4455 20.0444
# 4 -6.7371 12.6567 3.7686 62.9217 4.8696 14.2243
# 5 -6.3953 -4.6478 22.4455 4.8696 56.7717 -7.3302
# 6 -21.7272 -0.4663 20.0444 14.2243 -7.3302 51.1708
#
#
#
# Elastic Compliance Matrix: (Units=1/GPa)
#
#
# Indices 1 2 3 4 5 6 
#
# 1 0.015833 -0.001021 -0.007824 -0.000562 0.006240 0.010828
# 2 -0.001021 0.007725 -0.002254 -0.001961 0.001747 0.001315
# 3 -0.007824 -0.002254 0.012768 0.001669 -0.007534 -0.009887
# 4 -0.000562 -0.001961 0.001669 0.017806 -0.003227 -0.006322
# 5 0.006240 0.001747 -0.007534 -0.003227 0.022982 0.009806
# 6 0.010828 0.001315 -0.009887 -0.006322 0.009806 0.031187
#
#
# Mechanical properties :
#
#
# Convention : Reuss Voigt Hill
#
# Bulk Modulus (GPa) = 70.79223 73.40460 72.09842
# Shear Modulus (GPa) = 36.98024 52.66286 44.82155
#
# Velocity S-wave (km/s) = 3.56954 4.25971 3.92980
# Velocity P-wave (km/s) = 6.43276 7.03457 6.74039
#
# Compressibility (1/GPa) = 0.01412584
#
# Stress axis : x y z
#
# Youngs Moduli (GPa) = 63.16062 129.45499 78.32345
#
# Poissons Ratio (x) = 0.13215 0.61283
# Poissons Ratio (y) = 0.06447 0.17658
# Poissons Ratio (z) = 0.49419 0.29185
#
# Static dielectric constant tensor:
#      x y z
#    x 2.466260 0.174080 -0.025990 
#    y 0.174080 2.278020 0.087100 
#    z -0.025990 0.087100 2.304730 
# 
# From -- ./inp_files/418842.got.cif
#   From: 2010.05.17/outbox.cif.g08.bks.cpg/sg2_210_cif.got.tgz:418842.got - 2010.06.03 11:33:40.
