data_PCOD9015850
_publ_section_title
;
Structure prediction by ZEFSAII (Michael W. Deem and Ramdas Pophale) SiO2 
 PCOD9015850
Probable space group: P -1
;
_chemical_formula_sum "Si O2"
_cell_formula_units_Z 16
_cell_length_a 13.408502
_cell_length_b 15.974212
_cell_length_c 19.450261
_cell_angle_alpha 19.259218
_cell_angle_beta 39.893169
_cell_angle_gamma 33.959815
_cell_volume 764.794986
_symmetry_space_group_name_H-M "P -1"
_symmetry_group_IT_number 2
_symmetry_cell_setting 'triclinic'
loop_
_space_group_symop_operation_xyz
x,y,z
-x,-y,-z
loop_
_atom_site_type_symbol
_atom_site_label
_atom_site_fract_x
_atom_site_fract_y
_atom_site_fract_z
Si Si1 0.998739 0.604908 0.061545
Si Si2 0.121580 0.386142 0.456505
Si Si3 0.345167 0.360328 0.976658
Si Si4 0.069837 0.799036 0.390468
Si Si5 0.642070 0.653991 0.182686
Si Si6 0.144330 0.410608 0.278040
Si Si7 0.538200 0.727004 0.424454
Si Si8 0.480436 0.814848 0.549514
O O1 0.836163 0.540390 0.201729
O O2 0.087626 0.592295 0.098210
O O3 0.163337 0.428475 0.059410
O O4 0.897856 0.934287 0.831038
O O5 0.086139 0.567100 0.262235
O O6 0.322579 0.284538 0.449929
O O7 0.000000 0.500000 0.500000
O O8 0.070354 0.152735 0.633937
O O9 0.324044 0.387746 0.884777
O O10 0.411370 0.591587 0.783092
O O11 0.484904 0.024027 0.182109
O O12 0.251277 0.500041 0.515280
O O13 0.963164 0.769784 0.532973
O O14 0.559969 0.452757 0.407206
O O15 0.500000 0.000000 0.000000
O O16 0.347689 0.153004 0.376288
O O17 0.488951 0.803148 0.471389
#
# Coordination Sequence:
#
# PCOD9015850 Si02
#       8
#     2   2   2   2   2   2   2   2
#     4  12  23  46  63  95 131 168 216 262 322 376
#     4  10  21  42  65  93 132 169 206 268 317 374
#     4  11  25  42  68  93 127 175 209 267 318 374
#     4  10  23  41  65  92 134 166 208 269 318 370
#     4  11  26  41  67  95 129 168 215 266 315 384
#     4  10  23  38  68  93 125 174 208 263 316 379
#     4  11  23  43  66  96 127 168 218 260 322 374
#     4  11  20  44  64  95 131 163 216 266 313 379
#
# _framework density 20.920639000000001
#
# number of rings (size 3 to 8) (size 9 to 14) (size 15 to 20)
#    0.750    0.500    5.000    0.750    1.750    2.000 
#    2.250    2.500    0.000    0.000    0.000    0.000 
#    0.000    0.000    0.000    0.000    0.000    0.000 
#
# Total GULP energy -89096.860116 kJ/mol
# GULP energy per Si atom -5568.553757 kJ/mol
# Density = 2.087302 g / cm^3
# Si number density = 20.920639 Si / 1000 Ang^3
#
#
#
# Elastic Constant Matrix: (Units=GPa)
#
#
# Indices 1 2 3 4 5 6 
#
# 1 77.9649 26.5787 14.3280 -2.7749 9.6296 -23.0389
# 2 26.5787 95.9705 2.7379 -8.8471 11.8167 -15.6623
# 3 14.3280 2.7379 74.7385 -11.0489 13.1270 -11.3451
# 4 -2.7749 -8.8471 -11.0489 16.8176 4.0195 -7.2934
# 5 9.6296 11.8167 13.1270 4.0195 22.7739 15.4815
# 6 -23.0389 -15.6623 -11.3451 -7.2934 15.4815 29.4380
#
#
#
# Elastic Compliance Matrix: (Units=1/GPa)
#
#
# Indices 1 2 3 4 5 6 
#
# 1 0.011225 -0.008380 -0.009053 -0.017499 0.016010 -0.011918
# 2 -0.008380 0.007493 -0.005309 -0.011198 0.015123 -0.015345
# 3 -0.009053 -0.005309 0.005973 -0.015120 0.021053 -0.022425
# 4 -0.017499 -0.011198 -0.015120 0.001823 0.060104 -0.056637
# 5 0.016010 0.015123 0.021053 0.060104 -0.035915 0.062469
# 6 -0.011918 -0.015345 -0.022425 -0.056637 0.062469 -0.039049
#
#
# Mechanical properties :
#
#
# Convention : Reuss Voigt Hill
#
# Bulk Modulus (GPa) = -48.09380 37.32922 -5.38229
# Shear Modulus (GPa) = -505.17059 27.47454 -238.84802
#
# Velocity S-wave (km/s) = -15.55616 3.62784 -10.69656
# Velocity P-wave (km/s) = 18.59294 5.95234 12.45526
#
# Compressibility (1/GPa) = -0.02079270
#
# Stress axis : x y z
#
# Youngs Moduli (GPa) = 89.08958 133.45073 167.42051
#
# Poissons Ratio (x) = 1.11830 1.51566
# Poissons Ratio (y) = 0.74656 0.88884
# Poissons Ratio (z) = 0.80653 0.70849
#
# Static dielectric constant tensor:
#      x y z
#    x 1.773910 0.024570 0.002310 
#    y 0.024570 1.813230 0.027640 
#    z 0.002310 0.027640 1.790750 
# 
# From -- ./inp_files/598318.got.cif
#   From: 2010.05.17/outbox.cif.g08.bks.cpg/sg2_300_cif.got.tgz:598318.got - 2010.06.03 11:33:40.
