data_PCOD9015853
_publ_section_title
;
Structure prediction by ZEFSAII (Michael W. Deem and Ramdas Pophale) SiO2 
 PCOD9015853
Probable space group: P -1
;
_chemical_formula_sum "Si O2"
_cell_formula_units_Z 16
_cell_length_a 12.926380
_cell_length_b 9.846456
_cell_length_c 13.916817
_cell_angle_alpha 121.899977
_cell_angle_beta 131.483220
_cell_angle_gamma 95.714277
_cell_volume 796.817989
_symmetry_space_group_name_H-M "P -1"
_symmetry_group_IT_number 2
_symmetry_cell_setting 'triclinic'
loop_
_space_group_symop_operation_xyz
x,y,z
-x,-y,-z
loop_
_atom_site_type_symbol
_atom_site_label
_atom_site_fract_x
_atom_site_fract_y
_atom_site_fract_z
Si Si1 0.020370 0.828821 0.759305
Si Si2 0.338024 0.035327 0.174693
Si Si3 0.275361 0.122816 0.663353
Si Si4 0.067338 0.716979 0.245242
Si Si5 0.030737 0.859604 0.085440
Si Si6 0.045101 0.261358 0.536062
Si Si7 0.710125 0.379459 0.028655
Si Si8 0.773627 0.487078 0.651636
O O1 0.988052 0.749342 0.601073
O O2 0.889539 0.620916 0.675589
O O3 0.964326 0.968586 0.792713
O O4 0.239990 0.994339 0.996774
O O5 0.194550 0.980215 0.149452
O O6 0.548941 0.280903 0.413248
O O7 0.341917 0.845869 0.111241
O O8 0.183651 0.221861 0.628044
O O9 0.212004 0.964057 0.474146
O O10 0.507050 0.306630 0.886250
O O11 0.159557 0.945999 0.614735
O O12 0.059987 0.744613 0.138559
O O13 0.141729 0.605890 0.284299
O O14 0.852326 0.563946 0.102076
O O15 0.829719 0.668671 0.831706
O O16 0.156759 0.495710 0.747061
#
# Coordination Sequence:
#
# PCOD9015853 Si02
#       8
#     2   2   2   2   2   2   2   2
#     4  11  24  45  63  91 131 168 207 258 314 375
#     4  11  24  41  64  94 128 168 211 255 310 378
#     4  10  21  42  65  94 125 164 209 263 310 369
#     4  11  21  41  66  93 126 163 207 263 313 363
#     4  11  24  42  67  92 127 166 211 263 311 368
#     4  10  23  42  66  91 128 166 207 259 316 367
#     4  11  22  40  67  94 128 161 209 261 314 369
#     4  11  23  41  64  92 129 165 207 257 316 369
#
# _framework density 20.079867
#
# number of rings (size 3 to 8) (size 9 to 14) (size 15 to 20)
#    0.000    1.250    5.000    2.250    0.000    5.000 
#    2.250    1.250    0.000    0.000    0.000    0.000 
#    0.000    0.000    0.000    0.000    0.000    0.000 
#
# Total GULP energy -89413.611073 kJ/mol
# GULP energy per Si atom -5588.350692 kJ/mol
# Density = 2.003416 g / cm^3
# Si number density = 20.079867 Si / 1000 Ang^3
#
#
#
# Elastic Constant Matrix: (Units=GPa)
#
#
# Indices 1 2 3 4 5 6 
#
# 1 38.4588 1.2617 43.6736 -7.7643 -0.0095 6.8620
# 2 1.2617 65.1757 32.1113 -10.8061 0.3981 11.1220
# 3 43.6736 32.1113 143.3378 0.0249 11.9631 25.7848
# 4 -7.7643 -10.8061 0.0249 25.6721 -1.6520 -11.8064
# 5 -0.0095 0.3981 11.9631 -1.6520 40.5338 -7.6249
# 6 6.8620 11.1220 25.7848 -11.8064 -7.6249 28.5131
#
#
#
# Elastic Compliance Matrix: (Units=1/GPa)
#
#
# Indices 1 2 3 4 5 6 
#
# 1 0.057246 0.013198 -0.025272 0.033446 0.012688 0.021171
# 2 0.013198 0.021843 -0.010261 0.015964 0.004482 0.005392
# 3 -0.025272 -0.010261 0.021975 -0.023034 -0.011546 -0.022413
# 4 0.033446 0.015964 -0.023034 0.076802 0.017895 0.043141
# 5 0.012688 0.004482 -0.011546 0.017895 0.032875 0.021840
# 6 0.021171 0.005392 -0.022413 0.043141 0.021840 0.071846
#
#
# Mechanical properties :
#
#
# Convention : Reuss Voigt Hill
#
# Bulk Modulus (GPa) = 17.73285 44.56285 31.14785
# Shear Modulus (GPa) = 14.44859 30.27218 22.36038
#
# Velocity S-wave (km/s) = 2.68536 3.88698 3.34064
# Velocity P-wave (km/s) = 4.29712 6.51044 5.51593
#
# Compressibility (1/GPa) = 0.05639250
#
# Stress axis : x y z
#
# Youngs Moduli (GPa) = 17.46853 45.78201 45.50618
#
# Poissons Ratio (x) = -0.60424 1.15004
# Poissons Ratio (y) = -0.23055 0.46696
# Poissons Ratio (z) = 0.44147 0.46979
#
# Static dielectric constant tensor:
#      x y z
#    x 1.706420 -0.042390 -0.013510 
#    y -0.042390 1.726130 0.009840 
#    z -0.013510 0.009840 1.700190 
# 
# From -- ./inp_files/447898.got.cif
#   From: 2010.05.17/outbox.cif.g08.bks.cpg/sg2_224_cif.got.tgz:447898.got - 2010.06.03 11:33:40.
