data_PCOD9015946
_publ_section_title
;
Structure prediction by ZEFSAII (Michael W. Deem and Ramdas Pophale) SiO2 
 PCOD9015946
Probable space group: P -1
;
_chemical_formula_sum "Si O2"
_cell_formula_units_Z 14
_cell_length_a 14.519635
_cell_length_b 15.901131
_cell_length_c 10.582984
_cell_angle_alpha 31.204207
_cell_angle_beta 150.360966
_cell_angle_gamma 152.243298
_cell_volume 521.863844
_symmetry_space_group_name_H-M "P -1"
_symmetry_group_IT_number 2
_symmetry_cell_setting 'triclinic'
loop_
_space_group_symop_operation_xyz
x,y,z
-x,-y,-z
loop_
_atom_site_type_symbol
_atom_site_label
_atom_site_fract_x
_atom_site_fract_y
_atom_site_fract_z
Si Si1 0.650966 0.746608 0.716483
Si Si2 0.063844 0.607783 0.073160
Si Si3 0.828668 0.246629 0.421128
Si Si4 0.430834 0.653344 0.821286
Si Si5 0.369882 0.994044 0.056358
Si Si6 0.862960 0.999696 0.987806
Si Si7 0.681067 0.690890 0.542589
O O1 0.489033 0.741356 0.636547
O O2 0.588605 0.686008 0.576781
O O3 0.676620 0.574396 0.019957
O O4 0.896938 0.942684 0.753568
O O5 0.892193 0.671873 0.820815
O O6 0.296447 0.814790 0.105252
O O7 0.024601 0.441949 0.337795
O O8 0.000000 0.500000 0.000000
O O9 0.720939 0.308721 0.321280
O O10 0.887215 0.115072 0.739978
O O11 0.631694 0.129528 0.232022
O O12 0.673018 0.774675 0.023874
O O13 0.292385 0.126554 0.731179
O O14 0.237501 0.932513 0.110708
O O15 0.500000 0.500000 0.500000
#
# Coordination Sequence:
#
# PCOD9015946 Si02
#       7
#     2   2   2   2   2   2   2
#     4  11  23  41  68 100 132 177 224 281 340 398
#     4  12  27  48  69 105 138 185 236 280 343 413
#     4  11  24  48  67  99 142 175 224 286 347 406
#     4  10  21  42  66 100 132 172 227 274 340 405
#     4  11  23  45  79  95 140 188 226 281 354 399
#     4  11  23  43  71  98 139 175 226 278 347 407
#     4  12  23  50  72  99 144 182 232 287 336 414
#
# _framework density 26.826920000000001
#
# number of rings (size 3 to 8) (size 9 to 14) (size 15 to 20)
#    0.000    0.857    4.286    3.429    0.000    5.143 
#   15.429    0.000    0.000    0.000    0.000    0.000 
#    0.000    0.000    0.000    0.000    0.000    0.000 
#
# Total GULP energy -78498.610375 kJ/mol
# GULP energy per Si atom -5607.043598 kJ/mol
# Density = 2.676586 g / cm^3
# Si number density = 26.826920 Si / 1000 Ang^3
#
#
#
# Elastic Constant Matrix: (Units=GPa)
#
#
# Indices 1 2 3 4 5 6 
#
# 1 144.2075 36.4745 18.2580 5.4788 -9.6127 -33.4263
# 2 36.4745 145.6504 9.8737 6.7319 -17.7105 -26.8482
# 3 18.2580 9.8737 90.6947 -16.5612 -12.6981 -8.6129
# 4 5.4788 6.7319 -16.5612 44.7487 -3.7873 -9.2951
# 5 -9.6127 -17.7105 -12.6981 -3.7873 48.0160 0.9592
# 6 -33.4263 -26.8482 -8.6129 -9.2951 0.9592 42.3623
#
#
#
# Elastic Compliance Matrix: (Units=1/GPa)
#
#
# Indices 1 2 3 4 5 6 
#
# 1 0.008771 -0.000868 -0.000917 0.000092 0.001077 0.006180
# 2 -0.000868 0.008247 0.000116 0.000086 0.002815 0.004520
# 3 -0.000917 0.000116 0.013111 0.005934 0.003730 0.003234
# 4 0.000092 0.000086 0.005934 0.026278 0.003552 0.007019
# 5 0.001077 0.002815 0.003730 0.003552 0.023274 0.003645
# 6 0.006180 0.004520 0.003234 0.007019 0.003645 0.033462
#
#
# Mechanical properties :
#
#
# Convention : Reuss Voigt Hill
#
# Bulk Modulus (GPa) = 37.32642 56.64056 46.98349
# Shear Modulus (GPa) = 39.86902 48.08851 43.97877
#
# Velocity S-wave (km/s) = 3.85925 4.23844 4.05328
# Velocity P-wave (km/s) = 5.81399 6.71652 6.28149
#
# Compressibility (1/GPa) = 0.02679067
#
# Stress axis : x y z
#
# Youngs Moduli (GPa) = 114.01346 121.25743 76.27266
#
# Poissons Ratio (x) = 0.10531 0.06991
# Poissons Ratio (y) = 0.09902 -0.00885
# Poissons Ratio (z) = 0.10451 -0.01408
#
# Static dielectric constant tensor:
#      x y z
#    x 2.100150 0.004520 0.087880 
#    y 0.004520 2.090690 0.058690 
#    z 0.087880 0.058690 2.196600 
# 
# From -- ./inp_files/314528.got.cif
#   From: 2010.05.17/outbox.cif.g08.bks.cpg/sg2_158_cif.got.tgz:314528.got - 2010.06.03 11:33:40.
