data_PCOD9015831
_publ_section_title
;
Structure prediction by ZEFSAII (Michael W. Deem and Ramdas Pophale) SiO2 
 PCOD9015831
Probable space group: P -1
;
_chemical_formula_sum "Si O2"
_cell_formula_units_Z 13
_cell_length_a 11.259483
_cell_length_b 8.036027
_cell_length_c 11.252370
_cell_angle_alpha 118.677122
_cell_angle_beta 55.150672
_cell_angle_gamma 142.120601
_cell_volume 512.179598
_symmetry_space_group_name_H-M "P -1"
_symmetry_group_IT_number 2
_symmetry_cell_setting 'triclinic'
loop_
_space_group_symop_operation_xyz
x,y,z
-x,-y,-z
loop_
_atom_site_type_symbol
_atom_site_label
_atom_site_fract_x
_atom_site_fract_y
_atom_site_fract_z
Si Si1 0.630834 0.578974 0.334217
Si Si2 0.663617 0.919961 0.826815
Si Si3 0.430841 0.736707 0.396244
Si Si4 0.185028 0.790036 0.931117
Si Si5 0.000000 0.000000 0.000000
Si Si6 0.306612 0.410763 0.148526
Si Si7 0.100346 0.408859 0.669079
O O1 0.500000 0.500000 0.500000
O O2 0.533231 0.318328 0.222221
O O3 0.611653 0.749531 0.324744
O O4 0.844383 0.708393 0.309688
O O5 0.728065 0.770620 0.786521
O O6 0.852657 0.182530 0.731867
O O7 0.648479 0.023252 0.994054
O O8 0.377641 0.667242 0.264504
O O9 0.221502 0.489531 0.505510
O O10 0.500000 0.000000 0.500000
O O11 0.211990 0.694374 0.763830
O O12 0.106862 0.923573 0.984051
O O13 0.000000 0.500000 0.000000
O O14 0.123788 0.263405 0.109804
O O15 0.500000 0.500000 0.000000
#
# Coordination Sequence:
#
# PCOD9015831 Si02
#       7
#     2   2   2   2   1   2   2
#     4   9  20  39  64  89 122 172 208 266 331 376
#     4   9  20  39  65  92 124 168 220 266 319 388
#     4  10  23  41  63  99 135 165 220 270 328 396
#     4   9  20  39  63  97 127 165 220 270 318 392
#     4  10  22  44  68  92 134 176 224 266 336 392
#     4  10  23  41  67  94 131 175 213 271 328 395
#     4  10  21  42  65  92 129 165 219 273 318 391
#
# _framework density 25.381720000000001
#
# number of rings (size 3 to 8) (size 9 to 14) (size 15 to 20)
#    0.000    2.462    0.000    0.000    4.308   13.538 
#   11.077    2.308    0.000    0.000    0.000    0.000 
#    0.000    0.000    0.000    0.000    0.000    0.000 
#
# Total GULP energy -72400.211574 kJ/mol
# GULP energy per Si atom -5569.247044 kJ/mol
# Density = 2.532395 g / cm^3
# Si number density = 25.381720 Si / 1000 Ang^3
#
#
#
# Elastic Constant Matrix: (Units=GPa)
#
#
# Indices 1 2 3 4 5 6 
#
# 1 85.0159 10.1815 9.1014 7.8867 13.8056 -2.8071
# 2 10.1815 92.1836 45.2895 10.9340 7.3774 -2.1719
# 3 9.1014 45.2895 174.3251 25.7098 16.3465 5.3770
# 4 7.8867 10.9340 25.7098 52.1698 1.3804 -0.6998
# 5 13.8056 7.3774 16.3465 1.3804 34.8383 20.3650
# 6 -2.8071 -2.1719 5.3770 -0.6998 20.3650 23.3345
#
#
#
# Elastic Compliance Matrix: (Units=1/GPa)
#
#
# Indices 1 2 3 4 5 6 
#
# 1 0.014620 -0.000173 0.000434 -0.001835 -0.013914 0.013731
# 2 -0.000173 0.012956 -0.002944 -0.001033 -0.004745 0.005973
# 3 0.000434 -0.002944 0.007192 -0.002890 -0.003387 0.000991
# 4 -0.001835 -0.001033 -0.002890 0.021030 0.001829 -0.000617
# 5 -0.013914 -0.004745 -0.003387 0.001829 0.076532 -0.068073
# 6 0.013731 0.005973 0.000991 -0.000617 -0.068073 0.104226
#
#
# Mechanical properties :
#
#
# Convention : Reuss Voigt Hill
#
# Bulk Modulus (GPa) = 34.01213 53.40773 43.70993
# Shear Modulus (GPa) = 19.86305 41.19867 30.53086
#
# Velocity S-wave (km/s) = 2.80049 4.03322 3.47200
# Velocity P-wave (km/s) = 4.88736 6.54039 5.77334
#
# Compressibility (1/GPa) = 0.02940128
#
# Stress axis : x y z
#
# Youngs Moduli (GPa) = 68.39942 77.18215 139.04485
#
# Poissons Ratio (x) = 0.01335 -0.06028
# Poissons Ratio (y) = 0.01183 0.40936
# Poissons Ratio (z) = -0.02965 0.22723
#
# Static dielectric constant tensor:
#      x y z
#    x 2.006500 -0.035830 -0.028160 
#    y -0.035830 2.166460 -0.038130 
#    z -0.028160 -0.038130 2.105910 
# 
# From -- ./inp_files/418081.got.cif
#   From: 2010.05.17/outbox.cif.g08.bks.cpg/sg2_210_cif.got.tgz:418081.got - 2010.06.03 11:33:40.
