data_PCOD9015273
_publ_section_title
;
Structure prediction by ZEFSAII (Michael W. Deem and Ramdas Pophale) SiO2 
 PCOD9015273
Probable space group: P -1
;
_chemical_formula_sum "Si O2"
_cell_formula_units_Z 16
_cell_length_a 15.460454
_cell_length_b 8.600973
_cell_length_c 11.427732
_cell_angle_alpha 42.535989
_cell_angle_beta 48.448627
_cell_angle_gamma 73.624934
_cell_volume 701.639948
_symmetry_space_group_name_H-M "P -1"
_symmetry_group_IT_number 2
_symmetry_cell_setting 'triclinic'
loop_
_space_group_symop_operation_xyz
x,y,z
-x,-y,-z
loop_
_atom_site_type_symbol
_atom_site_label
_atom_site_fract_x
_atom_site_fract_y
_atom_site_fract_z
Si Si1 0.133461 0.983618 0.370659
Si Si2 0.767132 0.814144 0.085262
Si Si3 0.514500 0.824924 0.806211
Si Si4 0.439304 0.625351 0.600353
Si Si5 0.388336 0.429914 0.321355
Si Si6 0.724050 0.507516 0.954519
Si Si7 0.146459 0.445293 0.651780
Si Si8 0.916292 0.327931 0.777379
O O1 0.142402 0.717148 0.521037
O O2 0.235980 0.193481 0.244508
O O3 0.000000 0.000000 0.500000
O O4 0.168449 0.078223 0.154800
O O5 0.625071 0.621390 0.286290
O O6 0.829008 0.658713 0.189737
O O7 0.801624 0.069702 0.985005
O O8 0.616313 0.773399 0.661197
O O9 0.534563 0.112145 0.631134
O O10 0.485974 0.692901 0.031391
O O11 0.384714 0.657181 0.945782
O O12 0.550929 0.629147 0.583587
O O13 0.329510 0.593777 0.813133
O O14 0.259468 0.451021 0.461517
O O15 0.850154 0.476083 0.825484
O O16 0.014822 0.278606 0.799597
O O17 0.000000 0.500000 0.500000
#
# Coordination Sequence:
#
# PCOD9015273 Si02
#       8
#     2   2   2   2   2   2   2   2
#     4  11  23  48  68  99 143 186 230 285 351 412
#     4  11  27  44  69 107 137 181 235 284 353 405
#     4  10  22  44  70  99 138 190 229 281 344 412
#     4  10  24  46  68  98 140 186 227 284 344 408
#     4  10  23  42  71 106 136 182 236 280 343 416
#     4  10  21  41  74  94 134 188 231 275 348 417
#     4  12  26  43  73 107 140 179 232 293 347 413
#     4  12  23  46  72 100 138 181 226 292 350 412
#
# _framework density 22.803716000000001
#
# number of rings (size 3 to 8) (size 9 to 14) (size 15 to 20)
#    0.000    1.250    2.500    2.625    3.500    5.000 
#    0.000    7.500    0.000    0.000    0.000    0.000 
#    0.000    0.000    0.000    0.000    0.000    0.000 
#
# Total GULP energy -89447.951745 kJ/mol
# GULP energy per Si atom -5590.496984 kJ/mol
# Density = 2.275181 g / cm^3
# Si number density = 22.803716 Si / 1000 Ang^3
#
#
#
# Elastic Constant Matrix: (Units=GPa)
#
#
# Indices 1 2 3 4 5 6 
#
# 1 68.5274 32.0719 15.1862 -5.1970 -3.1379 1.0711
# 2 32.0719 136.2470 42.5424 -18.3622 -9.9916 -17.0747
# 3 15.1862 42.5424 70.6477 -32.6453 7.2100 1.1813
# 4 -5.1970 -18.3622 -32.6453 35.8231 3.2120 -2.0797
# 5 -3.1379 -9.9916 7.2100 3.2120 43.7544 -7.8857
# 6 1.0711 -17.0747 1.1813 -2.0797 -7.8857 30.5320
#
#
#
# Elastic Compliance Matrix: (Units=1/GPa)
#
#
# Indices 1 2 3 4 5 6 
#
# 1 0.016774 -0.003858 -0.001965 -0.001516 0.000270 -0.002704
# 2 -0.003858 0.011888 -0.007689 -0.001465 0.005318 0.008355
# 3 -0.001965 -0.007689 0.032233 0.025696 -0.010243 -0.006373
# 4 -0.001516 -0.001465 0.025696 0.051096 -0.008515 -0.000479
# 5 0.000270 0.005318 -0.010243 -0.008515 0.028216 0.010069
# 6 -0.002704 0.008355 -0.006373 -0.000479 0.010069 0.040334
#
#
# Mechanical properties :
#
#
# Convention : Reuss Voigt Hill
#
# Bulk Modulus (GPa) = 29.52446 50.55813 40.04130
# Shear Modulus (GPa) = 22.84608 34.39666 28.62137
#
# Velocity S-wave (km/s) = 3.16865 3.88800 3.54661
# Velocity P-wave (km/s) = 5.13444 6.50957 5.86246
#
# Compressibility (1/GPa) = 0.03387022
#
# Stress axis : x y z
#
# Youngs Moduli (GPa) = 59.61779 84.11648 31.02436
#
# Poissons Ratio (x) = 0.32453 0.06097
# Poissons Ratio (y) = 0.23001 0.23854
# Poissons Ratio (z) = 0.11717 0.64675
#
# Static dielectric constant tensor:
#      x y z
#    x 1.839520 -0.068800 -0.029940 
#    y -0.068800 1.375130 0.002870 
#    z -0.029940 0.002870 1.861280 
# 
# From -- ./inp_files/446596.got.cif
#   From: 2010.05.17/outbox.cif.g08.bks.cpg/sg2_224_cif.got.tgz:446596.got - 2010.06.03 11:33:40.
