data_PCOD9015149
_publ_section_title
;
Structure prediction by ZEFSAII (Michael W. Deem and Ramdas Pophale) SiO2 
 PCOD9015149
Probable space group: P -1
;
_chemical_formula_sum "Si O2"
_cell_formula_units_Z 14
_cell_length_a 9.399725
_cell_length_b 11.026590
_cell_length_c 15.630883
_cell_angle_alpha 130.785113
_cell_angle_beta 151.117976
_cell_angle_gamma 60.223007
_cell_volume 579.783196
_symmetry_space_group_name_H-M "P -1"
_symmetry_group_IT_number 2
_symmetry_cell_setting 'triclinic'
loop_
_space_group_symop_operation_xyz
x,y,z
-x,-y,-z
loop_
_atom_site_type_symbol
_atom_site_label
_atom_site_fract_x
_atom_site_fract_y
_atom_site_fract_z
Si Si1 0.445400 0.130960 0.461267
Si Si2 0.323184 0.984657 0.628739
Si Si3 0.708516 0.495853 0.787055
Si Si4 0.771370 0.325192 0.314867
Si Si5 0.886769 0.469101 0.142415
Si Si6 0.271039 0.311295 0.695003
Si Si7 0.196142 0.847938 0.921817
O O1 0.500657 0.316373 0.609895
O O2 0.107541 0.090069 0.228829
O O3 0.500000 0.000000 0.500000
O O4 0.659740 0.140267 0.495149
O O5 0.422310 0.156678 0.711044
O O6 0.561090 0.006739 0.840873
O O7 0.000000 0.000000 0.500000
O O8 0.520013 0.631276 0.774930
O O9 0.832046 0.518155 0.765790
O O10 0.000000 0.500000 0.000000
O O11 0.697378 0.218844 0.141949
O O12 0.000000 0.500000 0.500000
O O13 0.991499 0.251655 0.458238
O O14 0.880587 0.624010 0.271550
O O15 0.871761 0.314275 0.127617
O O16 0.577190 0.451141 0.914313
#
# Coordination Sequence:
#
# PCOD9015149 Si02
#       7
#     2   2   2   2   2   2   2
#     4  12  27  48  70 100 148 192 229 282 357 428
#     4  11  26  45  69  99 141 185 236 286 347 431
#     4  12  28  42  73 109 141 174 243 295 348 412
#     4  12  22  43  69 102 137 178 228 298 352 411
#     4  10  22  41  73 103 137 178 238 296 342 410
#     4  10  21  41  71  99 139 184 229 284 362 406
#     4  11  25  46  74 100 138 193 237 284 362 413
#
# _framework density 24.146958000000001
#
# number of rings (size 3 to 8) (size 9 to 14) (size 15 to 20)
#    0.000    0.857    2.857    3.000   10.000    3.429 
#    2.571    1.429    0.000    0.000    0.000    0.000 
#    0.000    0.000    0.000    0.000    0.000    0.000 
#
# Total GULP energy -78230.631680 kJ/mol
# GULP energy per Si atom -5587.902263 kJ/mol
# Density = 2.409200 g / cm^3
# Si number density = 24.146958 Si / 1000 Ang^3
#
#
#
# Elastic Constant Matrix: (Units=GPa)
#
#
# Indices 1 2 3 4 5 6 
#
# 1 151.1712 27.0597 29.7815 -9.3901 0.5123 -26.2917
# 2 27.0597 69.9397 17.0214 -26.0918 -6.8300 -4.8249
# 3 29.7815 17.0214 97.0321 -39.1275 -10.7425 13.5473
# 4 -9.3901 -26.0918 -39.1275 37.7072 -8.8457 5.4195
# 5 0.5123 -6.8300 -10.7425 -8.8457 35.1324 -5.3704
# 6 -26.2917 -4.8249 13.5473 5.4195 -5.3704 26.9904
#
#
#
# Elastic Compliance Matrix: (Units=1/GPa)
#
#
# Indices 1 2 3 4 5 6 
#
# 1 0.017651 -0.015583 -0.026071 -0.042081 -0.016873 0.032587
# 2 -0.015583 0.039533 0.035388 0.072556 0.031786 -0.034119
# 3 -0.026071 0.035388 0.074230 0.116485 0.048578 -0.070051
# 4 -0.042081 0.072556 0.116485 0.224455 0.089461 -0.113757
# 5 -0.016873 0.031786 0.048578 0.089461 0.066163 -0.039934
# 6 0.032587 -0.034119 -0.070051 -0.113757 -0.039934 0.112750
#
#
# Mechanical properties :
#
#
# Convention : Reuss Voigt Hill
#
# Bulk Modulus (GPa) = 8.41160 51.76315 30.08738
# Shear Modulus (GPa) = 8.51876 36.25137 22.38506
#
# Velocity S-wave (km/s) = 1.88030 3.87884 3.04803
# Velocity P-wave (km/s) = 2.86446 6.44545 4.98743
#
# Compressibility (1/GPa) = 0.11888343
#
# Stress axis : x y z
#
# Youngs Moduli (GPa) = 56.65356 25.29543 13.47171
#
# Poissons Ratio (x) = 0.39418 0.35122
# Poissons Ratio (y) = 0.88283 -0.47674
# Poissons Ratio (z) = 1.47699 -0.89517
#
# Static dielectric constant tensor:
#      x y z
#    x 1.938500 -0.009450 0.074660 
#    y -0.009450 1.827650 0.168470 
#    z 0.074660 0.168470 1.802070 
# 
# From -- ./inp_files/271425.got.cif
#   From: 2010.05.17/outbox.cif.g08.bks.cpg/sg2_136_cif.got.tgz:271425.got - 2010.06.03 11:33:40.
