data_PCOD9015451
_publ_section_title
;
Structure prediction by ZEFSAII (Michael W. Deem and Ramdas Pophale) SiO2 
 PCOD9015451
Probable space group: P -1
;
_chemical_formula_sum "Si O2"
_cell_formula_units_Z 16
_cell_length_a 12.077858
_cell_length_b 6.914072
_cell_length_c 10.738152
_cell_angle_alpha 99.360509
_cell_angle_beta 83.445848
_cell_angle_gamma 126.339943
_cell_volume 712.519936
_symmetry_space_group_name_H-M "P -1"
_symmetry_group_IT_number 2
_symmetry_cell_setting 'triclinic'
loop_
_space_group_symop_operation_xyz
x,y,z
-x,-y,-z
loop_
_atom_site_type_symbol
_atom_site_label
_atom_site_fract_x
_atom_site_fract_y
_atom_site_fract_z
Si Si1 0.592434 0.940485 0.803046
Si Si2 0.100098 0.895229 0.885915
Si Si3 0.054111 0.339101 0.502365
Si Si4 0.316950 0.824627 0.916420
Si Si5 0.147033 0.147381 0.655841
Si Si6 0.308207 0.626412 0.312461
Si Si7 0.804631 0.623941 0.956304
Si Si8 0.472397 0.433789 0.641059
O O1 0.456929 0.936602 0.836539
O O2 0.545609 0.678201 0.739668
O O3 0.682594 0.136447 0.704381
O O4 0.659310 0.033024 0.941238
O O5 0.205001 0.826058 0.852460
O O6 0.952110 0.671689 0.925655
O O7 0.079219 0.004156 0.777003
O O8 0.163585 0.118361 0.995572
O O9 0.109021 0.324405 0.628825
O O10 0.185375 0.450268 0.404851
O O11 0.000000 0.500000 0.500000
O O12 0.923437 0.068221 0.458356
O O13 0.269806 0.561225 0.940285
O O14 0.308975 0.278474 0.663959
O O15 0.278529 0.490983 0.170677
O O16 0.451542 0.690895 0.351457
O O17 0.500000 0.500000 0.500000
#
# Coordination Sequence:
#
# PCOD9015451 Si02
#       8
#     2   2   2   2   2   2   2   2
#     4  10  24  40  67  95 131 176 214 269 329 393
#     4  11  21  39  66  96 131 167 214 275 324 388
#     4  11  26  46  68  92 133 178 216 269 322 386
#     4  10  21  42  62  96 131 169 221 264 331 389
#     4  11  25  45  65  99 129 171 222 265 327 390
#     4  11  23  46  66  97 131 172 223 263 329 390
#     4  10  22  39  63  97 129 170 214 266 333 387
#     4  12  25  42  66  96 134 170 219 273 320 387
#
# _framework density 22.45551
#
# number of rings (size 3 to 8) (size 9 to 14) (size 15 to 20)
#    0.000    1.250    2.500    2.625    1.750    3.500 
#    9.000    5.000    0.000    0.000    0.000    0.000 
#    0.000    0.000    0.000    0.000    0.000    0.000 
#
# Total GULP energy -89411.923664 kJ/mol
# GULP energy per Si atom -5588.245229 kJ/mol
# Density = 2.240440 g / cm^3
# Si number density = 22.455510 Si / 1000 Ang^3
#
#
#
# Elastic Constant Matrix: (Units=GPa)
#
#
# Indices 1 2 3 4 5 6 
#
# 1 90.9022 19.7431 9.0086 -1.8976 22.5356 -14.0453
# 2 19.7431 59.6291 13.5394 -5.4995 8.6001 12.6258
# 3 9.0086 13.5394 39.6087 -18.9234 1.8302 -6.8159
# 4 -1.8976 -5.4995 -18.9234 32.2472 -3.3778 3.8469
# 5 22.5356 8.6001 1.8302 -3.3778 19.0552 -4.6087
# 6 -14.0453 12.6258 -6.8159 3.8469 -4.6087 33.9585
#
#
#
# Elastic Compliance Matrix: (Units=1/GPa)
#
#
# Indices 1 2 3 4 5 6 
#
# 1 0.017452 -0.004438 -0.002290 -0.003677 -0.017509 0.006449
# 2 -0.004438 0.024579 -0.009946 -0.001124 -0.008473 -0.013993
# 3 -0.002290 -0.009946 0.040928 0.022020 0.009532 0.009764
# 4 -0.003677 -0.001124 0.022020 0.044670 0.010585 -0.000307
# 5 -0.017509 -0.008473 0.009532 0.010585 0.079773 0.007449
# 6 0.006449 -0.013993 0.009764 -0.000307 0.007449 0.040323
#
#
# Mechanical properties :
#
#
# Convention : Reuss Voigt Hill
#
# Bulk Modulus (GPa) = 20.15690 30.52468 25.34079
# Shear Modulus (GPa) = 16.80055 26.90878 21.85467
#
# Velocity S-wave (km/s) = 2.73824 3.46542 3.12307
# Velocity P-wave (km/s) = 4.35811 5.44382 4.93094
#
# Compressibility (1/GPa) = 0.04961079
#
# Stress axis : x y z
#
# Youngs Moduli (GPa) = 57.30051 40.68479 24.43320
#
# Poissons Ratio (x) = 0.18054 0.05596
# Poissons Ratio (y) = 0.25427 0.24301
# Poissons Ratio (z) = 0.13125 0.40465
#
# Static dielectric constant tensor:
#      x y z
#    x 1.830700 0.017830 0.009970 
#    y 0.017830 1.881920 0.011150 
#    z 0.009970 0.011150 1.843110 
# 
# From -- ./inp_files/70314.got.cif
#   From: 2010.05.17/outbox.cif.g08.bks.cpg/sg2_36_cif.got.tgz:70314.got - 2010.06.03 11:33:40.
