data_PCOD9015371
_publ_section_title
;
Structure prediction by ZEFSAII (Michael W. Deem and Ramdas Pophale) SiO2 
 PCOD9015371
Probable space group: P -1
;
_chemical_formula_sum "Si O2"
_cell_formula_units_Z 16
_cell_length_a 12.054554
_cell_length_b 17.661147
_cell_length_c 8.494276
_cell_angle_alpha 120.088254
_cell_angle_beta 95.515739
_cell_angle_gamma 136.657719
_cell_volume 677.655569
_symmetry_space_group_name_H-M "P -1"
_symmetry_group_IT_number 2
_symmetry_cell_setting 'triclinic'
loop_
_space_group_symop_operation_xyz
x,y,z
-x,-y,-z
loop_
_atom_site_type_symbol
_atom_site_label
_atom_site_fract_x
_atom_site_fract_y
_atom_site_fract_z
Si Si1 0.715247 0.326832 0.235131
Si Si2 0.265556 0.236896 0.653939
Si Si3 0.301827 0.394259 0.102550
Si Si4 0.545760 0.028452 0.280681
Si Si5 0.438997 0.725677 0.180487
Si Si6 0.831795 0.167647 0.725181
Si Si7 0.464282 0.776868 0.576001
Si Si8 0.009744 0.067035 0.919446
O O1 0.623430 0.318731 0.364593
O O2 0.000000 0.500000 0.500000
O O3 0.533751 0.112623 0.973718
O O4 0.702055 0.360322 0.094440
O O5 0.229044 0.288388 0.823969
O O6 0.440224 0.285451 0.806630
O O7 0.014996 0.014502 0.319931
O O8 0.415532 0.375126 0.661310
O O9 0.100198 0.330347 0.003392
O O10 0.244330 0.295781 0.144957
O O11 0.319849 0.877027 0.222840
O O12 0.812122 0.198186 0.583945
O O13 0.547495 0.126245 0.313106
O O14 0.315507 0.651146 0.260710
O O15 0.659814 0.957602 0.459170
O O16 0.751825 0.943900 0.761983
O O17 0.000000 0.000000 0.000000
#
# Coordination Sequence:
#
# PCOD9015371 Si02
#       8
#     2   2   2   2   2   2   2   2
#     4  11  24  36  59  93 127 164 205 260 315 370
#     4  10  23  39  64  95 124 159 215 260 300 399
#     4  11  21  39  65  95 121 163 214 250 324 372
#     4   9  18  36  59  86 120 156 210 257 293 383
#     4   9  20  41  61  87 125 164 208 259 308 378
#     4   9  17  34  65  87 113 168 206 253 317 358
#     4  10  21  42  61  92 117 165 219 247 318 378
#     4  11  24  41  65  91 127 168 202 265 321 366
#
# _framework density 23.610816
#
# number of rings (size 3 to 8) (size 9 to 14) (size 15 to 20)
#    0.000    2.000    3.750    1.500    1.750    5.000 
#    0.000    2.500    0.000    0.000    0.000    0.000 
#    0.000    0.000    0.000    0.000    0.000    0.000 
#
# Total GULP energy -89289.979356 kJ/mol
# GULP energy per Si atom -5580.623710 kJ/mol
# Density = 2.355708 g / cm^3
# Si number density = 23.610816 Si / 1000 Ang^3
#
#
#
# Elastic Constant Matrix: (Units=GPa)
#
#
# Indices 1 2 3 4 5 6 
#
# 1 57.3316 30.1165 6.8707 -19.3703 -4.8126 -13.4307
# 2 30.1165 142.2966 45.9182 -27.5805 9.0479 -12.1689
# 3 6.8707 45.9182 84.1687 -29.9372 -1.5061 -5.2422
# 4 -19.3703 -27.5805 -29.9372 46.6659 -3.4429 -0.1613
# 5 -4.8126 9.0479 -1.5061 -3.4429 21.7978 -8.6517
# 6 -13.4307 -12.1689 -5.2422 -0.1613 -8.6517 47.0693
#
#
#
# Elastic Compliance Matrix: (Units=1/GPa)
#
#
# Indices 1 2 3 4 5 6 
#
# 1 0.027669 -0.005384 0.006380 0.013528 0.014889 0.009996
# 2 -0.005384 0.010196 -0.005284 -0.000046 -0.006030 -0.000598
# 3 0.006380 -0.005284 0.019068 0.012402 0.008541 0.004190
# 4 0.013528 -0.000046 0.012402 0.035928 0.012580 0.007665
# 5 0.014889 -0.006030 0.008541 0.012580 0.060089 0.014729
# 6 0.009996 -0.000598 0.004190 0.007665 0.014729 0.027143
#
#
# Mechanical properties :
#
#
# Convention : Reuss Voigt Hill
#
# Bulk Modulus (GPa) = 20.68069 49.95642 35.31856
# Shear Modulus (GPa) = 24.41537 36.49938 30.45737
#
# Velocity S-wave (km/s) = 3.21919 3.93603 3.59552
# Velocity P-wave (km/s) = 4.75348 6.46998 5.67698
#
# Compressibility (1/GPa) = 0.04835428
#
# Stress axis : x y z
#
# Youngs Moduli (GPa) = 36.14209 98.07976 52.44394
#
# Poissons Ratio (x) = 0.52810 -0.33457
# Poissons Ratio (y) = 0.19460 0.27713
# Poissons Ratio (z) = -0.23057 0.51828
#
# Static dielectric constant tensor:
#      x y z
#    x 1.852990 -0.010530 -0.010500 
#    y -0.010530 2.040710 0.014970 
#    z -0.010500 0.014970 1.914650 
# 
# From -- ./inp_files/279708.got.cif
#   From: 2010.05.17/outbox.cif.g08.bks.cpg/sg2_140_cif.got.tgz:279708.got - 2010.06.03 11:33:40.
