data_PCOD9015709
_publ_section_title
;
Structure prediction by ZEFSAII (Michael W. Deem and Ramdas Pophale) SiO2 
 PCOD9015709
Probable space group: P -1
;
_chemical_formula_sum "Si O2"
_cell_formula_units_Z 16
_cell_length_a 14.573975
_cell_length_b 8.737610
_cell_length_c 13.476462
_cell_angle_alpha 59.232018
_cell_angle_beta 29.226381
_cell_angle_gamma 70.589746
_cell_volume 692.830725
_symmetry_space_group_name_H-M "P -1"
_symmetry_group_IT_number 2
_symmetry_cell_setting 'triclinic'
loop_
_space_group_symop_operation_xyz
x,y,z
-x,-y,-z
loop_
_atom_site_type_symbol
_atom_site_label
_atom_site_fract_x
_atom_site_fract_y
_atom_site_fract_z
Si Si1 0.371645 0.849188 0.093487
Si Si2 0.244989 0.081867 0.780129
Si Si3 0.009094 0.412553 0.368709
Si Si4 0.238369 0.170956 0.348113
Si Si5 0.064684 0.772277 0.908372
Si Si6 0.082803 0.833140 0.205635
Si Si7 0.387882 0.654712 0.568877
Si Si8 0.116324 0.760662 0.644995
O O1 0.212912 0.682657 0.353018
O O2 0.234192 0.922787 0.121599
O O3 0.530837 0.781023 0.901492
O O4 0.500000 0.000000 0.000000
O O5 0.462881 0.178418 0.571502
O O6 0.204007 0.961516 0.759693
O O7 0.129042 0.241554 0.841147
O O8 0.151365 0.940444 0.004041
O O9 0.000350 0.397770 0.263687
O O10 0.143419 0.289792 0.325367
O O11 0.088657 0.621405 0.259476
O O12 0.139686 0.189160 0.541256
O O13 0.162470 0.949805 0.476745
O O14 0.188328 0.622228 0.832571
O O15 0.014180 0.791038 0.834084
O O16 0.500000 0.500000 0.500000
O O17 0.314559 0.720458 0.512462
#
# Coordination Sequence:
#
# PCOD9015709 Si02
#       8
#     2   2   2   2   2   2   2   2
#     4  11  23  38  68  94 124 174 221 263 324 392
#     4  11  21  43  70  91 131 184 215 271 340 393
#     4  11  25  42  62 102 136 170 220 276 325 386
#     4  11  21  43  68  92 135 174 219 271 320 397
#     4   9  23  41  67  98 125 176 224 267 332 404
#     4  11  25  41  64  97 138 169 222 272 327 393
#     4  10  23  43  64  95 133 164 223 282 321 388
#     4  10  21  42  64  96 129 172 215 269 328 391
#
# _framework density 23.093662999999999
#
# number of rings (size 3 to 8) (size 9 to 14) (size 15 to 20)
#    0.750    0.750    2.500    3.000    1.750    4.500 
#    2.250    0.000    0.000    0.000    0.000    0.000 
#    0.000    0.000    0.000    0.000    0.000    0.000 
#
# Total GULP energy -89238.933195 kJ/mol
# GULP energy per Si atom -5577.433325 kJ/mol
# Density = 2.304110 g / cm^3
# Si number density = 23.093663 Si / 1000 Ang^3
#
#
#
# Elastic Constant Matrix: (Units=GPa)
#
#
# Indices 1 2 3 4 5 6 
#
# 1 84.1488 26.7312 25.5032 -8.2565 -2.3512 16.6177
# 2 26.7312 109.9914 38.1697 18.0666 -4.5064 -11.9967
# 3 25.5032 38.1697 101.8443 17.9972 -4.4908 -3.9833
# 4 -8.2565 18.0666 17.9972 45.1569 1.4592 -4.6983
# 5 -2.3512 -4.5064 -4.4908 1.4592 24.9544 5.4388
# 6 16.6177 -11.9967 -3.9833 -4.6983 5.4388 38.7059
#
#
#
# Elastic Compliance Matrix: (Units=1/GPa)
#
#
# Indices 1 2 3 4 5 6 
#
# 1 0.016703 -0.004525 -0.003703 0.005400 0.001633 -0.008529
# 2 -0.004525 0.012322 -0.002517 -0.004260 0.000524 0.004912
# 3 -0.003703 -0.002517 0.012620 -0.004606 0.001444 0.001346
# 4 0.005400 -0.004260 -0.004606 0.026701 -0.002539 -0.000515
# 5 0.001633 0.000524 0.001444 -0.002539 0.042174 -0.006624
# 6 -0.008529 0.004912 0.001346 -0.000515 -0.006624 0.032027
#
#
# Mechanical properties :
#
#
# Convention : Reuss Voigt Hill
#
# Bulk Modulus (GPa) = 49.61352 52.97697 51.29525
# Shear Modulus (GPa) = 29.28220 35.46880 32.37550
#
# Velocity S-wave (km/s) = 3.56473 3.92327 3.74829
# Velocity P-wave (km/s) = 6.20268 6.59640 6.40257
#
# Compressibility (1/GPa) = 0.02015580
#
# Stress axis : x y z
#
# Youngs Moduli (GPa) = 59.87001 81.15861 79.24140
#
# Poissons Ratio (x) = 0.36721 0.29340
# Poissons Ratio (y) = 0.27089 0.19945
# Poissons Ratio (z) = 0.22168 0.20427
#
# Static dielectric constant tensor:
#      x y z
#    x 1.875020 -0.010780 0.024820 
#    y -0.010780 1.920970 0.007810 
#    z 0.024820 0.007810 1.877590 
# 
# From -- ./inp_files/529466.got.cif
#   From: 2010.05.17/outbox.cif.g08.bks.cpg/sg2_265_cif.got.tgz:529466.got - 2010.06.03 11:33:40.
