data_PCOD9015007
_publ_section_title
;
Structure prediction by ZEFSAII (Michael W. Deem and Ramdas Pophale) SiO2 
 PCOD9015007
Probable space group: P -1
;
_chemical_formula_sum "Si O2"
_cell_formula_units_Z 16
_cell_length_a 18.002101
_cell_length_b 10.875227
_cell_length_c 18.314144
_cell_angle_alpha 23.199469
_cell_angle_beta 33.327304
_cell_angle_gamma 44.340056
_cell_volume 752.599543
_symmetry_space_group_name_H-M "P -1"
_symmetry_group_IT_number 2
_symmetry_cell_setting 'triclinic'
loop_
_space_group_symop_operation_xyz
x,y,z
-x,-y,-z
loop_
_atom_site_type_symbol
_atom_site_label
_atom_site_fract_x
_atom_site_fract_y
_atom_site_fract_z
Si Si1 0.804133 0.694056 0.289485
Si Si2 0.052966 0.845004 0.472245
Si Si3 0.417256 0.184694 0.280403
Si Si4 0.533659 0.799169 0.513276
Si Si5 0.769448 0.448099 0.685825
Si Si6 0.069983 0.668182 0.244643
Si Si7 0.697284 0.806778 0.019282
Si Si8 0.345240 0.560829 0.598929
O O1 0.880377 0.440817 0.398477
O O2 0.689945 0.758360 0.404976
O O3 0.726032 0.538023 0.365392
O O4 0.898462 0.030207 0.999665
O O5 0.932755 0.660821 0.616796
O O6 0.168543 0.101923 0.192534
O O7 0.000000 0.000000 0.500000
O O8 0.311416 0.291113 0.364936
O O9 0.514172 0.009281 0.343794
O O10 0.350748 0.927171 0.414335
O O11 0.500000 0.500000 0.000000
O O12 0.500000 0.000000 0.500000
O O13 0.427567 0.447921 0.779443
O O14 0.816651 0.293742 0.805170
O O15 0.915825 0.607894 0.439238
O O16 0.678705 0.155772 0.871150
O O17 0.724673 0.635561 0.165333
O O18 0.500000 0.500000 0.500000
#
# Coordination Sequence:
#
# PCOD9015007 Si02
#       8
#     2   2   2   2   2   2   2   2
#     4  12  24  44  68  92 135 175 213 273 330 386
#     4  11  28  44  64  96 132 178 225 267 322 392
#     4  11  23  38  68  98 128 164 221 270 319 391
#     4  11  27  42  66 100 134 174 208 262 344 401
#     4  10  21  41  70  96 126 172 222 275 319 375
#     4  10  23  43  66  92 130 176 220 265 325 383
#     4  10  22  46  67  92 137 165 219 274 324 392
#     4  11  21  43  65  99 128 167 215 271 333 384
#
# _framework density 21.259646
#
# number of rings (size 3 to 8) (size 9 to 14) (size 15 to 20)
#    0.000    1.250    3.750    1.875    7.000    3.500 
#    0.000    1.250    0.000    0.000    0.000    0.000 
#    0.000    0.000    0.000    0.000    0.000    0.000 
#
# Total GULP energy -89452.157472 kJ/mol
# GULP energy per Si atom -5590.759842 kJ/mol
# Density = 2.121126 g / cm^3
# Si number density = 21.259646 Si / 1000 Ang^3
#
#
#
# Elastic Constant Matrix: (Units=GPa)
#
#
# Indices 1 2 3 4 5 6 
#
# 1 66.1423 25.8601 26.7554 3.9941 -2.8181 13.2338
# 2 25.8601 155.5172 45.4199 -12.6641 -8.8898 28.2633
# 3 26.7554 45.4199 136.5854 -8.5896 5.0592 14.9982
# 4 3.9941 -12.6641 -8.5896 21.6039 14.1979 4.8997
# 5 -2.8181 -8.8898 5.0592 14.1979 30.9301 -6.7775
# 6 13.2338 28.2633 14.9982 4.8997 -6.7775 39.5278
#
#
#
# Elastic Compliance Matrix: (Units=1/GPa)
#
#
# Indices 1 2 3 4 5 6 
#
# 1 0.018523 -0.002331 -0.003599 -0.009935 0.005967 -0.000915
# 2 -0.002331 0.008905 -0.001112 0.008658 -0.002922 -0.006739
# 3 -0.003599 -0.001112 0.009781 0.009975 -0.007764 -0.004279
# 4 -0.009935 0.008658 0.009975 0.096353 -0.050239 -0.027206
# 5 0.005967 -0.002922 -0.007764 -0.050239 0.060676 0.019668
# 6 -0.000915 -0.006739 -0.004279 -0.027206 0.019668 0.038792
#
#
# Mechanical properties :
#
#
# Convention : Reuss Voigt Hill
#
# Bulk Modulus (GPa) = 43.24104 61.59065 52.41584
# Shear Modulus (GPa) = 19.62156 35.75965 27.69060
#
# Velocity S-wave (km/s) = 3.04130 4.10572 3.61293
# Velocity P-wave (km/s) = 5.71982 7.17701 6.48945
#
# Compressibility (1/GPa) = 0.02312618
#
# Stress axis : x y z
#
# Youngs Moduli (GPa) = 53.98636 112.29270 102.23983
#
# Poissons Ratio (x) = 0.26173 0.36794
# Poissons Ratio (y) = 0.12583 0.11370
# Poissons Ratio (z) = 0.19428 0.12487
#
# Static dielectric constant tensor:
#      x y z
#    x 1.816480 0.018170 -0.029580 
#    y 0.018170 1.755440 -0.004840 
#    z -0.029580 -0.004840 1.779830 
# 
# From -- ./inp_files/175112.got.cif
#   From: 2010.05.17/outbox.cif.g08.bks.cpg/sg2_88_cif.got.tgz:175112.got - 2010.06.03 11:33:40.
