data_PCOD9015728
_publ_section_title
;
Structure prediction by ZEFSAII (Michael W. Deem and Ramdas Pophale) SiO2 
 PCOD9015728
Probable space group: P -1
;
_chemical_formula_sum "Si O2"
_cell_formula_units_Z 13
_cell_length_a 11.915846
_cell_length_b 9.231856
_cell_length_c 7.547393
_cell_angle_alpha 80.116392
_cell_angle_beta 61.715223
_cell_angle_gamma 51.008783
_cell_volume 558.470385
_symmetry_space_group_name_H-M "P -1"
_symmetry_group_IT_number 2
_symmetry_cell_setting 'triclinic'
loop_
_space_group_symop_operation_xyz
x,y,z
-x,-y,-z
loop_
_atom_site_type_symbol
_atom_site_label
_atom_site_fract_x
_atom_site_fract_y
_atom_site_fract_z
Si Si1 0.292232 0.906141 0.815753
Si Si2 0.534107 0.948063 0.692847
Si Si3 0.112625 0.813408 0.576328
Si Si4 0.000000 0.000000 0.000000
Si Si5 0.551927 0.265628 0.624798
Si Si6 0.663388 0.427874 0.008130
Si Si7 0.156724 0.488435 0.405522
O O1 0.376880 0.964102 0.862689
O O2 0.426426 0.759479 0.599390
O O3 0.235375 0.795703 0.979019
O O4 0.119214 0.061279 0.823771
O O5 0.693289 0.732702 0.630133
O O6 0.500000 0.000000 0.500000
O O7 0.553236 0.096065 0.726796
O O8 0.293036 0.751828 0.429934
O O9 0.120236 0.638873 0.547916
O O10 0.000000 0.000000 0.500000
O O11 0.055147 0.867754 0.808668
O O12 0.397476 0.457114 0.787157
O O13 0.500000 0.500000 0.000000
O O14 0.776269 0.459731 0.816191
O O15 0.000000 0.500000 0.500000
#
# Coordination Sequence:
#
# PCOD9015728 Si02
#       7
#     2   2   2   1   2   2   2
#     4  10  21  42  64  97 134 171 233 284 342 416
#     4  10  22  41  65  94 136 181 228 277 348 410
#     4  11  22  42  67  96 141 180 231 287 349 417
#     4  10  24  36  66  98 126 180 224 278 346 408
#     4  10  22  39  67  96 129 180 229 280 340 417
#     4  12  22  40  67  96 126 177 229 276 347 409
#     4  12  26  43  67 105 145 181 231 297 353 414
#
# _framework density 23.277868999999999
#
# number of rings (size 3 to 8) (size 9 to 14) (size 15 to 20)
#    0.000    1.231    3.077    2.308    0.000    8.000 
#    0.000    0.000    0.000   21.231    0.000    0.000 
#    0.000    0.000    0.000    0.000    0.000    0.000 
#
# Total GULP energy -72441.578105 kJ/mol
# GULP energy per Si atom -5572.429085 kJ/mol
# Density = 2.322489 g / cm^3
# Si number density = 23.277869 Si / 1000 Ang^3
#
#
#
# Elastic Constant Matrix: (Units=GPa)
#
#
# Indices 1 2 3 4 5 6 
#
# 1 126.7131 46.3768 36.6415 -4.5020 -42.3778 42.5444
# 2 46.3768 142.7231 32.0580 -5.0208 -20.6724 35.2885
# 3 36.6415 32.0580 136.4638 12.9702 -16.3254 25.0748
# 4 -4.5020 -5.0208 12.9702 41.3552 6.6766 2.2653
# 5 -42.3778 -20.6724 -16.3254 6.6766 43.2408 -7.9043
# 6 42.5444 35.2885 25.0748 2.2653 -7.9043 48.4671
#
#
#
# Elastic Compliance Matrix: (Units=1/GPa)
#
#
# Indices 1 2 3 4 5 6 
#
# 1 0.016892 -0.000355 -0.000624 0.000406 0.013893 -0.012000
# 2 -0.000355 0.009077 -0.000845 0.001231 0.002474 -0.005514
# 3 -0.000624 -0.000845 0.008790 -0.003135 0.002263 -0.002869
# 4 0.000406 0.001231 -0.003135 0.026176 -0.004531 -0.001592
# 5 0.013893 0.002474 0.002263 -0.004531 0.037875 -0.008779
# 6 -0.012000 -0.005514 -0.002869 -0.001592 -0.008779 0.035307
#
#
# Mechanical properties :
#
#
# Convention : Reuss Voigt Hill
#
# Bulk Modulus (GPa) = 32.14284 70.67253 51.40768
# Shear Modulus (GPa) = 33.75299 46.00085 39.87692
#
# Velocity S-wave (km/s) = 3.81202 4.45023 4.14343
# Velocity P-wave (km/s) = 5.76313 7.53872 6.70992
#
# Compressibility (1/GPa) = 0.03111113
#
# Stress axis : x y z
#
# Youngs Moduli (GPa) = 59.19929 110.17165 113.76770
#
# Poissons Ratio (x) = 0.03914 0.07096
# Poissons Ratio (y) = 0.02103 0.09610
# Poissons Ratio (z) = 0.03693 0.09307
#
# Static dielectric constant tensor:
#      x y z
#    x 1.750150 0.074320 0.036170 
#    y 0.074320 1.917640 -0.092120 
#    z 0.036170 -0.092120 1.966740 
# 
# From -- ./inp_files/243292.got.cif
#   From: 2010.05.17/outbox.cif.g08.bks.cpg/sg2_122_cif.got.tgz:243292.got - 2010.06.03 11:33:40.
