data_PCOD9015685
_publ_section_title
;
Structure prediction by ZEFSAII (Michael W. Deem and Ramdas Pophale) SiO2 
 PCOD9015685
Probable space group: P -1
;
_chemical_formula_sum "Si O2"
_cell_formula_units_Z 16
_cell_length_a 15.004465
_cell_length_b 9.093823
_cell_length_c 9.537324
_cell_angle_alpha 72.489996
_cell_angle_beta 96.668721
_cell_angle_gamma 41.763562
_cell_volume 697.770690
_symmetry_space_group_name_H-M "P -1"
_symmetry_group_IT_number 2
_symmetry_cell_setting 'triclinic'
loop_
_space_group_symop_operation_xyz
x,y,z
-x,-y,-z
loop_
_atom_site_type_symbol
_atom_site_label
_atom_site_fract_x
_atom_site_fract_y
_atom_site_fract_z
Si Si1 0.238197 0.026457 0.629731
Si Si2 0.468615 0.946857 0.796615
Si Si3 0.216448 0.097406 0.077126
Si Si4 0.463887 0.489048 0.342762
Si Si5 0.875961 0.608361 0.745244
Si Si6 0.284217 0.329157 0.895879
Si Si7 0.051456 0.768394 0.505191
Si Si8 0.317999 0.367649 0.427103
O O1 0.373389 0.747216 0.646105
O O2 0.345913 0.977452 0.766902
O O3 0.147870 0.278072 0.442051
O O4 0.099747 0.106166 0.623787
O O5 0.401653 0.164722 0.832992
O O6 0.441685 0.076283 0.610278
O O7 0.641882 0.664822 0.972345
O O8 0.182495 0.185163 0.209175
O O9 0.334870 0.788195 0.169872
O O10 0.281286 0.166370 0.011519
O O11 0.050318 0.311272 0.907182
O O12 0.500000 0.500000 0.500000
O O13 0.396214 0.412204 0.370788
O O14 0.771044 0.604110 0.715806
O O15 0.120065 0.586175 0.709987
O O16 0.184742 0.594821 0.458029
O O17 0.000000 0.000000 0.500000
#
# Coordination Sequence:
#
# PCOD9015685 Si02
#       8
#     2   2   2   2   2   2   2   2
#     4  11  23  42  68 100 131 173 224 269 333 390
#     4   9  22  39  67  95 127 175 220 276 321 395
#     4  11  23  40  69  93 136 173 218 272 332 391
#     4  12  24  41  65 100 137 170 216 278 335 388
#     4  10  23  41  66  96 125 179 222 271 319 397
#     4  10  21  42  64  94 130 174 225 265 329 397
#     4  11  24  43  70  95 132 176 223 274 328 392
#     4  10  24  42  70  96 129 173 230 268 324 392
#
# _framework density 22.93017
#
# number of rings (size 3 to 8) (size 9 to 14) (size 15 to 20)
#    0.000    1.500    2.500    1.500    3.500    5.000 
#    2.250    1.250    0.000    0.000    0.000    0.000 
#    0.000    0.000    0.000    0.000    0.000    0.000 
#
# Total GULP energy -89363.182664 kJ/mol
# GULP energy per Si atom -5585.198916 kJ/mol
# Density = 2.287798 g / cm^3
# Si number density = 22.930170 Si / 1000 Ang^3
#
#
#
# Elastic Constant Matrix: (Units=GPa)
#
#
# Indices 1 2 3 4 5 6 
#
# 1 106.4867 12.6859 34.2646 -13.9793 25.6776 -1.5420
# 2 12.6859 91.3704 20.9229 -18.4301 9.9459 -4.3088
# 3 34.2646 20.9229 87.5519 -6.6570 33.6400 1.1365
# 4 -13.9793 -18.4301 -6.6570 33.8437 4.1663 -2.4771
# 5 25.6776 9.9459 33.6400 4.1663 43.1935 4.1657
# 6 -1.5420 -4.3088 1.1365 -2.4771 4.1657 34.2427
#
#
#
# Elastic Compliance Matrix: (Units=1/GPa)
#
#
# Indices 1 2 3 4 5 6 
#
# 1 0.012414 0.000811 -0.001998 0.006159 -0.006797 0.002000
# 2 0.000811 0.013280 -0.001682 0.007835 -0.003248 0.002725
# 3 -0.001998 -0.001682 0.017698 0.003358 -0.012618 0.000889
# 4 0.006159 0.007835 0.003358 0.038941 -0.012365 0.005473
# 5 -0.006797 -0.003248 -0.012618 -0.012365 0.039539 -0.006000
# 6 0.002000 0.002725 0.000889 0.005473 -0.006000 0.030733
#
#
# Mechanical properties :
#
#
# Convention : Reuss Voigt Hill
#
# Bulk Modulus (GPa) = 26.55953 46.79510 36.67732
# Shear Modulus (GPa) = 29.25790 36.75834 33.00812
#
# Velocity S-wave (km/s) = 3.57593 4.00816 3.79820
# Velocity P-wave (km/s) = 5.35328 6.47089 5.93844
#
# Compressibility (1/GPa) = 0.03765126
#
# Stress axis : x y z
#
# Youngs Moduli (GPa) = 80.55598 75.30367 56.50452
#
# Poissons Ratio (x) = -0.06103 0.11289
# Poissons Ratio (y) = -0.06529 0.09507
# Poissons Ratio (z) = 0.16094 0.12670
#
# Static dielectric constant tensor:
#      x y z
#    x 1.898760 -0.046870 0.045230 
#    y -0.046870 1.911310 0.018580 
#    z 0.045230 0.018580 1.926780 
# 
# From -- ./inp_files/262560.got.cif
#   From: 2010.05.17/outbox.cif.g08.bks.cpg/sg2_132_cif.got.tgz:262560.got - 2010.06.03 11:33:40.
