data_PCOD9015126
_publ_section_title
;
Structure prediction by ZEFSAII (Michael W. Deem and Ramdas Pophale) SiO2 
 PCOD9015126
Probable space group: P -1
;
_chemical_formula_sum "Si O2"
_cell_formula_units_Z 16
_cell_length_a 17.149633
_cell_length_b 13.021220
_cell_length_c 8.743527
_cell_angle_alpha 63.546340
_cell_angle_beta 126.714418
_cell_angle_gamma 150.440181
_cell_volume 758.313427
_symmetry_space_group_name_H-M "P -1"
_symmetry_group_IT_number 2
_symmetry_cell_setting 'triclinic'
loop_
_space_group_symop_operation_xyz
x,y,z
-x,-y,-z
loop_
_atom_site_type_symbol
_atom_site_label
_atom_site_fract_x
_atom_site_fract_y
_atom_site_fract_z
Si Si1 0.025165 0.845206 0.890043
Si Si2 0.286606 0.286049 0.878945
Si Si3 0.187715 0.385087 0.916644
Si Si4 0.166887 0.594539 0.561024
Si Si5 0.523463 0.707799 0.328057
Si Si6 0.479652 0.043766 0.783887
Si Si7 0.726538 0.685012 0.495800
Si Si8 0.868800 0.466249 0.803476
O O1 0.898488 0.825665 0.704566
O O2 0.959340 0.676055 0.820055
O O3 0.221982 0.090429 0.938361
O O4 0.978740 0.771029 0.059032
O O5 0.201725 0.277772 0.919149
O O6 0.236462 0.292016 0.653958
O O7 0.500000 0.500000 0.000000
O O8 0.178382 0.480497 0.725901
O O9 0.365087 0.569030 0.109852
O O10 0.148251 0.564090 0.377711
O O11 0.000000 0.500000 0.500000
O O12 0.348949 0.840995 0.658339
O O13 0.602076 0.910215 0.318597
O O14 0.660794 0.749119 0.402151
O O15 0.428103 0.554306 0.465224
O O16 0.674952 0.259246 0.794558
O O17 0.500000 0.000000 0.000000
O O18 0.000000 0.500000 0.000000
#
# Coordination Sequence:
#
# PCOD9015126 Si02
#       8
#     2   2   2   2   2   2   2   2
#     4  11  24  46  67  95 142 183 226 290 351 415
#     4  12  25  40  67 103 135 175 235 284 346 413
#     4  11  22  45  66  98 141 176 224 289 349 413
#     4  12  27  46  70 105 139 184 240 290 352 421
#     4  10  21  41  71  96 137 177 223 281 351 411
#     4  12  23  46  75 103 140 186 234 294 353 417
#     4  10  21  42  66  97 133 182 224 279 347 412
#     4  12  26  48  71 102 141 188 238 292 353 419
#
# _framework density 21.099454999999999
#
# number of rings (size 3 to 8) (size 9 to 14) (size 15 to 20)
#    0.000    0.750    5.000    3.375    0.000    4.000 
#    4.500    0.000    0.000    0.000    0.000    0.000 
#    0.000    0.000    0.000    0.000    0.000    0.000 
#
# Total GULP energy -89524.115517 kJ/mol
# GULP energy per Si atom -5595.257220 kJ/mol
# Density = 2.105143 g / cm^3
# Si number density = 21.099455 Si / 1000 Ang^3
#
#
#
# Elastic Constant Matrix: (Units=GPa)
#
#
# Indices 1 2 3 4 5 6 
#
# 1 93.9314 56.0722 45.0184 -4.6769 -19.4800 -15.9149
# 2 56.0722 157.2281 58.8978 7.1879 -14.1030 -15.6609
# 3 45.0184 58.8978 114.5198 -20.6322 -19.6379 -11.5852
# 4 -4.6769 7.1879 -20.6322 26.8072 -1.3895 4.7145
# 5 -19.4800 -14.1030 -19.6379 -1.3895 51.2041 1.6376
# 6 -15.9149 -15.6609 -11.5852 4.7145 1.6376 24.3496
#
#
#
# Elastic Compliance Matrix: (Units=1/GPa)
#
#
# Indices 1 2 3 4 5 6 
#
# 1 0.016217 -0.003665 -0.003105 0.000489 0.003777 0.006416
# 2 -0.003665 0.010156 -0.005001 -0.007841 -0.000834 0.003332
# 3 -0.003105 -0.005001 0.015439 0.012993 0.003736 -0.000668
# 4 0.000489 -0.007841 0.012993 0.051279 0.004682 -0.008785
# 5 0.003777 -0.000834 0.003736 0.004682 0.022255 0.001307
# 6 0.006416 0.003332 -0.000668 -0.008785 0.001307 0.048700
#
#
# Mechanical properties :
#
#
# Convention : Reuss Voigt Hill
#
# Bulk Modulus (GPa) = 54.73641 76.18398 65.46019
# Shear Modulus (GPa) = 25.81596 34.18489 30.00043
#
# Velocity S-wave (km/s) = 3.50170 4.02951 3.77484
# Velocity P-wave (km/s) = 6.50751 7.60492 7.07751
#
# Compressibility (1/GPa) = 0.01826938
#
# Stress axis : x y z
#
# Youngs Moduli (GPa) = 61.66490 98.46281 64.77064
#
# Poissons Ratio (x) = 0.36083 0.20113
# Poissons Ratio (y) = 0.22598 0.32395
# Poissons Ratio (z) = 0.19148 0.49246
#
# Static dielectric constant tensor:
#      x y z
#    x 1.799760 -0.000040 -0.007260 
#    y -0.000040 1.803030 0.009910 
#    z -0.007260 0.009910 1.734060 
# 
# From -- ./inp_files/333061.got.cif
#   From: 2010.05.17/outbox.cif.g08.bks.cpg/sg2_167_cif.got.tgz:333061.got - 2010.06.03 11:33:40.
