data_PCOD9015988
_publ_section_title
;
Structure prediction by ZEFSAII (Michael W. Deem and Ramdas Pophale) SiO2 
 PCOD9015988
Probable space group: P -1
;
_chemical_formula_sum "Si O2"
_cell_formula_units_Z 15
_cell_length_a 6.084453
_cell_length_b 6.625387
_cell_length_c 16.106269
_cell_angle_alpha 102.940668
_cell_angle_beta 80.381927
_cell_angle_gamma 79.137059
_cell_volume 606.406997
_symmetry_space_group_name_H-M "P -1"
_symmetry_group_IT_number 2
_symmetry_cell_setting 'triclinic'
loop_
_space_group_symop_operation_xyz
x,y,z
-x,-y,-z
loop_
_atom_site_type_symbol
_atom_site_label
_atom_site_fract_x
_atom_site_fract_y
_atom_site_fract_z
Si Si1 0.713920 0.165086 0.597337
Si Si2 0.500000 0.500000 0.500000
Si Si3 0.163115 0.301061 0.423177
Si Si4 0.323871 0.231282 0.764822
Si Si5 0.261122 0.176930 0.027386
Si Si6 0.911312 0.496644 0.713277
Si Si7 0.980045 0.955066 0.131579
Si Si8 0.378889 0.565950 0.128821
O O1 0.584850 0.289392 0.537949
O O2 0.532047 0.156151 0.681902
O O3 0.878073 0.302515 0.639179
O O4 0.840354 0.920025 0.555502
O O5 0.409716 0.351907 0.423045
O O6 0.083043 0.316244 0.334277
O O7 0.000000 0.500000 0.500000
O O8 0.218045 0.039068 0.787546
O O9 0.399529 0.355649 0.850075
O O10 0.135260 0.405174 0.743731
O O11 0.345290 0.394569 0.047455
O O12 0.120499 0.136754 0.952100
O O13 0.089208 0.145739 0.110531
O O14 0.500000 0.000000 0.000000
O O15 0.695679 0.538480 0.791932
O O16 0.191495 0.779066 0.138377
#
# Coordination Sequence:
#
# PCOD9015988 Si02
#       8
#     2   1   2   2   2   2   2   2
#     4  10  22  41  64  94 131 168 216 273 327 390
#     4  10  22  40  64  96 124 164 218 266 326 386
#     4  11  23  39  62  93 129 168 212 265 327 393
#     4  10  21  42  66  88 125 174 219 269 325 386
#     4  11  24  40  63  96 129 167 215 270 332 391
#     4   9  22  39  59  90 123 165 216 263 326 390
#     4  10  23  41  62  92 128 169 218 267 328 391
#     4  10  22  42  63  89 128 170 215 270 324 386
#
# _framework density 24.735859999999999
#
# number of rings (size 3 to 8) (size 9 to 14) (size 15 to 20)
#    0.000    1.867    0.000    2.400    0.000   13.867 
#    0.000    6.667    0.000    0.000    0.000    0.000 
#    0.000    0.000    0.000    0.000    0.000    0.000 
#
# Total GULP energy -83597.672681 kJ/mol
# GULP energy per Si atom -5573.178179 kJ/mol
# Density = 2.467956 g / cm^3
# Si number density = 24.735860 Si / 1000 Ang^3
#
#
#
# Elastic Constant Matrix: (Units=GPa)
#
#
# Indices 1 2 3 4 5 6 
#
# 1 102.0270 33.8208 35.9974 -15.6255 20.2650 18.3891
# 2 33.8208 128.7541 33.0786 -23.0688 -2.0812 15.5769
# 3 35.9974 33.0786 77.3005 -28.5756 14.0910 -4.5829
# 4 -15.6255 -23.0688 -28.5756 44.2830 2.2438 3.2528
# 5 20.2650 -2.0812 14.0910 2.2438 46.4381 -9.6596
# 6 18.3891 15.5769 -4.5829 3.2528 -9.6596 32.8111
#
#
#
# Elastic Compliance Matrix: (Units=1/GPa)
#
#
# Indices 1 2 3 4 5 6 
#
# 1 0.016276 -0.001050 -0.005174 0.003163 -0.008247 -0.012087
# 2 -0.001050 0.009961 -0.002995 0.003194 0.000687 -0.004673
# 3 -0.005174 -0.002995 0.021412 0.010243 -0.003791 0.005181
# 4 0.003163 0.003194 0.010243 0.032887 -0.007455 -0.007314
# 5 -0.008247 0.000687 -0.003791 -0.007455 0.029412 0.013164
# 6 -0.012087 -0.004673 0.005181 -0.007314 0.013164 0.044795
#
#
# Mechanical properties :
#
#
# Convention : Reuss Voigt Hill
#
# Bulk Modulus (GPa) = 34.23415 57.09726 45.66571
# Shear Modulus (GPa) = 27.33460 38.38542 32.86001
#
# Velocity S-wave (km/s) = 3.32785 3.94358 3.64873
# Velocity P-wave (km/s) = 5.35127 6.62334 6.02099
#
# Compressibility (1/GPa) = 0.02921060
#
# Stress axis : x y z
#
# Youngs Moduli (GPa) = 61.43984 100.39360 46.70230
#
# Poissons Ratio (x) = 0.10544 0.24164
# Poissons Ratio (y) = 0.06453 0.13986
# Poissons Ratio (z) = 0.31790 0.30066
#
# Static dielectric constant tensor:
#      x y z
#    x 2.020090 0.030770 -0.079050 
#    y 0.030770 1.710330 -0.152740 
#    z -0.079050 -0.152740 1.903130 
# 
# From -- ./inp_files/546006.got.cif
#   From: 2010.05.17/outbox.cif.g08.bks.cpg/sg2_274_cif.got.tgz:546006.got - 2010.06.03 11:33:40.
