data_PCOD9015713
_publ_section_title
;
Structure prediction by ZEFSAII (Michael W. Deem and Ramdas Pophale) SiO2 
 PCOD9015713
Probable space group: P -1
;
_chemical_formula_sum "Si O2"
_cell_formula_units_Z 16
_cell_length_a 22.301386
_cell_length_b 17.511288
_cell_length_c 5.020305
_cell_angle_alpha 91.158085
_cell_angle_beta 105.624457
_cell_angle_gamma 23.928751
_cell_volume 624.662588
_symmetry_space_group_name_H-M "P -1"
_symmetry_group_IT_number 2
_symmetry_cell_setting 'triclinic'
loop_
_space_group_symop_operation_xyz
x,y,z
-x,-y,-z
loop_
_atom_site_type_symbol
_atom_site_label
_atom_site_fract_x
_atom_site_fract_y
_atom_site_fract_z
Si Si1 0.110195 0.662706 0.472317
Si Si2 0.403459 0.150852 0.148567
Si Si3 0.458407 0.721649 0.824980
Si Si4 0.854753 0.210817 0.526168
Si Si5 0.366131 0.668549 0.595594
Si Si6 0.648849 0.623402 0.754653
Si Si7 0.028645 0.391745 0.210333
Si Si8 0.182532 0.136509 0.867582
O O1 0.058585 0.806469 0.307975
O O2 0.277128 0.445046 0.455311
O O3 0.962459 0.766378 0.307863
O O4 0.178703 0.592026 0.852290
O O5 0.444215 0.193484 0.221701
O O6 0.179455 0.398910 0.945415
O O7 0.500000 0.000000 0.500000
O O8 0.500000 0.000000 0.000000
O O9 0.322230 0.809244 0.587716
O O10 0.522405 0.695085 0.641616
O O11 0.364183 0.888349 0.932043
O O12 0.654332 0.464947 0.168051
O O13 0.792780 0.211496 0.635008
O O14 0.000000 0.000000 0.500000
O O15 0.500000 0.500000 0.500000
O O16 0.500000 0.500000 0.000000
O O17 0.154097 0.196608 0.140862
O O18 0.128885 0.268711 0.610648
O O19 0.000000 0.500000 0.000000
#
# Coordination Sequence:
#
# PCOD9015713 Si02
#       8
#     2   2   2   2   2   2   2   2
#     4  11  21  43  67  93 132 177 222 273 329 394
#     4  12  25  43  71 100 135 174 224 276 334 403
#     4  10  25  41  69 101 135 181 226 277 339 400
#     4  10  22  43  70 101 137 177 224 279 335 401
#     4  10  21  42  64  96 134 172 219 273 330 396
#     4  11  23  43  65  98 133 174 225 271 332 394
#     4  12  28  47  69 100 138 180 224 279 342 398
#     4  12  24  46  68  98 138 180 226 280 332 405
#
# _framework density 25.61383
#
# number of rings (size 3 to 8) (size 9 to 14) (size 15 to 20)
#    0.000    1.000    2.500    3.375    3.500    4.000 
#    0.000   17.500    0.000    0.000    0.000    0.000 
#    0.000    0.000    0.000    0.000    0.000    0.000 
#
# Total GULP energy -89422.893067 kJ/mol
# GULP energy per Si atom -5588.930817 kJ/mol
# Density = 2.555553 g / cm^3
# Si number density = 25.613830 Si / 1000 Ang^3
#
#
#
# Elastic Constant Matrix: (Units=GPa)
#
#
# Indices 1 2 3 4 5 6 
#
# 1 153.8100 8.3597 3.6473 -4.4395 -8.3524 -1.8954
# 2 8.3597 153.8880 31.1416 10.9188 -17.9020 -8.9743
# 3 3.6473 31.1416 77.2988 15.5140 -17.9643 -10.3068
# 4 -4.4395 10.9188 15.5140 46.3900 -2.9132 -8.6194
# 5 -8.3524 -17.9020 -17.9643 -2.9132 22.9804 1.8280
# 6 -1.8954 -8.9743 -10.3068 -8.6194 1.8280 52.4609
#
#
#
# Elastic Compliance Matrix: (Units=1/GPa)
#
#
# Indices 1 2 3 4 5 6 
#
# 1 0.006671 -0.000149 0.000216 0.000818 0.002557 0.000303
# 2 -0.000149 0.007448 -0.001770 -0.000791 0.004213 0.000644
# 3 0.000216 -0.001770 0.017483 -0.004301 0.011660 0.002027
# 4 0.000818 -0.000791 -0.004301 0.023757 -0.000907 0.002984
# 5 0.002557 0.004213 0.011660 -0.000907 0.056648 0.000981
# 6 0.000303 0.000644 0.002027 0.002984 0.000981 0.020037
#
#
# Mechanical properties :
#
#
# Convention : Reuss Voigt Hill
#
# Bulk Modulus (GPa) = 35.46666 52.36600 43.91633
# Shear Modulus (GPa) = 34.51866 47.15615 40.83741
#
# Velocity S-wave (km/s) = 3.67503 4.29539 3.99726
# Velocity P-wave (km/s) = 5.64664 6.71486 6.20378
#
# Compressibility (1/GPa) = 0.02819549
#
# Stress axis : x y z
#
# Youngs Moduli (GPa) = 149.90933 134.25869 57.19880
#
# Poissons Ratio (x) = 0.02000 -0.01233
# Poissons Ratio (y) = 0.02233 0.10123
# Poissons Ratio (z) = -0.03233 0.23762
#
# Static dielectric constant tensor:
#      x y z
#    x 1.879350 0.019850 0.107110 
#    y 0.019850 1.956330 -0.029590 
#    z 0.107110 -0.029590 1.956240 
# 
# From -- ./inp_files/124765.got.cif
#   From: 2010.05.17/outbox.cif.g08.bks.cpg/sg2_63_cif.got.tgz:124765.got - 2010.06.03 11:33:40.
