data_PCOD9015019
_publ_section_title
;
Structure prediction by ZEFSAII (Michael W. Deem and Ramdas Pophale) SiO2 
 PCOD9015019
Probable space group: P -1
;
_chemical_formula_sum "Si O2"
_cell_formula_units_Z 14
_cell_length_a 24.891696
_cell_length_b 14.378424
_cell_length_c 17.618686
_cell_angle_alpha 23.808206
_cell_angle_beta 17.525674
_cell_angle_gamma 21.700722
_cell_volume 678.061717
_symmetry_space_group_name_H-M "P -1"
_symmetry_group_IT_number 2
_symmetry_cell_setting 'triclinic'
loop_
_space_group_symop_operation_xyz
x,y,z
-x,-y,-z
loop_
_atom_site_type_symbol
_atom_site_label
_atom_site_fract_x
_atom_site_fract_y
_atom_site_fract_z
Si Si1 0.274548 0.222523 0.141652
Si Si2 0.708931 0.716940 0.387346
Si Si3 0.660110 0.278650 0.304850
Si Si4 0.902084 0.823258 0.739522
Si Si5 0.079189 0.213477 0.571777
Si Si6 0.706051 0.158371 0.158068
Si Si7 0.243350 0.303074 0.828061
O O1 0.174919 0.214964 0.360990
O O2 0.177276 0.142096 0.263764
O O3 0.276255 0.500439 0.922682
O O4 0.500000 0.000000 0.000000
O O5 0.921137 0.469222 0.282342
O O6 0.527213 0.642538 0.693917
O O7 0.688263 0.841365 0.237694
O O8 0.708223 0.892306 0.326939
O O9 0.738862 0.182891 0.184541
O O10 0.414642 0.396971 0.541998
O O11 0.762904 0.028009 0.408942
O O12 0.000000 0.000000 0.500000
O O13 0.745078 0.853774 0.994311
O O14 0.000000 0.500000 0.500000
O O15 0.877818 0.180652 0.863124
O O16 0.000000 0.500000 0.000000
#
# Coordination Sequence:
#
# PCOD9015019 Si02
#       7
#     2   2   2   2   2   2   2
#     4  12  29  45  71 106 139 187 239 287 353 416
#     4   9  21  40  67  96 128 183 228 274 355 408
#     4  11  24  46  70  99 146 178 233 298 343 416
#     4  11  25  41  65  98 142 173 228 291 338 413
#     4  12  26  43  73 102 140 185 232 282 357 416
#     4  10  21  41  70  96 135 178 230 287 341 417
#     4   9  21  41  68  94 132 186 225 277 362 403
#
# _framework density 20.647088
#
# number of rings (size 3 to 8) (size 9 to 14) (size 15 to 20)
#    0.000    1.429    1.429    2.143   10.000    4.571 
#    0.000    0.714    0.000    0.000    0.000    0.000 
#    0.000    0.000    0.000    0.000    0.000    0.000 
#
# Total GULP energy -78030.169055 kJ/mol
# GULP energy per Si atom -5573.583504 kJ/mol
# Density = 2.060009 g / cm^3
# Si number density = 20.647088 Si / 1000 Ang^3
#
#
#
# Elastic Constant Matrix: (Units=GPa)
#
#
# Indices 1 2 3 4 5 6 
#
# 1 132.0570 51.9720 56.5309 -1.2776 1.4063 21.5214
# 2 51.9720 62.8386 28.7480 1.5583 5.7343 7.1556
# 3 56.5309 28.7480 136.6624 17.0930 3.9543 6.6035
# 4 -1.2776 1.5583 17.0930 37.9488 7.5087 -1.8721
# 5 1.4063 5.7343 3.9543 7.5087 36.7346 1.0600
# 6 21.5214 7.1556 6.6035 -1.8721 1.0600 30.1610
#
#
#
# Elastic Compliance Matrix: (Units=1/GPa)
#
#
# Indices 1 2 3 4 5 6 
#
# 1 0.013915 -0.009148 -0.003782 0.001994 0.001092 -0.006845
# 2 -0.009148 0.024232 -0.001272 -0.000014 -0.003327 0.001173
# 3 -0.003782 -0.001272 0.009670 -0.004439 0.000192 0.000601
# 4 0.001994 -0.000014 -0.004439 0.029624 -0.005698 0.001592
# 5 0.001092 -0.003327 0.000192 -0.005698 0.028884 -0.001401
# 6 -0.006845 0.001173 0.000601 0.001592 -0.001401 0.037778
#
#
# Mechanical properties :
#
#
# Convention : Reuss Voigt Hill
#
# Bulk Modulus (GPa) = 51.51137 67.33999 59.42568
# Shear Modulus (GPa) = 27.93635 33.92270 30.92952
#
# Velocity S-wave (km/s) = 3.68236 4.05776 3.87461
# Velocity P-wave (km/s) = 6.56372 7.39185 6.99006
#
# Compressibility (1/GPa) = 0.01941319
#
# Stress axis : x y z
#
# Youngs Moduli (GPa) = 71.86492 41.26736 103.41446
#
# Poissons Ratio (x) = 0.37752 0.39109
# Poissons Ratio (y) = 0.65744 0.13153
# Poissons Ratio (z) = 0.27178 0.05249
#
# Static dielectric constant tensor:
#      x y z
#    x 1.981430 0.048690 0.005230 
#    y 0.048690 1.766320 0.030830 
#    z 0.005230 0.030830 1.786640 
# 
# From -- ./inp_files/417424.got.cif
#   From: 2010.05.17/outbox.cif.g08.bks.cpg/sg2_209_cif.got.tgz:417424.got - 2010.06.03 11:33:40.
