data_PCOD9015261
_publ_section_title
;
Structure prediction by ZEFSAII (Michael W. Deem and Ramdas Pophale) SiO2 
 PCOD9015261
Probable space group: P -1
;
_chemical_formula_sum "Si O2"
_cell_formula_units_Z 16
_cell_length_a 11.848636
_cell_length_b 8.620024
_cell_length_c 10.559226
_cell_angle_alpha 58.261644
_cell_angle_beta 67.590759
_cell_angle_gamma 102.085829
_cell_volume 723.572203
_symmetry_space_group_name_H-M "P -1"
_symmetry_group_IT_number 2
_symmetry_cell_setting 'triclinic'
loop_
_space_group_symop_operation_xyz
x,y,z
-x,-y,-z
loop_
_atom_site_type_symbol
_atom_site_label
_atom_site_fract_x
_atom_site_fract_y
_atom_site_fract_z
Si Si1 0.981059 0.773042 0.588119
Si Si2 0.802319 0.128849 0.750268
Si Si3 0.718434 0.468039 0.699759
Si Si4 0.686647 0.761005 0.391131
Si Si5 0.423055 0.334947 0.990409
Si Si6 0.903700 0.106009 0.989094
Si Si7 0.906288 0.429557 0.197482
Si Si8 0.631768 0.452417 0.306596
O O1 0.817182 0.579783 0.732878
O O2 0.046488 0.767654 0.427583
O O3 0.072465 0.744352 0.667887
O O4 0.000000 0.000000 0.500000
O O5 0.755452 0.301979 0.695909
O O6 0.816880 0.065799 0.914000
O O7 0.693541 0.907645 0.820837
O O8 0.740193 0.660053 0.517241
O O9 0.551531 0.335527 0.861050
O O10 0.668301 0.621589 0.332563
O O11 0.534565 0.721587 0.519547
O O12 0.796101 0.002353 0.198060
O O13 0.357917 0.430370 0.879820
O O14 0.500000 0.500000 0.000000
O O15 0.010535 0.357545 0.844049
O O16 0.000000 0.000000 0.000000
O O17 0.744293 0.375445 0.284105
O O18 0.000000 0.500000 0.000000
#
# Coordination Sequence:
#
# PCOD9015261 Si02
#       8
#     2   2   2   2   2   2   2   2
#     4  12  28  45  68 101 144 185 233 292 356 409
#     4  12  24  44  69 103 137 178 242 286 340 421
#     4  11  24  43  71 100 136 181 234 286 346 412
#     4  10  21  41  74 100 135 174 230 288 342 406
#     4  11  24  43  71  99 142 185 223 288 355 424
#     4  12  23  42  74 104 135 184 233 286 345 413
#     4  12  28  46  70 102 145 184 232 290 349 426
#     4  10  22  43  69 100 136 179 227 284 346 413
#
# _framework density 22.112514000000001
#
# number of rings (size 3 to 8) (size 9 to 14) (size 15 to 20)
#    0.000    0.750    3.750    3.000    7.000    0.000 
#    2.250    0.625    0.000    0.000    0.000    0.000 
#    0.000    0.000    0.000    0.000    0.000    0.000 
#
# Total GULP energy -89511.284038 kJ/mol
# GULP energy per Si atom -5594.455252 kJ/mol
# Density = 2.206219 g / cm^3
# Si number density = 22.112514 Si / 1000 Ang^3
#
#
#
# Elastic Constant Matrix: (Units=GPa)
#
#
# Indices 1 2 3 4 5 6 
#
# 1 148.1506 38.8920 43.7695 -2.3335 3.2346 -30.6213
# 2 38.8920 71.9756 4.7603 -7.8405 9.0466 -14.6597
# 3 43.7695 4.7603 89.7922 -1.2701 -0.8081 -24.1722
# 4 -2.3335 -7.8405 -1.2701 30.9647 4.8085 1.5331
# 5 3.2346 9.0466 -0.8081 4.8085 27.8069 -2.1999
# 6 -30.6213 -14.6597 -24.1722 1.5331 -2.1999 37.4543
#
#
#
# Elastic Compliance Matrix: (Units=1/GPa)
#
#
# Indices 1 2 3 4 5 6 
#
# 1 0.009725 -0.004363 -0.003407 -0.000817 0.000656 0.004117
# 2 -0.004363 0.018328 0.002415 0.005099 -0.005902 0.004610
# 3 -0.003407 0.002415 0.014753 0.000492 0.000563 0.007694
# 4 -0.000817 0.005099 0.000492 0.034732 -0.007573 -0.000221
# 5 0.000656 -0.005902 0.000563 -0.007573 0.039227 0.001204
# 6 0.004117 0.004610 0.007694 -0.000221 0.001204 0.036915
#
#
# Mechanical properties :
#
#
# Convention : Reuss Voigt Hill
#
# Bulk Modulus (GPa) = 31.15606 53.86244 42.50925
# Shear Modulus (GPa) = 28.55723 34.07830 31.31776
#
# Velocity S-wave (km/s) = 3.59758 3.92998 3.76745
# Velocity P-wave (km/s) = 5.60153 6.70852 6.17986
#
# Compressibility (1/GPa) = 0.03209649
#
# Stress axis : x y z
#
# Youngs Moduli (GPa) = 102.82360 54.56275 67.78424
#
# Poissons Ratio (x) = 0.23805 0.23093
# Poissons Ratio (y) = 0.44860 -0.16370
# Poissons Ratio (z) = 0.35030 -0.13177
#
# Static dielectric constant tensor:
#      x y z
#    x 1.811510 0.024500 -0.027130 
#    y 0.024500 1.810850 0.015110 
#    z -0.027130 0.015110 1.816440 
# 
# From -- ./inp_files/261405.got.cif
#   From: 2010.05.17/outbox.cif.g08.bks.cpg/sg2_131_cif.got.tgz:261405.got - 2010.06.03 11:33:40.
