data_PCOD9015942
_publ_section_title
;
Structure prediction by ZEFSAII (Michael W. Deem and Ramdas Pophale) SiO2 
 PCOD9015942
Probable space group: P -1
;
_chemical_formula_sum "Si O2"
_cell_formula_units_Z 16
_cell_length_a 8.042798
_cell_length_b 13.539940
_cell_length_c 9.485309
_cell_angle_alpha 77.151341
_cell_angle_beta 85.368861
_cell_angle_gamma 47.265602
_cell_volume 736.146135
_symmetry_space_group_name_H-M "P -1"
_symmetry_group_IT_number 2
_symmetry_cell_setting 'triclinic'
loop_
_space_group_symop_operation_xyz
x,y,z
-x,-y,-z
loop_
_atom_site_type_symbol
_atom_site_label
_atom_site_fract_x
_atom_site_fract_y
_atom_site_fract_z
Si Si1 0.873589 0.659096 0.471049
Si Si2 0.485370 0.619991 0.102813
Si Si3 0.327187 0.071262 0.118274
Si Si4 0.579708 0.187848 0.724046
Si Si5 0.170397 0.691988 0.855874
Si Si6 0.321646 0.771175 0.584188
Si Si7 0.672176 0.461143 0.624938
Si Si8 0.464451 0.116736 0.374245
O O1 0.657852 0.744456 0.355518
O O2 0.772435 0.736886 0.601350
O O3 0.000000 0.500000 0.500000
O O4 0.073973 0.649553 0.412258
O O5 0.477798 0.725484 0.159395
O O6 0.727270 0.462831 0.124750
O O7 0.350357 0.597924 0.218831
O O8 0.356355 0.673565 0.946284
O O9 0.442985 0.090429 0.225308
O O10 0.068728 0.215649 0.077627
O O11 0.298729 0.966539 0.201141
O O12 0.500000 0.000000 0.000000
O O13 0.714188 0.195838 0.591503
O O14 0.164265 0.760242 0.689079
O O15 0.569389 0.613371 0.624153
O O16 0.349417 0.872459 0.613755
O O17 0.500000 0.500000 0.500000
O O18 0.500000 0.000000 0.500000
#
# Coordination Sequence:
#
# PCOD9015942 Si02
#       8
#     2   2   2   2   2   2   2   2
#     4  11  21  38  69 102 130 168 220 280 339 383
#     4  10  23  44  68 100 131 169 227 278 339 395
#     4  12  29  47  63  94 141 187 228 264 340 405
#     4  11  23  44  66 102 132 169 227 274 334 406
#     4  10  26  45  68  96 135 178 223 278 340 397
#     4  10  21  42  66 100 125 166 221 275 332 390
#     4  11  20  36  67 102 134 165 214 276 335 393
#     4  11  23  44  65  95 136 171 223 276 325 400
#
# _framework density 21.734815000000001
#
# number of rings (size 3 to 8) (size 9 to 14) (size 15 to 20)
#    0.000    1.250    6.250    0.000    8.750    1.000 
#    2.250    0.625    0.000    0.000    0.000    0.000 
#    0.000    0.000    0.000    0.000    0.000    0.000 
#
# Total GULP energy -89318.645936 kJ/mol
# GULP energy per Si atom -5582.415371 kJ/mol
# Density = 2.168535 g / cm^3
# Si number density = 21.734815 Si / 1000 Ang^3
#
#
#
# Elastic Constant Matrix: (Units=GPa)
#
#
# Indices 1 2 3 4 5 6 
#
# 1 37.0927 20.1906 5.3790 9.3558 5.4512 3.5279
# 2 20.1906 112.6254 28.8662 32.0559 6.8325 5.8902
# 3 5.3790 28.8662 74.2537 24.3177 6.4151 -1.4417
# 4 9.3558 32.0559 24.3177 38.0673 6.7546 -2.3686
# 5 5.4512 6.8325 6.4151 6.7546 30.4874 15.1145
# 6 3.5279 5.8902 -1.4417 -2.3686 15.1145 46.1934
#
#
#
# Elastic Compliance Matrix: (Units=1/GPa)
#
#
# Indices 1 2 3 4 5 6 
#
# 1 0.030794 -0.004409 0.001068 -0.003977 -0.003449 -0.000832
# 2 -0.004409 0.012687 -0.001905 -0.008772 0.001405 -0.002250
# 3 0.001068 -0.001905 0.017374 -0.009402 -0.001727 0.000787
# 4 -0.003977 -0.008772 -0.009402 0.042347 -0.007595 0.005785
# 5 -0.003449 0.001405 -0.001727 -0.007595 0.042166 -0.014156
# 6 -0.000832 -0.002250 0.000787 0.005785 -0.014156 0.026951
#
#
# Mechanical properties :
#
#
# Convention : Reuss Voigt Hill
#
# Bulk Modulus (GPa) = 19.85644 36.98261 28.41952
# Shear Modulus (GPa) = 25.05009 34.25201 29.65105
#
# Velocity S-wave (km/s) = 3.39858 3.97407 3.69754
# Velocity P-wave (km/s) = 4.95541 6.17333 5.59759
#
# Compressibility (1/GPa) = 0.05036150
#
# Stress axis : x y z
#
# Youngs Moduli (GPa) = 32.47393 78.82133 57.55742
#
# Poissons Ratio (x) = 0.34756 -0.06145
# Poissons Ratio (y) = 0.14319 0.10964
# Poissons Ratio (z) = -0.03467 0.15014
#
# Static dielectric constant tensor:
#      x y z
#    x 1.886740 -0.002180 -0.002940 
#    y -0.002180 1.902260 -0.025060 
#    z -0.002940 -0.025060 1.849520 
# 
# From -- ./inp_files/206937.got.cif
#   From: 2010.05.17/outbox.cif.g08.bks.cpg/sg2_104_cif.got.tgz:206937.got - 2010.06.03 11:33:40.
