data_PCOD9015911
_publ_section_title
;
Structure prediction by ZEFSAII (Michael W. Deem and Ramdas Pophale) SiO2 
 PCOD9015911
Probable space group: P -1
;
_chemical_formula_sum "Si O2"
_cell_formula_units_Z 14
_cell_length_a 12.562002
_cell_length_b 7.909739
_cell_length_c 21.533506
_cell_angle_alpha 146.213426
_cell_angle_beta 26.981009
_cell_angle_gamma 144.427659
_cell_volume 516.911255
_symmetry_space_group_name_H-M "P -1"
_symmetry_group_IT_number 2
_symmetry_cell_setting 'triclinic'
loop_
_space_group_symop_operation_xyz
x,y,z
-x,-y,-z
loop_
_atom_site_type_symbol
_atom_site_label
_atom_site_fract_x
_atom_site_fract_y
_atom_site_fract_z
Si Si1 0.062112 0.932128 0.224078
Si Si2 0.181556 0.446252 0.941379
Si Si3 0.731355 0.928414 0.067228
Si Si4 0.505738 0.690450 0.441703
Si Si5 0.021512 0.596088 0.395904
Si Si6 0.481413 0.945924 0.332962
Si Si7 0.731159 0.228269 0.813716
O O1 0.242231 0.769965 0.046195
O O2 0.785604 0.688752 0.289670
O O3 0.149057 0.956921 0.256935
O O4 0.047334 0.250793 0.296014
O O5 0.999255 0.155144 0.985197
O O6 0.000000 0.500000 0.000000
O O7 0.416241 0.324398 0.770077
O O8 0.613893 0.004161 0.215275
O O9 0.545125 0.957596 0.118252
O O10 0.730202 0.561363 0.948885
O O11 0.264859 0.422874 0.462868
O O12 0.500000 0.000000 0.500000
O O13 0.467141 0.771799 0.558491
O O14 0.199086 0.820416 0.421648
O O15 0.124594 0.677381 0.297530
#
# Coordination Sequence:
#
# PCOD9015911 Si02
#       7
#     2   2   2   2   2   2   2
#     4  11  24  41  66  97 129 171 217 270 331 378
#     4  12  24  39  65 101 126 166 222 272 321 393
#     4  10  22  41  63  95 137 165 215 269 328 393
#     4  10  23  45  65  96 133 173 218 269 327 390
#     4  10  24  44  66  96 135 173 217 271 324 392
#     4  11  23  43  70  90 130 181 210 267 337 375
#     4  10  21  42  65  97 131 174 212 272 330 382
#
# _framework density 27.083955
#
# number of rings (size 3 to 8) (size 9 to 14) (size 15 to 20)
#    0.000    1.429    1.429    3.857    4.000    3.429 
#    2.571    1.429    0.000    0.000    0.000    0.000 
#    0.000    0.000    0.000    0.000    0.000    0.000 
#
# Total GULP energy -78500.636344 kJ/mol
# GULP energy per Si atom -5607.188310 kJ/mol
# Density = 2.702231 g / cm^3
# Si number density = 27.083955 Si / 1000 Ang^3
#
#
#
# Elastic Constant Matrix: (Units=GPa)
#
#
# Indices 1 2 3 4 5 6 
#
# 1 181.2324 55.2443 32.9557 -6.4342 -6.1331 6.9193
# 2 55.2443 97.5544 28.9270 -11.8029 -12.6454 11.6849
# 3 32.9557 28.9270 93.7480 4.0598 3.7447 4.4186
# 4 -6.4342 -11.8029 4.0598 36.9684 6.1724 -16.3923
# 5 -6.1331 -12.6454 3.7447 6.1724 37.8441 -5.2321
# 6 6.9193 11.6849 4.4186 -16.3923 -5.2321 56.4719
#
#
#
# Elastic Compliance Matrix: (Units=1/GPa)
#
#
# Indices 1 2 3 4 5 6 
#
# 1 0.006818 -0.003427 -0.001356 0.000258 0.000060 0.000060
# 2 -0.003427 0.014219 -0.003433 0.003252 0.003874 -0.000951
# 3 -0.001356 -0.003433 0.012470 -0.002819 -0.002297 -0.001130
# 4 0.000258 0.003252 -0.002819 0.032792 -0.002727 0.008782
# 5 0.000060 0.003874 -0.002297 -0.002727 0.028570 0.001226
# 6 0.000060 -0.000951 -0.001130 0.008782 0.001226 0.020649
#
#
# Mechanical properties :
#
#
# Convention : Reuss Voigt Hill
#
# Bulk Modulus (GPa) = 58.56708 67.42098 62.99403
# Shear Modulus (GPa) = 36.32621 43.28405 39.80513
#
# Velocity S-wave (km/s) = 3.66627 4.00202 3.83782
# Velocity P-wave (km/s) = 6.29232 6.80457 6.55345
#
# Compressibility (1/GPa) = 0.01707444
#
# Stress axis : x y z
#
# Youngs Moduli (GPa) = 146.67345 70.32846 80.19236
#
# Poissons Ratio (x) = 0.24103 0.10871
# Poissons Ratio (y) = 0.50267 0.27533
# Poissons Ratio (z) = 0.19884 0.24147
#
# Static dielectric constant tensor:
#      x y z
#    x 2.135700 -0.027360 0.013050 
#    y -0.027360 2.100860 0.011500 
#    z 0.013050 0.011500 2.081930 
# 
# From -- ./inp_files/155305.got.cif
#   From: 2010.05.17/outbox.cif.g08.bks.cpg/sg2_78_cif.got.tgz:155305.got - 2010.06.03 11:33:40.
