data_PCOD9015504
_publ_section_title
;
Structure prediction by ZEFSAII (Michael W. Deem and Ramdas Pophale) SiO2 
 PCOD9015504
Probable space group: P -1
;
_chemical_formula_sum "Si O2"
_cell_formula_units_Z 13
_cell_length_a 7.293153
_cell_length_b 11.407855
_cell_length_c 9.455643
_cell_angle_alpha 124.449662
_cell_angle_beta 66.029599
_cell_angle_gamma 128.428367
_cell_volume 506.384980
_symmetry_space_group_name_H-M "P -1"
_symmetry_group_IT_number 2
_symmetry_cell_setting 'triclinic'
loop_
_space_group_symop_operation_xyz
x,y,z
-x,-y,-z
loop_
_atom_site_type_symbol
_atom_site_label
_atom_site_fract_x
_atom_site_fract_y
_atom_site_fract_z
Si Si1 0.418859 0.274847 0.850609
Si Si2 0.084964 0.894391 0.992466
Si Si3 0.723917 0.982599 0.700170
Si Si4 0.014650 0.674648 0.618731
Si Si5 0.500000 0.000000 0.500000
Si Si6 0.074872 0.254901 0.585805
Si Si7 0.501033 0.546493 0.786721
O O1 0.153980 0.227705 0.932101
O O2 0.519822 0.416218 0.795968
O O3 0.420848 0.117980 0.687434
O O4 0.536519 0.340092 0.012439
O O5 0.284361 0.000711 0.117282
O O6 0.133211 0.784236 0.794664
O O7 0.000000 0.000000 0.000000
O O8 0.914796 0.167799 0.710963
O O9 0.537864 0.933680 0.601397
O O10 0.821476 0.859233 0.564983
O O11 0.099378 0.761639 0.497385
O O12 0.746674 0.638227 0.689344
O O13 0.000000 0.500000 0.500000
O O14 0.280791 0.440429 0.681534
#
# Coordination Sequence:
#
# PCOD9015504 Si02
#       7
#     2   2   2   2   1   2   2
#     4  10  22  39  65  96 127 178 214 270 330 392
#     4  11  22  45  69  92 136 177 221 268 339 396
#     4  11  23  40  68 100 126 180 219 276 332 387
#     4  11  26  39  67 103 132 170 219 283 325 391
#     4  12  24  40  68 102 130 158 240 278 306 400
#     4  11  21  43  68  93 134 176 225 260 340 401
#     4  10  21  42  63  91 137 174 213 261 343 397
#
# _framework density 25.672167000000002
#
# number of rings (size 3 to 8) (size 9 to 14) (size 15 to 20)
#    0.000    1.231    4.615    1.385    2.154    1.231 
#    0.000    2.308    0.000    0.000    0.000    0.000 
#    0.000    0.000    0.000    0.000    0.000    0.000 
#
# Total GULP energy -72552.592107 kJ/mol
# GULP energy per Si atom -5580.968624 kJ/mol
# Density = 2.561374 g / cm^3
# Si number density = 25.672167 Si / 1000 Ang^3
#
#
#
# Elastic Constant Matrix: (Units=GPa)
#
#
# Indices 1 2 3 4 5 6 
#
# 1 102.6909 9.2501 68.3891 -4.8637 43.5645 -18.2906
# 2 9.2501 56.3583 21.8088 -8.8655 -0.7728 -33.5383
# 3 68.3891 21.8088 223.8744 20.2430 33.5405 -27.8024
# 4 -4.8637 -8.8655 20.2430 43.0568 -1.7002 4.5822
# 5 43.5645 -0.7728 33.5405 -1.7002 59.6968 -5.3161
# 6 -18.2906 -33.5383 -27.8024 4.5822 -5.3161 44.2742
#
#
#
# Elastic Compliance Matrix: (Units=1/GPa)
#
#
# Indices 1 2 3 4 5 6 
#
# 1 0.017213 0.001640 -0.003636 0.003113 -0.010004 0.004547
# 2 0.001640 0.033901 -0.001535 0.005310 0.002495 0.025144
# 3 -0.003636 -0.001535 0.006435 -0.003968 -0.000946 0.001673
# 4 0.003113 0.005310 -0.003968 0.026549 0.000797 0.000165
# 5 -0.010004 0.002495 -0.000946 0.000797 0.024642 0.000039
# 6 0.004547 0.025144 0.001673 0.000165 0.000039 0.044551
#
#
# Mechanical properties :
#
#
# Convention : Reuss Voigt Hill
#
# Bulk Modulus (GPa) = 19.80681 64.64664 42.22673
# Shear Modulus (GPa) = 28.21974 48.30395 38.26184
#
# Velocity S-wave (km/s) = 3.31907 4.34241 3.86476
# Velocity P-wave (km/s) = 4.73501 7.09777 6.03318
#
# Compressibility (1/GPa) = 0.05048768
#
# Stress axis : x y z
#
# Youngs Moduli (GPa) = 58.09650 29.49778 155.39154
#
# Poissons Ratio (x) = -0.04838 0.56500
# Poissons Ratio (y) = -0.09528 0.23849
# Poissons Ratio (z) = 0.21124 0.04527
#
# Static dielectric constant tensor:
#      x y z
#    x 1.988270 0.050420 0.062670 
#    y 0.050420 2.040200 0.053750 
#    z 0.062670 0.053750 2.049250 
# 
# From -- ./inp_files/166578.got.cif
#   From: 2010.05.17/outbox.cif.g08.bks.cpg/sg2_84_cif.got.tgz:166578.got - 2010.06.03 11:33:40.
