data_PCOD9015015
_publ_section_title
;
Structure prediction by ZEFSAII (Michael W. Deem and Ramdas Pophale) SiO2 
 PCOD9015015
Probable space group: P -1
;
_chemical_formula_sum "Si O2"
_cell_formula_units_Z 16
_cell_length_a 9.111515
_cell_length_b 20.459374
_cell_length_c 5.684629
_cell_angle_alpha 52.694964
_cell_angle_beta 126.792595
_cell_angle_gamma 128.314001
_cell_volume 617.635310
_symmetry_space_group_name_H-M "P -1"
_symmetry_group_IT_number 2
_symmetry_cell_setting 'triclinic'
loop_
_space_group_symop_operation_xyz
x,y,z
-x,-y,-z
loop_
_atom_site_type_symbol
_atom_site_label
_atom_site_fract_x
_atom_site_fract_y
_atom_site_fract_z
Si Si1 0.649712 0.320542 0.061052
Si Si2 0.744241 0.910597 0.187863
Si Si3 0.494931 0.342133 0.365263
Si Si4 0.829372 0.538493 0.251438
Si Si5 0.038568 0.903247 0.115291
Si Si6 0.279432 0.828897 0.803659
Si Si7 0.912153 0.775948 0.889166
Si Si8 0.260195 0.475739 0.307450
O O1 0.568030 0.303955 0.287695
O O2 0.736549 0.248271 0.231015
O O3 0.510724 0.308439 0.717224
O O4 0.763243 0.428930 0.928175
O O5 0.823638 0.846963 0.547579
O O6 0.845556 0.015244 0.129293
O O7 0.506329 0.874139 0.017364
O O8 0.849593 0.914137 0.027621
O O9 0.623183 0.447971 0.256365
O O10 0.266548 0.316216 0.142921
O O11 0.844270 0.576911 0.445123
O O12 0.000000 0.500000 0.500000
O O13 0.830487 0.574362 0.911105
O O14 0.950060 0.805724 0.127108
O O15 0.206145 0.901007 0.461217
O O16 0.116817 0.785163 0.946436
O O17 0.500000 0.500000 0.500000
#
# Coordination Sequence:
#
# PCOD9015015 Si02
#       8
#     2   2   2   2   2   2   2   2
#     4  10  22  42  67  94 133 179 214 276 337 390
#     4  10  21  42  62  90 136 168 226 282 337 391
#     4  10  22  42  67  93 134 179 215 275 338 393
#     4  10  21  41  70  97 132 172 220 271 337 400
#     4  10  23  38  64  95 125 182 220 281 334 403
#     4  11  23  38  64  93 133 173 229 275 336 400
#     4  11  23  38  64  92 131 175 228 273 341 396
#     4  10  21  41  70  96 132 173 219 270 337 401
#
# _framework density 25.905253999999999
#
# number of rings (size 3 to 8) (size 9 to 14) (size 15 to 20)
#    0.000    1.750    1.250    2.250    3.500    1.500 
#    0.000   15.000    0.000    0.000    0.000    0.000 
#    0.000    0.000    0.000    0.000    0.000    0.000 
#
# Total GULP energy -89403.409442 kJ/mol
# GULP energy per Si atom -5587.713090 kJ/mol
# Density = 2.584629 g / cm^3
# Si number density = 25.905254 Si / 1000 Ang^3
#
#
#
# Elastic Constant Matrix: (Units=GPa)
#
#
# Indices 1 2 3 4 5 6 
#
# 1 136.3703 21.5404 46.4988 23.6860 9.3424 -6.8258
# 2 21.5404 74.9891 14.0289 19.0111 9.2621 1.3642
# 3 46.4988 14.0289 139.7433 14.9905 5.6817 -4.8328
# 4 23.6860 19.0111 14.9905 40.9086 -3.9367 0.0037
# 5 9.3424 9.2621 5.6817 -3.9367 48.6314 14.7868
# 6 -6.8258 1.3642 -4.8328 0.0037 14.7868 47.7796
#
#
#
# Elastic Compliance Matrix: (Units=1/GPa)
#
#
# Indices 1 2 3 4 5 6 
#
# 1 0.009275 -0.000886 -0.002383 -0.004300 -0.002230 0.001800
# 2 -0.000886 0.015879 -0.000382 -0.007066 -0.003525 0.000473
# 3 -0.002383 -0.000382 0.008208 -0.001525 -0.000777 0.000741
# 4 -0.004300 -0.007066 -0.001525 0.031315 0.005584 -0.002297
# 5 -0.002230 -0.003525 -0.000777 0.005584 0.024612 -0.007914
# 6 0.001800 0.000473 0.000741 -0.002297 -0.007914 0.023697
#
#
# Mechanical properties :
#
#
# Convention : Reuss Voigt Hill
#
# Bulk Modulus (GPa) = 38.37050 57.24877 47.80963
# Shear Modulus (GPa) = 38.76727 45.39957 42.08342
#
# Velocity S-wave (km/s) = 3.87266 4.19086 4.03490
# Velocity P-wave (km/s) = 5.90260 6.75018 6.34057
#
# Compressibility (1/GPa) = 0.02606169
#
# Stress axis : x y z
#
# Youngs Moduli (GPa) = 107.81413 62.97521 121.82985
#
# Poissons Ratio (x) = 0.05577 0.29034
# Poissons Ratio (y) = 0.09547 0.04651
# Poissons Ratio (z) = 0.25694 0.02404
#
# Static dielectric constant tensor:
#      x y z
#    x 2.048220 -0.049240 -0.019630 
#    y -0.049240 2.124040 -0.084270 
#    z -0.019630 -0.084270 2.056720 
# 
# From -- ./inp_files/52632.got.cif
#   From: 2010.05.17/outbox.cif.g08.bks.cpg/sg2_27_cif.got.tgz:52632.got - 2010.06.03 11:33:40.
