data_PCOD9015028
_publ_section_title
;
Structure prediction by ZEFSAII (Michael W. Deem and Ramdas Pophale) SiO2 
 PCOD9015028
Probable space group: P -1
;
_chemical_formula_sum "Si O2"
_cell_formula_units_Z 16
_cell_length_a 5.510375
_cell_length_b 19.113682
_cell_length_c 9.128012
_cell_angle_alpha 121.517402
_cell_angle_beta 125.529734
_cell_angle_gamma 59.531870
_cell_volume 637.706637
_symmetry_space_group_name_H-M "P -1"
_symmetry_group_IT_number 2
_symmetry_cell_setting 'triclinic'
loop_
_space_group_symop_operation_xyz
x,y,z
-x,-y,-z
loop_
_atom_site_type_symbol
_atom_site_label
_atom_site_fract_x
_atom_site_fract_y
_atom_site_fract_z
Si Si1 0.438580 0.037628 0.680453
Si Si2 0.906019 0.179852 0.513053
Si Si3 0.215758 0.828995 0.008840
Si Si4 0.504705 0.915189 0.822944
Si Si5 0.570590 0.742744 0.326021
Si Si6 0.115483 0.401289 0.380315
Si Si7 0.449649 0.583007 0.973620
Si Si8 0.378765 0.652627 0.718833
O O1 0.683417 0.084334 0.880326
O O2 0.124432 0.115258 0.636212
O O3 0.500000 0.000000 0.500000
O O4 0.436456 0.955102 0.681504
O O5 0.771236 0.126052 0.289753
O O6 0.608249 0.235234 0.559214
O O7 0.118381 0.229929 0.563641
O O8 0.333942 0.798092 0.179356
O O9 0.378472 0.746745 0.874793
O O10 0.845352 0.850211 0.888862
O O11 0.500000 0.000000 0.000000
O O12 0.023001 0.648081 0.599576
O O13 0.594013 0.646705 0.180655
O O14 0.462224 0.374456 0.410745
O O15 0.000000 0.500000 0.500000
O O16 0.923194 0.384507 0.151124
O O17 0.543458 0.585602 0.836135
O O18 0.500000 0.500000 0.000000
#
# Coordination Sequence:
#
# PCOD9015028 Si02
#       8
#     2   2   2   2   2   2   2   2
#     4  11  23  42  70  97 135 183 229 285 350 411
#     4  11  24  44  67  94 139 180 228 283 346 414
#     4  10  22  40  68  97 138 178 233 289 339 415
#     4  12  24  40  67 106 136 180 239 296 345 406
#     4  10  23  44  68  97 135 186 224 275 353 412
#     4  10  21  41  70  97 133 175 223 277 346 411
#     4   9  22  40  71 100 136 173 229 277 333 410
#     4   9  22  40  67  96 136 179 223 266 356 399
#
# _framework density 25.089907
#
# number of rings (size 3 to 8) (size 9 to 14) (size 15 to 20)
#    0.750    1.000    0.000    4.125    5.250    2.500 
#    2.250    0.000    0.000    0.000    0.000    0.000 
#    0.000    0.000    0.000    0.000    0.000    0.000 
#
# Total GULP energy -89460.087541 kJ/mol
# GULP energy per Si atom -5591.255471 kJ/mol
# Density = 2.503280 g / cm^3
# Si number density = 25.089907 Si / 1000 Ang^3
#
#
#
# Elastic Constant Matrix: (Units=GPa)
#
#
# Indices 1 2 3 4 5 6 
#
# 1 183.7002 76.2768 61.4262 16.2707 5.7979 3.1932
# 2 76.2768 112.5501 42.0571 7.2857 5.0321 28.9225
# 3 61.4262 42.0571 105.9158 22.3452 14.4707 11.6134
# 4 16.2707 7.2857 22.3452 54.1039 4.4751 -3.1342
# 5 5.7979 5.0321 14.4707 4.4751 55.6881 7.2679
# 6 3.1932 28.9225 11.6134 -3.1342 7.2679 45.7103
#
#
#
# Elastic Compliance Matrix: (Units=1/GPa)
#
#
# Indices 1 2 3 4 5 6 
#
# 1 0.008879 -0.005785 -0.003194 -0.000346 -0.000044 0.003835
# 2 -0.005785 0.015932 -0.002037 -0.000180 0.000923 -0.009318
# 3 -0.003194 -0.002037 0.013533 -0.004261 -0.002418 -0.001834
# 4 -0.000346 -0.000180 -0.004261 0.020602 -0.000858 0.002770
# 5 -0.000044 0.000923 -0.002418 -0.000858 0.018973 -0.003042
# 6 0.003835 -0.009318 -0.001834 0.002770 -0.003042 0.028644
#
#
# Mechanical properties :
#
#
# Convention : Reuss Voigt Hill
#
# Bulk Modulus (GPa) = 61.30677 84.63183 72.96930
# Shear Modulus (GPa) = 37.30425 45.92752 41.61589
#
# Velocity S-wave (km/s) = 3.86012 4.28310 4.07710
# Velocity P-wave (km/s) = 6.65997 7.63312 7.16309
#
# Compressibility (1/GPa) = 0.01631141
#
# Stress axis : x y z
#
# Youngs Moduli (GPa) = 112.62365 62.76722 73.89373
#
# Poissons Ratio (x) = 0.36312 0.23599
# Poissons Ratio (y) = 0.65155 0.15055
# Poissons Ratio (z) = 0.35968 0.12788
#
# Static dielectric constant tensor:
#      x y z
#    x 1.970010 -0.054330 0.037310 
#    y -0.054330 1.910770 0.046730 
#    z 0.037310 0.046730 1.949860 
# 
# From -- ./inp_files/139274.got.cif
#   From: 2010.05.17/outbox.cif.g08.bks.cpg/sg2_70_cif.got.tgz:139274.got - 2010.06.03 11:33:40.
