data_PCOD9015991
_publ_section_title
;
Structure prediction by ZEFSAII (Michael W. Deem and Ramdas Pophale) SiO2 
 PCOD9015991
Probable space group: P -1
;
_chemical_formula_sum "Si O2"
_cell_formula_units_Z 16
_cell_length_a 19.956681
_cell_length_b 7.932925
_cell_length_c 8.927382
_cell_angle_alpha 114.133341
_cell_angle_beta 145.547592
_cell_angle_gamma 59.193220
_cell_volume 686.474230
_symmetry_space_group_name_H-M "P -1"
_symmetry_group_IT_number 2
_symmetry_cell_setting 'triclinic'
loop_
_space_group_symop_operation_xyz
x,y,z
-x,-y,-z
loop_
_atom_site_type_symbol
_atom_site_label
_atom_site_fract_x
_atom_site_fract_y
_atom_site_fract_z
Si Si1 0.585538 0.136139 0.199389
Si Si2 0.082395 0.245307 0.722973
Si Si3 0.352725 0.444115 0.781860
Si Si4 0.736496 0.213454 0.762518
Si Si5 0.805673 0.224440 0.216748
Si Si6 0.201878 0.239218 0.626051
Si Si7 0.046062 0.156293 0.054647
Si Si8 0.817764 0.491584 0.782211
O O1 0.620808 0.188364 0.449071
O O2 0.714531 0.993425 0.311717
O O3 0.501074 0.333110 0.032589
O O4 0.500000 0.000000 0.000000
O O5 0.133500 0.299615 0.679336
O O6 0.932478 0.283362 0.461315
O O7 0.145103 0.009764 0.760585
O O8 0.130501 0.355552 0.982671
O O9 0.287748 0.670745 0.784615
O O10 0.291661 0.351181 0.769573
O O11 0.295729 0.409257 0.505349
O O12 0.779589 0.361681 0.791054
O O13 0.841358 0.994088 0.884473
O O14 0.726110 0.282971 0.937849
O O15 0.099508 0.264542 0.317275
O O16 0.928352 0.327636 0.833109
O O17 0.000000 0.000000 0.000000
#
# Coordination Sequence:
#
# PCOD9015991 Si02
#       8
#     2   2   2   2   2   2   2   2
#     4   9  22  43  71  94 127 171 223 268 321 378
#     4  11  25  42  63 100 137 168 213 266 333 386
#     4  11  25  42  66  97 129 173 219 267 320 382
#     4  10  22  42  67  92 130 174 217 266 322 383
#     4  11  26  40  65  98 136 169 211 273 325 388
#     4  10  21  42  66  88 129 172 212 264 322 382
#     4   9  19  33  62  90 122 161 209 256 320 377
#     4  11  24  39  66  99 132 170 218 263 323 396
#
# _framework density 23.307504999999999
#
# number of rings (size 3 to 8) (size 9 to 14) (size 15 to 20)
#    0.000    1.750    0.000    3.000   14.000    3.500 
#    0.000    0.625    0.000    0.000    0.000    0.000 
#    0.000    0.000    0.000    0.000    0.000    0.000 
#
# Total GULP energy -89437.155161 kJ/mol
# GULP energy per Si atom -5589.822198 kJ/mol
# Density = 2.325446 g / cm^3
# Si number density = 23.307505 Si / 1000 Ang^3
#
#
#
# Elastic Constant Matrix: (Units=GPa)
#
#
# Indices 1 2 3 4 5 6 
#
# 1 77.1976 11.6169 16.7404 2.6088 -9.0513 2.8589
# 2 11.6169 103.1038 40.5318 -5.5520 -0.4253 -3.1449
# 3 16.7404 40.5318 108.1354 7.8634 9.2263 -21.2825
# 4 2.6088 -5.5520 7.8634 50.3447 -4.6375 5.3728
# 5 -9.0513 -0.4253 9.2263 -4.6375 23.3393 0.2912
# 6 2.8589 -3.1449 -21.2825 5.3728 0.2912 38.5354
#
#
#
# Elastic Compliance Matrix: (Units=1/GPa)
#
#
# Indices 1 2 3 4 5 6 
#
# 1 0.014693 -0.000326 -0.003452 0.000749 0.007245 -0.003182
# 2 -0.000326 0.011900 -0.005293 0.002656 0.002740 -0.002319
# 3 -0.003452 -0.005293 0.014436 -0.004309 -0.008103 0.008459
# 4 0.000749 0.002656 -0.004309 0.021955 0.006471 -0.005328
# 5 0.007245 0.002740 -0.008103 0.006471 0.050271 -0.006071
# 6 -0.003182 -0.002319 0.008459 -0.005328 -0.006071 0.031457
#
#
# Mechanical properties :
#
#
# Convention : Reuss Voigt Hill
#
# Bulk Modulus (GPa) = 43.69090 47.35720 45.52405
# Shear Modulus (GPa) = 29.32857 37.08041 33.20449
#
# Velocity S-wave (km/s) = 3.55115 3.99296 3.77852
# Velocity P-wave (km/s) = 5.96660 6.45142 6.21374
#
# Compressibility (1/GPa) = 0.02288806
#
# Stress axis : x y z
#
# Youngs Moduli (GPa) = 68.05839 84.03259 69.27326
#
# Poissons Ratio (x) = 0.02735 0.23910
# Poissons Ratio (y) = 0.02215 0.36669
# Poissons Ratio (z) = 0.23491 0.44482
#
# Static dielectric constant tensor:
#      x y z
#    x 1.871140 0.007150 -0.000900 
#    y 0.007150 1.931710 -0.035600 
#    z -0.000900 -0.035600 1.853660 
# 
# From -- ./inp_files/352352.got.cif
#   From: 2010.05.17/outbox.cif.g08.bks.cpg/sg2_177_cif.got.tgz:352352.got - 2010.06.03 11:33:40.
