data_PCOD9015258
_publ_section_title
;
Structure prediction by ZEFSAII (Michael W. Deem and Ramdas Pophale) SiO2 
 PCOD9015258
Probable space group: P -1
;
_chemical_formula_sum "Si O2"
_cell_formula_units_Z 16
_cell_length_a 11.757179
_cell_length_b 9.225827
_cell_length_c 14.081242
_cell_angle_alpha 65.978556
_cell_angle_beta 59.529847
_cell_angle_gamma 117.415342
_cell_volume 639.048754
_symmetry_space_group_name_H-M "P -1"
_symmetry_group_IT_number 2
_symmetry_cell_setting 'triclinic'
loop_
_space_group_symop_operation_xyz
x,y,z
-x,-y,-z
loop_
_atom_site_type_symbol
_atom_site_label
_atom_site_fract_x
_atom_site_fract_y
_atom_site_fract_z
Si Si1 0.970930 0.669893 0.604320
Si Si2 0.497896 0.883828 0.757589
Si Si3 0.306427 0.670224 0.700093
Si Si4 0.352108 0.641677 0.345502
Si Si5 0.388913 0.401506 0.707978
Si Si6 0.705421 0.572474 0.900869
Si Si7 0.857269 0.222428 0.868229
Si Si8 0.029427 0.006009 0.150189
O O1 0.898256 0.603122 0.543068
O O2 0.881879 0.408287 0.750236
O O3 0.264496 0.975371 0.413884
O O4 0.836636 0.670248 0.720202
O O5 0.598288 0.164055 0.655001
O O6 0.293395 0.664737 0.820894
O O7 0.408743 0.709707 0.937761
O O8 0.428253 0.628660 0.626578
O O9 0.040167 0.418931 0.830052
O O10 0.500000 0.000000 0.500000
O O11 0.399415 0.513751 0.398090
O O12 0.577172 0.903484 0.104614
O O13 0.230336 0.224916 0.920266
O O14 0.217131 0.187743 0.747151
O O15 0.500000 0.500000 0.000000
O O16 0.892536 0.816813 0.838939
O O17 0.959397 0.170601 0.785367
#
# Coordination Sequence:
#
# PCOD9015258 Si02
#       8
#     2   2   2   2   2   2   2   2
#     4  12  26  47  69 104 143 184 237 292 347 423
#     4  12  27  45  71 105 140 189 234 289 357 416
#     4  11  22  43  70 103 147 176 231 299 350 409
#     4  11  24  44  70  98 142 187 239 286 348 420
#     4   9  19  40  67 101 133 184 233 283 345 417
#     4  12  26  45  72 105 141 188 235 289 354 418
#     4  10  21  41  73  97 138 187 227 286 349 412
#     4   9  19  38  69 102 134 178 235 286 342 417
#
# _framework density 25.037213999999999
#
# number of rings (size 3 to 8) (size 9 to 14) (size 15 to 20)
#    0.000    1.250    3.750    3.000    1.750    2.000 
#    0.000    0.625    0.000    0.000    0.000    0.000 
#    0.000    0.000    0.000    0.000    0.000    0.000 
#
# Total GULP energy -89697.982702 kJ/mol
# GULP energy per Si atom -5606.123919 kJ/mol
# Density = 2.498023 g / cm^3
# Si number density = 25.037214 Si / 1000 Ang^3
#
#
#
# Elastic Constant Matrix: (Units=GPa)
#
#
# Indices 1 2 3 4 5 6 
#
# 1 136.1821 51.7166 7.8778 -6.5526 0.8444 -5.3139
# 2 51.7166 123.7780 -3.3801 -6.1359 -2.2252 7.7962
# 3 7.8778 -3.3801 40.9842 3.4064 3.9893 3.4351
# 4 -6.5526 -6.1359 3.4064 36.1093 -3.2666 -3.9772
# 5 0.8444 -2.2252 3.9893 -3.2666 33.6867 -2.5898
# 6 -5.3139 7.7962 3.4351 -3.9772 -2.5898 38.8950
#
#
#
# Elastic Compliance Matrix: (Units=1/GPa)
#
#
# Indices 1 2 3 4 5 6 
#
# 1 0.009156 -0.003968 -0.002427 0.001494 0.000127 0.002422
# 2 -0.003968 0.009983 0.001718 0.000564 0.000409 -0.002610
# 3 -0.002427 0.001718 0.025918 -0.003298 -0.003486 -0.003534
# 4 0.001494 0.000564 -0.003298 0.029082 0.003486 0.003588
# 5 0.000127 0.000409 -0.003486 0.003486 0.030663 0.002641
# 6 0.002422 -0.002610 -0.003534 0.003588 0.002641 0.027419
#
#
# Mechanical properties :
#
#
# Convention : Reuss Voigt Hill
#
# Bulk Modulus (GPa) = 28.00817 45.93031 36.96924
# Shear Modulus (GPa) = 32.57831 38.05354 35.31593
#
# Velocity S-wave (km/s) = 3.61112 3.90279 3.75979
# Velocity P-wave (km/s) = 5.34769 6.22043 5.80050
#
# Compressibility (1/GPa) = 0.03570387
#
# Stress axis : x y z
#
# Youngs Moduli (GPa) = 109.21805 100.16531 38.58389
#
# Poissons Ratio (x) = 0.39745 0.09363
# Poissons Ratio (y) = 0.43338 -0.06629
# Poissons Ratio (z) = 0.26504 -0.17210
#
# Static dielectric constant tensor:
#      x y z
#    x 1.945800 -0.002890 0.039600 
#    y -0.002890 1.937970 0.030520 
#    z 0.039600 0.030520 2.021160 
# 
# From -- ./inp_files/515356.got.cif
#   From: 2010.05.17/outbox.cif.g08.bks.cpg/sg2_258_cif.got.tgz:515356.got - 2010.06.03 11:33:40.
