data_PCOD9015909
_publ_section_title
;
Structure prediction by ZEFSAII (Michael W. Deem and Ramdas Pophale) SiO2 
 PCOD9015909
Probable space group: P -1
;
_chemical_formula_sum "Si O2"
_cell_formula_units_Z 16
_cell_length_a 11.718643
_cell_length_b 9.894340
_cell_length_c 9.909342
_cell_angle_alpha 125.902984
_cell_angle_beta 85.837533
_cell_angle_gamma 63.731669
_cell_volume 742.220826
_symmetry_space_group_name_H-M "P -1"
_symmetry_group_IT_number 2
_symmetry_cell_setting 'triclinic'
loop_
_space_group_symop_operation_xyz
x,y,z
-x,-y,-z
loop_
_atom_site_type_symbol
_atom_site_label
_atom_site_fract_x
_atom_site_fract_y
_atom_site_fract_z
Si Si1 0.696852 0.964289 0.050644
Si Si2 0.134348 0.862893 0.566378
Si Si3 0.117234 0.713128 0.190774
Si Si4 0.406445 0.058227 0.212104
Si Si5 0.663708 0.370225 0.351663
Si Si6 0.662630 0.693215 0.363853
Si Si7 0.554862 0.637734 0.095927
Si Si8 0.157890 0.221486 0.789615
O O1 0.530132 0.073192 0.158959
O O2 0.710539 0.150755 0.159136
O O3 0.786504 0.815346 0.082342
O O4 0.715085 0.863650 0.844165
O O5 0.201562 0.989677 0.608736
O O6 0.972656 0.057492 0.737902
O O7 0.124724 0.763618 0.374729
O O8 0.231546 0.690578 0.566925
O O9 0.274785 0.534745 0.027663
O O10 0.012152 0.649567 0.139706
O O11 0.361515 0.172625 0.424824
O O12 0.485626 0.813566 0.090729
O O13 0.500000 0.500000 0.500000
O O14 0.692049 0.487469 0.307903
O O15 0.534594 0.754634 0.307468
O O16 0.771307 0.706474 0.271903
O O17 0.500000 0.500000 0.000000
#
# Coordination Sequence:
#
# PCOD9015909 Si02
#       8
#     2   2   2   2   2   2   2   2
#     4  10  21  42  65  97 130 190 218 272 345 407
#     4   8  20  41  72  94 130 188 224 269 340 412
#     4   9  21  43  69  96 133 183 233 265 347 414
#     4  11  24  39  65 100 140 174 227 279 349 394
#     4  11  22  39  68 101 137 177 223 278 342 408
#     4  12  25  41  66 108 137 172 226 290 340 388
#     4  12  27  39  68 107 136 173 230 292 335 403
#     4   9  20  43  71  92 130 181 223 274 332 402
#
# _framework density 21.556926000000001
#
# number of rings (size 3 to 8) (size 9 to 14) (size 15 to 20)
#    0.750    1.000    2.500    1.125    5.250    0.500 
#    0.000    1.250    2.750    0.000    0.000    0.000 
#    0.000    0.000    0.000    0.000    0.000    0.000 
#
# Total GULP energy -89191.275270 kJ/mol
# GULP energy per Si atom -5574.454704 kJ/mol
# Density = 2.150786 g / cm^3
# Si number density = 21.556926 Si / 1000 Ang^3
#
#
#
# Elastic Constant Matrix: (Units=GPa)
#
#
# Indices 1 2 3 4 5 6 
#
# 1 106.1124 58.4547 47.9194 -18.1076 28.2711 -1.9935
# 2 58.4547 143.8259 30.4445 -20.0906 10.2985 8.3969
# 3 47.9194 30.4445 111.1557 -19.8647 26.5538 -7.4142
# 4 -18.1076 -20.0906 -19.8647 25.8228 -10.8880 11.2671
# 5 28.2711 10.2985 26.5538 -10.8880 31.9669 -7.4075
# 6 -1.9935 8.3969 -7.4142 11.2671 -7.4075 39.3285
#
#
#
# Elastic Compliance Matrix: (Units=1/GPa)
#
#
# Indices 1 2 3 4 5 6 
#
# 1 0.016573 -0.005093 -0.003140 0.001384 -0.010163 -0.000975
# 2 -0.005093 0.010078 -0.000283 0.007013 0.002975 -0.003912
# 3 -0.003140 -0.000283 0.012748 0.004923 -0.006104 -0.000256
# 4 0.001384 0.007013 0.004923 0.059702 0.009079 -0.015893
# 5 -0.010163 0.002975 -0.006104 0.009079 0.048454 0.004224
# 6 -0.000975 -0.003912 -0.000256 -0.015893 0.004224 0.031513
#
#
# Mechanical properties :
#
#
# Convention : Reuss Voigt Hill
#
# Bulk Modulus (GPa) = 44.70713 70.52569 57.61641
# Shear Modulus (GPa) = 24.56341 34.37532 29.46936
#
# Velocity S-wave (km/s) = 3.37926 3.99761 3.70137
# Velocity P-wave (km/s) = 6.00083 7.35493 6.71211
#
# Compressibility (1/GPa) = 0.02236779
#
# Stress axis : x y z
#
# Youngs Moduli (GPa) = 60.33926 99.22909 78.44160
#
# Poissons Ratio (x) = 0.50539 0.24628
# Poissons Ratio (y) = 0.30732 0.02218
# Poissons Ratio (z) = 0.18944 0.02806
#
# Static dielectric constant tensor:
#      x y z
#    x 1.782780 -0.001100 0.015760 
#    y -0.001100 1.806250 0.019940 
#    z 0.015760 0.019940 1.907860 
# 
# From -- ./inp_files/299511.got.cif
#   From: 2010.05.17/outbox.cif.g08.bks.cpg/sg2_150_cif.got.tgz:299511.got - 2010.06.03 11:33:40.
