data_PCOD9015022
_publ_section_title
;
Structure prediction by ZEFSAII (Michael W. Deem and Ramdas Pophale) SiO2 
 PCOD9015022
Probable space group: P -1
;
_chemical_formula_sum "Si O2"
_cell_formula_units_Z 14
_cell_length_a 18.408123
_cell_length_b 11.493756
_cell_length_c 7.807334
_cell_angle_alpha 54.083184
_cell_angle_beta 69.215073
_cell_angle_gamma 26.358719
_cell_volume 522.715555
_symmetry_space_group_name_H-M "P -1"
_symmetry_group_IT_number 2
_symmetry_cell_setting 'triclinic'
loop_
_space_group_symop_operation_xyz
x,y,z
-x,-y,-z
loop_
_atom_site_type_symbol
_atom_site_label
_atom_site_fract_x
_atom_site_fract_y
_atom_site_fract_z
Si Si1 0.706548 0.281194 0.848807
Si Si2 0.308207 0.260307 0.009452
Si Si3 0.794088 0.690369 0.311222
Si Si4 0.442377 0.491189 0.841860
Si Si5 0.849290 0.340707 0.722992
Si Si6 0.962202 0.488171 0.858430
Si Si7 0.860061 0.170042 0.331152
O O1 0.533112 0.491693 0.727304
O O2 0.723588 0.423249 0.683584
O O3 0.895011 0.885502 0.968955
O O4 0.674192 0.310774 0.054130
O O5 0.213419 0.377119 0.808662
O O6 0.226014 0.540269 0.929040
O O7 0.244046 0.232942 0.200991
O O8 0.500000 0.000000 0.000000
O O9 0.743232 0.669479 0.531347
O O10 0.970863 0.501016 0.337070
O O11 0.616626 0.096141 0.082568
O O12 0.316849 0.635619 0.670097
O O13 0.002045 0.147018 0.630611
O O14 0.000000 0.000000 0.000000
O O15 0.000000 0.500000 0.000000
O O16 0.000000 0.000000 0.500000
#
# Coordination Sequence:
#
# PCOD9015022 Si02
#       7
#     2   2   2   2   2   2   2
#     4  10  21  41  70  96 142 184 228 291 356 416
#     4  11  20  37  69  99 134 172 231 298 342 415
#     4  10  22  41  67  99 138 185 235 288 348 420
#     4  10  22  43  68 100 142 183 239 293 347 422
#     4  12  24  42  69 101 141 193 234 289 361 425
#     4   9  20  39  66 101 138 179 225 291 358 417
#     4  12  23  40  70  99 139 188 230 292 361 419
#
# _framework density 26.783208999999999
#
# number of rings (size 3 to 8) (size 9 to 14) (size 15 to 20)
#    0.000    1.429    5.714    0.000    0.000    0.571 
#    0.000    5.000    0.000    0.000    0.000    0.000 
#    0.000    0.000    0.000    0.000    0.000    0.000 
#
# Total GULP energy -77948.766944 kJ/mol
# GULP energy per Si atom -5567.769067 kJ/mol
# Density = 2.672225 g / cm^3
# Si number density = 26.783209 Si / 1000 Ang^3
#
#
#
# Elastic Constant Matrix: (Units=GPa)
#
#
# Indices 1 2 3 4 5 6 
#
# 1 211.2961 41.5185 51.6880 12.8837 -14.0279 -79.4745
# 2 41.5185 85.1112 -2.9767 10.6089 -11.9533 -25.6697
# 3 51.6880 -2.9767 76.0813 14.6607 -17.5235 -32.4571
# 4 12.8837 10.6089 14.6607 7.6075 2.1090 2.4107
# 5 -14.0279 -11.9533 -17.5235 2.1090 42.4334 2.0090
# 6 -79.4745 -25.6697 -32.4571 2.4107 2.0090 77.8980
#
#
#
# Elastic Compliance Matrix: (Units=1/GPa)
#
#
# Indices 1 2 3 4 5 6 
#
# 1 0.006614 -0.008685 -0.012598 0.027705 -0.006743 -0.002046
# 2 -0.008685 -0.009624 -0.031555 0.103982 -0.022464 -0.027818
# 3 -0.012598 -0.031555 -0.034723 0.154631 -0.033107 -0.041650
# 4 0.027705 0.103982 0.154631 -0.434552 0.117402 0.137380
# 5 -0.006743 -0.022464 -0.033107 0.117402 -0.003000 -0.031632
# 6 -0.002046 -0.027818 -0.041650 0.137380 -0.031632 -0.019207
#
#
# Mechanical properties :
#
#
# Convention : Reuss Voigt Hill
#
# Bulk Modulus (GPa) = -6.97315 61.43868 27.23276
# Shear Modulus (GPa) = -11.45164 44.40505 16.47671
#
# Velocity S-wave (km/s) = -2.07001 4.07620 2.48299
# Velocity P-wave (km/s) = 2.88487 6.71885 4.29071
#
# Compressibility (1/GPa) = -0.14340713
#
# Stress axis : x y z
#
# Youngs Moduli (GPa) = 151.18565 -103.90981 -28.79957
#
# Poissons Ratio (x) = -0.90242 -0.36282
# Poissons Ratio (y) = 1.31300 -0.90876
# Poissons Ratio (z) = 1.90465 -3.27885
#
# Static dielectric constant tensor:
#      x y z
#    x 2.173910 0.029050 -0.091420 
#    y 0.029050 2.404680 0.080590 
#    z -0.091420 0.080590 2.726400 
# 
# From -- ./inp_files/332874.got.cif
#   From: 2010.05.17/outbox.cif.g08.bks.cpg/sg2_167_cif.got.tgz:332874.got - 2010.06.03 11:33:40.
