data_PCOD9015843
_publ_section_title
;
Structure prediction by ZEFSAII (Michael W. Deem and Ramdas Pophale) SiO2 
 PCOD9015843
Probable space group: P -1
;
_chemical_formula_sum "Si O2"
_cell_formula_units_Z 16
_cell_length_a 9.424451
_cell_length_b 16.285296
_cell_length_c 9.844441
_cell_angle_alpha 120.087148
_cell_angle_beta 114.157096
_cell_angle_gamma 36.509033
_cell_volume 777.748077
_symmetry_space_group_name_H-M "P -1"
_symmetry_group_IT_number 2
_symmetry_cell_setting 'triclinic'
loop_
_space_group_symop_operation_xyz
x,y,z
-x,-y,-z
loop_
_atom_site_type_symbol
_atom_site_label
_atom_site_fract_x
_atom_site_fract_y
_atom_site_fract_z
Si Si1 0.565250 0.824152 0.405174
Si Si2 0.323490 0.587232 0.627257
Si Si3 0.744602 0.650580 0.081679
Si Si4 0.601616 0.800826 0.867181
Si Si5 0.590779 0.368264 0.011552
Si Si6 0.141894 0.120982 0.005769
Si Si7 0.193618 0.101690 0.329292
Si Si8 0.277821 0.388459 0.490311
O O1 0.750729 0.721067 0.268164
O O2 0.646725 0.878499 0.566873
O O3 0.573936 0.732664 0.434869
O O4 0.315307 0.963359 0.350535
O O5 0.500000 0.500000 0.500000
O O6 0.404928 0.608456 0.807395
O O7 0.300600 0.489995 0.586504
O O8 0.073988 0.746353 0.611930
O O9 0.616107 0.754850 0.987270
O O10 0.588456 0.636982 0.070870
O O11 0.000000 0.500000 0.000000
O O12 0.794301 0.797352 0.925474
O O13 0.654421 0.692879 0.692435
O O14 0.342038 0.967696 0.879246
O O15 0.866433 0.224191 0.956375
O O16 0.500000 0.500000 0.000000
O O17 0.185850 0.083176 0.151661
O O18 0.000000 0.500000 0.500000
#
# Coordination Sequence:
#
# PCOD9015843 Si02
#       8
#     2   2   2   2   2   2   2   2
#     4  11  22  40  67  94 127 166 214 260 318 379
#     4  11  24  43  65  93 129 168 210 263 322 380
#     4  12  25  39  66  98 123 161 222 270 308 382
#     4  11  22  39  65 101 123 165 216 260 310 379
#     4  11  24  45  64  90 131 172 205 264 332 374
#     4  10  21  43  65  93 133 168 209 258 328 379
#     4  10  21  42  65  93 129 170 207 258 328 377
#     4  12  21  40  66  95 127 167 216 258 313 380
#
# _framework density 20.572213999999999
#
# number of rings (size 3 to 8) (size 9 to 14) (size 15 to 20)
#    0.000    1.000    3.750    3.750    1.750    0.500 
#    4.500    0.625    0.000    0.000    0.000    0.000 
#    0.000    0.000    0.000    0.000    0.000    0.000 
#
# Total GULP energy -89436.805261 kJ/mol
# GULP energy per Si atom -5589.800329 kJ/mol
# Density = 2.052539 g / cm^3
# Si number density = 20.572214 Si / 1000 Ang^3
#
#
#
# Elastic Constant Matrix: (Units=GPa)
#
#
# Indices 1 2 3 4 5 6 
#
# 1 72.1363 33.6047 -7.6539 -8.8758 -5.2806 -8.0401
# 2 33.6047 122.1092 2.6384 -5.9962 -6.0569 -5.4528
# 3 -7.6539 2.6384 37.7684 6.0643 -3.4491 -7.7037
# 4 -8.8758 -5.9962 6.0643 38.9744 3.5247 -12.3977
# 5 -5.2806 -6.0569 -3.4491 3.5247 27.8438 0.0822
# 6 -8.0401 -5.4528 -7.7037 -12.3977 0.0822 29.3974
#
#
#
# Elastic Compliance Matrix: (Units=1/GPa)
#
#
# Indices 1 2 3 4 5 6 
#
# 1 0.018023 -0.004377 0.004925 0.004806 0.002446 0.007428
# 2 -0.004377 0.009534 -0.001487 0.000776 0.000960 0.000506
# 3 0.004925 -0.001487 0.029919 -0.001545 0.004488 0.008248
# 4 0.004806 0.000776 -0.001545 0.032038 -0.003210 0.014574
# 5 0.002446 0.000960 0.004488 -0.003210 0.037548 0.000564
# 6 0.007428 0.000506 0.008248 0.014574 0.000564 0.044448
#
#
# Mechanical properties :
#
#
# Convention : Reuss Voigt Hill
#
# Bulk Modulus (GPa) = 17.98630 32.13251 25.05940
# Shear Modulus (GPa) = 26.05232 32.80476 29.42854
#
# Velocity S-wave (km/s) = 3.56249 3.99759 3.78630
# Velocity P-wave (km/s) = 5.06791 6.07955 5.59664
#
# Compressibility (1/GPa) = 0.05559787
#
# Stress axis : x y z
#
# Youngs Moduli (GPa) = 55.48585 104.88277 33.42335
#
# Poissons Ratio (x) = 0.45910 -0.16460
# Poissons Ratio (y) = 0.24288 0.04969
# Poissons Ratio (z) = -0.27326 0.15593
#
# Static dielectric constant tensor:
#      x y z
#    x 1.706920 -0.002140 0.027940 
#    y -0.002140 1.741480 0.006490 
#    z 0.027940 0.006490 1.742630 
# 
# From -- ./inp_files/208458.got.cif
#   From: 2010.05.17/outbox.cif.g08.bks.cpg/sg2_105_cif.got.tgz:208458.got - 2010.06.03 11:33:40.
