data_PCOD9015055
_publ_section_title
;
Structure prediction by ZEFSAII (Michael W. Deem and Ramdas Pophale) SiO2 
 PCOD9015055
Probable space group: P -1
;
_chemical_formula_sum "Si O2"
_cell_formula_units_Z 16
_cell_length_a 10.766690
_cell_length_b 11.211467
_cell_length_c 7.748426
_cell_angle_alpha 121.221604
_cell_angle_beta 86.606160
_cell_angle_gamma 62.093348
_cell_volume 648.026549
_symmetry_space_group_name_H-M "P -1"
_symmetry_group_IT_number 2
_symmetry_cell_setting 'triclinic'
loop_
_space_group_symop_operation_xyz
x,y,z
-x,-y,-z
loop_
_atom_site_type_symbol
_atom_site_label
_atom_site_fract_x
_atom_site_fract_y
_atom_site_fract_z
Si Si1 0.108400 0.251722 0.424972
Si Si2 0.539710 0.631752 0.144879
Si Si3 0.171314 0.922287 0.997938
Si Si4 0.473452 0.767702 0.645387
Si Si5 0.200600 0.484733 0.465192
Si Si6 0.121569 0.294026 0.837880
Si Si7 0.545311 0.919858 0.243702
Si Si8 0.847328 0.343040 0.031280
O O1 0.158819 0.349500 0.379385
O O2 0.175520 0.233660 0.593895
O O3 0.922428 0.370777 0.547061
O O4 0.163280 0.075634 0.203859
O O5 0.487221 0.702286 0.398496
O O6 0.491295 0.793740 0.148744
O O7 0.724918 0.506214 0.050089
O O8 0.500000 0.500000 0.000000
O O9 0.308322 0.835929 0.783835
O O10 0.207367 0.776852 0.021350
O O11 0.000000 0.000000 0.000000
O O12 0.617172 0.614163 0.629097
O O13 0.497597 0.920452 0.751843
O O14 0.151257 0.582933 0.727231
O O15 0.270167 0.210019 0.878598
O O16 0.000000 0.500000 0.000000
O O17 0.017536 0.233923 0.862353
O O18 0.500000 0.000000 0.500000
#
# Coordination Sequence:
#
# PCOD9015055 Si02
#       8
#     2   2   2   2   2   2   2   2
#     4  11  24  42  71 101 136 177 232 283 332 421
#     4  10  22  41  67 105 136 173 224 281 339 408
#     4  12  26  45  63 100 144 178 222 286 344 404
#     4  10  24  45  70  96 139 190 219 287 345 395
#     4  10  22  45  70 100 131 179 236 277 336 411
#     4  12  22  43  75 100 127 183 232 282 343 392
#     4  10  21  41  70  99 139 173 225 282 337 395
#     4  11  23  44  68  96 141 174 224 289 337 396
#
# _framework density 24.690348
#
# number of rings (size 3 to 8) (size 9 to 14) (size 15 to 20)
#    0.000    1.250    3.750    2.250    0.000    7.000 
#    2.250    1.250    0.000    0.000    0.000    0.000 
#    0.000    0.000    0.000    0.000    0.000    0.000 
#
# Total GULP energy -89551.316625 kJ/mol
# GULP energy per Si atom -5596.957289 kJ/mol
# Density = 2.463415 g / cm^3
# Si number density = 24.690348 Si / 1000 Ang^3
#
#
#
# Elastic Constant Matrix: (Units=GPa)
#
#
# Indices 1 2 3 4 5 6 
#
# 1 123.2309 23.6044 44.4212 13.7747 -20.7004 -3.6434
# 2 23.6044 55.7747 10.1294 24.3431 -9.8644 -10.6142
# 3 44.4212 10.1294 108.0491 13.1395 2.0441 3.8368
# 4 13.7747 24.3431 13.1395 31.6328 6.2385 1.6259
# 5 -20.7004 -9.8644 2.0441 6.2385 57.2890 11.0896
# 6 -3.6434 -10.6142 3.8368 1.6259 11.0896 49.7803
#
#
#
# Elastic Compliance Matrix: (Units=1/GPa)
#
#
# Indices 1 2 3 4 5 6 
#
# 1 0.010921 -0.002331 -0.004092 -0.002031 0.003950 -0.000196
# 2 -0.002331 0.032260 0.000720 -0.025666 0.006304 0.006086
# 3 -0.004092 0.000720 0.011303 -0.003180 -0.001291 -0.000626
# 4 -0.002031 -0.025666 -0.003180 0.055827 -0.010164 -0.004935
# 5 0.003950 0.006304 -0.001291 -0.010164 0.021655 -0.002760
# 6 -0.000196 0.006086 -0.000626 -0.004935 -0.002760 0.022196
#
#
# Mechanical properties :
#
#
# Convention : Reuss Voigt Hill
#
# Bulk Modulus (GPa) = 23.21385 49.26274 36.23829
# Shear Modulus (GPa) = 27.78874 41.66708 34.72791
#
# Velocity S-wave (km/s) = 3.35847 4.11248 3.75445
# Velocity P-wave (km/s) = 4.94586 6.52269 5.78822
#
# Compressibility (1/GPa) = 0.04307774
#
# Stress axis : x y z
#
# Youngs Moduli (GPa) = 91.56504 30.99805 88.46935
#
# Poissons Ratio (x) = 0.07226 0.36203
# Poissons Ratio (y) = 0.21344 -0.06368
# Poissons Ratio (z) = 0.37470 -0.02231
#
# Static dielectric constant tensor:
#      x y z
#    x 2.041860 -0.009330 -0.008320 
#    y -0.009330 1.994740 0.005920 
#    z -0.008320 0.005920 1.925300 
# 
# From -- ./inp_files/263473.got.cif
#   From: 2010.05.17/outbox.cif.g08.bks.cpg/sg2_132_cif.got.tgz:263473.got - 2010.06.03 11:33:40.
