data_PCOD9015094
_publ_section_title
;
Structure prediction by ZEFSAII (Michael W. Deem and Ramdas Pophale) SiO2 
 PCOD9015094
Probable space group: P -1
;
_chemical_formula_sum "Si O2"
_cell_formula_units_Z 12
_cell_length_a 8.277901
_cell_length_b 7.652063
_cell_length_c 18.409019
_cell_angle_alpha 128.746423
_cell_angle_beta 43.612260
_cell_angle_gamma 143.497233
_cell_volume 475.723246
_symmetry_space_group_name_H-M "P -1"
_symmetry_group_IT_number 2
_symmetry_cell_setting 'triclinic'
loop_
_space_group_symop_operation_xyz
x,y,z
-x,-y,-z
loop_
_atom_site_type_symbol
_atom_site_label
_atom_site_fract_x
_atom_site_fract_y
_atom_site_fract_z
Si Si1 0.005364 0.440848 0.068302
Si Si2 0.719950 0.799028 0.596071
Si Si3 0.472215 0.524033 0.144067
Si Si4 0.754399 0.318736 0.470022
Si Si5 0.316601 0.055584 0.196711
Si Si6 0.808291 0.175111 0.260537
O O1 0.655737 0.158318 0.128566
O O2 0.094196 0.722826 0.154472
O O3 0.271447 0.421509 0.978113
O O4 0.000000 0.500000 0.000000
O O5 0.622780 0.481353 0.538854
O O6 0.805456 0.908075 0.680280
O O7 0.437811 0.788149 0.669308
O O8 0.000000 0.000000 0.500000
O O9 0.376616 0.272642 0.169071
O O10 0.154297 0.393144 0.172956
O O11 0.636698 0.834307 0.212112
O O12 0.882552 0.281498 0.347391
O O13 0.000000 0.500000 0.500000
O O14 0.500000 0.000000 0.500000
#
# Coordination Sequence:
#
# PCOD9015094 Si02
#       6
#     2   2   2   2   2   2
#     4  10  21  41  71 105 136 176 237 301 346 402
#     4  12  28  49  71 104 151 191 232 292 359 426
#     4  11  22  43  71 102 137 180 237 291 346 421
#     4  12  26  46  72 100 131 183 247 295 340 413
#     4  11  23  43  72 103 136 188 239 287 346 416
#     4  12  25  42  66 100 141 184 223 288 361 416
#
# _framework density 25.22475
#
# number of rings (size 3 to 8) (size 9 to 14) (size 15 to 20)
#    0.000    0.667    0.000   10.500    0.000    6.667 
#    0.000    5.000    0.000    0.000    0.000    0.000 
#    0.000    0.000    0.000    0.000    0.000    0.000 
#
# Total GULP energy -67304.027940 kJ/mol
# GULP energy per Si atom -5608.668995 kJ/mol
# Density = 2.516734 g / cm^3
# Si number density = 25.224750 Si / 1000 Ang^3
#
#
#
# Elastic Constant Matrix: (Units=GPa)
#
#
# Indices 1 2 3 4 5 6 
#
# 1 88.4980 40.0853 47.4024 -7.6556 -12.9994 4.5414
# 2 40.0853 123.2064 26.9427 18.8072 -3.3100 16.0295
# 3 47.4024 26.9427 129.1430 -3.2192 0.2300 -7.5375
# 4 -7.6556 18.8072 -3.2192 60.2020 3.3201 -4.2873
# 5 -12.9994 -3.3100 0.2300 3.3201 60.4080 -4.8805
# 6 4.5414 16.0295 -7.5375 -4.2873 -4.8805 38.7627
#
#
#
# Elastic Compliance Matrix: (Units=1/GPa)
#
#
# Indices 1 2 3 4 5 6 
#
# 1 0.016995 -0.004756 -0.005188 0.003172 0.003220 -0.000277
# 2 -0.004756 0.011169 -0.000976 -0.004459 -0.000552 -0.004814
# 3 -0.005188 -0.000976 0.010033 0.000442 -0.000999 0.002885
# 4 0.003172 -0.004459 0.000442 0.018703 -0.000301 0.003589
# 5 0.003220 -0.000552 -0.000999 -0.000301 0.017383 0.001812
# 6 -0.000277 -0.004814 0.002885 0.003589 0.001812 0.029007
#
#
# Mechanical properties :
#
#
# Convention : Reuss Voigt Hill
#
# Bulk Modulus (GPa) = 61.14005 63.30091 62.22048
# Shear Modulus (GPa) = 38.28980 46.96901 42.62941
#
# Velocity S-wave (km/s) = 3.90031 4.31980 4.11540
# Velocity P-wave (km/s) = 6.67637 7.07319 6.87765
#
# Compressibility (1/GPa) = 0.01635589
#
# Stress axis : x y z
#
# Youngs Moduli (GPa) = 58.84162 89.53040 99.67587
#
# Poissons Ratio (x) = 0.42584 0.51717
# Poissons Ratio (y) = 0.27987 0.09724
# Poissons Ratio (z) = 0.30530 0.08734
#
# Static dielectric constant tensor:
#      x y z
#    x 2.124920 0.023830 -0.005160 
#    y 0.023830 1.909370 -0.055430 
#    z -0.005160 -0.055430 1.973700 
# 
# From -- ./inp_files/588187.got.cif
#   From: 2010.05.17/outbox.cif.g08.bks.cpg/sg2_295_cif.got.tgz:588187.got - 2010.06.03 11:33:40.
