data_PCOD9015105
_publ_section_title
;
Structure prediction by ZEFSAII (Michael W. Deem and Ramdas Pophale) SiO2 
 PCOD9015105
Probable space group: P -1
;
_chemical_formula_sum "Si O2"
_cell_formula_units_Z 14
_cell_length_a 8.473365
_cell_length_b 20.501476
_cell_length_c 8.987976
_cell_angle_alpha 49.066307
_cell_angle_beta 97.142932
_cell_angle_gamma 135.287470
_cell_volume 636.231855
_symmetry_space_group_name_H-M "P -1"
_symmetry_group_IT_number 2
_symmetry_cell_setting 'triclinic'
loop_
_space_group_symop_operation_xyz
x,y,z
-x,-y,-z
loop_
_atom_site_type_symbol
_atom_site_label
_atom_site_fract_x
_atom_site_fract_y
_atom_site_fract_z
Si Si1 0.233894 0.818197 0.189965
Si Si2 0.390088 0.584868 0.811896
Si Si3 0.828768 0.886845 0.008085
Si Si4 0.240197 0.619203 0.476398
Si Si5 0.044506 0.209464 0.043584
Si Si6 0.000159 0.923347 0.496441
Si Si7 0.660695 0.547812 0.719259
O O1 0.300115 0.747366 0.320120
O O2 0.136985 0.796799 0.042275
O O3 0.942404 0.701677 0.428221
O O4 0.500000 0.000000 0.000000
O O5 0.187808 0.546812 0.733884
O O6 0.521189 0.564376 0.765573
O O7 0.677559 0.769499 0.617377
O O8 0.255293 0.484728 0.096528
O O9 0.784424 0.948215 0.800323
O O10 0.531680 0.713444 0.296332
O O11 0.987681 0.885812 0.931480
O O12 0.000000 0.000000 0.000000
O O13 0.000000 0.500000 0.500000
O O14 0.390638 0.387392 0.831354
O O15 0.948436 0.137940 0.305696
O O16 0.000000 0.000000 0.500000
#
# Coordination Sequence:
#
# PCOD9015105 Si02
#       7
#     2   2   2   2   2   2   2
#     4  12  26  39  59  97 138 165 200 265 335 378
#     4  10  21  41  71  91 120 168 229 262 304 381
#     4  11  20  38  68  91 123 166 219 266 305 377
#     4  12  25  40  61  96 133 170 209 256 331 390
#     4  10  21  42  64  90 122 169 221 257 309 381
#     4   9  20  36  66  94 116 155 223 268 301 353
#     4  10  22  43  68  91 122 170 221 266 309 378
#
# _framework density 22.004556999999998
#
# number of rings (size 3 to 8) (size 9 to 14) (size 15 to 20)
#    0.000    1.429    1.429    3.857    4.000    0.571 
#    2.571    0.714    0.000    0.000    0.000    0.000 
#    0.000    0.000    0.000    0.000    0.000    0.000 
#
# Total GULP energy -78229.938750 kJ/mol
# GULP energy per Si atom -5587.852768 kJ/mol
# Density = 2.195447 g / cm^3
# Si number density = 22.004557 Si / 1000 Ang^3
#
#
#
# Elastic Constant Matrix: (Units=GPa)
#
#
# Indices 1 2 3 4 5 6 
#
# 1 51.3186 21.2566 3.8971 9.0819 22.6218 2.9847
# 2 21.2566 152.3905 40.8250 5.6471 23.7219 8.7398
# 3 3.8971 40.8250 100.3845 14.9748 22.3968 18.5162
# 4 9.0819 5.6471 14.9748 35.3291 2.6949 19.2236
# 5 22.6218 23.7219 22.3968 2.6949 29.4709 9.1867
# 6 2.9847 8.7398 18.5162 19.2236 9.1867 41.4158
#
#
#
# Elastic Compliance Matrix: (Units=1/GPa)
#
#
# Indices 1 2 3 4 5 6 
#
# 1 0.036459 -0.001803 0.007343 -0.014281 -0.033465 0.008522
# 2 -0.001803 0.007966 -0.002549 0.000474 -0.003156 0.000068
# 3 0.007343 -0.002549 0.014936 -0.006438 -0.014180 -0.000535
# 4 -0.014281 0.000474 -0.006438 0.044623 0.017900 -0.020875
# 5 -0.033465 -0.003156 -0.014180 0.017900 0.076224 -0.015799
# 6 0.008522 0.000068 -0.000535 -0.020875 -0.015799 0.036950
#
#
# Mechanical properties :
#
#
# Convention : Reuss Voigt Hill
#
# Bulk Modulus (GPa) = 15.30390 48.45012 31.87701
# Shear Modulus (GPa) = 21.46317 37.11749 29.29033
#
# Velocity S-wave (km/s) = 3.12652 4.11153 3.65239
# Velocity P-wave (km/s) = 4.47253 6.67874 5.68371
#
# Compressibility (1/GPa) = 0.06534282
#
# Stress axis : x y z
#
# Youngs Moduli (GPa) = 27.42825 125.53038 66.95215
#
# Poissons Ratio (x) = 0.22630 -0.49161
# Poissons Ratio (y) = 0.04945 0.17066
# Poissons Ratio (z) = -0.20140 0.31997
#
# Static dielectric constant tensor:
#      x y z
#    x 1.836100 0.015170 0.066440 
#    y 0.015170 1.761570 0.015370 
#    z 0.066440 0.015370 1.855970 
# 
# From -- ./inp_files/150302.got.cif
#   From: 2010.05.17/outbox.cif.g08.bks.cpg/sg2_76_cif.got.tgz:150302.got - 2010.06.03 11:33:40.
