data_PCOD9015193
_publ_section_title
;
Structure prediction by ZEFSAII (Michael W. Deem and Ramdas Pophale) SiO2 
 PCOD9015193
Probable space group: P -1
;
_chemical_formula_sum "Si O2"
_cell_formula_units_Z 15
_cell_length_a 12.776439
_cell_length_b 8.095197
_cell_length_c 8.604993
_cell_angle_alpha 102.344092
_cell_angle_beta 53.187047
_cell_angle_gamma 70.099429
_cell_volume 557.352645
_symmetry_space_group_name_H-M "P -1"
_symmetry_group_IT_number 2
_symmetry_cell_setting 'triclinic'
loop_
_space_group_symop_operation_xyz
x,y,z
-x,-y,-z
loop_
_atom_site_type_symbol
_atom_site_label
_atom_site_fract_x
_atom_site_fract_y
_atom_site_fract_z
Si Si1 0.911349 0.916461 0.742188
Si Si2 0.656202 0.899097 0.165154
Si Si3 0.887594 0.663831 0.492905
Si Si4 0.656946 0.361260 0.003979
Si Si5 0.099060 0.755770 0.819368
Si Si6 0.404272 0.297981 0.093112
Si Si7 0.607426 0.643085 0.368808
Si Si8 0.000000 0.500000 0.000000
O O1 0.896097 0.854218 0.571002
O O2 0.079870 0.770272 0.653009
O O3 0.796691 0.884189 0.944599
O O4 0.828974 0.162868 0.872589
O O5 0.458567 0.867461 0.612695
O O6 0.563868 0.854981 0.110371
O O7 0.715755 0.713311 0.205380
O O8 0.711031 0.717184 0.692739
O O9 0.942905 0.582997 0.255491
O O10 0.000000 0.500000 0.500000
O O11 0.558581 0.268233 0.028390
O O12 0.564778 0.544291 0.251704
O O13 0.679350 0.474874 0.867749
O O14 0.283546 0.555871 0.655659
O O15 0.002523 0.696289 0.996259
O O16 0.000000 0.000000 0.000000
#
# Coordination Sequence:
#
# PCOD9015193 Si02
#       8
#     2   2   2   2   2   2   2   1
#     4  11  23  45  70 111 153 204 265 326 411 483
#     4   9  21  41  70 106 148 211 266 330 398 486
#     4  11  25  49  78 110 153 211 267 332 406 486
#     4  10  21  42  74 112 157 205 257 339 404 486
#     4  12  25  46  74 118 159 211 265 334 408 491
#     4   9  22  45  74 109 152 204 269 324 414 485
#     4  10  21  41  72 109 158 204 266 333 399 480
#     4  12  28  50  78 112 160 210 276 328 404 490
#
# _framework density 26.912941
#
# number of rings (size 3 to 8) (size 9 to 14) (size 15 to 20)
#    0.000    1.600    2.667    0.800    3.733    4.800 
#    4.800    2.667    0.000    0.000    0.000    0.000 
#    0.000    0.000    0.000    0.000    0.000    0.000 
#
# Total GULP energy -83775.395839 kJ/mol
# GULP energy per Si atom -5585.026389 kJ/mol
# Density = 2.685169 g / cm^3
# Si number density = 26.912941 Si / 1000 Ang^3
#
#
#
# Elastic Constant Matrix: (Units=GPa)
#
#
# Indices 1 2 3 4 5 6 
#
# 1 72.8276 46.6237 56.3585 -1.6836 23.2645 3.1376
# 2 46.6237 198.0742 70.5169 14.6964 10.1914 -12.1698
# 3 56.3585 70.5169 188.8768 3.8631 35.0555 4.2875
# 4 -1.6836 14.6964 3.8631 43.7743 11.1694 12.3817
# 5 23.2645 10.1914 35.0555 11.1694 44.2950 -1.2322
# 6 3.1376 -12.1698 4.2875 12.3817 -1.2322 42.5573
#
#
#
# Elastic Compliance Matrix: (Units=1/GPa)
#
#
# Indices 1 2 3 4 5 6 
#
# 1 0.022692 -0.004447 -0.003259 0.006600 -0.010115 -0.004830
# 2 -0.004447 0.007205 -0.002012 -0.004431 0.003499 0.003982
# 3 -0.003259 -0.002012 0.007854 0.001471 -0.004459 -0.001683
# 4 0.006600 -0.004431 0.001471 0.030573 -0.011630 -0.011134
# 5 -0.010115 0.003499 -0.004459 -0.011630 0.033727 0.006556
# 6 -0.004830 0.003982 -0.001683 -0.011134 0.006556 0.028591
#
#
# Mechanical properties :
#
#
# Convention : Reuss Voigt Hill
#
# Bulk Modulus (GPa) = 54.60141 89.64186 72.12164
# Shear Modulus (GPa) = 32.01389 45.21062 38.61226
#
# Velocity S-wave (km/s) = 3.45271 4.10309 3.79187
# Velocity P-wave (km/s) = 6.01890 7.47178 6.78434
#
# Compressibility (1/GPa) = 0.01831455
#
# Stress axis : x y z
#
# Youngs Moduli (GPa) = 44.06930 138.78935 127.32841
#
# Poissons Ratio (x) = 0.61722 0.41492
# Poissons Ratio (y) = 0.19598 0.25620
# Poissons Ratio (z) = 0.14361 0.27926
#
# Static dielectric constant tensor:
#      x y z
#    x 2.165750 0.011550 0.066830 
#    y 0.011550 2.104070 0.030360 
#    z 0.066830 0.030360 2.149630 
# 
# From -- ./inp_files/235149.got.cif
#   From: 2010.05.17/outbox.cif.g08.bks.cpg/sg2_118_cif.got.tgz:235149.got - 2010.06.03 11:33:40.
