data_PCOD9015514
_publ_section_title
;
Structure prediction by ZEFSAII (Michael W. Deem and Ramdas Pophale) SiO2 
 PCOD9015514
Probable space group: P -1
;
_chemical_formula_sum "Si O2"
_cell_formula_units_Z 16
_cell_length_a 7.637045
_cell_length_b 12.205098
_cell_length_c 17.408518
_cell_angle_alpha 153.625514
_cell_angle_beta 96.087412
_cell_angle_gamma 89.923215
_cell_volume 700.481499
_symmetry_space_group_name_H-M "P -1"
_symmetry_group_IT_number 2
_symmetry_cell_setting 'triclinic'
loop_
_space_group_symop_operation_xyz
x,y,z
-x,-y,-z
loop_
_atom_site_type_symbol
_atom_site_label
_atom_site_fract_x
_atom_site_fract_y
_atom_site_fract_z
Si Si1 0.479369 0.507999 0.744749
Si Si2 0.327465 0.272854 0.346267
Si Si3 0.778041 0.609806 0.203177
Si Si4 0.300597 0.837228 0.187068
Si Si5 0.985997 0.411127 0.219723
Si Si6 0.256492 0.084187 0.052996
Si Si7 0.606498 0.036466 0.447463
Si Si8 0.870916 0.746960 0.531803
O O1 0.401968 0.484388 0.812008
O O2 0.563677 0.794428 0.907820
O O3 0.314962 0.369666 0.596243
O O4 0.628019 0.336924 0.627523
O O5 0.500000 0.500000 0.500000
O O6 0.275365 0.205974 0.215113
O O7 0.168639 0.330059 0.429768
O O8 0.362273 0.020897 0.231789
O O9 0.930850 0.536742 0.218525
O O10 0.775367 0.902802 0.375400
O O11 0.758838 0.445450 0.022495
O O12 0.466821 0.889390 0.285849
O O13 0.134008 0.955816 0.285558
O O14 0.021569 0.632163 0.424495
O O15 0.109523 0.212649 0.084727
O O16 0.817039 0.210340 0.124306
O O17 0.500000 0.000000 0.500000
#
# Coordination Sequence:
#
# PCOD9015514 Si02
#       8
#     2   2   2   2   2   2   2   2
#     4   9  18  32  50  76  98 134 168 211 254 297
#     4  10  17  30  50  73 102 133 163 213 246 295
#     4  10  18  32  53  75 102 131 174 210 252 299
#     4   9  17  30  48  78 100 127 167 204 261 293
#     4  10  21  33  48  77 102 143 170 202 252 308
#     4  11  20  34  51  71 112 135 172 206 250 308
#     4   9  17  31  53  77 101 124 167 221 256 296
#     4   8  17  30  48  69 103 124 175 200 249 296
#
# _framework density 22.841429999999999
#
# number of rings (size 3 to 8) (size 9 to 14) (size 15 to 20)
#    0.750    1.750    2.500    1.125    0.000    3.500 
#    0.000    0.625    0.000    0.000    0.000    5.250 
#    0.000    0.000    0.000    0.000    0.000    0.000 
#
# Total GULP energy -89132.391947 kJ/mol
# GULP energy per Si atom -5570.774497 kJ/mol
# Density = 2.278944 g / cm^3
# Si number density = 22.841430 Si / 1000 Ang^3
#
#
#
# Elastic Constant Matrix: (Units=GPa)
#
#
# Indices 1 2 3 4 5 6 
#
# 1 25.4807 -0.4054 0.6409 7.8321 -12.6274 -1.3230
# 2 -0.4054 56.6849 8.1091 8.9718 -0.6476 -14.9415
# 3 0.6409 8.1091 107.3495 13.4062 -13.0289 -5.3473
# 4 7.8321 8.9718 13.4062 35.7902 1.1292 -6.9051
# 5 -12.6274 -0.6476 -13.0289 1.1292 26.7043 11.4435
# 6 -1.3230 -14.9415 -5.3473 -6.9051 11.4435 30.4345
#
#
#
# Elastic Compliance Matrix: (Units=1/GPa)
#
#
# Indices 1 2 3 4 5 6 
#
# 1 0.065930 -0.001231 0.006690 -0.021354 0.042815 -0.017506
# 2 -0.001231 0.021208 -0.001449 -0.002047 -0.005745 0.011800
# 3 0.006690 -0.001449 0.011273 -0.006401 0.010553 -0.003860
# 4 -0.021354 -0.002047 -0.006401 0.038788 -0.020708 0.013529
# 5 0.042815 -0.005745 0.010553 -0.020708 0.077732 -0.033031
# 6 -0.017506 0.011800 -0.003860 0.013529 -0.033031 0.052700
#
#
# Mechanical properties :
#
#
# Convention : Reuss Voigt Hill
#
# Bulk Modulus (GPa) = 9.39563 22.91157 16.15360
# Shear Modulus (GPa) = 16.94413 30.66383 23.80398
#
# Velocity S-wave (km/s) = 2.72658 3.66794 3.23172
# Velocity P-wave (km/s) = 3.74629 5.29064 4.58397
#
# Compressibility (1/GPa) = 0.10643244
#
# Stress axis : x y z
#
# Youngs Moduli (GPa) = 15.16766 47.15122 88.70888
#
# Poissons Ratio (x) = 0.05805 -0.59350
# Poissons Ratio (y) = 0.01867 0.12850
# Poissons Ratio (z) = -0.10148 0.06830
#
# Static dielectric constant tensor:
#      x y z
#    x 1.958990 -0.028600 -0.045170 
#    y -0.028600 1.861060 0.028590 
#    z -0.045170 0.028590 1.853810 
# 
# From -- ./inp_files/357297.got.cif
#   From: 2010.05.17/outbox.cif.g08.bks.cpg/sg2_179_cif.got.tgz:357297.got - 2010.06.03 11:33:40.
