data_PCOD9015267
_publ_section_title
;
Structure prediction by ZEFSAII (Michael W. Deem and Ramdas Pophale) SiO2 
 PCOD9015267
Probable space group: P -1
;
_chemical_formula_sum "Si O2"
_cell_formula_units_Z 14
_cell_length_a 11.252619
_cell_length_b 7.862017
_cell_length_c 17.146427
_cell_angle_alpha 128.560536
_cell_angle_beta 148.438834
_cell_angle_gamma 41.956048
_cell_volume 530.583571
_symmetry_space_group_name_H-M "P -1"
_symmetry_group_IT_number 2
_symmetry_cell_setting 'triclinic'
loop_
_space_group_symop_operation_xyz
x,y,z
-x,-y,-z
loop_
_atom_site_type_symbol
_atom_site_label
_atom_site_fract_x
_atom_site_fract_y
_atom_site_fract_z
Si Si1 0.032062 0.831469 0.045519
Si Si2 0.197339 0.433051 0.242467
Si Si3 0.046643 0.504343 0.617535
Si Si4 0.267781 0.749340 0.607964
Si Si5 0.752188 0.934255 0.175695
Si Si6 0.735233 0.917216 0.668207
Si Si7 0.478242 0.264789 0.894408
O O1 0.251458 0.842625 0.222569
O O2 0.019961 0.594591 0.938827
O O3 0.000000 0.000000 0.000000
O O4 0.753255 0.005053 0.982800
O O5 0.471969 0.322351 0.316864
O O6 0.255096 0.255288 0.301341
O O7 0.052096 0.738907 0.258704
O O8 0.354124 0.301880 0.749936
O O9 0.000000 0.500000 0.500000
O O10 0.823582 0.451034 0.509793
O O11 0.988755 0.748293 0.704967
O O12 0.293834 0.819976 0.732327
O O13 0.000000 0.000000 0.500000
O O14 0.735167 0.751690 0.178189
O O15 0.500000 0.000000 0.000000
O O16 0.500000 0.000000 0.500000
O O17 0.500000 0.500000 0.000000
#
# Coordination Sequence:
#
# PCOD9015267 Si02
#       7
#     2   2   2   2   2   2   2
#     4  10  21  41  74 104 141 193 245 305 371 448
#     4  11  24  52  76 106 156 202 256 315 377 457
#     4  12  28  46  72 111 149 194 251 312 385 454
#     4  12  26  50  75 108 155 203 250 312 388 455
#     4  12  28  48  75 111 147 203 257 312 383 449
#     4  11  25  44  73 115 146 195 248 310 386 447
#     4  12  22  49  73 103 150 196 252 311 370 450
#
# _framework density 26.386043000000001
#
# number of rings (size 3 to 8) (size 9 to 14) (size 15 to 20)
#    0.000    0.571    5.714    0.857    8.000    4.000 
#    2.571    0.000    0.000    0.000    0.000    0.000 
#    0.000    0.000    0.000    0.000    0.000    0.000 
#
# Total GULP energy -78291.729555 kJ/mol
# GULP energy per Si atom -5592.266397 kJ/mol
# Density = 2.632599 g / cm^3
# Si number density = 26.386043 Si / 1000 Ang^3
#
#
#
# Elastic Constant Matrix: (Units=GPa)
#
#
# Indices 1 2 3 4 5 6 
#
# 1 97.4498 26.6604 35.9217 -2.0461 -4.7441 -21.0837
# 2 26.6604 90.9407 30.8070 3.3234 -2.5856 -20.3802
# 3 35.9217 30.8070 214.9799 -1.9315 -32.3494 -4.4612
# 4 -2.0461 3.3234 -1.9315 53.6712 -3.5430 5.5670
# 5 -4.7441 -2.5856 -32.3494 -3.5430 41.4234 -3.1018
# 6 -21.0837 -20.3802 -4.4612 5.5670 -3.1018 35.6223
#
#
#
# Elastic Compliance Matrix: (Units=1/GPa)
#
#
# Indices 1 2 3 4 5 6 
#
# 1 0.012762 -0.001716 -0.001676 -0.000100 0.000518 0.006422
# 2 -0.001716 0.013616 -0.001569 -0.001686 -0.000205 0.006823
# 3 -0.001676 -0.001569 0.005776 0.000612 0.004206 -0.000896
# 4 -0.000100 -0.001686 0.000612 0.019263 0.001724 -0.003807
# 5 0.000518 -0.000205 0.004206 0.001724 0.027835 0.002870
# 6 0.006422 0.006823 -0.000896 -0.003807 0.002870 0.036510
#
#
# Mechanical properties :
#
#
# Convention : Reuss Voigt Hill
#
# Bulk Modulus (GPa) = 44.98042 65.57207 55.27624
# Shear Modulus (GPa) = 37.56745 46.80881 42.18813
#
# Velocity S-wave (km/s) = 3.77737 4.21646 4.00294
# Velocity P-wave (km/s) = 6.00906 6.97206 6.50840
#
# Compressibility (1/GPa) = 0.02223190
#
# Stress axis : x y z
#
# Youngs Moduli (GPa) = 78.36013 73.44518 173.11899
#
# Poissons Ratio (x) = 0.12601 0.29018
# Poissons Ratio (y) = 0.13445 0.27160
# Poissons Ratio (z) = 0.13135 0.11523
#
# Static dielectric constant tensor:
#      x y z
#    x 2.243020 -0.010950 -0.099240 
#    y -0.010950 2.120500 -0.026560 
#    z -0.099240 -0.026560 2.110530 
# 
# From -- ./inp_files/566673.got.cif
#   From: 2010.05.17/outbox.cif.g08.bks.cpg/sg2_284_cif.got.tgz:566673.got - 2010.06.03 11:33:40.
