data_PCOD9015933
_publ_section_title
;
Structure prediction by ZEFSAII (Michael W. Deem and Ramdas Pophale) SiO2 
 PCOD9015933
Probable space group: P -1
;
_chemical_formula_sum "Si O2"
_cell_formula_units_Z 14
_cell_length_a 11.979893
_cell_length_b 18.018726
_cell_length_c 8.927331
_cell_angle_alpha 125.789451
_cell_angle_beta 105.981929
_cell_angle_gamma 28.120126
_cell_volume 572.822145
_symmetry_space_group_name_H-M "P -1"
_symmetry_group_IT_number 2
_symmetry_cell_setting 'triclinic'
loop_
_space_group_symop_operation_xyz
x,y,z
-x,-y,-z
loop_
_atom_site_type_symbol
_atom_site_label
_atom_site_fract_x
_atom_site_fract_y
_atom_site_fract_z
Si Si1 0.988029 0.800137 0.405679
Si Si2 0.314917 0.550238 0.925314
Si Si3 0.582270 0.727033 0.389009
Si Si4 0.541566 0.404651 0.543805
Si Si5 0.377581 0.126560 0.261070
Si Si6 0.745269 0.539911 0.657349
Si Si7 0.205475 0.316284 0.995010
O O1 0.157534 0.772602 0.476657
O O2 0.113146 0.632731 0.368617
O O3 0.081116 0.705294 0.157543
O O4 0.627736 0.078944 0.592471
O O5 0.493869 0.324568 0.697361
O O6 0.263423 0.615640 0.810400
O O7 0.500000 0.500000 0.000000
O O8 0.545294 0.823158 0.627448
O O9 0.939991 0.472182 0.189421
O O10 0.500000 0.500000 0.500000
O O11 0.515671 0.322843 0.367610
O O12 0.024443 0.363630 0.443064
O O13 0.500000 0.000000 0.000000
O O14 0.554268 0.939306 0.233041
O O15 0.642826 0.705877 0.899300
O O16 0.000000 0.500000 0.000000
#
# Coordination Sequence:
#
# PCOD9015933 Si02
#       7
#     2   2   2   2   2   2   2
#     4  10  21  42  65  99 126 171 217 269 324 389
#     4  10  22  39  66  91 125 167 217 262 323 382
#     4  11  23  38  67  92 131 165 219 269 320 387
#     4   9  21  40  63  92 127 165 211 265 322 382
#     4  11  26  40  62  99 134 175 218 267 335 384
#     4  10  22  40  67  91 136 170 216 270 322 384
#     4  11  23  41  65  96 129 176 222 266 325 387
#
# _framework density 24.440394999999999
#
# number of rings (size 3 to 8) (size 9 to 14) (size 15 to 20)
#    0.000    1.714    0.000    3.429    6.000    5.714 
#    0.000    2.857    0.000   12.000    0.000    0.000 
#    0.000    0.000    0.000    0.000    0.000    0.000 
#
# Total GULP energy -78150.925065 kJ/mol
# GULP energy per Si atom -5582.208933 kJ/mol
# Density = 2.438477 g / cm^3
# Si number density = 24.440395 Si / 1000 Ang^3
#
#
#
# Elastic Constant Matrix: (Units=GPa)
#
#
# Indices 1 2 3 4 5 6 
#
# 1 127.5392 32.4220 52.5483 -16.5654 42.2871 -8.3396
# 2 32.4220 90.0045 33.0206 -5.6561 8.9516 3.8468
# 3 52.5483 33.0206 85.9173 -23.7269 24.9738 -6.1779
# 4 -16.5654 -5.6561 -23.7269 41.3817 0.6868 3.1086
# 5 42.2871 8.9516 24.9738 0.6868 57.4446 -22.0633
# 6 -8.3396 3.8468 -6.1779 3.1086 -22.0633 46.3903
#
#
#
# Elastic Compliance Matrix: (Units=1/GPa)
#
#
# Indices 1 2 3 4 5 6 
#
# 1 0.013086 -0.002091 -0.004116 0.002898 -0.008402 -0.002212
# 2 -0.002091 0.013472 -0.004714 -0.001595 0.000900 -0.001586
# 3 -0.004116 -0.004714 0.020064 0.009367 -0.005406 -0.000876
# 4 0.002898 -0.001595 0.009367 0.030900 -0.007821 -0.003889
# 5 -0.008402 0.000900 -0.005406 -0.007821 0.030848 0.012890
# 6 -0.002212 -0.001586 -0.000876 -0.003889 0.012890 0.027565
#
#
# Mechanical properties :
#
#
# Convention : Reuss Voigt Hill
#
# Bulk Modulus (GPa) = 40.35942 59.93809 50.14876
# Shear Modulus (GPa) = 30.11371 41.40799 35.76085
#
# Velocity S-wave (km/s) = 3.51398 4.12058 3.82931
# Velocity P-wave (km/s) = 5.74572 6.87142 6.33363
#
# Compressibility (1/GPa) = 0.02477736
#
# Stress axis : x y z
#
# Youngs Moduli (GPa) = 76.41831 74.23010 49.84060
#
# Poissons Ratio (x) = 0.15524 0.20516
# Poissons Ratio (y) = 0.15982 0.23497
# Poissons Ratio (z) = 0.31456 0.34995
#
# Static dielectric constant tensor:
#      x y z
#    x 2.011290 0.039070 -0.038130 
#    y 0.039070 1.969890 -0.045690 
#    z -0.038130 -0.045690 1.988570 
# 
# From -- ./inp_files/48311.got.cif
#   From: 2010.05.17/outbox.cif.g08.bks.cpg/sg2_25_cif.got.tgz:48311.got - 2010.06.03 11:33:40.
