data_PCOD9015825
_publ_section_title
;
Structure prediction by ZEFSAII (Michael W. Deem and Ramdas Pophale) SiO2 
 PCOD9015825
Probable space group: P -1
;
_chemical_formula_sum "Si O2"
_cell_formula_units_Z 16
_cell_length_a 14.942282
_cell_length_b 7.581068
_cell_length_c 14.487891
_cell_angle_alpha 143.413513
_cell_angle_beta 137.154501
_cell_angle_gamma 51.380627
_cell_volume 662.649367
_symmetry_space_group_name_H-M "P -1"
_symmetry_group_IT_number 2
_symmetry_cell_setting 'triclinic'
loop_
_space_group_symop_operation_xyz
x,y,z
-x,-y,-z
loop_
_atom_site_type_symbol
_atom_site_label
_atom_site_fract_x
_atom_site_fract_y
_atom_site_fract_z
Si Si1 0.214649 0.245676 0.571561
Si Si2 0.640267 0.802456 0.958378
Si Si3 0.861372 0.641568 0.920725
Si Si4 0.983023 0.232222 0.280131
Si Si5 0.401760 0.111527 0.390187
Si Si6 0.117600 0.210195 0.196395
Si Si7 0.621258 0.386765 0.289650
Si Si8 0.523499 0.848501 0.180731
O O1 0.112656 0.509129 0.640579
O O2 0.307833 0.389818 0.628096
O O3 0.319222 0.126249 0.677029
O O4 0.106493 0.066003 0.361687
O O5 0.749799 0.614706 0.901871
O O6 0.535443 0.614554 0.851278
O O7 0.548719 0.980733 0.887186
O O8 0.682807 0.056385 0.167512
O O9 0.848297 0.586447 0.778675
O O10 0.000000 0.500000 0.000000
O O11 0.880484 0.993715 0.080084
O O12 0.058779 0.372207 0.311107
O O13 0.253108 0.016568 0.241985
O O14 0.377723 0.465617 0.545973
O O15 0.500000 0.000000 0.500000
O O16 0.459412 0.008367 0.291603
O O17 0.000000 0.000000 0.000000
O O18 0.500000 0.500000 0.000000
#
# Coordination Sequence:
#
# PCOD9015825 Si02
#       8
#     2   2   2   2   2   2   2   2
#     4  11  21  40  68  91 128 168 215 276 327 386
#     4  11  24  44  65  95 134 177 217 274 334 399
#     4  11  23  43  64  93 133 175 215 268 338 401
#     4  10  21  42  65  92 127 169 219 270 326 393
#     4  12  22  40  69 100 131 168 224 278 330 393
#     4  10  22  39  64  94 128 169 221 272 321 393
#     4  11  23  42  65  93 135 175 213 273 334 386
#     4  12  22  40  67  97 130 166 220 272 329 396
#
# _framework density 24.145498
#
# number of rings (size 3 to 8) (size 9 to 14) (size 15 to 20)
#    0.000    1.000    6.250    0.000    1.750    3.500 
#    6.750    0.000    0.000    3.750    0.000    0.000 
#    0.000    0.000    0.000    0.000    0.000    0.000 
#
# Total GULP energy -89191.150958 kJ/mol
# GULP energy per Si atom -5574.446935 kJ/mol
# Density = 2.409054 g / cm^3
# Si number density = 24.145498 Si / 1000 Ang^3
#
#
#
# Elastic Constant Matrix: (Units=GPa)
#
#
# Indices 1 2 3 4 5 6 
#
# 1 156.6932 47.9920 27.0037 -12.0072 -13.2216 -34.2822
# 2 47.9920 77.2007 29.7442 -21.3058 -5.6871 -19.0736
# 3 27.0037 29.7442 110.0347 -14.8811 -8.7050 -5.2168
# 4 -12.0072 -21.3058 -14.8811 35.6690 -8.4597 9.8195
# 5 -13.2216 -5.6871 -8.7050 -8.4597 43.3883 -5.3933
# 6 -34.2822 -19.0736 -5.2168 9.8195 -5.3933 36.7930
#
#
#
# Elastic Compliance Matrix: (Units=1/GPa)
#
#
# Indices 1 2 3 4 5 6 
#
# 1 0.009489 -0.003714 -0.000827 -0.000697 0.003026 0.007428
# 2 -0.003714 0.020300 -0.002847 0.009185 0.003332 0.004696
# 3 -0.000827 -0.002847 0.010597 0.003276 0.001974 -0.001329
# 4 -0.000697 0.009185 0.003276 0.037847 0.008496 -0.004279
# 5 0.003026 0.003332 0.001974 0.008496 0.027274 0.006558
# 6 0.007428 0.004696 -0.001329 -0.004279 0.006558 0.038450
#
#
# Mechanical properties :
#
#
# Convention : Reuss Voigt Hill
#
# Bulk Modulus (GPa) = 39.05034 61.48983 50.27008
# Shear Modulus (GPa) = 29.89150 39.11597 34.50373
#
# Velocity S-wave (km/s) = 3.52230 4.02930 3.78430
# Velocity P-wave (km/s) = 5.72278 6.86795 6.32135
#
# Compressibility (1/GPa) = 0.02560797
#
# Stress axis : x y z
#
# Youngs Moduli (GPa) = 105.38163 49.26136 94.36639
#
# Poissons Ratio (x) = 0.18297 0.07807
# Poissons Ratio (y) = 0.39142 0.26870
# Poissons Ratio (z) = 0.08719 0.14027
#
# Static dielectric constant tensor:
#      x y z
#    x 2.008830 0.053670 -0.084100 
#    y 0.053670 1.983720 0.012480 
#    z -0.084100 0.012480 2.175350 
# 
# From -- ./inp_files/529172.got.cif
#   From: 2010.05.17/outbox.cif.g08.bks.cpg/sg2_265_cif.got.tgz:529172.got - 2010.06.03 11:33:40.
