data_PCOD9015627
_publ_section_title
;
Structure prediction by ZEFSAII (Michael W. Deem and Ramdas Pophale) SiO2 
 PCOD9015627
Probable space group: P -1
;
_chemical_formula_sum "Si O2"
_cell_formula_units_Z 16
_cell_length_a 12.729190
_cell_length_b 16.898578
_cell_length_c 11.159744
_cell_angle_alpha 94.482673
_cell_angle_beta 66.309032
_cell_angle_gamma 151.339599
_cell_volume 823.173776
_symmetry_space_group_name_H-M "P -1"
_symmetry_group_IT_number 2
_symmetry_cell_setting 'triclinic'
loop_
_space_group_symop_operation_xyz
x,y,z
-x,-y,-z
loop_
_atom_site_type_symbol
_atom_site_label
_atom_site_fract_x
_atom_site_fract_y
_atom_site_fract_z
Si Si1 0.137840 0.176002 0.978340
Si Si2 0.217318 0.426091 0.625091
Si Si3 0.170720 0.387557 0.356916
Si Si4 0.321371 0.816038 0.133558
Si Si5 0.192074 0.977512 0.654324
Si Si6 0.771432 0.279217 0.559555
Si Si7 0.832462 0.036553 0.863800
Si Si8 0.854465 0.886605 0.427470
O O1 0.501657 0.403613 0.831409
O O2 0.993425 0.133013 0.930243
O O3 0.028424 0.144347 0.147683
O O4 0.000000 0.000000 0.000000
O O5 0.239061 0.436699 0.472987
O O6 0.554787 0.640170 0.548704
O O7 0.032430 0.386956 0.744408
O O8 0.010774 0.220442 0.735312
O O9 0.977532 0.187338 0.382405
O O10 0.966946 0.334230 0.417111
O O11 0.349589 0.829810 0.267713
O O12 0.500000 0.000000 0.000000
O O13 0.481172 0.838083 0.016618
O O14 0.491795 0.128345 0.588581
O O15 0.261120 0.106990 0.580553
O O16 0.000000 0.500000 0.500000
O O17 0.901405 0.000694 0.755885
O O18 0.000000 0.000000 0.500000
#
# Coordination Sequence:
#
# PCOD9015627 Si02
#       8
#     2   2   2   2   2   2   2   2
#     4  12  22  40  61  91 125 166 208 259 319 376
#     4  10  21  42  64  90 120 166 212 255 321 378
#     4  11  24  40  64  93 128 163 208 265 314 378
#     4   9  20  38  63  92 119 163 206 251 309 381
#     4  12  24  41  60  96 130 163 213 260 318 379
#     4  11  22  40  68  92 126 170 214 259 313 381
#     4  11  21  38  67  86 123 163 210 254 317 377
#     4  12  25  40  63  92 126 163 212 265 313 381
#
# _framework density 19.436965000000001
#
# number of rings (size 3 to 8) (size 9 to 14) (size 15 to 20)
#    0.000    1.000    3.750    4.125    1.750    0.000 
#    0.000    0.625    0.000    0.000    0.000    0.000 
#    0.000    0.000    0.000    0.000    0.000    0.000 
#
# Total GULP energy -89339.845157 kJ/mol
# GULP energy per Si atom -5583.740322 kJ/mol
# Density = 1.939273 g / cm^3
# Si number density = 19.436965 Si / 1000 Ang^3
#
#
#
# Elastic Constant Matrix: (Units=GPa)
#
#
# Indices 1 2 3 4 5 6 
#
# 1 79.3532 -0.2230 22.2288 0.0751 -14.4250 6.9291
# 2 -0.2230 74.9568 24.0834 1.2108 -12.4588 3.3423
# 3 22.2288 24.0834 88.6871 -0.5692 -20.7525 12.1975
# 4 0.0751 1.2108 -0.5692 24.5595 -1.1117 -0.6839
# 5 -14.4250 -12.4588 -20.7525 -1.1117 38.8756 5.0752
# 6 6.9291 3.3423 12.1975 -0.6839 5.0752 30.2763
#
#
#
# Elastic Compliance Matrix: (Units=1/GPa)
#
#
# Indices 1 2 3 4 5 6 
#
# 1 0.014524 0.001839 -0.002483 -0.000056 0.005093 -0.003381
# 2 0.001839 0.015181 -0.003507 -0.000699 0.003831 -0.001342
# 3 -0.002483 -0.003507 0.015377 0.000676 0.007018 -0.006401
# 4 -0.000056 -0.000699 0.000676 0.040838 0.001214 0.000537
# 5 0.005093 0.003831 0.007018 0.001214 0.033937 -0.010077
# 6 -0.003381 -0.001342 -0.006401 0.000537 -0.010077 0.038231
#
#
# Mechanical properties :
#
#
# Convention : Reuss Voigt Hill
#
# Bulk Modulus (GPa) = 27.18872 37.24174 32.21523
# Shear Modulus (GPa) = 27.98757 31.86945 29.92851
#
# Velocity S-wave (km/s) = 3.79874 4.05363 3.92825
# Velocity P-wave (km/s) = 5.76707 6.41179 6.09796
#
# Compressibility (1/GPa) = 0.03677996
#
# Stress axis : x y z
#
# Youngs Moduli (GPa) = 68.85254 65.87113 65.03081
#
# Poissons Ratio (x) = -0.12115 0.16150
# Poissons Ratio (y) = -0.12664 0.22807
# Poissons Ratio (z) = 0.17099 0.23101
#
# Static dielectric constant tensor:
#      x y z
#    x 1.772460 -0.023740 0.044470 
#    y -0.023740 1.639620 -0.007580 
#    z 0.044470 -0.007580 1.730650 
# 
# From -- ./inp_files/405134.got.cif
#   From: 2010.05.17/outbox.cif.g08.bks.cpg/sg2_203_cif.got.tgz:405134.got - 2010.06.03 11:33:40.
