data_PCOD9015250
_publ_section_title
;
Structure prediction by ZEFSAII (Michael W. Deem and Ramdas Pophale) SiO2 
 PCOD9015250
Probable space group: P -1
;
_chemical_formula_sum "Si O2"
_cell_formula_units_Z 14
_cell_length_a 22.937340
_cell_length_b 8.936706
_cell_length_c 9.431272
_cell_angle_alpha 61.515315
_cell_angle_beta 137.959546
_cell_angle_gamma 147.866624
_cell_volume 622.766292
_symmetry_space_group_name_H-M "P -1"
_symmetry_group_IT_number 2
_symmetry_cell_setting 'triclinic'
loop_
_space_group_symop_operation_xyz
x,y,z
-x,-y,-z
loop_
_atom_site_type_symbol
_atom_site_label
_atom_site_fract_x
_atom_site_fract_y
_atom_site_fract_z
Si Si1 0.454557 0.768921 0.417115
Si Si2 0.894586 0.010398 0.478807
Si Si3 0.653342 0.744169 0.391175
Si Si4 0.891369 0.949883 0.203971
Si Si5 0.894056 0.675972 0.026332
Si Si6 0.537193 0.240829 0.888128
Si Si7 0.937051 0.256470 0.892439
O O1 0.443850 0.570131 0.568724
O O2 0.524482 0.861968 0.341954
O O3 0.500000 0.000000 0.500000
O O4 0.275621 0.528143 0.166229
O O5 0.947411 0.898951 0.593631
O O6 0.032866 0.279000 0.718391
O O7 0.735468 0.800545 0.371266
O O8 0.905461 0.095765 0.300402
O O9 0.544655 0.733458 0.190733
O O10 0.801458 0.045381 0.623219
O O11 0.727291 0.579156 0.094044
O O12 0.868880 0.009407 0.991095
O O13 0.904054 0.547588 0.986536
O O14 0.000000 0.000000 0.000000
O O15 0.500000 0.000000 0.000000
O O16 0.000000 0.500000 0.000000
#
# Coordination Sequence:
#
# PCOD9015250 Si02
#       7
#     2   2   2   2   2   2   2
#     4  12  25  43  74 103 138 190 238 283 357 420
#     4  10  21  41  73  94 127 185 222 285 354 397
#     4  11  24  48  69 100 145 181 237 296 338 425
#     4  11  22  43  69  99 142 176 227 292 358 403
#     4  11  18  43  69  95 134 174 233 285 340 407
#     4  12  28  46  65 101 148 187 229 288 358 421
#     4  11  23  40  71 104 129 177 238 290 343 416
#
# _framework density 22.480343999999999
#
# number of rings (size 3 to 8) (size 9 to 14) (size 15 to 20)
#    0.000    0.857    7.143    0.429    4.000    2.857 
#    2.571    2.143    0.000    0.000    0.000    0.000 
#    0.000    0.000    0.000    0.000    0.000    0.000 
#
# Total GULP energy -78014.613925 kJ/mol
# GULP energy per Si atom -5572.472423 kJ/mol
# Density = 2.242918 g / cm^3
# Si number density = 22.480344 Si / 1000 Ang^3
#
#
#
# Elastic Constant Matrix: (Units=GPa)
#
#
# Indices 1 2 3 4 5 6 
#
# 1 202.9425 46.9685 51.7517 -13.5253 -10.5536 2.8243
# 2 46.9685 61.0195 18.7487 1.5251 13.3891 -6.3651
# 3 51.7517 18.7487 64.4617 -2.4115 -1.6394 5.0009
# 4 -13.5253 1.5251 -2.4115 16.5514 -3.9362 -5.7720
# 5 -10.5536 13.3891 -1.6394 -3.9362 46.5589 0.2623
# 6 2.8243 -6.3651 5.0009 -5.7720 0.2623 36.6001
#
#
#
# Elastic Compliance Matrix: (Units=1/GPa)
#
#
# Indices 1 2 3 4 5 6 
#
# 1 0.008156 -0.005985 -0.004428 0.007570 0.004053 0.000100
# 2 -0.005985 0.024645 -0.003220 -0.008476 -0.009296 0.003918
# 3 -0.004428 -0.003220 0.020216 -0.001365 0.000537 -0.003200
# 4 0.007570 -0.008476 -0.001365 0.072949 0.010219 0.009560
# 5 0.004053 -0.009296 0.000537 0.010219 0.025956 -0.000577
# 6 0.000100 0.003918 -0.003200 0.009560 -0.000577 0.029945
#
#
# Mechanical properties :
#
#
# Convention : Reuss Voigt Hill
#
# Bulk Modulus (GPa) = 38.83694 62.59575 50.71634
# Shear Modulus (GPa) = 22.96547 34.00576 28.48561
#
# Velocity S-wave (km/s) = 3.19968 3.89355 3.56354
# Velocity P-wave (km/s) = 5.56454 6.93672 6.28817
#
# Compressibility (1/GPa) = 0.02574868
#
# Stress axis : x y z
#
# Youngs Moduli (GPa) = 122.61020 40.57609 49.46645
#
# Poissons Ratio (x) = 0.24287 0.21906
# Poissons Ratio (y) = 0.73387 0.15929
# Poissons Ratio (z) = 0.54297 0.13066
#
# Static dielectric constant tensor:
#      x y z
#    x 1.898250 0.051710 -0.021600 
#    y 0.051710 1.712510 -0.003960 
#    z -0.021600 -0.003960 1.885970 
# 
# From -- ./inp_files/343450.got.cif
#   From: 2010.05.17/outbox.cif.g08.bks.cpg/sg2_172_cif.got.tgz:343450.got - 2010.06.03 11:33:40.
