data_PCOD9015906
_publ_section_title
;
Structure prediction by ZEFSAII (Michael W. Deem and Ramdas Pophale) SiO2 
 PCOD9015906
Probable space group: P -1
;
_chemical_formula_sum "Si O2"
_cell_formula_units_Z 16
_cell_length_a 15.571044
_cell_length_b 5.454794
_cell_length_c 7.557378
_cell_angle_alpha 70.590474
_cell_angle_beta 103.249137
_cell_angle_gamma 96.183511
_cell_volume 588.956247
_symmetry_space_group_name_H-M "P -1"
_symmetry_group_IT_number 2
_symmetry_cell_setting 'triclinic'
loop_
_space_group_symop_operation_xyz
x,y,z
-x,-y,-z
loop_
_atom_site_type_symbol
_atom_site_label
_atom_site_fract_x
_atom_site_fract_y
_atom_site_fract_z
Si Si1 0.332390 0.068267 0.806858
Si Si2 0.673596 0.666337 0.803852
Si Si3 0.377375 0.581341 0.514422
Si Si4 0.199703 0.774142 0.980386
Si Si5 0.059528 0.745018 0.603360
Si Si6 0.224824 0.911524 0.439051
Si Si7 0.967620 0.298172 0.878951
Si Si8 0.505017 0.231128 0.174229
O O1 0.354948 0.363108 0.701228
O O2 0.259332 0.038185 0.934306
O O3 0.276266 0.960377 0.637466
O O4 0.426962 0.936043 0.867092
O O5 0.611795 0.543437 0.643038
O O6 0.599374 0.832201 0.829500
O O7 0.757306 0.818892 0.717901
O O8 0.723178 0.428804 0.973943
O O9 0.288207 0.726466 0.410775
O O10 0.449879 0.752524 0.612997
O O11 0.125698 0.778948 0.793261
O O12 0.137848 0.727627 0.132022
O O13 0.129319 0.794021 0.466102
O O14 0.009794 0.464017 0.691345
O O15 0.000000 0.000000 0.500000
O O16 0.000000 0.500000 0.000000
O O17 0.000000 0.000000 0.000000
O O18 0.500000 0.500000 0.000000
#
# Coordination Sequence:
#
# PCOD9015906 Si02
#       8
#     2   2   2   2   2   2   2   2
#     4   9  20  40  64  91 131 175 224 280 334 418
#     4  11  22  42  64  95 135 175 232 287 341 419
#     4  10  23  40  62  95 129 177 227 275 347 414
#     4  10  21  42  65  96 138 172 228 289 353 419
#     4  10  21  43  72  99 138 184 236 292 364 440
#     4   9  21  40  65  92 130 179 223 281 346 413
#     4  10  23  44  72 108 143 186 239 304 364 439
#     4  11  22  40  64  95 131 179 227 284 345 409
#
# _framework density 27.166703999999999
#
# number of rings (size 3 to 8) (size 9 to 14) (size 15 to 20)
#    0.000    2.000    1.250    1.125    1.750    6.000 
#   11.250    2.500    0.000    0.000    0.000    0.000 
#    0.000    0.000    0.000    0.000    0.000    0.000 
#
# Total GULP energy -89334.033302 kJ/mol
# GULP energy per Si atom -5583.377081 kJ/mol
# Density = 2.710487 g / cm^3
# Si number density = 27.166704 Si / 1000 Ang^3
#
#
#
# Elastic Constant Matrix: (Units=GPa)
#
#
# Indices 1 2 3 4 5 6 
#
# 1 210.0761 51.8787 57.1791 -5.2233 -10.0316 27.5339
# 2 51.8787 87.4841 22.7178 -18.9276 0.7225 7.6882
# 3 57.1791 22.7178 116.8667 -12.0177 -10.3766 15.3264
# 4 -5.2233 -18.9276 -12.0177 53.0715 0.1811 4.5834
# 5 -10.0316 0.7225 -10.3766 0.1811 53.9779 13.1567
# 6 27.5339 7.6882 15.3264 4.5834 13.1567 39.5804
#
#
#
# Elastic Compliance Matrix: (Units=1/GPa)
#
#
# Indices 1 2 3 4 5 6 
#
# 1 0.006685 -0.003257 -0.002052 -0.000651 0.001807 -0.003748
# 2 -0.003257 0.014652 -0.000762 0.004784 -0.000826 -0.000564
# 3 -0.002052 -0.000762 0.010647 0.002244 0.002559 -0.003658
# 4 -0.000651 0.004784 0.002244 0.021353 0.001203 -0.004218
# 5 0.001807 -0.000826 0.002559 0.001203 0.021659 -0.009426
# 6 -0.003748 -0.000564 -0.003658 -0.004218 -0.009426 0.033020
#
#
# Mechanical properties :
#
#
# Convention : Reuss Voigt Hill
#
# Bulk Modulus (GPa) = 50.40405 75.33091 62.86748
# Shear Modulus (GPa) = 39.44129 48.16939 43.80534
#
# Velocity S-wave (km/s) = 3.81442 4.21539 4.01991
# Velocity P-wave (km/s) = 6.16389 7.17510 6.68863
#
# Compressibility (1/GPa) = 0.01983968
#
# Stress axis : x y z
#
# Youngs Moduli (GPa) = 149.59880 68.25199 93.92583
#
# Poissons Ratio (x) = 0.22233 0.19276
# Poissons Ratio (y) = 0.48731 0.07156
# Poissons Ratio (z) = 0.30702 0.05200
#
# Static dielectric constant tensor:
#      x y z
#    x 2.079950 -0.092020 0.083880 
#    y -0.092020 2.754450 -0.314640 
#    z 0.083880 -0.314640 3.323360 
# 
# From -- ./inp_files/288538.got.cif
#   From: 2010.05.17/outbox.cif.g08.bks.cpg/sg2_145_cif.got.tgz:288538.got - 2010.06.03 11:33:40.
