data_PCOD9015279
_publ_section_title
;
Structure prediction by ZEFSAII (Michael W. Deem and Ramdas Pophale) SiO2 
 PCOD9015279
Probable space group: P -1
;
_chemical_formula_sum "Si O2"
_cell_formula_units_Z 16
_cell_length_a 8.983134
_cell_length_b 19.402107
_cell_length_c 5.393691
_cell_angle_alpha 87.720030
_cell_angle_beta 79.728018
_cell_angle_gamma 131.355227
_cell_volume 678.345455
_symmetry_space_group_name_H-M "P -1"
_symmetry_group_IT_number 2
_symmetry_cell_setting 'triclinic'
loop_
_space_group_symop_operation_xyz
x,y,z
-x,-y,-z
loop_
_atom_site_type_symbol
_atom_site_label
_atom_site_fract_x
_atom_site_fract_y
_atom_site_fract_z
Si Si1 0.610546 0.227279 0.210900
Si Si2 0.781294 0.516956 0.623605
Si Si3 0.632624 0.996389 0.161998
Si Si4 0.835658 0.426743 0.252539
Si Si5 0.803019 0.685560 0.506364
Si Si6 0.612072 0.682362 0.062742
Si Si7 0.212101 0.841167 0.595351
Si Si8 0.613503 0.843616 0.199755
O O1 0.679992 0.326568 0.193160
O O2 0.787404 0.229798 0.244029
O O3 0.436305 0.171321 0.488743
O O4 0.565113 0.195723 0.945335
O O5 0.736150 0.463454 0.389488
O O6 0.763790 0.593015 0.597337
O O7 0.616304 0.424469 0.854406
O O8 0.022276 0.572685 0.595631
O O9 0.444442 0.919746 0.413522
O O10 0.737149 0.953579 0.087817
O O11 0.799717 0.097531 0.226609
O O12 0.500000 0.000000 0.000000
O O13 0.000000 0.500000 0.000000
O O14 0.723651 0.676383 0.256435
O O15 0.042869 0.781662 0.444210
O O16 0.705982 0.698023 0.762716
O O17 0.646006 0.773476 0.121525
#
# Coordination Sequence:
#
# PCOD9015279 Si02
#       8
#     2   2   2   2   2   2   2   2
#     4  11  21  40  67  97 134 165 209 296 340 387
#     4  11  25  44  63 100 133 177 235 275 335 389
#     4  10  21  41  75 102 131 163 209 300 355 403
#     4  11  24  37  69 100 133 172 216 304 339 386
#     4  12  28  45  69  93 141 190 227 268 316 407
#     4  12  27  46  65  94 137 196 229 262 316 401
#     4  10  23  42  67 107 130 166 225 274 354 400
#     4  11  23  42  70  96 133 170 224 272 342 399
#
# _framework density 23.586801999999999
#
# number of rings (size 3 to 8) (size 9 to 14) (size 15 to 20)
#    0.000    1.000    3.750    2.250    7.000    0.000 
#    0.000    1.250    0.000    0.000    0.000    0.000 
#    0.000    0.000    0.000    0.000    0.000    0.000 
#
# Total GULP energy -89134.272822 kJ/mol
# GULP energy per Si atom -5570.892051 kJ/mol
# Density = 2.353312 g / cm^3
# Si number density = 23.586802 Si / 1000 Ang^3
#
#
#
# Elastic Constant Matrix: (Units=GPa)
#
#
# Indices 1 2 3 4 5 6 
#
# 1 66.2886 34.1411 0.8950 5.8978 10.5299 -20.3807
# 2 34.1411 130.1420 -0.6593 19.8002 3.0022 -41.1328
# 3 0.8950 -0.6593 49.8584 0.1536 7.1862 3.0607
# 4 5.8978 19.8002 0.1536 24.4347 -0.5826 8.7089
# 5 10.5299 3.0022 7.1862 -0.5826 35.5252 3.7424
# 6 -20.3807 -41.1328 3.0607 8.7089 3.7424 52.9773
#
#
#
# Elastic Compliance Matrix: (Units=1/GPa)
#
#
# Indices 1 2 3 4 5 6 
#
# 1 0.020026 -0.001536 0.000124 -0.006629 -0.006790 0.008074
# 2 -0.001536 0.015266 -0.000223 -0.017148 -0.002575 0.014276
# 3 0.000124 -0.000223 0.020706 0.000310 -0.004087 -0.001084
# 4 -0.006629 -0.017148 0.000310 0.066324 0.007315 -0.027302
# 5 -0.006790 -0.002575 -0.004087 0.007315 0.032153 -0.007849
# 6 0.008074 0.014276 -0.001084 -0.027302 -0.007849 0.038171
#
#
# Mechanical properties :
#
#
# Convention : Reuss Voigt Hill
#
# Bulk Modulus (GPa) = 18.96528 35.00474 26.98501
# Shear Modulus (GPa) = 23.42004 36.71494 30.06749
#
# Velocity S-wave (km/s) = 3.15450 3.94964 3.57425
# Velocity P-wave (km/s) = 4.61800 5.97265 5.33847
#
# Compressibility (1/GPa) = 0.05272792
#
# Stress axis : x y z
#
# Youngs Moduli (GPa) = 49.93595 65.50514 48.29447
#
# Poissons Ratio (x) = 0.10060 -0.00597
# Poissons Ratio (y) = 0.07669 0.01077
# Poissons Ratio (z) = -0.00618 0.01461
#
# Static dielectric constant tensor:
#      x y z
#    x 2.022690 -0.027540 -0.011800 
#    y -0.027540 1.904500 0.016620 
#    z -0.011800 0.016620 1.933750 
# 
# From -- ./inp_files/47811.got.cif
#   From: 2010.05.17/outbox.cif.g08.bks.cpg/sg2_24_cif.got.tgz:47811.got - 2010.06.03 11:33:40.
