data_PCOD9015574
_publ_section_title
;
Structure prediction by ZEFSAII (Michael W. Deem and Ramdas Pophale) SiO2 
 PCOD9015574
Probable space group: P -1
;
_chemical_formula_sum "Si O2"
_cell_formula_units_Z 16
_cell_length_a 16.309773
_cell_length_b 5.185494
_cell_length_c 8.118125
_cell_angle_alpha 86.560568
_cell_angle_beta 80.056059
_cell_angle_gamma 60.773812
_cell_volume 589.943644
_symmetry_space_group_name_H-M "P -1"
_symmetry_group_IT_number 2
_symmetry_cell_setting 'triclinic'
loop_
_space_group_symop_operation_xyz
x,y,z
-x,-y,-z
loop_
_atom_site_type_symbol
_atom_site_label
_atom_site_fract_x
_atom_site_fract_y
_atom_site_fract_z
Si Si1 0.638470 0.765494 0.420698
Si Si2 0.083187 0.541045 0.054879
Si Si3 0.167183 0.813202 0.603720
Si Si4 0.921787 0.405586 0.579212
Si Si5 0.275167 0.026875 0.363570
Si Si6 0.814806 0.083025 0.075356
Si Si7 0.599581 0.597456 0.109066
Si Si8 0.564957 0.551246 0.768951
O O1 0.744283 0.496654 0.362596
O O2 0.659781 0.000407 0.497165
O O3 0.590932 0.813588 0.255913
O O4 0.588382 0.665810 0.585290
O O5 0.052621 0.683101 0.238517
O O6 0.121217 0.751288 0.957886
O O7 0.000000 0.500000 0.000000
O O8 0.162911 0.193450 0.038164
O O9 0.080163 0.780040 0.569973
O O10 0.163484 0.032934 0.739012
O O11 0.204217 0.899559 0.425924
O O12 0.806135 0.633472 0.636998
O O13 0.000000 0.500000 0.500000
O O14 0.354207 0.796483 0.224394
O O15 0.707625 0.333965 0.077237
O O16 0.532114 0.461708 0.190103
O O17 0.575772 0.707363 0.924142
#
# Coordination Sequence:
#
# PCOD9015574 Si02
#       8
#     2   2   2   2   2   2   2   2
#     4   9  20  39  62  93 132 177 229 283 345 411
#     4  12  28  47  71 103 141 182 229 291 348 417
#     4   9  22  41  67  94 133 177 228 282 348 414
#     4  11  25  42  69  97 133 179 233 285 353 421
#     4  10  22  41  67  95 133 181 225 292 345 416
#     4  11  26  47  72 101 144 181 231 287 350 419
#     4  10  22  41  66  99 134 182 231 286 349 415
#     4  10  21  42  63  96 137 175 234 288 343 420
#
# _framework density 27.121236
#
# number of rings (size 3 to 8) (size 9 to 14) (size 15 to 20)
#    0.000    1.750    0.000    2.250   14.000    1.000 
#    2.250    1.250    0.000    0.000    0.000    0.000 
#    0.000    0.000    0.000    0.000    0.000    0.000 
#
# Total GULP energy -89342.807259 kJ/mol
# GULP energy per Si atom -5583.925454 kJ/mol
# Density = 2.705951 g / cm^3
# Si number density = 27.121236 Si / 1000 Ang^3
#
#
#
# Elastic Constant Matrix: (Units=GPa)
#
#
# Indices 1 2 3 4 5 6 
#
# 1 117.4099 21.0244 46.1050 0.5722 12.8119 13.2233
# 2 21.0244 78.0148 28.0954 29.5303 -1.5407 8.8691
# 3 46.1050 28.0954 154.3115 25.0769 30.1201 7.4978
# 4 0.5722 29.5303 25.0769 45.2939 8.9750 -3.0123
# 5 12.8119 -1.5407 30.1201 8.9750 55.7737 2.0509
# 6 13.2233 8.8691 7.4978 -3.0123 2.0509 49.0221
#
#
#
# Elastic Compliance Matrix: (Units=1/GPa)
#
#
# Indices 1 2 3 4 5 6 
#
# 1 0.010478 -0.003024 -0.002792 0.003578 -0.001501 -0.001570
# 2 -0.003024 0.019469 -0.001145 -0.013063 0.004082 -0.003505
# 3 -0.002792 -0.001145 0.008797 -0.003410 -0.003576 -0.000445
# 4 0.003578 -0.013063 -0.003410 0.033691 -0.004917 0.004196
# 5 -0.001501 0.004082 -0.003576 -0.004917 0.021145 -0.000974
# 6 -0.001570 -0.003505 -0.000445 0.004196 -0.000974 0.021823
#
#
# Mechanical properties :
#
#
# Convention : Reuss Voigt Hill
#
# Bulk Modulus (GPa) = 40.28663 60.02065 50.15364
# Shear Modulus (GPa) = 36.33748 46.98537 41.66143
#
# Velocity S-wave (km/s) = 3.66432 4.16675 3.92359
# Velocity P-wave (km/s) = 5.72621 6.73258 6.24969
#
# Compressibility (1/GPa) = 0.02482213
#
# Stress axis : x y z
#
# Youngs Moduli (GPa) = 95.43584 51.36389 113.67701
#
# Poissons Ratio (x) = 0.15531 0.31744
# Poissons Ratio (y) = 0.28857 0.13014
# Poissons Ratio (z) = 0.26650 0.05880
#
# Static dielectric constant tensor:
#      x y z
#    x 2.094690 -0.083650 -0.087610 
#    y -0.083650 2.340060 0.099300 
#    z -0.087610 0.099300 2.565170 
# 
# From -- ./inp_files/289008.got.cif
#   From: 2010.05.17/outbox.cif.g08.bks.cpg/sg2_145_cif.got.tgz:289008.got - 2010.06.03 11:33:40.
