data_PCOD9015189
_publ_section_title
;
Structure prediction by ZEFSAII (Michael W. Deem and Ramdas Pophale) SiO2 
 PCOD9015189
Probable space group: P -1
;
_chemical_formula_sum "Si O2"
_cell_formula_units_Z 11
_cell_length_a 7.569579
_cell_length_b 7.673267
_cell_length_c 7.027324
_cell_angle_alpha 106.336687
_cell_angle_beta 72.418449
_cell_angle_gamma 100.855250
_cell_volume 371.003248
_symmetry_space_group_name_H-M "P -1"
_symmetry_group_IT_number 2
_symmetry_cell_setting 'triclinic'
loop_
_space_group_symop_operation_xyz
x,y,z
-x,-y,-z
loop_
_atom_site_type_symbol
_atom_site_label
_atom_site_fract_x
_atom_site_fract_y
_atom_site_fract_z
Si Si1 0.000000 0.000000 0.000000
Si Si2 0.580719 0.888732 0.213667
Si Si3 0.484844 0.250605 0.239218
Si Si4 0.807344 0.481106 0.675229
Si Si5 0.919662 0.154081 0.693887
Si Si6 0.755935 0.573085 0.165651
O O1 0.804378 0.960117 0.173832
O O2 0.874092 0.056534 0.877711
O O3 0.227390 0.738869 0.342154
O O4 0.588349 0.699182 0.267805
O O5 0.530504 0.817180 0.994505
O O6 0.324934 0.386903 0.348561
O O7 0.479793 0.073189 0.320383
O O8 0.682213 0.378544 0.218183
O O9 0.000000 0.500000 0.500000
O O10 0.804368 0.559748 0.919388
O O11 0.000000 0.000000 0.500000
O O12 0.068279 0.324444 0.757232
#
# Coordination Sequence:
#
# PCOD9015189 Si02
#       6
#     1   2   2   2   2   2
#     4  10  22  42  76 104 140 188 250 300 364 438
#     4   9  19  37  73 107 136 193 248 298 372 434
#     4  10  21  41  72 107 148 195 248 308 372 448
#     4  11  24  43  71 112 151 191 246 307 379 449
#     4  11  26  45  75 108 145 198 254 311 369 452
#     4  10  22  46  73 104 145 197 248 312 374 441
#
# _framework density 29.649335000000001
#
# number of rings (size 3 to 8) (size 9 to 14) (size 15 to 20)
#    0.000    1.818    0.000    3.818    7.636    4.364 
#    3.273    1.818    0.000    0.000    0.000    0.000 
#    0.000    0.000    0.000    0.000    0.000    0.000 
#
# Total GULP energy -61354.490606 kJ/mol
# GULP energy per Si atom -5577.680964 kJ/mol
# Density = 2.958185 g / cm^3
# Si number density = 29.649335 Si / 1000 Ang^3
#
#
#
# Elastic Constant Matrix: (Units=GPa)
#
#
# Indices 1 2 3 4 5 6 
#
# 1 195.3027 45.3950 28.8979 16.9831 -27.1929 -66.8987
# 2 45.3950 133.0634 48.1338 10.1178 -1.4368 -36.1176
# 3 28.8979 48.1338 115.0677 19.1483 -12.9772 -32.1588
# 4 16.9831 10.1178 19.1483 54.0179 -14.7954 8.6451
# 5 -27.1929 -1.4368 -12.9772 -14.7954 59.0601 -1.1309
# 6 -66.8987 -36.1176 -32.1588 8.6451 -1.1309 81.2450
#
#
#
# Elastic Compliance Matrix: (Units=1/GPa)
#
#
# Indices 1 2 3 4 5 6 
#
# 1 0.008477 -0.001080 0.001313 -0.003150 0.003518 0.007404
# 2 -0.001080 0.009695 -0.003098 -0.001064 -0.001165 0.002291
# 3 0.001313 -0.003098 0.011995 -0.004275 0.002188 0.004937
# 4 -0.003150 -0.001064 -0.004275 0.023265 0.003275 -0.007188
# 5 0.003518 -0.001165 0.002188 0.003275 0.019885 0.003173
# 6 0.007404 0.002291 0.004937 -0.007188 0.003173 0.022187
#
#
# Mechanical properties :
#
#
# Convention : Reuss Voigt Hill
#
# Bulk Modulus (GPa) = 40.92312 76.47636 58.69974
# Shear Modulus (GPa) = 45.71306 60.26507 52.98907
#
# Velocity S-wave (km/s) = 3.93082 4.51332 4.23211
# Velocity P-wave (km/s) = 5.86806 7.28078 6.61226
#
# Compressibility (1/GPa) = 0.02443607
#
# Stress axis : x y z
#
# Youngs Moduli (GPa) = 117.97078 103.15125 83.36978
#
# Poissons Ratio (x) = 0.11137 -0.10945
# Poissons Ratio (y) = 0.12737 0.25829
# Poissons Ratio (z) = -0.15487 0.31957
#
# Static dielectric constant tensor:
#      x y z
#    x 2.422150 0.047990 -0.042850 
#    y 0.047990 2.426330 -0.053290 
#    z -0.042850 -0.053290 2.338270 
# 
# From -- ./inp_files/265780.got.cif
#   From: 2010.05.17/outbox.cif.g08.bks.cpg/sg2_133_cif.got.tgz:265780.got - 2010.06.03 11:33:40.
