data_PCOD9015992
_publ_section_title
;
Structure prediction by ZEFSAII (Michael W. Deem and Ramdas Pophale) SiO2 
 PCOD9015992
Probable space group: P -1
;
_chemical_formula_sum "Si O2"
_cell_formula_units_Z 16
_cell_length_a 11.659311
_cell_length_b 9.130473
_cell_length_c 14.203295
_cell_angle_alpha 115.379026
_cell_angle_beta 75.873616
_cell_angle_gamma 48.224116
_cell_volume 629.810915
_symmetry_space_group_name_H-M "P -1"
_symmetry_group_IT_number 2
_symmetry_cell_setting 'triclinic'
loop_
_space_group_symop_operation_xyz
x,y,z
-x,-y,-z
loop_
_atom_site_type_symbol
_atom_site_label
_atom_site_fract_x
_atom_site_fract_y
_atom_site_fract_z
Si Si1 0.654139 0.252694 0.560210
Si Si2 0.122852 0.638531 0.638643
Si Si3 0.970899 0.698391 0.003616
Si Si4 0.603278 0.732155 0.341779
Si Si5 0.416025 0.351413 0.205547
Si Si6 0.267463 0.249080 0.343945
Si Si7 0.437724 0.764367 0.065561
Si Si8 0.806751 0.103166 0.306965
O O1 0.589909 0.176484 0.618238
O O2 0.709009 0.334103 0.641350
O O3 0.812862 0.986311 0.368170
O O4 0.450720 0.579328 0.616516
O O5 0.238201 0.554652 0.690331
O O6 0.308559 0.310283 0.445810
O O7 0.092408 0.849951 0.656494
O O8 0.864606 0.868494 0.780490
O O9 0.198457 0.446831 0.819812
O O10 0.000000 0.500000 0.000000
O O11 0.704982 0.012434 0.089794
O O12 0.981630 0.826815 0.114402
O O13 0.500000 0.000000 0.500000
O O14 0.284137 0.355840 0.282834
O O15 0.433800 0.333750 0.083956
O O16 0.000000 0.500000 0.500000
O O17 0.454368 0.879457 0.176484
O O18 0.500000 0.500000 0.000000
#
# Coordination Sequence:
#
# PCOD9015992 Si02
#       8
#     2   2   2   2   2   2   2   2
#     4   9  19  34  62  94 128 170 208 255 330 405
#     4  10  21  42  66  88 129 174 210 272 338 383
#     4  11  24  37  61 101 138 173 215 259 327 419
#     4  11  23  37  61  99 140 172 213 260 328 417
#     4  11  22  43  70  92 133 178 215 278 343 385
#     4  10  23  44  70  94 126 177 232 286 336 388
#     4  11  25  44  67  96 125 170 237 290 327 384
#     4   9  18  35  60  91 129 166 208 253 323 404
#
# _framework density 25.404453
#
# number of rings (size 3 to 8) (size 9 to 14) (size 15 to 20)
#    0.000    1.750    2.500    1.125    5.250    3.500 
#    0.000    2.500    0.000    0.000    0.000    0.000 
#    0.000    0.000    0.000    0.000    0.000    0.000 
#
# Total GULP energy -89178.133674 kJ/mol
# GULP energy per Si atom -5573.633355 kJ/mol
# Density = 2.534663 g / cm^3
# Si number density = 25.404453 Si / 1000 Ang^3
#
#
#
# Elastic Constant Matrix: (Units=GPa)
#
#
# Indices 1 2 3 4 5 6 
#
# 1 86.4335 31.7528 58.1370 -6.2723 4.5931 30.4967
# 2 31.7528 75.4758 60.6520 -30.7802 1.9072 14.7793
# 3 58.1370 60.6520 185.6425 -39.6262 15.3526 16.5923
# 4 -6.2723 -30.7802 -39.6262 50.6556 6.9397 -8.4441
# 5 4.5931 1.9072 15.3526 6.9397 53.6398 1.8252
# 6 30.4967 14.7793 16.5923 -8.4441 1.8252 40.2451
#
#
#
# Elastic Compliance Matrix: (Units=1/GPa)
#
#
# Indices 1 2 3 4 5 6 
#
# 1 0.021221 -0.004742 -0.005477 -0.006983 0.001285 -0.013604
# 2 -0.004742 0.022465 -0.003524 0.010228 -0.000672 -0.001027
# 3 -0.005477 -0.003524 0.009390 0.005394 -0.002888 0.002836
# 4 -0.006983 0.010228 0.005394 0.031084 -0.005538 0.006084
# 5 0.001285 -0.000672 -0.002888 -0.005538 0.020155 -0.001613
# 6 -0.013604 -0.001027 0.002836 0.006084 -0.001613 0.035714
#
#
# Mechanical properties :
#
#
# Convention : Reuss Voigt Hill
#
# Bulk Modulus (GPa) = 39.07887 72.07063 55.57475
# Shear Modulus (GPa) = 28.40159 42.04209 35.22184
#
# Velocity S-wave (km/s) = 3.34724 4.07247 3.72754
# Velocity P-wave (km/s) = 5.50952 7.10945 6.35999
#
# Compressibility (1/GPa) = 0.02558928
#
# Stress axis : x y z
#
# Youngs Moduli (GPa) = 47.12354 44.51270 106.49526
#
# Poissons Ratio (x) = 0.21110 0.58328
# Poissons Ratio (y) = 0.22348 0.37529
# Poissons Ratio (z) = 0.25810 0.15687
#
# Static dielectric constant tensor:
#      x y z
#    x 4.405390 -0.356260 -0.990440 
#    y -0.356260 2.237000 0.165020 
#    z -0.990440 0.165020 2.569680 
# 
# From -- ./inp_files/516094.got.cif
#   From: 2010.05.17/outbox.cif.g08.bks.cpg/sg2_259_cif.got.tgz:516094.got - 2010.06.03 11:33:40.
