data_PCOD9015632
_publ_section_title
;
Structure prediction by ZEFSAII (Michael W. Deem and Ramdas Pophale) SiO2 
 PCOD9015632
Probable space group: P -1
;
_chemical_formula_sum "Si O2"
_cell_formula_units_Z 16
_cell_length_a 8.986001
_cell_length_b 15.581983
_cell_length_c 12.785701
_cell_angle_alpha 153.275408
_cell_angle_beta 128.696149
_cell_angle_gamma 46.328717
_cell_volume 582.129246
_symmetry_space_group_name_H-M "P -1"
_symmetry_group_IT_number 2
_symmetry_cell_setting 'triclinic'
loop_
_space_group_symop_operation_xyz
x,y,z
-x,-y,-z
loop_
_atom_site_type_symbol
_atom_site_label
_atom_site_fract_x
_atom_site_fract_y
_atom_site_fract_z
Si Si1 0.556329 0.940001 0.736165
Si Si2 0.488636 0.499319 0.218509
Si Si3 0.891472 0.297398 0.838933
Si Si4 0.752428 0.906453 0.066412
Si Si5 0.137120 0.261294 0.506551
Si Si6 0.074871 0.624556 0.754205
Si Si7 0.302703 0.625001 0.482316
Si Si8 0.788915 0.897514 0.402875
O O1 0.519200 0.721546 0.486176
O O2 0.776510 0.879683 0.710780
O O3 0.469947 0.052041 0.931280
O O4 0.405792 0.072135 0.721933
O O5 0.328149 0.516186 0.072615
O O6 0.722572 0.333991 0.144694
O O7 0.360654 0.495818 0.261143
O O8 0.085819 0.243532 0.942512
O O9 0.007819 0.259533 0.736299
O O10 0.819878 0.112501 0.639312
O O11 0.748296 0.136601 0.309050
O O12 0.866237 0.798482 0.892904
O O13 0.179555 0.466976 0.725131
O O14 0.222847 0.156303 0.540177
O O15 0.893385 0.354803 0.513835
O O16 0.000000 0.500000 0.500000
O O17 0.500000 0.500000 0.500000
#
# Coordination Sequence:
#
# PCOD9015632 Si02
#       8
#     2   2   2   2   2   2   2   2
#     4   8  18  32  60  93 124 159 200 254 317 384
#     4   9  18  37  60  90 125 167 207 249 321 380
#     4   9  15  32  64  96 123 159 206 259 323 383
#     4  10  21  42  64  90 126 171 211 257 327 381
#     4  11  19  36  61  92 121 160 211 257 313 364
#     4  11  25  43  60  85 129 179 217 257 314 380
#     4  11  21  38  66  94 122 163 216 265 306 371
#     4   9  14  29  60  94 124 156 200 251 318 380
#
# _framework density 27.485305
#
# number of rings (size 3 to 8) (size 9 to 14) (size 15 to 20)
#    0.000    2.250    2.500    2.625    0.000    0.500 
#    0.000   16.250    0.000    0.000    0.000    0.000 
#    0.000    0.000    0.000    0.000    0.000    0.000 
#
# Total GULP energy -89301.196471 kJ/mol
# GULP energy per Si atom -5581.324779 kJ/mol
# Density = 2.742275 g / cm^3
# Si number density = 27.485305 Si / 1000 Ang^3
#
#
#
# Elastic Constant Matrix: (Units=GPa)
#
#
# Indices 1 2 3 4 5 6 
#
# 1 136.2651 41.1563 83.3138 9.3649 -53.5227 -20.5702
# 2 41.1563 108.3596 40.1662 7.6389 -26.5042 -22.5142
# 3 83.3138 40.1662 117.3482 12.0342 -44.2267 -0.6090
# 4 9.3649 7.6389 12.0342 31.7146 2.7263 -9.3629
# 5 -53.5227 -26.5042 -44.2267 2.7263 54.4796 11.1292
# 6 -20.5702 -22.5142 -0.6090 -9.3629 11.1292 60.9273
#
#
#
# Elastic Compliance Matrix: (Units=1/GPa)
#
#
# Indices 1 2 3 4 5 6 
#
# 1 0.016483 -0.000250 -0.008129 -0.001429 0.008817 0.003561
# 2 -0.000250 0.011798 -0.002812 -0.000835 0.002505 0.003661
# 3 -0.008129 -0.002812 0.018625 -0.006360 0.007290 -0.005906
# 4 -0.001429 -0.000835 -0.006360 0.037445 -0.010230 0.006768
# 5 0.008817 0.002505 0.007290 -0.010230 0.035500 -0.004081
# 6 0.003561 0.003661 -0.005906 0.006768 -0.004081 0.020695
#
#
# Mechanical properties :
#
#
# Convention : Reuss Voigt Hill
#
# Bulk Modulus (GPa) = 40.77638 76.80506 58.79072
# Shear Modulus (GPa) = 29.22217 42.58008 35.90112
#
# Velocity S-wave (km/s) = 3.26420 3.94025 3.61805
# Velocity P-wave (km/s) = 5.39209 6.97893 6.23619
#
# Compressibility (1/GPa) = 0.02452400
#
# Stress axis : x y z
#
# Youngs Moduli (GPa) = 60.66741 84.75881 53.69243
#
# Poissons Ratio (x) = 0.02119 0.43647
# Poissons Ratio (y) = 0.01517 0.15098
# Poissons Ratio (z) = 0.49317 0.23833
#
# Static dielectric constant tensor:
#      x y z
#    x 2.183780 0.010090 -0.021630 
#    y 0.010090 2.199220 -0.038750 
#    z -0.021630 -0.038750 2.244680 
# 
# From -- ./inp_files/399822.got.cif
#   From: 2010.05.17/outbox.cif.g08.bks.cpg/sg2_200_cif.got.tgz:399822.got - 2010.06.03 11:33:40.
