data_PCOD9015962
_publ_section_title
;
Structure prediction by ZEFSAII (Michael W. Deem and Ramdas Pophale) SiO2 
 PCOD9015962
Probable space group: P -1
;
_chemical_formula_sum "Si O2"
_cell_formula_units_Z 15
_cell_length_a 10.304796
_cell_length_b 8.993336
_cell_length_c 11.665616
_cell_angle_alpha 126.443218
_cell_angle_beta 138.820234
_cell_angle_gamma 64.574626
_cell_volume 572.303015
_symmetry_space_group_name_H-M "P -1"
_symmetry_group_IT_number 2
_symmetry_cell_setting 'triclinic'
loop_
_space_group_symop_operation_xyz
x,y,z
-x,-y,-z
loop_
_atom_site_type_symbol
_atom_site_label
_atom_site_fract_x
_atom_site_fract_y
_atom_site_fract_z
Si Si1 0.178434 0.860242 0.553008
Si Si2 0.144487 0.081497 0.036038
Si Si3 0.700588 0.364436 0.800360
Si Si4 0.327713 0.390414 0.680685
Si Si5 0.500000 0.000000 0.000000
Si Si6 0.200821 0.987135 0.379807
Si Si7 0.408967 0.745700 0.996353
Si Si8 0.099347 0.480264 0.227256
O O1 0.322905 0.886489 0.765868
O O2 0.271582 0.923072 0.521727
O O3 0.115389 0.644131 0.403881
O O4 0.000000 0.000000 0.500000
O O5 0.204732 0.283839 0.214991
O O6 0.308128 0.939353 0.045406
O O7 0.000000 0.000000 0.000000
O O8 0.017266 0.091789 0.838321
O O9 0.484023 0.435789 0.705056
O O10 0.676062 0.139754 0.682523
O O11 0.802071 0.433425 0.782437
O O12 0.867783 0.424629 0.031163
O O13 0.259706 0.582726 0.776814
O O14 0.200383 0.208777 0.477407
O O15 0.472338 0.319815 0.845496
O O16 0.557669 0.810908 0.025069
#
# Coordination Sequence:
#
# PCOD9015962 Si02
#       8
#     2   2   2   2   1   2   2   2
#     4  11  24  43  74 101 143 193 231 301 363 424
#     4  11  24  44  69 100 143 183 239 298 346 434
#     4   9  19  37  69  98 132 181 233 283 344 442
#     4  11  23  42  67 101 139 188 227 289 365 416
#     4  12  26  46  66 110 146 178 246 300 346 438
#     4  10  21  42  66 101 136 184 234 282 364 422
#     4  11  26  41  65  99 139 187 231 294 355 418
#     4   9  21  40  66 102 131 185 240 280 358 421
#
# _framework density 26.209892
#
# number of rings (size 3 to 8) (size 9 to 14) (size 15 to 20)
#    0.000    1.600    1.333    3.600    3.733    2.667 
#    0.000    0.667    0.000    0.000    0.000    0.000 
#    0.000    0.000    0.000    0.000    0.000    0.000 
#
# Total GULP energy -83580.812455 kJ/mol
# GULP energy per Si atom -5572.054164 kJ/mol
# Density = 2.615024 g / cm^3
# Si number density = 26.209892 Si / 1000 Ang^3
#
#
#
# Elastic Constant Matrix: (Units=GPa)
#
#
# Indices 1 2 3 4 5 6 
#
# 1 20.1786 15.8414 32.1905 10.2273 0.5228 0.8261
# 2 15.8414 136.6734 61.1176 49.5106 -1.1484 -26.3283
# 3 32.1905 61.1176 179.7423 45.1325 -10.3152 -14.8164
# 4 10.2273 49.5106 45.1325 75.0951 4.3499 -7.9342
# 5 0.5228 -1.1484 -10.3152 4.3499 18.1175 7.0404
# 6 0.8261 -26.3283 -14.8164 -7.9342 7.0404 41.0335
#
#
#
# Elastic Compliance Matrix: (Units=1/GPa)
#
#
# Indices 1 2 3 4 5 6 
#
# 1 0.073851 -0.004446 -0.012767 0.000112 -0.006685 -0.007781
# 2 -0.004446 0.011605 -0.001300 -0.005560 -0.000931 0.006151
# 3 -0.012767 -0.001300 0.009593 -0.003398 0.006104 0.001182
# 4 0.000112 -0.005560 -0.003398 0.019434 -0.007021 0.000165
# 5 -0.006685 -0.000931 0.006104 -0.007021 0.064652 -0.010709
# 6 -0.007781 0.006151 0.001182 0.000165 -0.010709 0.030770
#
#
# Mechanical properties :
#
#
# Convention : Reuss Voigt Hill
#
# Bulk Modulus (GPa) = 17.23496 61.65481 39.44489
# Shear Modulus (GPa) = 18.77782 42.01220 30.39501
#
# Velocity S-wave (km/s) = 2.67954 4.00798 3.40910
# Velocity P-wave (km/s) = 4.02036 6.70769 5.52976
#
# Compressibility (1/GPa) = 0.05802159
#
# Stress axis : x y z
#
# Youngs Moduli (GPa) = 13.54083 86.17235 104.24063
#
# Poissons Ratio (x) = 0.38313 1.33089
# Poissons Ratio (y) = 0.06020 0.13550
# Poissons Ratio (z) = 0.17288 0.11201
#
# Static dielectric constant tensor:
#      x y z
#    x 2.050060 -0.013850 -0.028840 
#    y -0.013850 2.088450 0.059980 
#    z -0.028840 0.059980 2.074650 
# 
# From -- ./inp_files/420151.got.cif
#   From: 2010.05.17/outbox.cif.g08.bks.cpg/sg2_211_cif.got.tgz:420151.got - 2010.06.03 11:33:40.
