data_PCOD9015130
_publ_section_title
;
Structure prediction by ZEFSAII (Michael W. Deem and Ramdas Pophale) SiO2 
 PCOD9015130
Probable space group: P -1
;
_chemical_formula_sum "Si O2"
_cell_formula_units_Z 16
_cell_length_a 12.061757
_cell_length_b 9.641534
_cell_length_c 15.356874
_cell_angle_alpha 64.189846
_cell_angle_beta 26.900060
_cell_angle_gamma 74.637433
_cell_volume 693.241904
_symmetry_space_group_name_H-M "P -1"
_symmetry_group_IT_number 2
_symmetry_cell_setting 'triclinic'
loop_
_space_group_symop_operation_xyz
x,y,z
-x,-y,-z
loop_
_atom_site_type_symbol
_atom_site_label
_atom_site_fract_x
_atom_site_fract_y
_atom_site_fract_z
Si Si1 0.600757 0.635959 0.523226
Si Si2 0.172596 0.642029 0.955387
Si Si3 0.810226 0.676711 0.906020
Si Si4 0.599407 0.909761 0.098410
Si Si5 0.985893 0.180312 0.461587
Si Si6 0.657966 0.719972 0.264912
Si Si7 0.195509 0.725776 0.114078
Si Si8 0.744923 0.514746 0.721634
O O1 0.403558 0.671992 0.718443
O O2 0.596421 0.719289 0.410053
O O3 0.519825 0.444285 0.610700
O O4 0.887906 0.688585 0.344725
O O5 0.065927 0.447070 0.099233
O O6 0.249688 0.717719 0.975979
O O7 0.944415 0.705236 0.063631
O O8 0.952857 0.743111 0.698436
O O9 0.777349 0.825333 0.944025
O O10 0.517161 0.563722 0.124496
O O11 0.301421 0.829082 0.306144
O O12 0.631950 0.869527 0.187657
O O13 0.671372 0.100727 0.984616
O O14 0.189855 0.297901 0.350615
O O15 0.000000 0.000000 0.500000
O O16 0.273793 0.588891 0.148746
O O17 0.000000 0.500000 0.500000
#
# Coordination Sequence:
#
# PCOD9015130 Si02
#       8
#     2   2   2   2   2   2   2   2
#     4  10  21  41  71  97 132 175 225 274 337 396
#     4  11  23  42  72 102 127 181 233 272 329 412
#     4  12  26  43  72  98 137 183 229 270 338 401
#     4  12  27  46  65 103 141 177 222 286 335 391
#     4  12  28  45  69 103 136 174 229 281 334 401
#     4  10  23  41  72  99 137 172 230 282 330 399
#     4  11  26  44  67  99 140 176 227 277 337 403
#     4  12  24  46  73  97 137 181 222 278 340 401
#
# _framework density 23.079965999999999
#
# number of rings (size 3 to 8) (size 9 to 14) (size 15 to 20)
#    0.000    0.750    3.750    3.000    7.000    4.000 
#    0.000    1.250    0.000    0.000    0.000    0.000 
#    0.000    0.000    0.000    0.000    0.000    0.000 
#
# Total GULP energy -89697.234381 kJ/mol
# GULP energy per Si atom -5606.077149 kJ/mol
# Density = 2.302743 g / cm^3
# Si number density = 23.079966 Si / 1000 Ang^3
#
#
#
# Elastic Constant Matrix: (Units=GPa)
#
#
# Indices 1 2 3 4 5 6 
#
# 1 50.3314 6.8556 16.8450 -10.0480 -8.8774 -3.2115
# 2 6.8556 107.3987 13.6046 -10.6638 1.5748 8.2227
# 3 16.8450 13.6046 100.8965 15.0821 -8.2466 10.6248
# 4 -10.0480 -10.6638 15.0821 32.8491 8.5056 3.3162
# 5 -8.8774 1.5748 -8.2466 8.5056 28.9160 4.3624
# 6 -3.2115 8.2227 10.6248 3.3162 4.3624 32.0464
#
#
#
# Elastic Compliance Matrix: (Units=1/GPa)
#
#
# Indices 1 2 3 4 5 6 
#
# 1 0.024143 -0.000264 -0.005377 0.008722 0.002878 0.002975
# 2 -0.000264 0.010292 -0.002063 0.005045 -0.002385 -0.002181
# 3 -0.005377 -0.002063 0.013430 -0.009537 0.005739 -0.004256
# 4 0.008722 0.005045 -0.009537 0.042435 -0.012813 0.000094
# 5 0.002878 -0.002385 0.005739 -0.012813 0.041812 -0.005368
# 6 0.002975 -0.002181 -0.004256 0.000094 -0.005368 0.034195
#
#
# Mechanical properties :
#
#
# Convention : Reuss Voigt Hill
#
# Bulk Modulus (GPa) = 30.81044 37.02633 33.91839
# Shear Modulus (GPa) = 25.96950 33.51706 29.74328
#
# Velocity S-wave (km/s) = 3.35803 3.81493 3.59375
# Velocity P-wave (km/s) = 5.33044 5.95671 5.65225
#
# Compressibility (1/GPa) = 0.03245653
#
# Stress axis : x y z
#
# Youngs Moduli (GPa) = 41.42044 97.16089 74.46061
#
# Poissons Ratio (x) = 0.02565 0.40037
# Poissons Ratio (y) = 0.01093 0.15363
# Poissons Ratio (z) = 0.22272 0.20046
#
# Static dielectric constant tensor:
#      x y z
#    x 1.868680 0.005430 0.010820 
#    y 0.005430 1.833370 0.010900 
#    z 0.010820 0.010900 1.873320 
# 
# From -- ./inp_files/333338.got.cif
#   From: 2010.05.17/outbox.cif.g08.bks.cpg/sg2_167_cif.got.tgz:333338.got - 2010.06.03 11:33:40.
