data_PCOD9015138
_publ_section_title
;
Structure prediction by ZEFSAII (Michael W. Deem and Ramdas Pophale) SiO2 
 PCOD9015138
Probable space group: P -1
;
_chemical_formula_sum "Si O2"
_cell_formula_units_Z 16
_cell_length_a 10.556501
_cell_length_b 5.791439
_cell_length_c 17.314939
_cell_angle_alpha 78.297115
_cell_angle_beta 63.155493
_cell_angle_gamma 124.509969
_cell_volume 608.275668
_symmetry_space_group_name_H-M "P -1"
_symmetry_group_IT_number 2
_symmetry_cell_setting 'triclinic'
loop_
_space_group_symop_operation_xyz
x,y,z
-x,-y,-z
loop_
_atom_site_type_symbol
_atom_site_label
_atom_site_fract_x
_atom_site_fract_y
_atom_site_fract_z
Si Si1 0.565683 0.434471 0.863061
Si Si2 0.128610 0.412633 0.957279
Si Si3 0.625240 0.545877 0.662059
Si Si4 0.216057 0.559036 0.758214
Si Si5 0.221940 0.197879 0.065596
Si Si6 0.961277 0.620711 0.739813
Si Si7 0.001444 0.340316 0.438468
Si Si8 0.650311 0.614925 0.378952
O O1 0.572832 0.542561 0.766278
O O2 0.678492 0.719981 0.883002
O O3 0.714340 0.387792 0.828347
O O4 0.323847 0.134085 0.982997
O O5 0.278615 0.643100 0.824847
O O6 0.259380 0.494209 0.991696
O O7 0.000000 0.500000 0.000000
O O8 0.000000 0.000000 0.000000
O O9 0.422303 0.301895 0.677433
O O10 0.764202 0.485865 0.637212
O O11 0.800644 0.920428 0.541291
O O12 0.063204 0.585147 0.778168
O O13 0.373179 0.669170 0.638900
O O14 0.034051 0.127362 0.832866
O O15 0.016568 0.570619 0.646438
O O16 0.112394 0.042880 0.673502
O O17 0.000000 0.500000 0.500000
O O18 0.500000 0.500000 0.500000
#
# Coordination Sequence:
#
# PCOD9015138 Si02
#       8
#     2   2   2   2   2   2   2   2
#     4  10  21  42  69  99 133 178 233 291 362 430
#     4  10  22  42  71 106 145 189 238 301 371 440
#     4  10  23  42  65  93 134 179 221 294 350 425
#     4  11  25  40  71 101 141 186 235 303 368 431
#     4  10  21  41  71  98 138 180 232 294 363 439
#     4  11  24  42  69 101 137 182 238 295 361 434
#     4  10  23  40  68  95 131 175 232 288 357 426
#     4  12  25  44  67  98 142 188 240 296 361 436
#
# _framework density 26.303864000000001
#
# number of rings (size 3 to 8) (size 9 to 14) (size 15 to 20)
#    0.000    1.500    2.500    1.500    5.250    2.000 
#    0.000    1.250    0.000    0.000    0.000    0.000 
#    0.000    0.000    0.000    0.000    0.000    0.000 
#
# Total GULP energy -89167.986369 kJ/mol
# GULP energy per Si atom -5572.999148 kJ/mol
# Density = 2.624400 g / cm^3
# Si number density = 26.303864 Si / 1000 Ang^3
#
#
#
# Elastic Constant Matrix: (Units=GPa)
#
#
# Indices 1 2 3 4 5 6 
#
# 1 134.2786 20.5330 52.0015 6.3524 11.9099 7.6372
# 2 20.5330 49.9600 38.2239 12.8290 0.8762 8.5490
# 3 52.0015 38.2239 157.0234 47.4863 0.2492 2.8472
# 4 6.3524 12.8290 47.4863 35.9234 8.2952 -0.9792
# 5 11.9099 0.8762 0.2492 8.2952 49.3101 12.4972
# 6 7.6372 8.5490 2.8472 -0.9792 12.4972 39.3028
#
#
#
# Elastic Compliance Matrix: (Units=1/GPa)
#
#
# Indices 1 2 3 4 5 6 
#
# 1 0.009421 -0.001937 -0.004280 0.005409 -0.003138 0.000033
# 2 -0.001937 0.026155 -0.004514 -0.003673 0.002100 -0.005745
# 3 -0.004280 -0.004514 0.014129 -0.017304 0.004201 -0.000977
# 4 0.005409 -0.003673 -0.017304 0.053951 -0.011773 0.006089
# 5 -0.003138 0.002100 0.004201 -0.011773 0.025095 -0.008424
# 6 0.000033 -0.005745 -0.000977 0.006089 -0.008424 0.029588
#
#
# Mechanical properties :
#
#
# Convention : Reuss Voigt Hill
#
# Bulk Modulus (GPa) = 35.40626 62.53098 48.96862
# Shear Modulus (GPa) = 26.42505 40.27417 33.34961
#
# Velocity S-wave (km/s) = 3.17299 3.91719 3.56456
# Velocity P-wave (km/s) = 5.18783 6.65457 5.96644
#
# Compressibility (1/GPa) = 0.02824359
#
# Stress axis : x y z
#
# Youngs Moduli (GPa) = 106.14154 38.23374 70.77748
#
# Poissons Ratio (x) = 0.07406 0.30291
# Poissons Ratio (y) = 0.20561 0.31948
# Poissons Ratio (z) = 0.45426 0.17258
#
# Static dielectric constant tensor:
#      x y z
#    x 2.069130 0.089830 0.086170 
#    y 0.089830 1.868730 -0.062470 
#    z 0.086170 -0.062470 2.222060 
# 
# From -- ./inp_files/564461.got.cif
#   From: 2010.05.17/outbox.cif.g08.bks.cpg/sg2_283_cif.got.tgz:564461.got - 2010.06.03 11:33:40.
