data_PCOD9015338
_publ_section_title
;
Structure prediction by ZEFSAII (Michael W. Deem and Ramdas Pophale) SiO2 
 PCOD9015338
Probable space group: P -1
;
_chemical_formula_sum "Si O2"
_cell_formula_units_Z 14
_cell_length_a 7.086234
_cell_length_b 19.066474
_cell_length_c 6.773213
_cell_angle_alpha 131.943129
_cell_angle_beta 89.967964
_cell_angle_gamma 69.800290
_cell_volume 602.709473
_symmetry_space_group_name_H-M "P -1"
_symmetry_group_IT_number 2
_symmetry_cell_setting 'triclinic'
loop_
_space_group_symop_operation_xyz
x,y,z
-x,-y,-z
loop_
_atom_site_type_symbol
_atom_site_label
_atom_site_fract_x
_atom_site_fract_y
_atom_site_fract_z
Si Si1 0.939944 0.178138 0.405007
Si Si2 0.351702 0.058316 0.924308
Si Si3 0.745838 0.417874 0.837801
Si Si4 0.948509 0.703506 0.062588
Si Si5 0.041515 0.411030 0.493926
Si Si6 0.210281 0.917297 0.455372
Si Si7 0.435043 0.239095 0.060831
O O1 0.779468 0.298473 0.567797
O O2 0.830235 0.114917 0.386652
O O3 0.056817 0.197969 0.635142
O O4 0.112333 0.118824 0.127248
O O5 0.413509 0.144142 0.992637
O O6 0.354055 0.975422 0.606456
O O7 0.500000 0.000000 0.000000
O O8 0.882843 0.448821 0.745449
O O9 0.879370 0.395246 0.998478
O O10 0.500000 0.500000 0.000000
O O11 0.706720 0.724491 0.073799
O O12 0.014263 0.675257 0.782506
O O13 0.000000 0.500000 0.500000
O O14 0.297731 0.342281 0.392568
O O15 0.327317 0.813143 0.119850
O O16 0.000000 0.000000 0.500000
#
# Coordination Sequence:
#
# PCOD9015338 Si02
#       7
#     2   2   2   2   2   2   2
#     4  10  21  42  60  95 133 164 220 277 334 384
#     4  12  23  42  68  94 133 180 229 266 339 399
#     4  10  22  40  66  95 129 169 216 279 344 389
#     4   8  20  41  65  86 137 172 216 265 341 392
#     4  10  22  40  67  95 124 173 227 263 339 408
#     4  12  25  38  66 100 131 175 230 278 328 389
#     4  10  21  43  62  92 136 173 216 277 330 393
#
# _framework density 23.228439000000002
#
# number of rings (size 3 to 8) (size 9 to 14) (size 15 to 20)
#    1.714    0.000    1.429    3.429    2.000    1.143 
#    0.000    2.857    0.000    0.000    0.000    0.000 
#    0.000    0.000    0.000    0.000    0.000    0.000 
#
# Total GULP energy -77946.380530 kJ/mol
# GULP energy per Si atom -5567.598609 kJ/mol
# Density = 2.317557 g / cm^3
# Si number density = 23.228439 Si / 1000 Ang^3
#
#
#
# Elastic Constant Matrix: (Units=GPa)
#
#
# Indices 1 2 3 4 5 6 
#
# 1 44.5511 33.0525 22.9310 4.1246 -21.0563 -19.3416
# 2 33.0525 130.5817 19.6762 12.6409 -25.7603 -16.8565
# 3 22.9310 19.6762 80.2739 10.4906 -31.9440 -9.5223
# 4 4.1246 12.6409 10.4906 34.7946 -6.1313 -8.5334
# 5 -21.0563 -25.7603 -31.9440 -6.1313 51.7670 4.2783
# 6 -19.3416 -16.8565 -9.5223 -8.5334 4.2783 44.4446
#
#
#
# Elastic Compliance Matrix: (Units=1/GPa)
#
#
# Indices 1 2 3 4 5 6 
#
# 1 0.039456 -0.006018 -0.004987 0.004013 0.009321 0.013693
# 2 -0.006018 0.009896 0.000711 -0.002506 0.002572 0.000558
# 3 -0.004987 0.000711 0.017703 -0.003352 0.008819 0.000399
# 4 0.004013 -0.002506 -0.003352 0.031954 0.001601 0.006059
# 5 0.009321 0.002572 0.008819 0.001601 0.029659 0.004374
# 6 0.013693 0.000558 0.000399 0.006059 0.004374 0.029499
#
#
# Mechanical properties :
#
#
# Convention : Reuss Voigt Hill
#
# Bulk Modulus (GPa) = 21.52083 45.19177 33.35630
# Shear Modulus (GPa) = 25.74096 38.18436 31.96266
#
# Velocity S-wave (km/s) = 3.33252 4.05886 3.71349
# Velocity P-wave (km/s) = 4.90842 6.43920 5.72520
#
# Compressibility (1/GPa) = 0.04646660
#
# Stress axis : x y z
#
# Youngs Moduli (GPa) = 25.34460 101.04828 56.48884
#
# Poissons Ratio (x) = 0.60809 0.28172
# Poissons Ratio (y) = 0.15252 -0.04015
# Poissons Ratio (z) = 0.12640 -0.07182
#
# Static dielectric constant tensor:
#      x y z
#    x 1.955650 0.023960 0.038790 
#    y 0.023960 1.879120 0.061480 
#    z 0.038790 0.061480 1.978320 
# 
# From -- ./inp_files/45361.got.cif
#   From: 2010.05.17/outbox.cif.g08.bks.cpg/sg2_23_cif.got.tgz:45361.got - 2010.06.03 11:33:40.
