data_PCOD9015414
_publ_section_title
;
Structure prediction by ZEFSAII (Michael W. Deem and Ramdas Pophale) SiO2 
 PCOD9015414
Probable space group: P -1
;
_chemical_formula_sum "Si O2"
_cell_formula_units_Z 15
_cell_length_a 12.681517
_cell_length_b 7.100580
_cell_length_c 9.310722
_cell_angle_alpha 50.508738
_cell_angle_beta 71.452924
_cell_angle_gamma 71.871569
_cell_volume 606.575514
_symmetry_space_group_name_H-M "P -1"
_symmetry_group_IT_number 2
_symmetry_cell_setting 'triclinic'
loop_
_space_group_symop_operation_xyz
x,y,z
-x,-y,-z
loop_
_atom_site_type_symbol
_atom_site_label
_atom_site_fract_x
_atom_site_fract_y
_atom_site_fract_z
Si Si1 0.901121 0.349428 0.414266
Si Si2 0.300364 0.820533 0.571292
Si Si3 0.387081 0.363159 0.963822
Si Si4 0.500000 0.000000 0.500000
Si Si5 0.258714 0.999110 0.042576
Si Si6 0.369799 0.495874 0.221488
Si Si7 0.981648 0.877947 0.796833
Si Si8 0.164501 0.095964 0.737508
O O1 0.778685 0.274756 0.465299
O O2 0.964243 0.140218 0.592014
O O3 0.887152 0.622093 0.351113
O O4 0.968181 0.321746 0.246167
O O5 0.335044 0.600424 0.777646
O O6 0.418639 0.912019 0.448089
O O7 0.223056 0.036650 0.587607
O O8 0.520333 0.365997 0.918054
O O9 0.337490 0.402090 0.125578
O O10 0.353103 0.128056 0.014572
O O11 0.581050 0.731257 0.590752
O O12 0.273957 0.709276 0.210866
O O13 0.140030 0.142023 0.079523
O O14 0.254980 0.025224 0.859195
O O15 0.070477 0.914051 0.864998
#
# Coordination Sequence:
#
# PCOD9015414 Si02
#       8
#     2   2   2   1   2   2   2   2
#     4  10  22  44  62  87 130 169 205 259 315 365
#     4  10  21  42  64  93 125 167 208 250 315 365
#     4  10  21  42  62  90 131 164 199 256 313 366
#     4  10  24  42  66  94 128 162 204 262 306 374
#     4  12  23  39  67  98 119 167 215 252 304 383
#     4  10  23  42  63  93 129 162 205 257 311 370
#     4  10  25  40  61  95 124 164 215 258 311 361
#     4  11  22  41  65  89 129 168 206 260 312 362
#
# _framework density 24.72899
#
# number of rings (size 3 to 8) (size 9 to 14) (size 15 to 20)
#    0.000    1.600    2.667    1.200    3.733    1.600 
#    0.000    1.333    0.000    0.000    0.000    0.000 
#    0.000    0.000    0.000    0.000    0.000    0.000 
#
# Total GULP energy -83643.858367 kJ/mol
# GULP energy per Si atom -5576.257224 kJ/mol
# Density = 2.467271 g / cm^3
# Si number density = 24.728990 Si / 1000 Ang^3
#
#
#
# Elastic Constant Matrix: (Units=GPa)
#
#
# Indices 1 2 3 4 5 6 
#
# 1 86.5177 5.6043 -3.6021 4.0690 11.3363 22.7668
# 2 5.6043 117.6331 21.7019 -16.0247 22.5980 0.5686
# 3 -3.6021 21.7019 39.7105 -3.0198 18.9496 -6.1696
# 4 4.0690 -16.0247 -3.0198 38.7797 -6.5679 13.7451
# 5 11.3363 22.5980 18.9496 -6.5679 36.1759 -6.8734
# 6 22.7668 0.5686 -6.1696 13.7451 -6.8734 42.6322
#
#
#
# Elastic Compliance Matrix: (Units=1/GPa)
#
#
# Indices 1 2 3 4 5 6 
#
# 1 0.015221 0.000342 0.003963 0.000630 -0.008686 -0.009163
# 2 0.000342 0.010667 -0.003745 0.004373 -0.004588 -0.003017
# 3 0.003963 -0.003745 0.036215 -0.002601 -0.018138 0.001089
# 4 0.000630 0.004373 -0.002601 0.031429 0.002134 -0.010560
# 5 -0.008686 -0.004588 -0.018138 0.002134 0.044754 0.008602
# 6 -0.009163 -0.003017 0.001089 -0.010560 0.008602 0.033339
#
#
# Mechanical properties :
#
#
# Convention : Reuss Voigt Hill
#
# Bulk Modulus (GPa) = 15.81704 32.36327 24.09016
# Shear Modulus (GPa) = 26.09877 38.19469 32.14673
#
# Velocity S-wave (km/s) = 3.25220 3.93432 3.60941
# Velocity P-wave (km/s) = 4.52907 5.80982 5.20896
#
# Compressibility (1/GPa) = 0.06322297
#
# Stress axis : x y z
#
# Youngs Moduli (GPa) = 65.69963 93.74403 27.61273
#
# Poissons Ratio (x) = -0.03210 -0.10942
# Poissons Ratio (y) = -0.02250 0.10342
# Poissons Ratio (z) = -0.26035 0.35110
#
# Static dielectric constant tensor:
#      x y z
#    x 1.986080 -0.029390 -0.071040 
#    y -0.029390 1.952590 0.009710 
#    z -0.071040 0.009710 2.023190 
# 
# From -- ./inp_files/27130.got.cif
#   From: 2010.05.17/outbox.cif.g08.bks.cpg/sg2_14_cif.got.tgz:27130.got - 2010.06.03 11:33:40.
