data_PCOD9015389
_publ_section_title
;
Structure prediction by ZEFSAII (Michael W. Deem and Ramdas Pophale) SiO2 
 PCOD9015389
Probable space group: P -1
;
_chemical_formula_sum "Si O2"
_cell_formula_units_Z 13
_cell_length_a 5.127764
_cell_length_b 22.163461
_cell_length_c 6.657101
_cell_angle_alpha 125.852331
_cell_angle_beta 107.253363
_cell_angle_gamma 52.769883
_cell_volume 486.297095
_symmetry_space_group_name_H-M "P -1"
_symmetry_group_IT_number 2
_symmetry_cell_setting 'triclinic'
loop_
_space_group_symop_operation_xyz
x,y,z
-x,-y,-z
loop_
_atom_site_type_symbol
_atom_site_label
_atom_site_fract_x
_atom_site_fract_y
_atom_site_fract_z
Si Si1 0.546858 0.213196 0.438144
Si Si2 0.244206 0.398991 0.508289
Si Si3 0.921686 0.820330 0.168456
Si Si4 0.500000 0.500000 0.000000
Si Si5 0.011534 0.077091 0.980938
Si Si6 0.307755 0.616775 0.783143
Si Si7 0.466123 0.092671 0.403581
O O1 0.407124 0.309121 0.502268
O O2 0.814954 0.194123 0.629844
O O3 0.319151 0.191269 0.467639
O O4 0.671981 0.142746 0.145660
O O5 0.439873 0.380513 0.306351
O O6 0.281790 0.470322 0.772143
O O7 0.874045 0.425286 0.447592
O O8 0.580039 0.891043 0.339729
O O9 0.013234 0.721444 0.954135
O O10 0.964352 0.863960 0.068827
O O11 0.560510 0.430471 0.065647
O O12 0.259411 0.058911 0.187114
O O13 0.163236 0.980727 0.725256
#
# Coordination Sequence:
#
# PCOD9015389 Si02
#       7
#     2   2   2   1   2   2   2
#     4  11  23  40  66  99 142 194 243 301 365 433
#     4  12  28  49  77 111 150 195 245 301 377 444
#     4  11  23  40  66 100 142 192 245 299 366 435
#     4  12  28  54  80 114 148 188 248 312 364 458
#     4  10  21  42  61  97 141 187 248 303 359 431
#     4  12  28  49  78 112 149 196 243 303 376 444
#     4  10  23  38  66  98 138 192 245 304 358 428
#
# _framework density 26.732628999999999
#
# number of rings (size 3 to 8) (size 9 to 14) (size 15 to 20)
#    0.000    0.923    3.077    2.769    4.308    4.308 
#    0.000    0.000    0.000    0.000    0.000    0.000 
#    0.000    0.000    0.000    0.000    0.000    0.000 
#
# Total GULP energy -72557.868003 kJ/mol
# GULP energy per Si atom -5581.374462 kJ/mol
# Density = 2.667178 g / cm^3
# Si number density = 26.732629 Si / 1000 Ang^3
#
#
#
# Elastic Constant Matrix: (Units=GPa)
#
#
# Indices 1 2 3 4 5 6 
#
# 1 81.5063 10.4363 25.2436 -10.3459 -0.9685 6.7202
# 2 10.4363 153.0004 26.7653 -27.7200 0.3295 11.2880
# 3 25.2436 26.7653 87.8922 -10.7745 10.4347 5.2589
# 4 -10.3459 -27.7200 -10.7745 46.1250 6.9568 2.6528
# 5 -0.9685 0.3295 10.4347 6.9568 42.6499 -2.9141
# 6 6.7202 11.2880 5.2589 2.6528 -2.9141 36.4844
#
#
#
# Elastic Compliance Matrix: (Units=1/GPa)
#
#
# Indices 1 2 3 4 5 6 
#
# 1 0.013889 0.000315 -0.003729 0.002462 0.000670 -0.002244
# 2 0.000315 0.007843 -0.001686 0.004628 -0.000575 -0.002624
# 3 -0.003729 -0.001686 0.013738 0.002010 -0.003844 -0.001225
# 4 0.002462 0.004628 0.002010 0.026512 -0.005104 -0.004510
# 5 0.000670 -0.000575 -0.003844 -0.005104 0.025445 0.003012
# 6 -0.002244 -0.002624 -0.001225 -0.004510 0.003012 0.029379
#
#
# Mechanical properties :
#
#
# Convention : Reuss Voigt Hill
#
# Bulk Modulus (GPa) = 39.57271 49.69884 44.63577
# Shear Modulus (GPa) = 36.91973 42.38209 39.65091
#
# Velocity S-wave (km/s) = 3.72031 3.98604 3.85546
# Velocity P-wave (km/s) = 5.76971 6.31000 6.04589
#
# Compressibility (1/GPa) = 0.02526994
#
# Stress axis : x y z
#
# Youngs Moduli (GPa) = 72.00017 127.50783 72.79082
#
# Poissons Ratio (x) = -0.04016 0.27140
# Poissons Ratio (y) = -0.02268 0.12274
# Poissons Ratio (z) = 0.26846 0.21500
#
# Static dielectric constant tensor:
#      x y z
#    x 2.159740 -0.034680 -0.051010 
#    y -0.034680 2.120990 0.022610 
#    z -0.051010 0.022610 2.088770 
# 
# From -- ./inp_files/10002.got.cif
#   From: 2010.05.17/outbox.cif.g08.bks.cpg/sg2_6_cif.got.tgz:10002.got - 2010.06.03 11:33:40.
