data_PCOD9015486
_publ_section_title
;
Structure prediction by ZEFSAII (Michael W. Deem and Ramdas Pophale) SiO2 
 PCOD9015486
Probable space group: P -1
;
_chemical_formula_sum "Si O2"
_cell_formula_units_Z 16
_cell_length_a 13.100335
_cell_length_b 5.142193
_cell_length_c 13.801000
_cell_angle_alpha 60.193493
_cell_angle_beta 106.242999
_cell_angle_gamma 82.214219
_cell_volume 731.251084
_symmetry_space_group_name_H-M "P -1"
_symmetry_group_IT_number 2
_symmetry_cell_setting 'triclinic'
loop_
_space_group_symop_operation_xyz
x,y,z
-x,-y,-z
loop_
_atom_site_type_symbol
_atom_site_label
_atom_site_fract_x
_atom_site_fract_y
_atom_site_fract_z
Si Si1 0.550850 0.304039 0.340458
Si Si2 0.927388 0.582348 0.063056
Si Si3 0.764089 0.363824 0.491233
Si Si4 0.790850 0.141246 0.052127
Si Si5 0.470300 0.677321 0.060182
Si Si6 0.119339 0.220060 0.662552
Si Si7 0.981472 0.774137 0.652939
Si Si8 0.603577 0.587268 0.557524
O O1 0.648944 0.412736 0.393606
O O2 0.537336 0.432027 0.205335
O O3 0.427331 0.423311 0.336754
O O4 0.589992 0.933677 0.447534
O O5 0.004011 0.395138 0.207450
O O6 0.828306 0.435837 0.041537
O O7 0.000000 0.500000 0.000000
O O8 0.870673 0.935973 0.025815
O O9 0.811153 0.637060 0.417645
O O10 0.724449 0.376315 0.590097
O O11 0.859399 0.029539 0.559843
O O12 0.662054 0.236296 0.971147
O O13 0.810305 0.927093 0.194851
O O14 0.500000 0.500000 0.000000
O O15 0.500000 0.000000 0.000000
O O16 0.017812 0.511407 0.627541
O O17 0.070602 0.966592 0.647680
O O18 0.500000 0.500000 0.500000
#
# Coordination Sequence:
#
# PCOD9015486 Si02
#       8
#     2   2   2   2   2   2   2   2
#     4  10  24  43  64  94 136 164 226 275 318 393
#     4  10  21  42  63  89 125 165 214 265 317 384
#     4  11  22  37  66  90 124 173 209 255 340 372
#     4  10  22  41  61  92 123 168 207 267 330 372
#     4  12  27  44  70 102 132 175 227 272 334 398
#     4  10  22  38  61  89 132 156 207 263 314 385
#     4  10  23  38  59  95 125 160 210 258 313 391
#     4   9  22  43  63  90 128 174 216 270 327 379
#
# _framework density 21.880309
#
# number of rings (size 3 to 8) (size 9 to 14) (size 15 to 20)
#    0.000    1.750    0.000    2.625    8.750    2.000 
#    6.750    0.000    0.000    0.000    0.000    0.000 
#    0.000    0.000    0.000    0.000    0.000    0.000 
#
# Total GULP energy -89396.742104 kJ/mol
# GULP energy per Si atom -5587.296381 kJ/mol
# Density = 2.183051 g / cm^3
# Si number density = 21.880309 Si / 1000 Ang^3
#
#
#
# Elastic Constant Matrix: (Units=GPa)
#
#
# Indices 1 2 3 4 5 6 
#
# 1 87.2446 12.9578 23.6135 8.9980 -6.4957 -9.9823
# 2 12.9578 89.3349 8.1481 8.7284 -11.8064 -0.1397
# 3 23.6135 8.1481 75.1068 19.0313 -8.2172 1.3153
# 4 8.9980 8.7284 19.0313 23.2057 -3.8434 -4.2761
# 5 -6.4957 -11.8064 -8.2172 -3.8434 32.5969 -1.3831
# 6 -9.9823 -0.1397 1.3153 -4.2761 -1.3831 32.3196
#
#
#
# Elastic Compliance Matrix: (Units=1/GPa)
#
#
# Indices 1 2 3 4 5 6 
#
# 1 0.013343 -0.001354 -0.003851 -0.000502 0.001319 0.004262
# 2 -0.001354 0.012235 0.000550 -0.004040 0.003792 -0.000760
# 3 -0.003851 0.000550 0.018339 -0.014064 0.002240 -0.003698
# 4 -0.000502 -0.004040 -0.014064 0.058199 0.002101 0.008190
# 5 0.001319 0.003792 0.002240 0.002101 0.033212 0.002032
# 6 0.004262 -0.000760 -0.003698 0.008190 0.002032 0.033575
#
#
# Mechanical properties :
#
#
# Convention : Reuss Voigt Hill
#
# Bulk Modulus (GPa) = 28.89591 37.90279 33.39935
# Shear Modulus (GPa) = 26.35061 31.42223 28.88642
#
# Velocity S-wave (km/s) = 3.47408 3.79370 3.63740
# Velocity P-wave (km/s) = 5.41547 6.04565 5.73922
#
# Compressibility (1/GPa) = 0.03460698
#
# Stress axis : x y z
#
# Youngs Moduli (GPa) = 74.94466 81.73479 54.52840
#
# Poissons Ratio (x) = 0.11067 0.21000
# Poissons Ratio (y) = 0.10148 -0.03001
# Poissons Ratio (z) = 0.28863 -0.04498
#
# Static dielectric constant tensor:
#      x y z
#    x 1.869430 -0.038180 -0.060470 
#    y -0.038180 1.856820 0.022430 
#    z -0.060470 0.022430 1.840360 
# 
# From -- ./inp_files/471121.got.cif
#   From: 2010.05.17/outbox.cif.g08.bks.cpg/sg2_236_cif.got.tgz:471121.got - 2010.06.03 11:33:40.
