data_PCOD9015499
_publ_section_title
;
Structure prediction by ZEFSAII (Michael W. Deem and Ramdas Pophale) SiO2 
 PCOD9015499
Probable space group: P -1
;
_chemical_formula_sum "Si O2"
_cell_formula_units_Z 16
_cell_length_a 8.898440
_cell_length_b 26.827986
_cell_length_c 7.016655
_cell_angle_alpha 45.446313
_cell_angle_beta 127.956304
_cell_angle_gamma 138.679354
_cell_volume 774.170546
_symmetry_space_group_name_H-M "P -1"
_symmetry_group_IT_number 2
_symmetry_cell_setting 'triclinic'
loop_
_space_group_symop_operation_xyz
x,y,z
-x,-y,-z
loop_
_atom_site_type_symbol
_atom_site_label
_atom_site_fract_x
_atom_site_fract_y
_atom_site_fract_z
Si Si1 0.336674 0.740813 0.610272
Si Si2 0.539152 0.741438 0.173542
Si Si3 0.226971 0.457461 0.911719
Si Si4 0.741697 0.876399 0.284989
Si Si5 0.959350 0.722632 0.584498
Si Si6 0.184265 0.872641 0.617770
Si Si7 0.145608 0.600066 0.529151
Si Si8 0.418211 0.011805 0.106228
O O1 0.549928 0.811745 0.460656
O O2 0.205435 0.653314 0.624966
O O3 0.147863 0.760020 0.464212
O O4 0.436710 0.736750 0.901132
O O5 0.641283 0.830730 0.123539
O O6 0.747494 0.729340 0.355532
O O7 0.340021 0.666020 0.351874
O O8 0.121164 0.372481 0.180009
O O9 0.172289 0.522399 0.780023
O O10 0.500000 0.500000 0.000000
O O11 0.099733 0.432729 0.672316
O O12 0.977760 0.882950 0.477082
O O13 0.768846 0.964652 0.101144
O O14 0.075407 0.777217 0.721374
O O15 0.361287 0.907326 0.835014
O O16 0.321797 0.931579 0.384087
O O17 0.500000 0.000000 0.000000
#
# Coordination Sequence:
#
# PCOD9015499 Si02
#       8
#     2   2   2   2   2   2   2   2
#     4  11  23  39  63  96 123 165 212 264 306 374
#     4  10  21  42  63  91 126 164 211 257 314 376
#     4  11  22  41  67  89 127 169 211 258 318 371
#     4  10  23  40  65  92 128 168 204 257 316 366
#     4  11  22  41  66  90 125 170 208 260 318 371
#     4  10  24  42  63  94 127 165 208 256 310 379
#     4  10  23  41  62  90 125 165 208 263 316 366
#     4  11  23  41  66  95 127 162 210 256 312 369
#
# _framework density 20.667283000000001
#
# number of rings (size 3 to 8) (size 9 to 14) (size 15 to 20)
#    0.000    1.500    2.500    1.875    1.750    6.000 
#    0.000    1.250    0.000    0.000    0.000    0.000 
#    0.000    0.000    0.000    0.000    0.000    0.000 
#
# Total GULP energy -89464.397599 kJ/mol
# GULP energy per Si atom -5591.524850 kJ/mol
# Density = 2.062024 g / cm^3
# Si number density = 20.667283 Si / 1000 Ang^3
#
#
#
# Elastic Constant Matrix: (Units=GPa)
#
#
# Indices 1 2 3 4 5 6 
#
# 1 118.3857 24.3725 54.3066 20.0785 -3.8993 5.0724
# 2 24.3725 44.9935 16.6561 4.7862 2.0275 5.1936
# 3 54.3066 16.6561 67.1129 6.5907 -7.2814 -4.9230
# 4 20.0785 4.7862 6.5907 24.7458 3.0917 8.2837
# 5 -3.8993 2.0275 -7.2814 3.0917 26.0422 2.9998
# 6 5.0724 5.1936 -4.9230 8.2837 2.9998 39.7342
#
#
#
# Elastic Compliance Matrix: (Units=1/GPa)
#
#
# Indices 1 2 3 4 5 6 
#
# 1 0.015823 -0.003420 -0.011082 -0.008936 0.000729 -0.001138
# 2 -0.003420 0.026204 -0.004400 0.000435 -0.003446 -0.003364
# 3 -0.011082 -0.004400 0.025796 0.000764 0.005272 0.004628
# 4 -0.008936 0.000435 0.000764 0.051167 -0.006193 -0.009021
# 5 0.000729 -0.003446 0.005272 -0.006193 0.041078 -0.000799
# 6 -0.001138 -0.003364 0.004628 -0.009021 -0.000799 0.028267
#
#
# Mechanical properties :
#
#
# Convention : Reuss Voigt Hill
#
# Bulk Modulus (GPa) = 33.31060 46.79587 40.05323
# Shear Modulus (GPa) = 21.17363 27.11490 24.14427
#
# Velocity S-wave (km/s) = 3.20425 3.62605 3.42166
# Velocity P-wave (km/s) = 5.46280 6.34213 5.91882
#
# Compressibility (1/GPa) = 0.03002048
#
# Stress axis : x y z
#
# Youngs Moduli (GPa) = 63.20036 38.16237 38.76614
#
# Poissons Ratio (x) = 0.13050 0.42959
# Poissons Ratio (y) = 0.21612 0.17055
# Poissons Ratio (z) = 0.70037 0.16790
#
# Static dielectric constant tensor:
#      x y z
#    x 1.726660 0.003650 0.015540 
#    y 0.003650 1.755850 -0.010940 
#    z 0.015540 -0.010940 1.717740 
# 
# From -- ./inp_files/56826.got.cif
#   From: 2010.05.17/outbox.cif.g08.bks.cpg/sg2_29_cif.got.tgz:56826.got - 2010.06.03 11:33:40.
