data_PCOD9015241
_publ_section_title
;
Structure prediction by ZEFSAII (Michael W. Deem and Ramdas Pophale) SiO2 
 PCOD9015241
Probable space group: P -1
;
_chemical_formula_sum "Si O2"
_cell_formula_units_Z 14
_cell_length_a 5.331364
_cell_length_b 25.145256
_cell_length_c 14.731927
_cell_angle_alpha 20.838924
_cell_angle_beta 120.284348
_cell_angle_gamma 124.200303
_cell_volume 579.593447
_symmetry_space_group_name_H-M "P -1"
_symmetry_group_IT_number 2
_symmetry_cell_setting 'triclinic'
loop_
_space_group_symop_operation_xyz
x,y,z
-x,-y,-z
loop_
_atom_site_type_symbol
_atom_site_label
_atom_site_fract_x
_atom_site_fract_y
_atom_site_fract_z
Si Si1 0.646426 0.915186 0.585284
Si Si2 0.857006 0.320038 0.506598
Si Si3 0.072538 0.372305 0.276391
Si Si4 0.561440 0.964082 0.828727
Si Si5 0.505386 0.378438 0.617211
Si Si6 0.330271 0.435250 0.823091
Si Si7 0.739596 0.904366 0.275287
O O1 0.500000 0.000000 0.500000
O O2 0.485846 0.937545 0.425243
O O3 0.653072 0.740478 0.892474
O O4 0.000000 0.000000 0.500000
O O5 0.866794 0.499198 0.245560
O O6 0.554540 0.181742 0.705023
O O7 0.832701 0.293695 0.435588
O O8 0.166434 0.310140 0.622300
O O9 0.342370 0.465100 0.241710
O O10 0.179443 0.251426 0.427749
O O11 0.000000 0.500000 0.000000
O O12 0.367219 0.001135 0.817154
O O13 0.424025 0.776721 0.086406
O O14 0.927017 0.005244 0.847992
O O15 0.500000 0.500000 0.500000
O O16 0.713659 0.483808 0.408601
#
# Coordination Sequence:
#
# PCOD9015241 Si02
#       7
#     2   2   2   2   2   2   2
#     4  12  28  49  74 107 150 194 252 312 370 433
#     4  10  24  45  72 110 147 201 240 314 368 445
#     4  10  21  41  73 106 149 196 239 296 374 454
#     4  12  27  46  78 111 148 198 242 314 373 440
#     4  11  27  49  74 104 149 201 260 298 369 448
#     4  10  25  43  73 104 146 191 249 305 367 438
#     4  11  24  46  70 113 150 183 249 301 381 439
#
# _framework density 24.154865000000001
#
# number of rings (size 3 to 8) (size 9 to 14) (size 15 to 20)
#    0.000    1.143    1.429    2.571   10.000    2.857 
#    0.000    0.000    0.000    0.000    0.000    0.000 
#    0.000    0.000    0.000    0.000    0.000    0.000 
#
# Total GULP energy -78110.758200 kJ/mol
# GULP energy per Si atom -5579.339871 kJ/mol
# Density = 2.409989 g / cm^3
# Si number density = 24.154865 Si / 1000 Ang^3
#
#
#
# Elastic Constant Matrix: (Units=GPa)
#
#
# Indices 1 2 3 4 5 6 
#
# 1 137.2499 37.0101 45.2856 -14.8732 22.3047 -15.9975
# 2 37.0101 78.0327 25.4123 4.3967 6.6438 -12.7491
# 3 45.2856 25.4123 137.0273 -22.0372 -1.8141 -12.8551
# 4 -14.8732 4.3967 -22.0372 49.4198 -4.5341 8.2073
# 5 22.3047 6.6438 -1.8141 -4.5341 26.4753 -13.4894
# 6 -15.9975 -12.7491 -12.8551 8.2073 -13.4894 43.2079
#
#
#
# Elastic Compliance Matrix: (Units=1/GPa)
#
#
# Indices 1 2 3 4 5 6 
#
# 1 0.010626 -0.003669 -0.002758 0.001675 -0.008396 -0.000909
# 2 -0.003669 0.016035 -0.002079 -0.004042 0.000032 0.003532
# 3 -0.002758 -0.002079 0.009456 0.003700 0.005196 0.002098
# 4 0.001675 -0.004042 0.003700 0.023490 0.002230 -0.003238
# 5 -0.008396 0.000032 0.005196 0.002230 0.052997 0.014569
# 6 -0.000909 0.003532 0.002098 -0.003238 0.014569 0.029637
#
#
# Mechanical properties :
#
#
# Convention : Reuss Voigt Hill
#
# Bulk Modulus (GPa) = 52.34982 63.08068 57.71525
# Shear Modulus (GPa) = 30.18935 40.12739 35.15837
#
# Velocity S-wave (km/s) = 3.53912 4.08027 3.81929
# Velocity P-wave (km/s) = 6.19840 6.95485 6.58749
#
# Compressibility (1/GPa) = 0.01910226
#
# Stress axis : x y z
#
# Youngs Moduli (GPa) = 94.11284 62.36512 105.75839
#
# Poissons Ratio (x) = 0.22884 0.29169
# Poissons Ratio (y) = 0.34533 0.21990
# Poissons Ratio (z) = 0.25957 0.12967
#
# Static dielectric constant tensor:
#      x y z
#    x 2.177090 -0.003030 -0.056740 
#    y -0.003030 1.814190 -0.074580 
#    z -0.056740 -0.074580 1.889110 
# 
# From -- ./inp_files/485953.got.cif
#   From: 2010.05.17/outbox.cif.g08.bks.cpg/sg2_243_cif.got.tgz:485953.got - 2010.06.03 11:33:40.
