data_PCOD9015310
_publ_section_title
;
Structure prediction by ZEFSAII (Michael W. Deem and Ramdas Pophale) SiO2 
 PCOD9015310
Probable space group: P -1
;
_chemical_formula_sum "Si O2"
_cell_formula_units_Z 16
_cell_length_a 12.454927
_cell_length_b 15.690072
_cell_length_c 7.445122
_cell_angle_alpha 113.234484
_cell_angle_beta 107.471343
_cell_angle_gamma 28.447907
_cell_volume 633.230333
_symmetry_space_group_name_H-M "P -1"
_symmetry_group_IT_number 2
_symmetry_cell_setting 'triclinic'
loop_
_space_group_symop_operation_xyz
x,y,z
-x,-y,-z
loop_
_atom_site_type_symbol
_atom_site_label
_atom_site_fract_x
_atom_site_fract_y
_atom_site_fract_z
Si Si1 0.289856 0.794799 0.077860
Si Si2 0.336054 0.484067 0.659528
Si Si3 0.141380 0.110726 0.222844
Si Si4 0.004626 0.086743 0.701745
Si Si5 0.379970 0.966772 0.868873
Si Si6 0.270211 0.154366 0.623857
Si Si7 0.819270 0.551098 0.707772
Si Si8 0.361923 0.504377 0.289269
O O1 0.470839 0.656056 0.214813
O O2 0.070971 0.899466 0.132344
O O3 0.237093 0.940529 0.155334
O O4 0.413964 0.663597 0.858271
O O5 0.253378 0.441828 0.515133
O O6 0.409379 0.479856 0.505717
O O7 0.118412 0.691816 0.800033
O O8 0.148970 0.157582 0.456049
O O9 0.290063 0.050996 0.092292
O O10 0.820400 0.292632 0.708825
O O11 0.243917 0.969199 0.743559
O O12 0.000000 0.000000 0.500000
O O13 0.647198 0.756538 0.825688
O O14 0.314906 0.088821 0.791546
O O15 0.089522 0.367389 0.699588
O O16 0.500000 0.000000 0.500000
O O17 0.753541 0.516241 0.787386
#
# Coordination Sequence:
#
# PCOD9015310 Si02
#       8
#     2   2   2   2   2   2   2   2
#     4  12  23  39  64  95 132 178 226 263 310 376
#     4   9  20  37  61  86 125 171 211 265 314 369
#     4  11  23  41  68  98 125 176 221 256 335 394
#     4  12  24  39  65  98 135 181 228 265 316 377
#     4  12  23  45  67  90 137 175 209 277 323 381
#     4  11  25  46  72 100 128 161 215 276 333 401
#     4   9  20  43  65  89 128 167 207 263 330 385
#     4  10  21  42  58  92 131 174 225 263 318 378
#
# _framework density 25.267267
#
# number of rings (size 3 to 8) (size 9 to 14) (size 15 to 20)
#    0.750    0.500    2.500    4.125    0.000    2.000 
#    2.250    1.875    0.000    0.000    0.000    0.000 
#    0.000    0.000    0.000    0.000    0.000    0.000 
#
# Total GULP energy -89675.227002 kJ/mol
# GULP energy per Si atom -5604.701688 kJ/mol
# Density = 2.520976 g / cm^3
# Si number density = 25.267267 Si / 1000 Ang^3
#
#
#
# Elastic Constant Matrix: (Units=GPa)
#
#
# Indices 1 2 3 4 5 6 
#
# 1 58.1377 29.3912 21.2680 -7.2414 -4.2451 -12.6424
# 2 29.3912 162.8943 46.2739 17.7109 -14.6360 -4.7122
# 3 21.2680 46.2739 133.0482 13.7602 -20.0902 12.9812
# 4 -7.2414 17.7109 13.7602 38.2828 0.8241 -16.4975
# 5 -4.2451 -14.6360 -20.0902 0.8241 33.1471 10.0022
# 6 -12.6424 -4.7122 12.9812 -16.4975 10.0022 28.7810
#
#
#
# Elastic Compliance Matrix: (Units=1/GPa)
#
#
# Indices 1 2 3 4 5 6 
#
# 1 0.053137 -0.010105 -0.024557 0.058678 -0.038022 0.079611
# 2 -0.010105 0.009080 0.002880 -0.014093 0.009531 -0.015641
# 3 -0.024557 0.002880 0.024161 -0.038415 0.029907 -0.053626
# 4 0.058678 -0.014093 -0.038415 0.114233 -0.063565 0.128364
# 5 -0.038022 0.009531 0.029907 -0.063565 0.076914 -0.091796
# 6 0.079611 -0.015641 -0.053626 0.128364 -0.091796 0.196822
#
#
# Mechanical properties :
#
#
# Convention : Reuss Voigt Hill
#
# Bulk Modulus (GPa) = 43.83180 60.88293 52.35736
# Shear Modulus (GPa) = 9.16564 37.18533 23.17549
#
# Velocity S-wave (km/s) = 1.90666 3.84041 3.03184
# Velocity P-wave (km/s) = 4.71509 6.61913 5.74652
#
# Compressibility (1/GPa) = 0.02281448
#
# Stress axis : x y z
#
# Youngs Moduli (GPa) = 18.81940 110.13006 41.38883
#
# Poissons Ratio (x) = 1.11283 1.01639
# Poissons Ratio (y) = 0.19016 -0.11920
# Poissons Ratio (z) = 0.46215 -0.31717
#
# Static dielectric constant tensor:
#      x y z
#    x 2.076960 -0.086060 0.045710 
#    y -0.086060 1.997920 -0.010200 
#    z 0.045710 -0.010200 1.982700 
# 
# From -- ./inp_files/201633.got.cif
#   From: 2010.05.17/outbox.cif.g08.bks.cpg/sg2_101_cif.got.tgz:201633.got - 2010.06.03 11:33:40.
