data_PCOD9015418
_publ_section_title
;
Structure prediction by ZEFSAII (Michael W. Deem and Ramdas Pophale) SiO2 
 PCOD9015418
Probable space group: P -1
;
_chemical_formula_sum "Si O2"
_cell_formula_units_Z 14
_cell_length_a 8.832755
_cell_length_b 11.719031
_cell_length_c 11.751978
_cell_angle_alpha 48.913130
_cell_angle_beta 143.675966
_cell_angle_gamma 122.764162
_cell_volume 542.920022
_symmetry_space_group_name_H-M "P -1"
_symmetry_group_IT_number 2
_symmetry_cell_setting 'triclinic'
loop_
_space_group_symop_operation_xyz
x,y,z
-x,-y,-z
loop_
_atom_site_type_symbol
_atom_site_label
_atom_site_fract_x
_atom_site_fract_y
_atom_site_fract_z
Si Si1 0.286218 0.304468 0.744948
Si Si2 0.141183 0.596630 0.163919
Si Si3 0.688897 0.382317 0.131915
Si Si4 0.225692 0.094515 0.024332
Si Si5 0.557651 0.401289 0.426442
Si Si6 0.424497 0.868693 0.130076
Si Si7 0.456168 0.827250 0.633478
O O1 0.244461 0.479408 0.590627
O O2 0.358532 0.247580 0.700467
O O3 0.535812 0.303090 0.984650
O O4 0.115317 0.191819 0.789826
O O5 0.300354 0.488909 0.246442
O O6 0.315179 0.639841 0.351450
O O7 0.159292 0.769711 0.011495
O O8 0.911939 0.490491 0.142307
O O9 0.756179 0.256968 0.352782
O O10 0.500000 0.500000 0.000000
O O11 0.416367 0.968720 0.173437
O O12 0.321966 0.189551 0.127290
O O13 0.000000 0.000000 0.000000
O O14 0.510285 0.272890 0.391280
O O15 0.500000 0.000000 0.000000
O O16 0.500000 0.000000 0.500000
#
# Coordination Sequence:
#
# PCOD9015418 Si02
#       7
#     2   2   2   2   2   2   2
#     4   9  20  38  59  85 123 159 206 253 306 370
#     4  10  23  38  68  91 123 168 210 260 311 372
#     4  11  23  41  62  96 129 161 212 260 309 377
#     4  10  22  34  58  88 120 161 204 254 307 367
#     4  10  21  42  62  91 122 162 214 256 316 374
#     4   9  19  37  57  87 121 156 201 252 307 364
#     4  11  24  41  59  89 132 164 204 265 315 371
#
# _framework density 25.786487999999999
#
# number of rings (size 3 to 8) (size 9 to 14) (size 15 to 20)
#    0.000    2.000    1.429    0.857    4.000    5.143 
#    0.000    0.714    0.000    0.000    0.000    0.000 
#    0.000    0.000    0.000    0.000    0.000    0.000 
#
# Total GULP energy -77989.639954 kJ/mol
# GULP energy per Si atom -5570.688568 kJ/mol
# Density = 2.572780 g / cm^3
# Si number density = 25.786488 Si / 1000 Ang^3
#
#
#
# Elastic Constant Matrix: (Units=GPa)
#
#
# Indices 1 2 3 4 5 6 
#
# 1 155.2921 60.0430 23.8779 -5.9320 -28.5594 3.2927
# 2 60.0430 142.3431 5.7663 -39.9592 -13.7481 -11.0279
# 3 23.8779 5.7663 74.3355 -13.1440 -35.7087 -4.0006
# 4 -5.9320 -39.9592 -13.1440 44.2042 4.4240 -21.0677
# 5 -28.5594 -13.7481 -35.7087 4.4240 41.1096 -3.6004
# 6 3.2927 -11.0279 -4.0006 -21.0677 -3.6004 68.8265
#
#
#
# Elastic Compliance Matrix: (Units=1/GPa)
#
#
# Indices 1 2 3 4 5 6 
#
# 1 0.009354 -0.005649 -0.002545 -0.006479 0.002803 -0.003337
# 2 -0.005649 0.016309 0.008248 0.020473 0.007367 0.010015
# 3 -0.002545 0.008248 0.029774 0.018198 0.025778 0.010093
# 4 -0.006479 0.020473 0.018198 0.054816 0.014195 0.022170
# 5 0.002803 0.007367 0.025778 0.014195 0.050435 0.009528
# 6 -0.003337 0.010015 0.010093 0.022170 0.009528 0.024165
#
#
# Mechanical properties :
#
#
# Convention : Reuss Voigt Hill
#
# Bulk Modulus (GPa) = 18.00387 61.26057 39.63222
# Shear Modulus (GPa) = 24.59895 49.64698 37.12297
#
# Velocity S-wave (km/s) = 3.09195 4.39260 3.79836
# Velocity P-wave (km/s) = 4.44342 7.03811 5.88553
#
# Compressibility (1/GPa) = 0.05554360
#
# Stress axis : x y z
#
# Youngs Moduli (GPa) = 106.90752 61.31666 33.58592
#
# Poissons Ratio (x) = 0.34639 0.08548
# Poissons Ratio (y) = 0.60395 -0.27700
# Poissons Ratio (z) = 0.27209 -0.50572
#
# Static dielectric constant tensor:
#      x y z
#    x 2.246630 0.082930 0.153980 
#    y 0.082930 2.466140 -0.258730 
#    z 0.153980 -0.258730 2.508970 
# 
# From -- ./inp_files/389213.got.cif
#   From: 2010.05.17/outbox.cif.g08.bks.cpg/sg2_195_cif.got.tgz:389213.got - 2010.06.03 11:33:40.
