data_PCOD9015651
_publ_section_title
;
Structure prediction by ZEFSAII (Michael W. Deem and Ramdas Pophale) SiO2 
 PCOD9015651
Probable space group: P -1
;
_chemical_formula_sum "Si O2"
_cell_formula_units_Z 12
_cell_length_a 12.681857
_cell_length_b 9.557223
_cell_length_c 5.036470
_cell_angle_alpha 111.221988
_cell_angle_beta 66.394303
_cell_angle_gamma 110.502018
_cell_volume 506.141858
_symmetry_space_group_name_H-M "P -1"
_symmetry_group_IT_number 2
_symmetry_cell_setting 'triclinic'
loop_
_space_group_symop_operation_xyz
x,y,z
-x,-y,-z
loop_
_atom_site_type_symbol
_atom_site_label
_atom_site_fract_x
_atom_site_fract_y
_atom_site_fract_z
Si Si1 0.371254 0.570465 0.774023
Si Si2 0.097192 0.086992 0.676524
Si Si3 0.564731 0.091671 0.248458
Si Si4 0.766738 0.940258 0.977344
Si Si5 0.883649 0.563362 0.197391
Si Si6 0.318015 0.401800 0.217835
O O1 0.431104 0.731768 0.693810
O O2 0.227622 0.553029 0.905874
O O3 0.380447 0.435558 0.464117
O O4 0.386232 0.530197 0.034169
O O5 0.209307 0.084619 0.374193
O O6 0.088904 0.263716 0.831371
O O7 0.125379 0.025710 0.894880
O O8 0.000000 0.000000 0.500000
O O9 0.500000 0.000000 0.500000
O O10 0.500000 0.000000 0.000000
O O11 0.697840 0.073026 0.142451
O O12 0.691366 0.767366 0.007585
O O13 0.817944 0.585082 0.562151
O O14 0.000000 0.500000 0.000000
#
# Coordination Sequence:
#
# PCOD9015651 Si02
#       6
#     2   2   2   2   2   2
#     4  10  21  42  64  91 131 166 217 273 322 386
#     4  11  23  40  65  99 133 177 217 253 332 398
#     4  12  27  46  69 100 127 172 228 282 342 383
#     4  11  22  46  64  91 137 171 212 284 316 392
#     4   9  21  38  63  96 130 172 218 258 318 392
#     4   9  19  40  65  88 128 172 211 259 330 381
#
# _framework density 23.708770000000001
#
# number of rings (size 3 to 8) (size 9 to 14) (size 15 to 20)
#    1.000    0.667    1.667    2.500    2.333    0.667 
#    0.000    5.000    0.000    0.000    0.000    0.000 
#    0.000    0.000    0.000    0.000    0.000    0.000 
#
# Total GULP energy -66870.480824 kJ/mol
# GULP energy per Si atom -5572.540069 kJ/mol
# Density = 2.365481 g / cm^3
# Si number density = 23.708770 Si / 1000 Ang^3
#
#
#
# Elastic Constant Matrix: (Units=GPa)
#
#
# Indices 1 2 3 4 5 6 
#
# 1 99.5500 31.0647 34.2079 6.5905 11.8162 -21.4014
# 2 31.0647 97.4522 31.4263 1.6668 4.9824 -5.9701
# 3 34.2079 31.4263 98.9596 -21.7124 21.2955 -19.5665
# 4 6.5905 1.6668 -21.7124 33.7773 -5.8314 6.0742
# 5 11.8162 4.9824 21.2955 -5.8314 48.8514 11.6144
# 6 -21.4014 -5.9701 -19.5665 6.0742 11.6144 35.6068
#
#
#
# Elastic Compliance Matrix: (Units=1/GPa)
#
#
# Indices 1 2 3 4 5 6 
#
# 1 0.015245 -0.002938 -0.002756 -0.007386 -0.005495 0.010208
# 2 -0.002938 0.012345 -0.004079 -0.002029 0.001480 -0.002074
# 3 -0.002756 -0.004079 0.017608 0.009307 -0.007424 0.008169
# 4 -0.007386 -0.002029 0.009307 0.039314 0.004492 -0.007837
# 5 -0.005495 0.001480 -0.007424 0.004492 0.029594 -0.017554
# 6 0.010208 -0.002074 0.008169 -0.007837 -0.017554 0.045424
#
#
# Mechanical properties :
#
#
# Convention : Reuss Voigt Hill
#
# Bulk Modulus (GPa) = 38.98365 54.37328 46.67846
# Shear Modulus (GPa) = 26.64840 36.93132 31.78986
#
# Velocity S-wave (km/s) = 3.35623 3.95106 3.66573
# Velocity P-wave (km/s) = 5.61226 6.61802 6.13578
#
# Compressibility (1/GPa) = 0.02565178
#
# Stress axis : x y z
#
# Youngs Moduli (GPa) = 65.59593 81.00269 56.79159
#
# Poissons Ratio (x) = 0.23799 0.15654
# Poissons Ratio (y) = 0.19273 0.23164
# Poissons Ratio (z) = 0.18081 0.33039
#
# Static dielectric constant tensor:
#      x y z
#    x 2.087480 0.086640 -0.085020 
#    y 0.086640 1.925920 -0.056780 
#    z -0.085020 -0.056780 1.942920 
# 
# From -- ./inp_files/32071.got.cif
#   From: 2010.05.17/outbox.cif.g08.bks.cpg/sg2_17_cif.got.tgz:32071.got - 2010.06.03 11:33:40.
