data_PCOD9015996
_publ_section_title
;
Structure prediction by ZEFSAII (Michael W. Deem and Ramdas Pophale) SiO2 
 PCOD9015996
Probable space group: P -1
;
_chemical_formula_sum "Si O2"
_cell_formula_units_Z 16
_cell_length_a 26.025253
_cell_length_b 8.189768
_cell_length_c 14.828850
_cell_angle_alpha 133.329914
_cell_angle_beta 158.039744
_cell_angle_gamma 37.650782
_cell_volume 705.807703
_symmetry_space_group_name_H-M "P -1"
_symmetry_group_IT_number 2
_symmetry_cell_setting 'triclinic'
loop_
_space_group_symop_operation_xyz
x,y,z
-x,-y,-z
loop_
_atom_site_type_symbol
_atom_site_label
_atom_site_fract_x
_atom_site_fract_y
_atom_site_fract_z
Si Si1 0.115107 0.268531 0.349809
Si Si2 0.201552 0.152922 0.961828
Si Si3 0.258111 0.916537 0.770149
Si Si4 0.343194 0.578147 0.058605
Si Si5 0.768622 0.093419 0.770372
Si Si6 0.590197 0.675818 0.117258
Si Si7 0.448104 0.309128 0.425970
Si Si8 0.964943 0.175151 0.246955
O O1 0.287870 0.230591 0.636232
O O2 0.043234 0.233288 0.311763
O O3 0.976954 0.573336 0.205514
O O4 0.149522 0.062816 0.247543
O O5 0.216413 0.105768 0.860622
O O6 0.347813 0.183952 0.245360
O O7 0.231577 0.882215 0.949566
O O8 0.321635 0.619022 0.801144
O O9 0.102176 0.031282 0.493538
O O10 0.411874 0.872631 0.947359
O O11 0.479775 0.583605 0.342178
O O12 0.422637 0.371815 0.027160
O O13 0.206416 0.569163 0.890409
O O14 0.609845 0.097481 0.548040
O O15 0.685705 0.415609 0.741694
O O16 0.902032 0.001305 0.032333
#
# Coordination Sequence:
#
# PCOD9015996 Si02
#       8
#     2   2   2   2   2   2   2   2
#     4  12  24  39  65  90 127 161 205 248 305 365
#     4  11  22  40  65  94 122 162 202 253 302 366
#     4  10  23  42  64  88 128 157 204 254 308 357
#     4  10  23  41  65  90 125 161 205 249 308 355
#     4  10  23  42  61  92 127 160 199 257 306 353
#     4  10  23  43  62  92 121 164 202 256 302 362
#     4  10  21  42  66  89 124 161 204 253 301 361
#     4  11  23  41  60  91 125 161 201 250 303 361
#
# _framework density 22.669063000000001
#
# number of rings (size 3 to 8) (size 9 to 14) (size 15 to 20)
#    0.000    1.500    1.250    3.000    1.750    4.500 
#    0.000    6.875    0.000    0.000    0.000    0.000 
#    0.000    0.000    0.000    0.000    0.000    0.000 
#
# Total GULP energy -89520.926479 kJ/mol
# GULP energy per Si atom -5595.057905 kJ/mol
# Density = 2.261747 g / cm^3
# Si number density = 22.669063 Si / 1000 Ang^3
#
#
#
# Elastic Constant Matrix: (Units=GPa)
#
#
# Indices 1 2 3 4 5 6 
#
# 1 122.4278 19.8915 57.0761 9.3055 -1.3616 -27.0055
# 2 19.8915 46.6091 26.5756 -7.5897 2.2349 -15.3338
# 3 57.0761 26.5756 159.2753 3.0126 -2.3501 -15.8255
# 4 9.3055 -7.5897 3.0126 21.8541 5.0145 -2.0079
# 5 -1.3616 2.2349 -2.3501 5.0145 42.9908 6.2838
# 6 -27.0055 -15.3338 -15.8255 -2.0079 6.2838 27.8628
#
#
#
# Elastic Compliance Matrix: (Units=1/GPa)
#
#
# Indices 1 2 3 4 5 6 
#
# 1 0.012173 -0.000932 -0.003214 -0.004064 -0.000628 0.009309
# 2 -0.000932 0.032465 -0.003740 0.015210 -0.006230 0.017341
# 3 -0.003214 -0.003740 0.008001 -0.001303 0.000815 -0.000907
# 4 -0.004064 0.015210 -0.001303 0.055894 -0.008933 0.009733
# 5 -0.000628 -0.006230 0.000815 -0.008933 0.026129 -0.010112
# 6 0.009309 0.017341 -0.000907 0.009733 -0.010112 0.056923
#
#
# Mechanical properties :
#
#
# Convention : Reuss Voigt Hill
#
# Bulk Modulus (GPa) = 27.12369 59.48875 43.30622
# Shear Modulus (GPa) = 22.76384 33.52615 28.14499
#
# Velocity S-wave (km/s) = 3.17232 3.84987 3.52740
# Velocity P-wave (km/s) = 5.04075 6.78684 5.97789
#
# Compressibility (1/GPa) = 0.03686813
#
# Stress axis : x y z
#
# Youngs Moduli (GPa) = 82.14660 30.80216 124.98695
#
# Poissons Ratio (x) = 0.02870 0.40175
# Poissons Ratio (y) = 0.07653 0.46742
# Poissons Ratio (z) = 0.26404 0.11519
#
# Static dielectric constant tensor:
#      x y z
#    x 1.867990 0.033730 -0.000900 
#    y 0.033730 1.810680 -0.002110 
#    z -0.000900 -0.002110 1.821030 
# 
# From -- ./inp_files/174985.got.cif
#   From: 2010.05.17/outbox.cif.g08.bks.cpg/sg2_88_cif.got.tgz:174985.got - 2010.06.03 11:33:40.
