data_PCOD9015924
_publ_section_title
;
Structure prediction by ZEFSAII (Michael W. Deem and Ramdas Pophale) SiO2 
 PCOD9015924
Probable space group: P -1
;
_chemical_formula_sum "Si O2"
_cell_formula_units_Z 16
_cell_length_a 15.643729
_cell_length_b 10.955887
_cell_length_c 7.075917
_cell_angle_alpha 116.909821
_cell_angle_beta 132.688426
_cell_angle_gamma 55.058221
_cell_volume 726.570207
_symmetry_space_group_name_H-M "P -1"
_symmetry_group_IT_number 2
_symmetry_cell_setting 'triclinic'
loop_
_space_group_symop_operation_xyz
x,y,z
-x,-y,-z
loop_
_atom_site_type_symbol
_atom_site_label
_atom_site_fract_x
_atom_site_fract_y
_atom_site_fract_z
Si Si1 0.504912 0.157187 0.184329
Si Si2 0.849945 0.858114 0.946862
Si Si3 0.079702 0.594572 0.242042
Si Si4 0.681345 0.682520 0.657547
Si Si5 0.553577 0.617781 0.084311
Si Si6 0.802325 0.341151 0.209571
Si Si7 0.850196 0.080676 0.378781
Si Si8 0.226089 0.885892 0.284452
O O1 0.380529 0.248012 0.188640
O O2 0.626635 0.140315 0.483562
O O3 0.510034 0.259971 0.086697
O O4 0.500000 0.000000 0.000000
O O5 0.765166 0.763337 0.748455
O O6 0.837134 0.962610 0.823719
O O7 0.996717 0.749394 0.125074
O O8 0.798027 0.968187 0.125323
O O9 0.222287 0.493465 0.314879
O O10 0.084047 0.626831 0.496475
O O11 0.000000 0.500000 0.000000
O O12 0.573062 0.699454 0.356363
O O13 0.690859 0.503438 0.132098
O O14 0.500000 0.500000 0.000000
O O15 0.785708 0.238055 0.283031
O O16 0.803185 0.241392 0.960493
O O17 0.828276 0.093835 0.574360
O O18 0.000000 0.000000 0.500000
#
# Coordination Sequence:
#
# PCOD9015924 Si02
#       8
#     2   2   2   2   2   2   2   2
#     4  12  26  45  69 102 135 182 232 281 345 407
#     4  10  21  42  65  98 133 176 227 273 346 404
#     4   9  19  41  66  91 131 174 216 273 338 401
#     4  10  23  42  69  96 135 176 221 285 337 406
#     4  11  24  43  68  97 136 180 230 279 340 403
#     4  10  22  40  63  99 131 169 225 276 340 399
#     4  11  22  41  63  96 135 179 224 281 338 402
#     4  11  25  39  67  98 136 177 227 282 341 407
#
# _framework density 22.021270000000001
#
# number of rings (size 3 to 8) (size 9 to 14) (size 15 to 20)
#    0.000    1.500    1.250    3.000    0.000   10.000 
#    2.250    0.000    0.000    7.500    0.000    0.000 
#    0.000    0.000    0.000    0.000    0.000    0.000 
#
# Total GULP energy -89281.985706 kJ/mol
# GULP energy per Si atom -5580.124107 kJ/mol
# Density = 2.197115 g / cm^3
# Si number density = 22.021270 Si / 1000 Ang^3
#
#
#
# Elastic Constant Matrix: (Units=GPa)
#
#
# Indices 1 2 3 4 5 6 
#
# 1 40.8314 9.4161 12.0558 11.9160 -24.6481 -6.5848
# 2 9.4161 123.3209 51.3987 0.3789 -17.6090 1.6664
# 3 12.0558 51.3987 132.4196 12.2685 -20.6721 2.4176
# 4 11.9160 0.3789 12.2685 47.3521 1.2090 5.5968
# 5 -24.6481 -17.6090 -20.6721 1.2090 41.6961 4.2896
# 6 -6.5848 1.6664 2.4176 5.5968 4.2896 28.1213
#
#
#
# Elastic Compliance Matrix: (Units=1/GPa)
#
#
# Indices 1 2 3 4 5 6 
#
# 1 0.046105 -0.000236 0.001244 -0.013715 0.027214 0.009281
# 2 -0.000236 0.009951 -0.003542 0.000942 0.002371 -0.000890
# 3 0.001244 -0.003542 0.009741 -0.002868 0.004194 -0.000405
# 4 -0.013715 0.000942 -0.002868 0.026351 -0.009189 -0.006863
# 5 0.027214 0.002371 0.004194 -0.009189 0.043305 0.001094
# 6 0.009281 -0.000890 -0.000405 -0.006863 0.001094 0.039020
#
#
# Mechanical properties :
#
#
# Convention : Reuss Voigt Hill
#
# Bulk Modulus (GPa) = 16.46658 49.14589 32.80623
# Shear Modulus (GPa) = 25.02697 38.34732 31.68715
#
# Velocity S-wave (km/s) = 3.37484 4.17751 3.79744
# Velocity P-wave (km/s) = 4.76234 6.75534 5.84442
#
# Compressibility (1/GPa) = 0.06072905
#
# Stress axis : x y z
#
# Youngs Moduli (GPa) = 21.68940 100.49414 102.65844
#
# Poissons Ratio (x) = 0.02372 -0.12768
# Poissons Ratio (y) = 0.00512 0.36360
# Poissons Ratio (z) = -0.02698 0.35593
#
# Static dielectric constant tensor:
#      x y z
#    x 1.853820 -0.007220 0.077060 
#    y -0.007220 1.836940 0.028200 
#    z 0.077060 0.028200 1.873670 
# 
# From -- ./inp_files/109886.got.cif
#   From: 2010.05.17/outbox.cif.g08.bks.cpg/sg2_55_cif.got.tgz:109886.got - 2010.06.03 11:33:40.
