data_PCOD9015472
_publ_section_title
;
Structure prediction by ZEFSAII (Michael W. Deem and Ramdas Pophale) SiO2 
 PCOD9015472
Probable space group: P -1
;
_chemical_formula_sum "Si O2"
_cell_formula_units_Z 12
_cell_length_a 9.927721
_cell_length_b 16.206923
_cell_length_c 10.793708
_cell_angle_alpha 150.472002
_cell_angle_beta 34.602438
_cell_angle_gamma 133.394478
_cell_volume 483.410450
_symmetry_space_group_name_H-M "P -1"
_symmetry_group_IT_number 2
_symmetry_cell_setting 'triclinic'
loop_
_space_group_symop_operation_xyz
x,y,z
-x,-y,-z
loop_
_atom_site_type_symbol
_atom_site_label
_atom_site_fract_x
_atom_site_fract_y
_atom_site_fract_z
Si Si1 0.249041 0.356811 0.512059
Si Si2 0.387776 0.422502 0.106639
Si Si3 0.195266 0.032092 0.994345
Si Si4 0.035033 0.278545 0.796780
Si Si5 0.622577 0.211592 0.863304
Si Si6 0.060099 0.734838 0.868342
O O1 0.082366 0.528160 0.855434
O O2 0.491927 0.343719 0.235486
O O3 0.270855 0.292137 0.553212
O O4 0.125960 0.215983 0.343928
O O5 0.584448 0.310219 0.892141
O O6 0.249928 0.570385 0.488129
O O7 0.178943 0.308180 0.077862
O O8 0.500000 0.500000 0.000000
O O9 0.181281 0.887342 0.915598
O O10 0.463656 0.054410 0.774070
O O11 0.000000 0.000000 0.000000
O O12 0.871790 0.175965 0.697254
O O13 0.023613 0.224729 0.875624
#
# Coordination Sequence:
#
# PCOD9015472 Si02
#       6
#     2   2   2   2   2   2
#     4   9  22  39  63  89 127 163 200 246 313 357
#     4  11  25  39  64  91 121 166 209 248 300 367
#     4  10  21  42  63  85 132 166 189 257 315 351
#     4  11  22  38  68  92 118 166 209 247 300 367
#     4  10  22  42  62  90 124 159 203 252 303 363
#     4  11  23  42  60  92 128 155 207 259 297 362
#
# _framework density 24.823623999999999
#
# number of rings (size 3 to 8) (size 9 to 14) (size 15 to 20)
#    1.000    0.667    3.333    0.500    7.000    1.333 
#    3.000    1.667    0.000    0.000    0.000    0.000 
#    0.000    0.000    0.000    0.000    0.000    0.000 
#
# Total GULP energy -67012.374072 kJ/mol
# GULP energy per Si atom -5584.364506 kJ/mol
# Density = 2.476712 g / cm^3
# Si number density = 24.823624 Si / 1000 Ang^3
#
#
#
# Elastic Constant Matrix: (Units=GPa)
#
#
# Indices 1 2 3 4 5 6 
#
# 1 109.6848 40.8112 17.9158 7.2467 20.1566 0.7789
# 2 40.8112 132.1596 12.5143 7.4341 14.1254 -20.7668
# 3 17.9158 12.5143 47.7594 -2.9631 4.0430 -2.6059
# 4 7.2467 7.4341 -2.9631 44.3837 -3.6969 19.8903
# 5 20.1566 14.1254 4.0430 -3.6969 23.7022 -3.5426
# 6 0.7789 -20.7668 -2.6059 19.8903 -3.5426 44.2392
#
#
#
# Elastic Compliance Matrix: (Units=1/GPa)
#
#
# Indices 1 2 3 4 5 6 
#
# 1 0.012455 -0.002716 -0.003406 -0.001840 -0.008916 -0.001581
# 2 -0.002716 0.010155 -0.001292 -0.004535 -0.003255 0.006517
# 3 -0.003406 -0.001292 0.022678 0.002429 0.000134 -0.000292
# 4 -0.001840 -0.004535 0.002429 0.031224 0.006410 -0.015479
# 5 -0.008916 -0.003255 0.000134 0.006410 0.052685 -0.000026
# 6 -0.001581 0.006517 -0.000292 -0.015479 -0.000026 0.032631
#
#
# Mechanical properties :
#
#
# Convention : Reuss Voigt Hill
#
# Bulk Modulus (GPa) = 32.83074 48.00959 40.42017
# Shear Modulus (GPa) = 26.76515 37.02251 31.89383
#
# Velocity S-wave (km/s) = 3.28718 3.86608 3.58832
# Velocity P-wave (km/s) = 5.25944 6.26985 5.78674
#
# Compressibility (1/GPa) = 0.03045926
#
# Stress axis : x y z
#
# Youngs Moduli (GPa) = 80.28825 98.47690 44.09531
#
# Poissons Ratio (x) = 0.26743 0.15020
# Poissons Ratio (y) = 0.21804 0.05699
# Poissons Ratio (z) = 0.27349 0.12727
#
# Static dielectric constant tensor:
#      x y z
#    x 1.978050 0.051700 -0.017710 
#    y 0.051700 2.100890 -0.084710 
#    z -0.017710 -0.084710 2.029070 
# 
# From -- ./inp_files/204641.got.cif
#   From: 2010.05.17/outbox.cif.g08.bks.cpg/sg2_103_cif.got.tgz:204641.got - 2010.06.03 11:33:40.
