data_PCOD9015140
_publ_section_title
;
Structure prediction by ZEFSAII (Michael W. Deem and Ramdas Pophale) SiO2 
 PCOD9015140
Probable space group: P -1
;
_chemical_formula_sum "Si O2"
_cell_formula_units_Z 15
_cell_length_a 11.430344
_cell_length_b 16.860873
_cell_length_c 14.678060
_cell_angle_alpha 31.721019
_cell_angle_beta 150.870453
_cell_angle_gamma 148.897190
_cell_volume 649.347416
_symmetry_space_group_name_H-M "P -1"
_symmetry_group_IT_number 2
_symmetry_cell_setting 'triclinic'
loop_
_space_group_symop_operation_xyz
x,y,z
-x,-y,-z
loop_
_atom_site_type_symbol
_atom_site_label
_atom_site_fract_x
_atom_site_fract_y
_atom_site_fract_z
Si Si1 0.413656 0.659583 0.968784
Si Si2 0.912671 0.378794 0.859311
Si Si3 0.814941 0.072175 0.622131
Si Si4 0.578922 0.846575 0.350052
Si Si5 0.045345 0.347178 0.644224
Si Si6 0.027723 0.074885 0.296053
Si Si7 0.000000 0.500000 0.000000
Si Si8 0.758129 0.024046 0.892107
O O1 0.640976 0.597616 0.188622
O O2 0.259569 0.624851 0.993824
O O3 0.184224 0.541348 0.859584
O O4 0.575473 0.858166 0.872326
O O5 0.660744 0.328536 0.671951
O O6 0.851230 0.414767 0.884976
O O7 0.977383 0.217928 0.070271
O O8 0.947612 0.264661 0.559218
O O9 0.500000 0.000000 0.500000
O O10 0.858635 0.022783 0.597655
O O11 0.998573 0.001645 0.872138
O O12 0.767224 0.834635 0.569615
O O13 0.437305 0.955734 0.186758
O O14 0.762116 0.940163 0.297146
O O15 0.881074 0.191144 0.752671
O O16 0.000000 0.500000 0.500000
#
# Coordination Sequence:
#
# PCOD9015140 Si02
#       8
#     2   2   2   2   2   2   1   2
#     4   9  21  39  70 102 135 189 233 296 356 432
#     4  10  21  41  71  98 144 186 237 295 364 419
#     4  11  24  42  73 102 149 191 241 302 362 435
#     4  11  24  41  73 106 143 194 241 298 358 435
#     4  11  26  45  74 103 144 190 244 310 360 439
#     4  11  24  41  71 108 149 191 242 298 356 439
#     4   8  20  34  72  98 142 178 238 296 354 432
#     4  11  23  46  74 104 141 196 246 294 375 432
#
# _framework density 23.100114000000001
#
# number of rings (size 3 to 8) (size 9 to 14) (size 15 to 20)
#    0.800    0.800    1.333    3.600    7.467    0.000 
#    0.000    6.000    0.000    0.000    0.000    0.000 
#    0.000    0.000    0.000    0.000    0.000    0.000 
#
# Total GULP energy -83555.018171 kJ/mol
# GULP energy per Si atom -5570.334545 kJ/mol
# Density = 2.304754 g / cm^3
# Si number density = 23.100114 Si / 1000 Ang^3
#
#
#
# Elastic Constant Matrix: (Units=GPa)
#
#
# Indices 1 2 3 4 5 6 
#
# 1 100.4831 17.5927 8.7351 0.5779 0.5983 14.1825
# 2 17.5927 148.1036 32.4473 32.1893 -15.7986 5.7472
# 3 8.7351 32.4473 75.9909 4.2951 -13.0383 16.0571
# 4 0.5779 32.1893 4.2951 34.5227 2.8274 0.7882
# 5 0.5983 -15.7986 -13.0383 2.8274 9.5391 12.0668
# 6 14.1825 5.7472 16.0571 0.7882 12.0668 41.2664
#
#
#
# Elastic Compliance Matrix: (Units=1/GPa)
#
#
# Indices 1 2 3 4 5 6 
#
# 1 0.010419 -0.004259 -0.005060 0.006247 -0.023862 0.005839
# 2 -0.004259 -0.021364 -0.058802 0.046115 -0.258054 0.101897
# 3 -0.005060 -0.058802 -0.083041 0.099060 -0.461790 0.175382
# 4 0.006247 0.046115 0.099060 -0.059702 0.455854 -0.179272
# 5 -0.023862 -0.258054 -0.461790 0.455854 -2.157566 0.846019
# 6 0.005839 0.101897 0.175382 -0.179272 0.846019 -0.304170
#
#
# Mechanical properties :
#
#
# Convention : Reuss Voigt Hill
#
# Bulk Modulus (GPa) = -4.34353 49.12531 22.39089
# Shear Modulus (GPa) = -1.95624 34.78581 16.41478
#
# Velocity S-wave (km/s) = -0.92124 3.88477 2.66859
# Velocity P-wave (km/s) = 1.73666 6.43695 4.38283
#
# Compressibility (1/GPa) = -0.23022766
#
# Stress axis : x y z
#
# Youngs Moduli (GPa) = 95.97465 -46.80835 -12.04223
#
# Poissons Ratio (x) = -0.19935 -0.06094
# Poissons Ratio (y) = 0.40874 -0.70811
# Poissons Ratio (z) = 0.48566 -2.75243
#
# Static dielectric constant tensor:
#      x y z
#    x 1.870530 -0.027530 -0.032590 
#    y -0.027530 1.880240 0.002400 
#    z -0.032590 0.002400 1.911920 
# 
# From -- ./inp_files/523223.got.cif
#   From: 2010.05.17/outbox.cif.g08.bks.cpg/sg2_262_cif.got.tgz:523223.got - 2010.06.03 11:33:40.
