data_PCOD9015515
_publ_section_title
;
Structure prediction by ZEFSAII (Michael W. Deem and Ramdas Pophale) SiO2 
 PCOD9015515
Probable space group: P -1
;
_chemical_formula_sum "Si O2"
_cell_formula_units_Z 16
_cell_length_a 11.365015
_cell_length_b 7.792745
_cell_length_c 8.236610
_cell_angle_alpha 84.166214
_cell_angle_beta 55.864891
_cell_angle_gamma 72.256765
_cell_volume 572.844500
_symmetry_space_group_name_H-M "P -1"
_symmetry_group_IT_number 2
_symmetry_cell_setting 'triclinic'
loop_
_space_group_symop_operation_xyz
x,y,z
-x,-y,-z
loop_
_atom_site_type_symbol
_atom_site_label
_atom_site_fract_x
_atom_site_fract_y
_atom_site_fract_z
Si Si1 0.345692 0.145396 0.169019
Si Si2 0.376851 0.446459 0.928341
Si Si3 0.920766 0.446722 0.278280
Si Si4 0.329695 0.942737 0.537603
Si Si5 0.913099 0.277331 0.963228
Si Si6 0.886030 0.029469 0.737545
Si Si7 0.279701 0.663951 0.366770
Si Si8 0.664046 0.763068 0.313198
O O1 0.335602 0.077891 0.369656
O O2 0.196294 0.124247 0.199361
O O3 0.352063 0.352121 0.126340
O O4 0.500000 0.000000 0.000000
O O5 0.545703 0.440245 0.766341
O O6 0.348790 0.286967 0.855725
O O7 0.264672 0.628068 0.926886
O O8 0.871685 0.389372 0.492923
O O9 0.758554 0.582403 0.341511
O O10 0.025338 0.573608 0.189544
O O11 0.961369 0.305491 0.109223
O O12 0.264644 0.795885 0.524120
O O13 0.492187 0.832806 0.489310
O O14 0.260531 0.081001 0.721788
O O15 0.948722 0.093692 0.847789
O O16 0.748962 0.205447 0.777972
O O17 0.000000 0.000000 0.500000
#
# Coordination Sequence:
#
# PCOD9015515 Si02
#       8
#     2   2   2   2   2   2   2   2
#     4  11  20  42  64  94 128 161 208 263 315 371
#     4  10  21  42  63  92 131 160 210 261 314 374
#     4  10  23  43  64  91 128 169 213 256 313 372
#     4   9  19  34  59  93 123 158 206 255 312 361
#     4  10  25  45  63  93 128 171 211 260 316 373
#     4  11  26  44  64  94 128 167 213 260 319 381
#     4  10  22  41  61  97 126 162 211 260 312 379
#     4   9  18  35  59  88 120 165 204 251 305 370
#
# _framework density 27.930790999999999
#
# number of rings (size 3 to 8) (size 9 to 14) (size 15 to 20)
#    0.000    2.000    3.750    0.000    5.250    7.500 
#    4.500    0.625    0.000    0.000    0.000    0.000 
#    0.000    0.000    0.000    0.000    0.000    0.000 
#
# Total GULP energy -89326.160948 kJ/mol
# GULP energy per Si atom -5582.885059 kJ/mol
# Density = 2.786722 g / cm^3
# Si number density = 27.930791 Si / 1000 Ang^3
#
#
#
# Elastic Constant Matrix: (Units=GPa)
#
#
# Indices 1 2 3 4 5 6 
#
# 1 114.0610 18.9167 24.1400 19.5484 9.1579 26.1841
# 2 18.9167 46.5057 21.9336 8.5785 6.7784 11.0395
# 3 24.1400 21.9336 107.9820 0.2522 -12.2288 34.6852
# 4 19.5484 8.5785 0.2522 43.5444 15.3865 3.7687
# 5 9.1579 6.7784 -12.2288 15.3865 31.8417 13.6215
# 6 26.1841 11.0395 34.6852 3.7687 13.6215 59.0856
#
#
#
# Elastic Compliance Matrix: (Units=1/GPa)
#
#
# Indices 1 2 3 4 5 6 
#
# 1 0.010893 -0.002593 -0.000479 -0.004414 0.001092 -0.004032
# 2 -0.002593 0.026387 -0.006058 -0.001638 -0.007051 0.001505
# 3 -0.000479 -0.006058 0.015492 -0.002380 0.013066 -0.010610
# 4 -0.004414 -0.001638 -0.002380 0.030617 -0.016442 0.005497
# 5 0.001092 -0.007051 0.013066 -0.016442 0.053287 -0.018073
# 6 -0.004032 0.001505 -0.010610 0.005497 -0.018073 0.028475
#
#
# Mechanical properties :
#
#
# Convention : Reuss Voigt Hill
#
# Bulk Modulus (GPa) = 28.97612 44.28103 36.62858
# Shear Modulus (GPa) = 25.65211 40.46488 33.05849
#
# Velocity S-wave (km/s) = 3.03383 3.81038 3.44406
# Velocity P-wave (km/s) = 4.76119 5.93691 5.38126
#
# Compressibility (1/GPa) = 0.03451118
#
# Stress axis : x y z
#
# Youngs Moduli (GPa) = 91.80230 37.89712 64.54911
#
# Poissons Ratio (x) = 0.09826 0.03095
# Poissons Ratio (y) = 0.23802 0.39106
# Poissons Ratio (z) = 0.04402 0.22959
#
# Static dielectric constant tensor:
#      x y z
#    x 2.166740 -0.006240 0.067660 
#    y -0.006240 2.365690 -0.022190 
#    z 0.067660 -0.022190 2.293630 
# 
# From -- ./inp_files/243828.got.cif
#   From: 2010.05.17/outbox.cif.g08.bks.cpg/sg2_122_cif.got.tgz:243828.got - 2010.06.03 11:33:40.
