data_PCOD9015935
_publ_section_title
;
Structure prediction by ZEFSAII (Michael W. Deem and Ramdas Pophale) SiO2 
 PCOD9015935
Probable space group: P -1
;
_chemical_formula_sum "Si O2"
_cell_formula_units_Z 16
_cell_length_a 10.255570
_cell_length_b 11.759692
_cell_length_c 11.994654
_cell_angle_alpha 127.375545
_cell_angle_beta 45.347274
_cell_angle_gamma 106.842212
_cell_volume 793.436116
_symmetry_space_group_name_H-M "P -1"
_symmetry_group_IT_number 2
_symmetry_cell_setting 'triclinic'
loop_
_space_group_symop_operation_xyz
x,y,z
-x,-y,-z
loop_
_atom_site_type_symbol
_atom_site_label
_atom_site_fract_x
_atom_site_fract_y
_atom_site_fract_z
Si Si1 0.162588 0.069082 0.996945
Si Si2 0.895621 0.422700 0.927121
Si Si3 0.466236 0.077261 0.445316
Si Si4 0.302066 0.125233 0.185871
Si Si5 0.744479 0.634552 0.961535
Si Si6 0.878209 0.889007 0.474465
Si Si7 0.772255 0.544163 0.653448
Si Si8 0.516716 0.619323 0.295539
O O1 0.358197 0.975175 0.773071
O O2 0.163512 0.231552 0.045748
O O3 0.182027 0.079070 0.126173
O O4 0.000000 0.000000 0.000000
O O5 0.991810 0.255179 0.746918
O O6 0.893955 0.511747 0.866099
O O7 0.675484 0.465730 0.120323
O O8 0.000000 0.500000 0.000000
O O9 0.285238 0.044682 0.475623
O O10 0.438300 0.252928 0.579966
O O11 0.500000 0.000000 0.500000
O O12 0.211508 0.139684 0.371136
O O13 0.305239 0.294324 0.256556
O O14 0.500000 0.000000 0.000000
O O15 0.564417 0.673500 0.175446
O O16 0.692217 0.564981 0.839276
O O17 0.000000 0.000000 0.500000
O O18 0.684319 0.414562 0.581700
O O19 0.000000 0.500000 0.500000
#
# Coordination Sequence:
#
# PCOD9015935 Si02
#       8
#     2   2   2   2   2   2   2   2
#     4  11  25  44  69 100 143 185 224 291 353 417
#     4  10  21  42  65  99 135 170 235 284 340 405
#     4  12  24  44  68 104 137 177 242 278 343 425
#     4  11  26  47  65 100 147 176 230 293 357 415
#     4   9  21  41  64  92 131 176 226 272 336 411
#     4  12  27  44  74 103 135 186 230 292 348 422
#     4  11  24  42  66  98 134 178 233 280 349 417
#     4  10  23  40  71  92 133 179 224 286 336 408
#
# _framework density 20.165454
#
# number of rings (size 3 to 8) (size 9 to 14) (size 15 to 20)
#    0.750    0.500    3.750    1.125    7.000    1.000 
#    0.000    0.625    0.000    0.000    0.000    0.000 
#    0.000    0.000    0.000    0.000    0.000    0.000 
#
# Total GULP energy -89177.960553 kJ/mol
# GULP energy per Si atom -5573.622535 kJ/mol
# Density = 2.011956 g / cm^3
# Si number density = 20.165454 Si / 1000 Ang^3
#
#
#
# Elastic Constant Matrix: (Units=GPa)
#
#
# Indices 1 2 3 4 5 6 
#
# 1 134.8254 58.7885 18.2658 5.1683 -0.8352 13.5985
# 2 58.7885 67.9150 7.5015 12.9850 -6.7791 12.8036
# 3 18.2658 7.5015 76.5889 17.0548 -6.4681 7.7320
# 4 5.1683 12.9850 17.0548 25.0346 -1.6692 4.6696
# 5 -0.8352 -6.7791 -6.4681 -1.6692 37.4436 -2.1589
# 6 13.5985 12.8036 7.7320 4.6696 -2.1589 41.8802
#
#
#
# Elastic Compliance Matrix: (Units=1/GPa)
#
#
# Indices 1 2 3 4 5 6 
#
# 1 0.012956 -0.012059 -0.003327 0.005822 -0.002248 -0.000671
# 2 -0.012059 0.028587 0.003981 -0.014034 0.004753 -0.003749
# 3 -0.003327 0.003981 0.016583 -0.012168 0.002871 -0.001694
# 4 0.005822 -0.014034 -0.012168 0.054453 -0.002174 -0.001537
# 5 -0.002248 0.004753 0.002871 -0.002174 0.027941 0.000430
# 6 -0.000671 -0.003749 -0.001694 -0.001537 0.000430 0.025748
#
#
# Mechanical properties :
#
#
# Convention : Reuss Voigt Hill
#
# Bulk Modulus (GPa) = 28.31535 49.82677 39.07106
# Shear Modulus (GPa) = 24.89391 33.85657 29.37524
#
# Velocity S-wave (km/s) = 3.51733 4.10193 3.82083
# Velocity P-wave (km/s) = 5.52879 6.87001 6.23557
#
# Compressibility (1/GPa) = 0.03531654
#
# Stress axis : x y z
#
# Youngs Moduli (GPa) = 77.18161 34.98039 60.30124
#
# Poissons Ratio (x) = 0.42182 0.20065
# Poissons Ratio (y) = 0.93072 -0.24006
# Poissons Ratio (z) = 0.25682 -0.13925
#
# Static dielectric constant tensor:
#      x y z
#    x 1.773640 -0.019300 -0.031450 
#    y -0.019300 1.739140 0.033460 
#    z -0.031450 0.033460 1.732120 
# 
# From -- ./inp_files/392966.got.cif
#   From: 2010.05.17/outbox.cif.g08.bks.cpg/sg2_197_cif.got.tgz:392966.got - 2010.06.03 11:33:40.
