data_PCOD9015845
_publ_section_title
;
Structure prediction by ZEFSAII (Michael W. Deem and Ramdas Pophale) SiO2 
 PCOD9015845
Probable space group: P -1
;
_chemical_formula_sum "Si O2"
_cell_formula_units_Z 16
_cell_length_a 7.762967
_cell_length_b 6.355321
_cell_length_c 15.209357
_cell_angle_alpha 60.273475
_cell_angle_beta 101.829159
_cell_angle_gamma 77.742310
_cell_volume 592.680433
_symmetry_space_group_name_H-M "P -1"
_symmetry_group_IT_number 2
_symmetry_cell_setting 'triclinic'
loop_
_space_group_symop_operation_xyz
x,y,z
-x,-y,-z
loop_
_atom_site_type_symbol
_atom_site_label
_atom_site_fract_x
_atom_site_fract_y
_atom_site_fract_z
Si Si1 0.338205 0.054868 0.042785
Si Si2 0.983609 0.476267 0.293500
Si Si3 0.531063 0.251282 0.293770
Si Si4 0.254149 0.610153 0.851116
Si Si5 0.902911 0.039586 0.095320
Si Si6 0.259179 0.044232 0.218536
Si Si7 0.785739 0.657912 0.411490
Si Si8 0.643500 0.530635 0.590547
O O1 0.399768 0.969064 0.165070
O O2 0.253316 0.368029 0.958914
O O3 0.500000 0.000000 0.000000
O O4 0.192754 0.926221 0.016532
O O5 0.928219 0.304779 0.251078
O O6 0.820213 0.570695 0.331585
O O7 0.185853 0.367885 0.383925
O O8 0.975384 0.734482 0.187470
O O9 0.575423 0.440773 0.189526
O O10 0.508130 0.332022 0.376985
O O11 0.335852 0.220315 0.249561
O O12 0.700247 0.970237 0.352282
O O13 0.257563 0.821551 0.877872
O O14 0.062872 0.146197 0.122360
O O15 0.273815 0.780262 0.322438
O O16 0.640670 0.579645 0.474753
O O17 0.000000 0.500000 0.500000
#
# Coordination Sequence:
#
# PCOD9015845 Si02
#       8
#     2   2   2   2   2   2   2   2
#     4  11  24  40  64  97 131 170 217 262 320 377
#     4   9  20  42  65  92 129 170 213 261 322 379
#     4  12  24  40  67  97 131 166 221 263 322 383
#     4  11  23  39  68  94 130 169 215 265 314 385
#     4  10  21  42  65  93 130 171 215 261 320 381
#     4  11  25  42  65  94 134 173 209 268 322 378
#     4  10  22  44  68  93 128 170 216 267 327 382
#     4  10  23  43  64  94 130 169 214 269 319 379
#
# _framework density 26.995999999999999
#
# number of rings (size 3 to 8) (size 9 to 14) (size 15 to 20)
#    0.000    1.500    1.250    3.000    3.500    4.000 
#    2.250    1.250    0.000    0.000    0.000    0.000 
#    0.000    0.000    0.000    0.000    0.000    0.000 
#
# Total GULP energy -89423.322214 kJ/mol
# GULP energy per Si atom -5588.957638 kJ/mol
# Density = 2.693456 g / cm^3
# Si number density = 26.996000 Si / 1000 Ang^3
#
#
#
# Elastic Constant Matrix: (Units=GPa)
#
#
# Indices 1 2 3 4 5 6 
#
# 1 91.1788 5.7003 0.3497 -7.4506 -7.1458 9.9274
# 2 5.7003 103.2941 30.2071 30.4519 -0.1457 -6.1760
# 3 0.3497 30.2071 92.8590 14.0523 -18.6626 5.2420
# 4 -7.4506 30.4519 14.0523 54.5159 3.2366 -0.9135
# 5 -7.1458 -0.1457 -18.6626 3.2366 53.5936 1.7689
# 6 9.9274 -6.1760 5.2420 -0.9135 1.7689 48.1466
#
#
#
# Elastic Compliance Matrix: (Units=1/GPa)
#
#
# Indices 1 2 3 4 5 6 
#
# 1 0.011679 -0.001645 0.000662 0.002196 0.001740 -0.002713
# 2 -0.001645 0.012824 -0.003555 -0.006367 -0.001114 0.002291
# 3 0.000662 -0.003555 0.013284 -0.001675 0.004880 -0.002250
# 4 0.002196 -0.006367 -0.001675 0.022721 -0.001660 -0.000595
# 5 0.001740 -0.001114 0.004880 -0.001660 0.020748 -0.001827
# 6 -0.002713 0.002291 -0.002250 -0.000595 -0.001827 0.021924
#
#
# Mechanical properties :
#
#
# Convention : Reuss Voigt Hill
#
# Bulk Modulus (GPa) = 34.83037 39.98290 37.40663
# Shear Modulus (GPa) = 41.04184 47.98953 44.51569
#
# Velocity S-wave (km/s) = 3.90332 4.22080 4.06516
# Velocity P-wave (km/s) = 5.76582 6.21259 5.99337
#
# Compressibility (1/GPa) = 0.02871058
#
# Stress axis : x y z
#
# Youngs Moduli (GPa) = 85.62366 77.97821 75.27684
#
# Poissons Ratio (x) = 0.12829 -0.04982
# Poissons Ratio (y) = 0.14086 0.26761
# Poissons Ratio (z) = -0.05667 0.27722
#
# Static dielectric constant tensor:
#      x y z
#    x 2.409810 -0.051890 0.005110 
#    y -0.051890 2.124110 0.034130 
#    z 0.005110 0.034130 2.044040 
# 
# From -- ./inp_files/90101.got.cif
#   From: 2010.05.17/outbox.cif.g08.bks.cpg/sg2_46_cif.got.tgz:90101.got - 2010.06.03 11:33:40.
