data_PCOD9015196
_publ_section_title
;
Structure prediction by ZEFSAII (Michael W. Deem and Ramdas Pophale) SiO2 
 PCOD9015196
Probable space group: P -1
;
_chemical_formula_sum "Si O2"
_cell_formula_units_Z 13
_cell_length_a 11.509841
_cell_length_b 8.778188
_cell_length_c 8.740970
_cell_angle_alpha 101.972572
_cell_angle_beta 139.392826
_cell_angle_gamma 90.803012
_cell_volume 541.527380
_symmetry_space_group_name_H-M "P -1"
_symmetry_group_IT_number 2
_symmetry_cell_setting 'triclinic'
loop_
_space_group_symop_operation_xyz
x,y,z
-x,-y,-z
loop_
_atom_site_type_symbol
_atom_site_label
_atom_site_fract_x
_atom_site_fract_y
_atom_site_fract_z
Si Si1 0.806632 0.806915 0.545958
Si Si2 0.392025 0.949416 0.535422
Si Si3 0.015973 0.264507 0.999608
Si Si4 0.270029 0.557709 0.723359
Si Si5 0.000000 0.000000 0.500000
Si Si6 0.923134 0.536211 0.180546
Si Si7 0.428023 0.146874 0.027724
O O1 0.638903 0.889281 0.385448
O O2 0.750869 0.620815 0.400310
O O3 0.970183 0.907850 0.621414
O O4 0.870948 0.817865 0.789958
O O5 0.500000 0.000000 0.500000
O O6 0.503944 0.854931 0.730569
O O7 0.182981 0.842637 0.276302
O O8 0.971835 0.400873 0.094768
O O9 0.117123 0.341939 0.960675
O O10 0.227036 0.541021 0.857477
O O11 0.459876 0.682936 0.895010
O O12 0.105554 0.617260 0.483884
O O13 0.789429 0.897515 0.224239
O O14 0.500000 0.000000 0.000000
#
# Coordination Sequence:
#
# PCOD9015196 Si02
#       7
#     2   2   2   2   1   2   2
#     4  11  26  46  77 114 154 196 256 315 377 447
#     4  12  26  47  73 108 154 202 248 312 382 459
#     4  10  21  41  72 115 153 198 246 304 384 455
#     4  10  23  44  78 111 152 200 256 313 372 451
#     4  12  28  48  78 110 152 194 260 318 366 450
#     4   9  20  39  75 115 153 198 248 313 375 445
#     4  12  27  50  78 111 153 199 260 308 380 453
#
# _framework density 24.006170999999998
#
# number of rings (size 3 to 8) (size 9 to 14) (size 15 to 20)
#    0.000    1.231    3.077    1.385   10.769    0.615 
#    0.000    0.769    0.000    0.000    0.000    0.000 
#    0.000    0.000    0.000    0.000    0.000    0.000 
#
# Total GULP energy -72532.532439 kJ/mol
# GULP energy per Si atom -5579.425572 kJ/mol
# Density = 2.395153 g / cm^3
# Si number density = 24.006171 Si / 1000 Ang^3
#
#
#
# Elastic Constant Matrix: (Units=GPa)
#
#
# Indices 1 2 3 4 5 6 
#
# 1 118.6753 78.1039 44.8221 11.7517 -9.8790 38.3364
# 2 78.1039 126.9561 75.9274 -9.7834 0.5461 67.4174
# 3 44.8221 75.9274 143.8047 -16.0192 8.6221 42.1543
# 4 11.7517 -9.7834 -16.0192 58.6784 14.6025 -3.9125
# 5 -9.8790 0.5461 8.6221 14.6025 36.4304 1.7805
# 6 38.3364 67.4174 42.1543 -3.9125 1.7805 55.7468
#
#
#
# Elastic Compliance Matrix: (Units=1/GPa)
#
#
# Indices 1 2 3 4 5 6 
#
# 1 0.017340 -0.012026 -0.001189 -0.007634 0.008090 0.002724
# 2 -0.012026 0.033617 -0.004903 0.005668 -0.003500 -0.028168
# 3 -0.001189 -0.004903 0.010850 0.003330 -0.004098 -0.001093
# 4 -0.007634 0.005668 0.003330 0.023318 -0.012187 -0.002096
# 5 0.008090 -0.003500 -0.004098 -0.012187 0.035562 -0.000224
# 6 0.002724 -0.028168 -0.001093 -0.002096 -0.000224 0.050816
#
#
# Mechanical properties :
#
#
# Convention : Reuss Voigt Hill
#
# Bulk Modulus (GPa) = 39.10717 87.46032 63.28374
# Shear Modulus (GPa) = 23.12006 42.87663 32.99835
#
# Velocity S-wave (km/s) = 3.10673 4.23077 3.71155
# Velocity P-wave (km/s) = 5.40323 7.77029 6.69225
#
# Compressibility (1/GPa) = 0.02557076
#
# Stress axis : x y z
#
# Youngs Moduli (GPa) = 57.67178 29.74665 92.16402
#
# Poissons Ratio (x) = 0.35774 0.10958
# Poissons Ratio (y) = 0.69357 0.45188
# Poissons Ratio (z) = 0.06857 0.14585
#
# Static dielectric constant tensor:
#      x y z
#    x 1.939800 -0.047130 -0.059850 
#    y -0.047130 1.963430 -0.043700 
#    z -0.059850 -0.043700 1.946300 
# 
# From -- ./inp_files/244301.got.cif
#   From: 2010.05.17/outbox.cif.g08.bks.cpg/sg2_123_cif.got.tgz:244301.got - 2010.06.03 11:33:40.
