data_PCOD9015381
_publ_section_title
;
Structure prediction by ZEFSAII (Michael W. Deem and Ramdas Pophale) SiO2 
 PCOD9015381
Probable space group: P -1
;
_chemical_formula_sum "Si O2"
_cell_formula_units_Z 16
_cell_length_a 14.106681
_cell_length_b 5.196133
_cell_length_c 14.826391
_cell_angle_alpha 65.416779
_cell_angle_beta 83.084363
_cell_angle_gamma 92.044355
_cell_volume 976.641882
_symmetry_space_group_name_H-M "P -1"
_symmetry_group_IT_number 2
_symmetry_cell_setting 'triclinic'
loop_
_space_group_symop_operation_xyz
x,y,z
-x,-y,-z
loop_
_atom_site_type_symbol
_atom_site_label
_atom_site_fract_x
_atom_site_fract_y
_atom_site_fract_z
Si Si1 0.274823 0.149921 0.980164
Si Si2 0.028386 0.639731 0.808154
Si Si3 0.515393 0.674235 0.067213
Si Si4 0.166960 0.746675 0.308828
Si Si5 0.677339 0.362789 0.817294
Si Si6 0.826692 0.702228 0.867324
Si Si7 0.056333 0.125823 0.388922
Si Si8 0.913414 0.958563 0.090551
O O1 0.374833 0.315049 0.913463
O O2 0.193007 0.029795 0.939120
O O3 0.219641 0.348911 0.023646
O O4 0.304450 0.899762 0.079758
O O5 0.082202 0.362915 0.827455
O O6 0.918213 0.539197 0.862921
O O7 0.016064 0.824954 0.692816
O O8 0.068195 0.821624 0.862231
O O9 0.432420 0.579053 0.162933
O O10 0.500000 0.500000 0.000000
O O11 0.500000 0.000000 0.000000
O O12 0.277232 0.704510 0.274925
O O13 0.109148 0.438418 0.356437
O O14 0.138971 0.964436 0.201061
O O15 0.132940 0.913296 0.375687
O O16 0.746046 0.620540 0.814197
O O17 0.000000 0.000000 0.500000
O O18 0.000000 0.000000 0.000000
#
# Coordination Sequence:
#
# PCOD9015381 Si02
#       8
#     2   2   2   2   2   2   2   2
#     4  10  21  30  45  70 100 140 178 208 234 285
#     4  11  22  34  47  72  97 134 171 203 237 292
#     4  10  20  31  46  68  95 135 177 214 249 279
#     4  10  19  31  51  75  98 127 156 204 253 309
#     4  10  18  32  51  69 100 136 172 210 251 288
#     4  10  17  30  50  66 102 131 172 202 238 282
#     4  11  22  37  55  74 101 130 163 214 269 303
#     4  12  23  31  48  70 103 141 178 193 228 290
#
# _framework density 16.382669
#
# number of rings (size 3 to 8) (size 9 to 14) (size 15 to 20)
#    0.000    1.500    5.000    3.000    1.750    0.000 
#    0.000    0.000    0.000    0.000    0.000    0.000 
#    0.000    6.000    0.000    0.000    0.000    0.000 
#
# Total GULP energy -89104.043379 kJ/mol
# GULP energy per Si atom -5569.002711 kJ/mol
# Density = 1.634538 g / cm^3
# Si number density = 16.382669 Si / 1000 Ang^3
#
#
#
# Elastic Constant Matrix: (Units=GPa)
#
#
# Indices 1 2 3 4 5 6 
#
# 1 106.5011 25.3168 45.1506 5.1046 -22.5984 8.3004
# 2 25.3168 104.4531 25.8672 2.4927 -14.7639 2.3555
# 3 45.1506 25.8672 66.3892 8.8491 -18.2136 -5.5043
# 4 5.1046 2.4927 8.8491 18.2972 -2.9043 -1.6742
# 5 -22.5984 -14.7639 -18.2136 -2.9043 21.7465 3.4276
# 6 8.3004 2.3555 -5.5043 -1.6742 3.4276 19.7270
#
#
#
# Elastic Compliance Matrix: (Units=1/GPa)
#
#
# Indices 1 2 3 4 5 6 
#
# 1 0.016562 0.000132 -0.009193 0.000579 0.011490 -0.011497
# 2 0.000132 0.011200 -0.003268 0.000611 0.005594 -0.003225
# 3 -0.009193 -0.003268 0.026598 -0.007708 0.007956 0.009643
# 4 0.000579 0.000611 -0.007708 0.058660 0.002055 0.002154
# 5 0.011490 0.005594 0.007956 0.002055 0.071097 -0.015462
# 6 -0.011497 -0.003225 0.009643 0.002154 -0.015462 0.061475
#
#
# Mechanical properties :
#
#
# Convention : Reuss Voigt Hill
#
# Bulk Modulus (GPa) = 33.66821 52.22363 42.94592
# Shear Modulus (GPa) = 17.84767 24.02137 20.93452
#
# Velocity S-wave (km/s) = 3.30422 3.83334 3.57857
# Velocity P-wave (km/s) = 5.92899 7.17908 6.58377
#
# Compressibility (1/GPa) = 0.02970161
#
# Stress axis : x y z
#
# Youngs Moduli (GPa) = 60.37940 89.28812 37.59746
#
# Poissons Ratio (x) = -0.01178 0.34564
# Poissons Ratio (y) = -0.00797 0.12285
# Poissons Ratio (z) = 0.55508 0.29175
#
# Static dielectric constant tensor:
#      x y z
#    x 1.607210 -0.011910 -0.015960 
#    y -0.011910 1.636700 0.001180 
#    z -0.015960 0.001180 1.550220 
# 
# From -- ./inp_files/96445.got.cif
#   From: 2010.05.17/outbox.cif.g08.bks.cpg/sg2_49_cif.got.tgz:96445.got - 2010.06.03 11:33:40.
