data_PCOD9015104
_publ_section_title
;
Structure prediction by ZEFSAII (Michael W. Deem and Ramdas Pophale) SiO2 
 PCOD9015104
Probable space group: P -1
;
_chemical_formula_sum "Si O2"
_cell_formula_units_Z 16
_cell_length_a 12.787229
_cell_length_b 9.048741
_cell_length_c 18.672126
_cell_angle_alpha 143.078477
_cell_angle_beta 131.899128
_cell_angle_gamma 77.466210
_cell_volume 681.545726
_symmetry_space_group_name_H-M "P -1"
_symmetry_group_IT_number 2
_symmetry_cell_setting 'triclinic'
loop_
_space_group_symop_operation_xyz
x,y,z
-x,-y,-z
loop_
_atom_site_type_symbol
_atom_site_label
_atom_site_fract_x
_atom_site_fract_y
_atom_site_fract_z
Si Si1 0.148886 0.422481 0.484111
Si Si2 0.636552 0.459738 0.718928
Si Si3 0.996439 0.566643 0.904207
Si Si4 0.340663 0.501960 0.947211
Si Si5 0.788973 0.618992 0.003035
Si Si6 0.205070 0.786870 0.934963
Si Si7 0.656819 0.706075 0.584972
Si Si8 0.015763 0.284928 0.518658
O O1 0.283648 0.453298 0.498776
O O2 0.135532 0.697512 0.575377
O O3 0.172703 0.407583 0.575056
O O4 0.928356 0.030990 0.219690
O O5 0.437946 0.224303 0.489512
O O6 0.644954 0.433202 0.797487
O O7 0.781318 0.421055 0.745431
O O8 0.727047 0.847342 0.898566
O O9 0.141787 0.953360 0.153798
O O10 0.049031 0.397681 0.912996
O O11 0.062715 0.595923 0.865061
O O12 0.340375 0.543286 0.047708
O O13 0.373977 0.799320 0.037819
O O14 0.121381 0.117240 0.680314
O O15 0.500000 0.500000 0.000000
O O16 0.110367 0.548978 0.729629
O O17 0.500000 0.500000 0.500000
#
# Coordination Sequence:
#
# PCOD9015104 Si02
#       8
#     2   2   2   2   2   2   2   2
#     4  10  22  41  65  97 132 173 220 277 324 397
#     4  12  24  41  69  98 131 184 219 268 341 394
#     4  11  24  45  67  96 143 170 220 283 326 398
#     4  10  24  41  64  97 136 167 215 287 328 386
#     4  10  22  45  66  94 137 178 216 276 337 389
#     4  11  22  41  66  96 128 175 224 267 336 397
#     4  12  26  40  67 102 136 172 225 274 334 395
#     4  10  21  41  71  90 127 183 218 264 343 386
#
# _framework density 23.476049
#
# number of rings (size 3 to 8) (size 9 to 14) (size 15 to 20)
#    0.000    1.250    3.750    1.125    3.500    1.500 
#    0.000    1.250    0.000    0.000    0.000    0.000 
#    0.000    0.000    0.000    0.000    0.000    0.000 
#
# Total GULP energy -89362.456165 kJ/mol
# GULP energy per Si atom -5585.153510 kJ/mol
# Density = 2.342262 g / cm^3
# Si number density = 23.476049 Si / 1000 Ang^3
#
#
#
# Elastic Constant Matrix: (Units=GPa)
#
#
# Indices 1 2 3 4 5 6 
#
# 1 151.7340 44.5573 22.2276 -19.7881 -20.2472 -3.5504
# 2 44.5573 116.9305 18.4727 1.4789 -6.4553 -7.6601
# 3 22.2276 18.4727 56.3930 -1.8680 -16.2105 14.5631
# 4 -19.7881 1.4789 -1.8680 43.3546 -4.7248 -10.8630
# 5 -20.2472 -6.4553 -16.2105 -4.7248 27.3555 -13.9407
# 6 -3.5504 -7.6601 14.5631 -10.8630 -13.9407 38.4032
#
#
#
# Elastic Compliance Matrix: (Units=1/GPa)
#
#
# Indices 1 2 3 4 5 6 
#
# 1 0.010252 -0.002671 -0.001606 0.007704 0.011004 0.007198
# 2 -0.002671 0.010220 -0.003067 -0.001092 -0.000274 0.002547
# 3 -0.001606 -0.003067 0.023549 -0.000351 0.008580 -0.006675
# 4 0.007704 -0.001092 -0.000351 0.033033 0.019660 0.017109
# 5 0.011004 -0.000274 0.008580 0.019660 0.067218 0.027671
# 6 0.007198 0.002547 -0.006675 0.017109 0.027671 0.044629
#
#
# Mechanical properties :
#
#
# Convention : Reuss Voigt Hill
#
# Bulk Modulus (GPa) = 34.09318 55.06362 44.57840
# Shear Modulus (GPa) = 23.43381 37.80931 30.62156
#
# Velocity S-wave (km/s) = 3.16286 4.01752 3.61553
# Velocity P-wave (km/s) = 5.28132 6.71020 6.03817
#
# Compressibility (1/GPa) = 0.02933138
#
# Stress axis : x y z
#
# Youngs Moduli (GPa) = 97.54501 97.84676 42.46456
#
# Poissons Ratio (x) = 0.26136 0.06820
# Poissons Ratio (y) = 0.26056 0.13026
# Poissons Ratio (z) = 0.15667 0.30014
#
# Static dielectric constant tensor:
#      x y z
#    x 1.924310 0.011810 -0.000470 
#    y 0.011810 1.910340 0.019020 
#    z -0.000470 0.019020 1.922930 
# 
# From -- ./inp_files/519420.got.cif
#   From: 2010.05.17/outbox.cif.g08.bks.cpg/sg2_260_cif.got.tgz:519420.got - 2010.06.03 11:33:40.
