data_PCOD9015479
_publ_section_title
;
Structure prediction by ZEFSAII (Michael W. Deem and Ramdas Pophale) SiO2 
 PCOD9015479
Probable space group: P -1
;
_chemical_formula_sum "Si O2"
_cell_formula_units_Z 15
_cell_length_a 5.040286
_cell_length_b 5.906813
_cell_length_c 20.624140
_cell_angle_alpha 104.791929
_cell_angle_beta 90.229210
_cell_angle_gamma 91.363884
_cell_volume 593.472906
_symmetry_space_group_name_H-M "P -1"
_symmetry_group_IT_number 2
_symmetry_cell_setting 'triclinic'
loop_
_space_group_symop_operation_xyz
x,y,z
-x,-y,-z
loop_
_atom_site_type_symbol
_atom_site_label
_atom_site_fract_x
_atom_site_fract_y
_atom_site_fract_z
Si Si1 0.180566 0.839942 0.247017
Si Si2 0.320800 0.424615 0.727556
Si Si3 0.853876 0.026462 0.886828
Si Si4 0.734562 0.873972 0.608946
Si Si5 0.252996 0.629290 0.982084
Si Si6 0.500000 0.500000 0.500000
Si Si7 0.647007 0.223168 0.144703
Si Si8 0.240453 0.176530 0.585510
O O1 0.381750 0.657568 0.265650
O O2 0.220200 0.069059 0.310218
O O3 0.878326 0.754231 0.248575
O O4 0.235932 0.853641 0.171489
O O5 0.285085 0.673708 0.778015
O O6 0.232043 0.390213 0.651737
O O7 0.668930 0.793693 0.864263
O O8 0.169111 0.000643 0.881466
O O9 0.761950 0.123746 0.962905
O O10 0.463274 0.999081 0.597122
O O11 0.971737 0.016902 0.581215
O O12 0.679274 0.602287 0.570816
O O13 0.253485 0.625965 0.904984
O O14 0.500000 0.500000 0.000000
O O15 0.000000 0.500000 0.000000
O O16 0.340559 0.300069 0.529273
#
# Coordination Sequence:
#
# PCOD9015479 Si02
#       8
#     2   2   2   2   2   1   2   2
#     4  10  21  42  63  88 125 170 209 260 322 387
#     4  10  21  42  63  88 125 170 209 260 322 387
#     4  12  24  39  63  95 128 158 213 271 313 370
#     4  10  24  43  65  96 134 170 222 275 326 403
#     4  12  24  42  64  88 126 176 212 248 320 384
#     4  12  24  42  72  96 132 176 220 266 356 380
#     4  12  24  39  63  95 128 158 213 271 313 370
#     4  10  24  43  65  96 134 170 222 275 326 403
#
# _framework density 25.274951999999999
#
# number of rings (size 3 to 8) (size 9 to 14) (size 15 to 20)
#    0.000    1.067    0.000    6.400    1.867    2.133 
#    0.000    0.000    0.000    0.000    0.000    0.000 
#    0.000    0.000    0.000    0.000    0.000    0.000 
#
# Total GULP energy -83586.352980 kJ/mol
# GULP energy per Si atom -5572.423532 kJ/mol
# Density = 2.521743 g / cm^3
# Si number density = 25.274952 Si / 1000 Ang^3
#
#
#
# Elastic Constant Matrix: (Units=GPa)
#
#
# Indices 1 2 3 4 5 6 
#
# 1 120.1288 13.9279 19.0791 5.1379 8.9605 10.5462
# 2 13.9279 26.3652 17.0591 -0.8255 5.0062 12.2502
# 3 19.0791 17.0591 85.3914 13.9855 2.3379 11.1970
# 4 5.1379 -0.8255 13.9855 42.5241 13.6818 0.2264
# 5 8.9605 5.0062 2.3379 13.6818 25.6847 0.9245
# 6 10.5462 12.2502 11.1970 0.2264 0.9245 39.0051
#
#
#
# Elastic Compliance Matrix: (Units=1/GPa)
#
#
# Indices 1 2 3 4 5 6 
#
# 1 0.009153 -0.003059 -0.001228 0.000038 -0.002466 -0.001103
# 2 -0.003059 0.054671 -0.009579 0.008813 -0.012931 -0.013338
# 3 -0.001228 -0.009579 0.014953 -0.006351 0.004354 -0.001018
# 4 0.000038 0.008813 -0.006351 0.031544 -0.017930 -0.000713
# 5 -0.002466 -0.012931 0.004354 -0.017930 0.051384 0.002364
# 6 -0.001103 -0.013338 -0.001018 -0.000713 0.002364 0.030366
#
#
# Mechanical properties :
#
#
# Convention : Reuss Voigt Hill
#
# Bulk Modulus (GPa) = 19.58998 36.89086 28.24042
# Shear Modulus (GPa) = 21.11324 33.56406 27.33865
#
# Velocity S-wave (km/s) = 2.89336 3.64807 3.29241
# Velocity P-wave (km/s) = 4.35082 5.68964 5.06467
#
# Compressibility (1/GPa) = 0.05104650
#
# Stress axis : x y z
#
# Youngs Moduli (GPa) = 109.25087 18.29112 66.87484
#
# Poissons Ratio (x) = 0.05595 0.08213
# Poissons Ratio (y) = 0.33417 0.64059
# Poissons Ratio (z) = 0.13417 0.17521
#
# Static dielectric constant tensor:
#      x y z
#    x 1.417740 -0.775320 -1.467210 
#    y -0.775320 0.908490 -2.069730 
#    z -1.467210 -2.069730 -1.963750 
# 
# From -- ./inp_files/9230.got.cif
#   From: 2010.05.17/outbox.cif.g08.bks.cpg/sg2_5_cif.got.tgz:9230.got - 2010.06.03 11:33:40.
