data_PCOD9015734
_publ_section_title
;
Structure prediction by ZEFSAII (Michael W. Deem and Ramdas Pophale) SiO2 
 PCOD9015734
Probable space group: P -1
;
_chemical_formula_sum "Si O2"
_cell_formula_units_Z 16
_cell_length_a 11.467683
_cell_length_b 9.243012
_cell_length_c 15.191109
_cell_angle_alpha 133.785080
_cell_angle_beta 34.784348
_cell_angle_gamma 121.651290
_cell_volume 659.454722
_symmetry_space_group_name_H-M "P -1"
_symmetry_group_IT_number 2
_symmetry_cell_setting 'triclinic'
loop_
_space_group_symop_operation_xyz
x,y,z
-x,-y,-z
loop_
_atom_site_type_symbol
_atom_site_label
_atom_site_fract_x
_atom_site_fract_y
_atom_site_fract_z
Si Si1 0.474195 0.901233 0.881165
Si Si2 0.519948 0.475075 0.719167
Si Si3 0.351138 0.612887 0.214092
Si Si4 0.050973 0.125591 0.437672
Si Si5 0.673386 0.911737 0.120160
Si Si6 0.926512 0.783747 0.242874
Si Si7 0.533275 0.309432 0.464515
Si Si8 0.885622 0.667184 0.027370
O O1 0.399455 0.683452 0.848811
O O2 0.712385 0.841774 0.681843
O O3 0.346654 0.047745 0.954277
O O4 0.500000 0.000000 0.000000
O O5 0.637075 0.503147 0.748936
O O6 0.629590 0.372784 0.523571
O O7 0.349282 0.338570 0.799329
O O8 0.459232 0.820058 0.237510
O O9 0.111384 0.676329 0.374309
O O10 0.500000 0.500000 0.000000
O O11 0.000000 0.000000 0.500000
O O12 0.011399 0.977740 0.317376
O O13 0.857827 0.771688 0.993339
O O14 0.668246 0.131144 0.257731
O O15 0.685306 0.771975 0.409955
O O16 0.966130 0.777079 0.109647
O O17 0.021286 0.565722 0.131040
O O18 0.500000 0.500000 0.500000
#
# Coordination Sequence:
#
# PCOD9015734 Si02
#       8
#     2   2   2   2   2   2   2   2
#     4  12  24  43  66 101 141 180 220 278 346 406
#     4  10  23  39  66  95 132 173 218 281 345 388
#     4  11  24  43  67 100 132 178 233 277 330 410
#     4  12  25  41  69  97 135 183 225 272 335 413
#     4  11  22  42  68  98 125 179 228 271 339 404
#     4  10  21  42  64  98 127 170 225 275 335 399
#     4  11  21  40  67  93 131 167 222 280 339 398
#     4   9  22  40  72  93 126 170 223 283 328 399
#
# _framework density 24.262471000000001
#
# number of rings (size 3 to 8) (size 9 to 14) (size 15 to 20)
#    0.000    1.250    3.750    1.500    5.250    2.000 
#    0.000    1.875    0.000    0.000    0.000    0.000 
#    0.000    0.000    0.000    0.000    0.000    0.000 
#
# Total GULP energy -89333.154185 kJ/mol
# GULP energy per Si atom -5583.322137 kJ/mol
# Density = 2.420725 g / cm^3
# Si number density = 24.262471 Si / 1000 Ang^3
#
#
#
# Elastic Constant Matrix: (Units=GPa)
#
#
# Indices 1 2 3 4 5 6 
#
# 1 134.5778 41.6595 53.1635 4.0182 6.4064 -43.5783
# 2 41.6595 69.7533 7.3977 1.7840 -0.4648 -16.3190
# 3 53.1635 7.3977 91.9886 13.3403 9.3347 -15.4536
# 4 4.0182 1.7840 13.3403 33.7459 6.5875 -4.7784
# 5 6.4064 -0.4648 9.3347 6.5875 45.5695 -1.3979
# 6 -43.5783 -16.3190 -15.4536 -4.7784 -1.3979 53.1989
#
#
#
# Elastic Compliance Matrix: (Units=1/GPa)
#
#
# Indices 1 2 3 4 5 6 
#
# 1 0.014763 -0.006191 -0.006923 0.002661 -0.000847 0.008400
# 2 -0.006191 0.018068 0.002398 -0.001162 0.000765 0.001083
# 3 -0.006923 0.002398 0.015425 -0.005257 -0.001432 -0.000964
# 4 0.002661 -0.001162 -0.005257 0.032667 -0.003935 0.003127
# 5 -0.000847 0.000765 -0.001432 -0.003935 0.022914 -0.000627
# 6 0.008400 0.001083 -0.000964 0.003127 -0.000627 0.025994
#
#
# Mechanical properties :
#
#
# Convention : Reuss Voigt Hill
#
# Bulk Modulus (GPa) = 37.28148 55.64013 46.46081
# Shear Modulus (GPa) = 31.21007 39.44279 35.32643
#
# Velocity S-wave (km/s) = 3.59047 4.03633 3.81991
# Velocity P-wave (km/s) = 5.70858 6.68618 6.21663
#
# Compressibility (1/GPa) = 0.02682297
#
# Stress axis : x y z
#
# Youngs Moduli (GPa) = 67.73760 55.34694 64.83115
#
# Poissons Ratio (x) = 0.34267 0.44882
# Poissons Ratio (y) = 0.41939 -0.15547
# Poissons Ratio (z) = 0.46894 -0.13272
#
# Static dielectric constant tensor:
#      x y z
#    x 2.188350 0.053210 -0.213790 
#    y 0.053210 1.994660 -0.042630 
#    z -0.213790 -0.042630 2.315990 
# 
# From -- ./inp_files/516204.got.cif
#   From: 2010.05.17/outbox.cif.g08.bks.cpg/sg2_259_cif.got.tgz:516204.got - 2010.06.03 11:33:40.
