data_PCOD9015705
_publ_section_title
;
Structure prediction by ZEFSAII (Michael W. Deem and Ramdas Pophale) SiO2 
 PCOD9015705
Probable space group: P -1
;
_chemical_formula_sum "Si O2"
_cell_formula_units_Z 16
_cell_length_a 10.350846
_cell_length_b 20.272317
_cell_length_c 8.472542
_cell_angle_alpha 35.364760
_cell_angle_beta 121.041305
_cell_angle_gamma 133.102451
_cell_volume 747.647573
_symmetry_space_group_name_H-M "P -1"
_symmetry_group_IT_number 2
_symmetry_cell_setting 'triclinic'
loop_
_space_group_symop_operation_xyz
x,y,z
-x,-y,-z
loop_
_atom_site_type_symbol
_atom_site_label
_atom_site_fract_x
_atom_site_fract_y
_atom_site_fract_z
Si Si1 0.472456 0.270024 0.238303
Si Si2 0.714450 0.135986 0.250860
Si Si3 0.338245 0.449822 0.371998
Si Si4 0.120349 0.038335 0.341744
Si Si5 0.997159 0.219843 0.779625
Si Si6 0.376667 0.893525 0.387396
Si Si7 0.314888 0.367651 0.184918
Si Si8 0.002830 0.631686 0.192076
O O1 0.326184 0.160166 0.243841
O O2 0.584663 0.207354 0.484716
O O3 0.341551 0.265049 0.300873
O O4 0.602190 0.411797 0.956207
O O5 0.648208 0.136894 0.381830
O O6 0.853114 0.083943 0.446553
O O7 0.553451 0.041588 0.214008
O O8 0.822288 0.284712 0.964602
O O9 0.500000 0.500000 0.500000
O O10 0.151455 0.357338 0.524009
O O11 0.316621 0.352890 0.401803
O O12 0.046495 0.106689 0.048720
O O13 0.000000 0.000000 0.500000
O O14 0.983274 0.275124 0.834033
O O15 0.809650 0.140917 0.728366
O O16 0.500000 0.500000 0.000000
O O17 0.161861 0.387862 0.979152
O O18 0.000000 0.500000 0.500000
#
# Coordination Sequence:
#
# PCOD9015705 Si02
#       8
#     2   2   2   2   2   2   2   2
#     4  10  21  42  65  91 138 178 214 270 339 394
#     4  10  23  49  65  92 139 178 220 272 343 393
#     4  11  22  40  67 100 136 166 228 279 329 398
#     4  11  20  42  70  89 129 179 221 274 321 401
#     4  12  24  41  68 105 130 171 233 273 331 396
#     4  10  25  43  68  99 130 178 225 278 333 392
#     4  10  21  42  64  95 134 179 217 266 341 395
#     4  12  26  43  68 102 138 174 221 278 341 404
#
# _framework density 21.400455999999998
#
# number of rings (size 3 to 8) (size 9 to 14) (size 15 to 20)
#    0.000    1.250    3.750    1.500    5.250    1.500 
#    0.000    1.250    0.000    0.000    0.000    0.000 
#    0.000    0.000    0.000    0.000    0.000    0.000 
#
# Total GULP energy -89158.458008 kJ/mol
# GULP energy per Si atom -5572.403625 kJ/mol
# Density = 2.135175 g / cm^3
# Si number density = 21.400456 Si / 1000 Ang^3
#
#
#
# Elastic Constant Matrix: (Units=GPa)
#
#
# Indices 1 2 3 4 5 6 
#
# 1 70.0034 15.2276 28.9899 6.7368 6.7171 15.2033
# 2 15.2276 93.5721 49.4860 12.9717 13.4387 24.8434
# 3 28.9899 49.4860 72.9567 -13.2518 4.3055 15.3249
# 4 6.7368 12.9717 -13.2518 32.8027 1.3177 -5.2615
# 5 6.7171 13.4387 4.3055 1.3177 29.4674 -2.3697
# 6 15.2033 24.8434 15.3249 -5.2615 -2.3697 41.3431
#
#
#
# Elastic Compliance Matrix: (Units=1/GPa)
#
#
# Indices 1 2 3 4 5 6 
#
# 1 0.025540 0.014663 -0.020449 -0.021140 -0.009691 -0.013869
# 2 0.014663 0.038284 -0.032483 -0.034089 -0.016271 -0.021627
# 3 -0.020449 -0.032483 0.046843 0.037918 0.012157 0.015198
# 4 -0.021140 -0.034089 0.037918 0.066843 0.013725 0.023496
# 5 -0.009691 -0.016271 0.012157 0.013725 0.042221 0.013001
# 6 -0.013869 -0.021627 0.015198 0.023496 0.013001 0.040386
#
#
# Mechanical properties :
#
#
# Convention : Reuss Voigt Hill
#
# Bulk Modulus (GPa) = 29.30065 47.10435 38.20250
# Shear Modulus (GPa) = 14.36658 30.24454 22.30556
#
# Velocity S-wave (km/s) = 2.59380 3.76342 3.23196
# Velocity P-wave (km/s) = 4.76358 6.39868 5.64069
#
# Compressibility (1/GPa) = 0.03412893
#
# Stress axis : x y z
#
# Youngs Moduli (GPa) = 39.15397 26.12067 21.34810
#
# Poissons Ratio (x) = -0.38300 0.43655
# Poissons Ratio (y) = -0.57411 0.69344
# Poissons Ratio (z) = 0.80066 0.84847
#
# Static dielectric constant tensor:
#      x y z
#    x 2.075750 -0.096060 0.236930 
#    y -0.096060 1.894350 -0.070260 
#    z 0.236930 -0.070260 2.062780 
# 
# From -- ./inp_files/284577.got.cif
#   From: 2010.05.17/outbox.cif.g08.bks.cpg/sg2_143_cif.got.tgz:284577.got - 2010.06.03 11:33:40.
