data_PCOD9015954
_publ_section_title
;
Structure prediction by ZEFSAII (Michael W. Deem and Ramdas Pophale) SiO2 
 PCOD9015954
Probable space group: P -1
;
_chemical_formula_sum "Si O2"
_cell_formula_units_Z 12
_cell_length_a 5.671918
_cell_length_b 17.824649
_cell_length_c 9.261355
_cell_angle_alpha 51.544030
_cell_angle_beta 141.820090
_cell_angle_gamma 115.743118
_cell_volume 450.342815
_symmetry_space_group_name_H-M "P -1"
_symmetry_group_IT_number 2
_symmetry_cell_setting 'triclinic'
loop_
_space_group_symop_operation_xyz
x,y,z
-x,-y,-z
loop_
_atom_site_type_symbol
_atom_site_label
_atom_site_fract_x
_atom_site_fract_y
_atom_site_fract_z
Si Si1 0.577798 0.988456 0.880826
Si Si2 0.833105 0.713963 0.091709
Si Si3 0.946216 0.463413 0.792105
Si Si4 0.168525 0.208054 0.711027
Si Si5 0.978972 0.352183 0.236103
Si Si6 0.424851 0.103856 0.418707
O O1 0.537621 0.875553 0.977422
O O2 0.677675 0.929550 0.429696
O O3 0.500000 0.000000 0.000000
O O4 0.000000 0.000000 0.000000
O O5 0.993704 0.726001 0.313541
O O6 0.964151 0.612893 0.200338
O O7 0.383687 0.702480 0.909633
O O8 0.854947 0.812041 0.893017
O O9 0.500000 0.500000 0.500000
O O10 0.119856 0.562782 0.794709
O O11 0.060332 0.402168 0.065908
O O12 0.282946 0.274766 0.556123
O O13 0.823456 0.150462 0.560932
O O14 0.500000 0.000000 0.500000
#
# Coordination Sequence:
#
# PCOD9015954 Si02
#       6
#     2   2   2   2   2   2
#     4  10  22  43  68 102 144 189 234 295 356 430
#     4  11  23  43  69  97 137 182 230 284 357 420
#     4  11  25  44  67  97 136 175 233 292 358 422
#     4  10  22  41  66 101 135 179 232 287 352 425
#     4  10  24  44  65  99 131 179 232 282 358 423
#     4  10  21  42  66 100 141 182 234 283 358 424
#
# _framework density 26.646364999999999
#
# number of rings (size 3 to 8) (size 9 to 14) (size 15 to 20)
#    0.000    1.667    1.667    1.500    2.333    8.000 
#    9.000    3.333    0.000    0.000    0.000    0.000 
#    0.000    0.000    0.000    0.000    0.000    0.000 
#
# Total GULP energy -67011.694281 kJ/mol
# GULP energy per Si atom -5584.307857 kJ/mol
# Density = 2.658572 g / cm^3
# Si number density = 26.646365 Si / 1000 Ang^3
#
#
#
# Elastic Constant Matrix: (Units=GPa)
#
#
# Indices 1 2 3 4 5 6 
#
# 1 81.7199 33.7647 40.1443 0.6322 -21.7300 -5.1820
# 2 33.7647 180.6505 29.7582 12.6637 -13.7903 -11.7019
# 3 40.1443 29.7582 147.4907 -33.8011 -25.8251 9.4353
# 4 0.6322 12.6637 -33.8011 45.9130 11.5977 -13.8172
# 5 -21.7300 -13.7903 -25.8251 11.5977 46.5567 -2.3635
# 6 -5.1820 -11.7019 9.4353 -13.8172 -2.3635 51.3410
#
#
#
# Elastic Compliance Matrix: (Units=1/GPa)
#
#
# Indices 1 2 3 4 5 6 
#
# 1 0.016660 -0.001606 -0.004144 -0.003981 0.006058 0.001284
# 2 -0.001606 0.006391 -0.001341 -0.002757 0.001130 0.000851
# 3 -0.004144 -0.001341 0.010155 0.007378 0.001437 -0.000538
# 4 -0.003981 -0.002757 0.007378 0.031297 -0.006086 0.005757
# 5 0.006058 0.001130 0.001437 -0.006086 0.026965 0.000208
# 6 0.001284 0.000851 -0.000538 0.005757 0.000208 0.021459
#
#
# Mechanical properties :
#
#
# Convention : Reuss Voigt Hill
#
# Bulk Modulus (GPa) = 52.56575 68.57727 60.57151
# Shear Modulus (GPa) = 37.46690 49.17506 43.32098
#
# Velocity S-wave (km/s) = 3.75384 4.30055 4.03646
# Velocity P-wave (km/s) = 6.20954 7.10293 6.67121
#
# Compressibility (1/GPa) = 0.01902379
#
# Stress axis : x y z
#
# Youngs Moduli (GPa) = 60.02575 156.46289 98.46920
#
# Poissons Ratio (x) = 0.25135 0.40806
# Poissons Ratio (y) = 0.09643 0.13203
# Poissons Ratio (z) = 0.24875 0.20978
#
# Static dielectric constant tensor:
#      x y z
#    x 2.162930 -0.032480 0.064340 
#    y -0.032480 2.067720 0.012340 
#    z 0.064340 0.012340 2.308070 
# 
# From -- ./inp_files/138827.got.cif
#   From: 2010.05.17/outbox.cif.g08.bks.cpg/sg2_70_cif.got.tgz:138827.got - 2010.06.03 11:33:40.
