data_PCOD9015117
_publ_section_title
;
Structure prediction by ZEFSAII (Michael W. Deem and Ramdas Pophale) SiO2 
 PCOD9015117
Probable space group: P -1
;
_chemical_formula_sum "Si O2"
_cell_formula_units_Z 16
_cell_length_a 14.095484
_cell_length_b 12.509371
_cell_length_c 9.306648
_cell_angle_alpha 29.115732
_cell_angle_beta 90.396883
_cell_angle_gamma 83.359715
_cell_volume 773.077448
_symmetry_space_group_name_H-M "P -1"
_symmetry_group_IT_number 2
_symmetry_cell_setting 'triclinic'
loop_
_space_group_symop_operation_xyz
x,y,z
-x,-y,-z
loop_
_atom_site_type_symbol
_atom_site_label
_atom_site_fract_x
_atom_site_fract_y
_atom_site_fract_z
Si Si1 0.292449 0.905147 0.416998
Si Si2 0.656121 0.848600 0.627291
Si Si3 0.411555 0.141524 0.928807
Si Si4 0.498729 0.698314 0.998171
Si Si5 0.046693 0.322654 0.584094
Si Si6 0.137825 0.814914 0.298164
Si Si7 0.225855 0.513422 0.375353
Si Si8 0.336651 0.543692 0.087219
O O1 0.208580 0.844116 0.393246
O O2 0.270920 0.105109 0.302964
O O3 0.332799 0.695259 0.768391
O O4 0.369360 0.974407 0.228979
O O5 0.578670 0.738863 0.839755
O O6 0.697072 0.675992 0.704999
O O7 0.591033 0.077896 0.286312
O O8 0.317043 0.299419 0.664006
O O9 0.455583 0.303201 0.843740
O O10 0.500000 0.000000 0.000000
O O11 0.448121 0.496653 0.200081
O O12 0.135387 0.425381 0.414716
O O13 0.000000 0.500000 0.500000
O O14 0.953013 0.288699 0.534238
O O15 0.094782 0.070664 0.939952
O O16 0.193011 0.658432 0.350588
O O17 0.265961 0.651376 0.090611
#
# Coordination Sequence:
#
# PCOD9015117 Si02
#       8
#     2   2   2   2   2   2   2   2
#     4  10  23  39  62  90 123 166 210 254 308 371
#     4   9  19  37  54  78 121 167 213 252 297 352
#     4  11  23  39  59  90 135 168 212 263 296 356
#     4   9  20  35  51  81 116 170 213 252 296 350
#     4   9  20  41  69  96 122 154 203 259 324 370
#     4  10  21  41  71  95 120 158 209 260 312 383
#     4  11  24  39  63  98 126 162 207 263 314 359
#     4  11  23  37  60  85 125 170 205 250 311 368
#
# _framework density 20.696504999999998
#
# number of rings (size 3 to 8) (size 9 to 14) (size 15 to 20)
#    0.000    2.000    1.250    1.875    5.250    3.500 
#    0.000    0.625    0.000    7.500    0.000    0.000 
#    0.000    0.000    0.000    0.000    0.000    0.000 
#
# Total GULP energy -89178.568717 kJ/mol
# GULP energy per Si atom -5573.660545 kJ/mol
# Density = 2.064940 g / cm^3
# Si number density = 20.696505 Si / 1000 Ang^3
#
#
#
# Elastic Constant Matrix: (Units=GPa)
#
#
# Indices 1 2 3 4 5 6 
#
# 1 129.1174 66.7409 29.0274 5.2626 -9.2944 28.3419
# 2 66.7409 99.3854 20.8020 -2.8303 1.5938 27.7669
# 3 29.0274 20.8020 53.1624 -1.4487 -6.3878 -11.6349
# 4 5.2626 -2.8303 -1.4487 26.8665 -2.8990 0.9269
# 5 -9.2944 1.5938 -6.3878 -2.8990 22.7872 -5.5604
# 6 28.3419 27.7669 -11.6349 0.9269 -5.5604 45.8021
#
#
#
# Elastic Compliance Matrix: (Units=1/GPa)
#
#
# Indices 1 2 3 4 5 6 
#
# 1 0.014264 -0.006770 -0.006199 -0.003348 0.002688 -0.005902
# 2 -0.006770 0.019114 -0.006939 0.002430 -0.008225 -0.010208
# 3 -0.006199 -0.006939 0.029988 0.002686 0.010834 0.016921
# 4 -0.003348 0.002430 0.002686 0.038716 0.004394 0.001030
# 5 0.002688 -0.008225 0.010834 0.004394 0.052158 0.012319
# 6 -0.005902 -0.010208 0.016921 0.001030 0.012319 0.037447
#
#
# Mechanical properties :
#
#
# Convention : Reuss Voigt Hill
#
# Bulk Modulus (GPa) = 42.46340 57.20063 49.83201
# Shear Modulus (GPa) = 20.88962 30.09748 25.49355
#
# Velocity S-wave (km/s) = 3.18044 3.81757 3.51348
# Velocity P-wave (km/s) = 5.83513 6.86510 6.37096
#
# Compressibility (1/GPa) = 0.02354969
#
# Stress axis : x y z
#
# Youngs Moduli (GPa) = 70.10783 52.31779 33.34635
#
# Poissons Ratio (x) = 0.35422 0.20672
# Poissons Ratio (y) = 0.47466 0.23138
# Poissons Ratio (z) = 0.43460 0.36301
#
# Static dielectric constant tensor:
#      x y z
#    x 1.765260 0.044790 -0.018690 
#    y 0.044790 1.802840 -0.060690 
#    z -0.018690 -0.060690 1.771170 
# 
# From -- ./inp_files/113172.got.cif
#   From: 2010.05.17/outbox.cif.g08.bks.cpg/sg2_57_cif.got.tgz:113172.got - 2010.06.03 11:33:40.
