data_PCOD9015176
_publ_section_title
;
Structure prediction by ZEFSAII (Michael W. Deem and Ramdas Pophale) SiO2 
 PCOD9015176
Probable space group: P -1
;
_chemical_formula_sum "Si O2"
_cell_formula_units_Z 14
_cell_length_a 7.972054
_cell_length_b 7.312458
_cell_length_c 15.661441
_cell_angle_alpha 125.014803
_cell_angle_beta 43.985572
_cell_angle_gamma 109.429315
_cell_volume 514.100303
_symmetry_space_group_name_H-M "P -1"
_symmetry_group_IT_number 2
_symmetry_cell_setting 'triclinic'
loop_
_space_group_symop_operation_xyz
x,y,z
-x,-y,-z
loop_
_atom_site_type_symbol
_atom_site_label
_atom_site_fract_x
_atom_site_fract_y
_atom_site_fract_z
Si Si1 0.923630 0.860485 0.185630
Si Si2 0.213304 0.423212 0.317223
Si Si3 0.118083 0.964630 0.319850
Si Si4 0.049836 0.736474 0.934009
Si Si5 0.402004 0.847928 0.419713
Si Si6 0.774697 0.393780 0.348380
Si Si7 0.470606 0.416771 0.893530
O O1 0.661096 0.771385 0.258102
O O2 0.835705 0.127009 0.274564
O O3 0.111833 0.757545 0.017034
O O4 0.053671 0.840571 0.223270
O O5 0.200361 0.196760 0.315282
O O6 0.288324 0.613262 0.405440
O O7 0.417583 0.415589 0.167153
O O8 0.969744 0.488800 0.365168
O O9 0.852868 0.999384 0.472332
O O10 0.337095 0.816701 0.248264
O O11 0.184825 0.604319 0.768974
O O12 0.798461 0.643696 0.015401
O O13 0.000000 0.000000 0.000000
O O14 0.500000 0.000000 0.500000
O O15 0.500000 0.500000 0.500000
O O16 0.500000 0.500000 0.000000
#
# Coordination Sequence:
#
# PCOD9015176 Si02
#       7
#     2   2   2   2   2   2   2
#     4   9  20  42  68  98 144 193 237 299 364 430
#     4  11  23  45  73 106 145 190 246 297 369 432
#     4  10  25  44  70 106 145 191 242 302 362 433
#     4  10  21  43  67 102 143 186 241 296 358 439
#     4  10  21  41  72 104 147 186 245 302 361 439
#     4  10  22  39  69 105 147 186 242 301 363 437
#     4  12  25  45  74 105 141 189 249 298 364 439
#
# _framework density 27.232040999999999
#
# number of rings (size 3 to 8) (size 9 to 14) (size 15 to 20)
#    0.000    1.714    2.857    0.429    2.000    3.429 
#    0.000    3.571    0.000    0.000    0.000    0.000 
#    0.000    0.000    0.000    0.000    0.000    0.000 
#
# Total GULP energy -78168.424989 kJ/mol
# GULP energy per Si atom -5583.458928 kJ/mol
# Density = 2.717006 g / cm^3
# Si number density = 27.232041 Si / 1000 Ang^3
#
#
#
# Elastic Constant Matrix: (Units=GPa)
#
#
# Indices 1 2 3 4 5 6 
#
# 1 123.2254 35.9885 69.8746 6.0933 -25.3292 17.2317
# 2 35.9885 150.9922 38.4833 4.1606 -13.6468 15.4329
# 3 69.8746 38.4833 233.1513 -26.5696 12.1974 3.8398
# 4 6.0933 4.1606 -26.5696 37.8810 -0.2513 4.6517
# 5 -25.3292 -13.6468 12.1974 -0.2513 59.3240 5.9942
# 6 17.2317 15.4329 3.8398 4.6517 5.9942 38.8116
#
#
#
# Elastic Compliance Matrix: (Units=1/GPa)
#
#
# Indices 1 2 3 4 5 6 
#
# 1 0.013521 -0.000637 -0.004760 -0.004680 0.007174 -0.005826
# 2 -0.000637 0.007598 -0.001267 -0.001267 0.002011 -0.002772
# 3 -0.004760 -0.001267 0.006705 0.005347 -0.003873 0.001911
# 4 -0.004680 -0.001267 0.005347 0.031168 -0.003136 -0.001198
# 5 0.007174 0.002011 -0.003873 -0.003136 0.021832 -0.006598
# 6 -0.005826 -0.002772 0.001911 -0.001198 -0.006598 0.030428
#
#
# Mechanical properties :
#
#
# Convention : Reuss Voigt Hill
#
# Bulk Modulus (GPa) = 68.98290 88.45131 78.71711
# Shear Modulus (GPa) = 38.63670 51.40480 45.02075
#
# Velocity S-wave (km/s) = 3.77078 4.34943 4.07040
# Velocity P-wave (km/s) = 6.65919 7.60096 7.14561
#
# Compressibility (1/GPa) = 0.01449635
#
# Stress axis : x y z
#
# Youngs Moduli (GPa) = 73.95906 131.62114 149.13677
#
# Poissons Ratio (x) = 0.08380 0.70987
# Poissons Ratio (y) = 0.04709 0.18898
# Poissons Ratio (z) = 0.35203 0.16679
#
# Static dielectric constant tensor:
#      x y z
#    x 2.273310 -0.037450 0.064810 
#    y -0.037450 2.161190 0.103610 
#    z 0.064810 0.103610 2.330810 
# 
# From -- ./inp_files/556462.got.cif
#   From: 2010.05.17/outbox.cif.g08.bks.cpg/sg2_279_cif.got.tgz:556462.got - 2010.06.03 11:33:40.
