data_PCOD9015547
_publ_section_title
;
Structure prediction by ZEFSAII (Michael W. Deem and Ramdas Pophale) SiO2 
 PCOD9015547
Probable space group: P -1
;
_chemical_formula_sum "Si O2"
_cell_formula_units_Z 16
_cell_length_a 8.621301
_cell_length_b 8.895890
_cell_length_c 15.280151
_cell_angle_alpha 96.087522
_cell_angle_beta 110.283668
_cell_angle_gamma 131.974387
_cell_volume 714.866812
_symmetry_space_group_name_H-M "P -1"
_symmetry_group_IT_number 2
_symmetry_cell_setting 'triclinic'
loop_
_space_group_symop_operation_xyz
x,y,z
-x,-y,-z
loop_
_atom_site_type_symbol
_atom_site_label
_atom_site_fract_x
_atom_site_fract_y
_atom_site_fract_z
Si Si1 0.675948 0.577342 0.119758
Si Si2 0.197954 0.581990 0.619698
Si Si3 0.075239 0.914750 0.447110
Si Si4 0.225658 0.975071 0.297752
Si Si5 0.586074 0.220138 0.657358
Si Si6 0.540833 0.785249 0.172014
Si Si7 0.696528 0.271579 0.050204
Si Si8 0.965184 0.309612 0.249796
O O1 0.585671 0.636701 0.176634
O O2 0.631440 0.368285 0.106228
O O3 0.500000 0.500000 0.000000
O O4 0.977482 0.807177 0.177269
O O5 0.494845 0.794296 0.666428
O O6 0.153375 0.663685 0.697597
O O7 0.000000 0.500000 0.500000
O O8 0.127403 0.359858 0.612652
O O9 0.147139 0.015632 0.370007
O O10 0.328843 0.020001 0.543426
O O11 0.000000 0.000000 0.500000
O O12 0.248818 0.816394 0.323741
O O13 0.521054 0.194119 0.744464
O O14 0.735352 0.469299 0.664994
O O15 0.802781 0.045000 0.206618
O O16 0.329327 0.683971 0.051148
O O17 0.935828 0.361346 0.149506
O O18 0.500000 0.000000 0.000000
#
# Coordination Sequence:
#
# PCOD9015547 Si02
#       8
#     2   2   2   2   2   2   2   2
#     4  10  21  42  63  94 131 165 206 272 319 369
#     4  12  23  40  66  95 128 169 218 266 312 386
#     4  12  26  42  63  96 136 163 210 273 324 373
#     4  12  23  41  70  93 126 174 217 257 323 385
#     4  12  22  39  67  96 121 175 217 258 320 390
#     4  10  22  39  62  92 131 160 213 270 323 366
#     4   9  19  37  63  90 121 168 208 256 312 374
#     4  11  21  38  63  93 125 164 220 265 311 380
#
# _framework density 22.381791
#
# number of rings (size 3 to 8) (size 9 to 14) (size 15 to 20)
#    0.000    1.000    5.000    1.875    0.000    2.000 
#    0.000    0.000    0.000    8.250    0.000    0.000 
#    0.000    0.000    0.000    0.000    0.000    0.000 
#
# Total GULP energy -89271.161593 kJ/mol
# GULP energy per Si atom -5579.447600 kJ/mol
# Density = 2.233085 g / cm^3
# Si number density = 22.381791 Si / 1000 Ang^3
#
#
#
# Elastic Constant Matrix: (Units=GPa)
#
#
# Indices 1 2 3 4 5 6 
#
# 1 58.9426 28.8100 33.0267 9.9529 4.6574 0.6048
# 2 28.8100 94.8747 26.6091 24.1197 -2.3732 10.4641
# 3 33.0267 26.6091 122.8994 6.6494 11.9774 12.0686
# 4 9.9529 24.1197 6.6494 37.7424 -0.2152 -0.2178
# 5 4.6574 -2.3732 11.9774 -0.2152 41.4110 8.8913
# 6 0.6048 10.4641 12.0686 -0.2178 8.8913 38.1964
#
#
#
# Elastic Compliance Matrix: (Units=1/GPa)
#
#
# Indices 1 2 3 4 5 6 
#
# 1 0.022869 -0.005555 -0.004962 -0.001600 -0.002155 0.003220
# 2 -0.005555 0.015149 -0.001191 -0.008016 0.002734 -0.004368
# 3 -0.004962 -0.001191 0.010133 0.000260 -0.001936 -0.002345
# 4 -0.001600 -0.008016 0.000260 0.032005 -0.000723 0.002490
# 5 -0.002155 0.002734 -0.001936 -0.000723 0.026448 -0.006264
# 6 0.003220 -0.004368 -0.002345 0.002490 -0.006264 0.029539
#
#
# Mechanical properties :
#
#
# Convention : Reuss Voigt Hill
#
# Bulk Modulus (GPa) = 40.42968 50.40091 45.41530
# Shear Modulus (GPa) = 29.79659 36.02134 32.90896
#
# Velocity S-wave (km/s) = 3.65264 4.01609 3.83867
# Velocity P-wave (km/s) = 5.99098 6.63874 6.32316
#
# Compressibility (1/GPa) = 0.02473430
#
# Stress axis : x y z
#
# Youngs Moduli (GPa) = 43.72778 66.01041 98.68721
#
# Poissons Ratio (x) = 0.36668 0.48973
# Poissons Ratio (y) = 0.24290 0.11753
# Poissons Ratio (z) = 0.21700 0.07862
#
# Static dielectric constant tensor:
#      x y z
#    x 1.820270 -0.032420 0.035280 
#    y -0.032420 1.864130 0.013610 
#    z 0.035280 0.013610 1.919070 
# 
# From -- ./inp_files/495272.got.cif
#   From: 2010.05.17/outbox.cif.g08.bks.cpg/sg2_248_cif.got.tgz:495272.got - 2010.06.03 11:33:40.
