data_PCOD9015211
_publ_section_title
;
Structure prediction by ZEFSAII (Michael W. Deem and Ramdas Pophale) SiO2 
 PCOD9015211
Probable space group: P -1
;
_chemical_formula_sum "Si O2"
_cell_formula_units_Z 12
_cell_length_a 12.080997
_cell_length_b 7.050831
_cell_length_c 9.502877
_cell_angle_alpha 88.448061
_cell_angle_beta 39.314124
_cell_angle_gamma 95.233821
_cell_volume 504.560842
_symmetry_space_group_name_H-M "P -1"
_symmetry_group_IT_number 2
_symmetry_cell_setting 'triclinic'
loop_
_space_group_symop_operation_xyz
x,y,z
-x,-y,-z
loop_
_atom_site_type_symbol
_atom_site_label
_atom_site_fract_x
_atom_site_fract_y
_atom_site_fract_z
Si Si1 0.469399 0.773994 0.509080
Si Si2 0.969534 0.522834 0.779859
Si Si3 0.800743 0.593253 0.203502
Si Si4 0.757200 0.458919 0.728053
Si Si5 0.476669 0.852078 0.182091
Si Si6 0.790732 0.914699 0.689623
O O1 0.639997 0.696891 0.399209
O O2 0.292819 0.629495 0.732563
O O3 0.467934 0.756173 0.343076
O O4 0.500000 0.000000 0.500000
O O5 0.068611 0.402396 0.793420
O O6 0.111119 0.606735 0.518582
O O7 0.813304 0.424537 0.833112
O O8 0.896995 0.663315 0.960441
O O9 0.575656 0.322645 0.872880
O O10 0.778402 0.687075 0.681014
O O11 0.331537 0.992057 0.303921
O O12 0.677002 0.944866 0.941587
O O13 0.000000 0.000000 0.500000
#
# Coordination Sequence:
#
# PCOD9015211 Si02
#       6
#     2   2   2   2   2   2
#     4  11  25  42  67  92 135 185 225 272 343 407
#     4  10  21  41  72  98 130 177 225 278 341 401
#     4  10  23  44  64  97 138 172 226 280 332 410
#     4  11  22  42  73  99 134 179 221 281 349 396
#     4  11  25  45  65 104 138 174 234 283 340 407
#     4  11  25  41  69 102 139 175 220 289 340 405
#
# _framework density 23.783056999999999
#
# number of rings (size 3 to 8) (size 9 to 14) (size 15 to 20)
#    0.000    1.333    1.667    3.500    2.333    4.000 
#    0.000    3.333    0.000    0.000    0.000    0.000 
#    0.000    0.000    0.000    0.000    0.000    0.000 
#
# Total GULP energy -66971.631539 kJ/mol
# GULP energy per Si atom -5580.969295 kJ/mol
# Density = 2.372893 g / cm^3
# Si number density = 23.783057 Si / 1000 Ang^3
#
#
#
# Elastic Constant Matrix: (Units=GPa)
#
#
# Indices 1 2 3 4 5 6 
#
# 1 143.5314 42.9615 44.4556 7.1295 -7.2776 4.6472
# 2 42.9615 133.4629 7.2805 -4.4430 -20.4484 -6.1556
# 3 44.4556 7.2805 101.6052 -1.1134 -9.9886 6.6184
# 4 7.1295 -4.4430 -1.1134 14.7923 8.1215 2.9468
# 5 -7.2776 -20.4484 -9.9886 8.1215 51.4294 6.1785
# 6 4.6472 -6.1556 6.6184 2.9468 6.1785 30.5068
#
#
#
# Elastic Compliance Matrix: (Units=1/GPa)
#
#
# Indices 1 2 3 4 5 6 
#
# 1 0.009387 -0.002976 -0.003873 -0.005783 0.000392 -0.000711
# 2 -0.002976 0.008968 0.000876 0.002413 0.002780 0.001277
# 3 -0.003873 0.000876 0.011858 0.002402 0.002018 -0.002446
# 4 -0.005783 0.002413 0.002402 0.078348 -0.011231 -0.004446
# 5 0.000392 0.002780 0.002018 -0.011231 0.023197 -0.003550
# 6 -0.000711 0.001277 -0.002446 -0.004446 -0.003550 0.034825
#
#
# Mechanical properties :
#
#
# Convention : Reuss Voigt Hill
#
# Bulk Modulus (GPa) = 54.73956 63.11052 58.92504
# Shear Modulus (GPa) = 27.08313 38.27247 32.67780
#
# Velocity S-wave (km/s) = 3.37821 4.01588 3.71076
# Velocity P-wave (km/s) = 6.18729 6.93517 6.57188
#
# Compressibility (1/GPa) = 0.01826832
#
# Stress axis : x y z
#
# Youngs Moduli (GPa) = 106.52513 111.50697 84.33333
#
# Poissons Ratio (x) = 0.33183 0.32659
# Poissons Ratio (y) = 0.31700 -0.07388
# Poissons Ratio (z) = 0.41253 -0.09768
#
# Static dielectric constant tensor:
#      x y z
#    x 1.928990 -0.026130 -0.063950 
#    y -0.026130 1.978290 0.022380 
#    z -0.063950 0.022380 1.990690 
# 
# From -- ./inp_files/239483.got.cif
#   From: 2010.05.17/outbox.cif.g08.bks.cpg/sg2_120_cif.got.tgz:239483.got - 2010.06.03 11:33:40.
