data_PCOD9015841
_publ_section_title
;
Structure prediction by ZEFSAII (Michael W. Deem and Ramdas Pophale) SiO2 
 PCOD9015841
Probable space group: P -1
;
_chemical_formula_sum "Si O2"
_cell_formula_units_Z 16
_cell_length_a 14.612010
_cell_length_b 5.130747
_cell_length_c 9.190727
_cell_angle_alpha 100.077950
_cell_angle_beta 89.580792
_cell_angle_gamma 92.232043
_cell_volume 677.887466
_symmetry_space_group_name_H-M "P -1"
_symmetry_group_IT_number 2
_symmetry_cell_setting 'triclinic'
loop_
_space_group_symop_operation_xyz
x,y,z
-x,-y,-z
loop_
_atom_site_type_symbol
_atom_site_label
_atom_site_fract_x
_atom_site_fract_y
_atom_site_fract_z
Si Si1 0.889245 0.654900 0.160952
Si Si2 0.824233 0.130097 0.999483
Si Si3 0.727263 0.742429 0.378795
Si Si4 0.829876 0.877381 0.663483
Si Si5 0.557001 0.732645 0.946837
Si Si6 0.332116 0.948120 0.822941
Si Si7 0.467503 0.569558 0.665703
Si Si8 0.946139 0.372103 0.627117
O O1 0.862863 0.897777 0.079866
O O2 0.812785 0.610818 0.286593
O O3 0.982964 0.688158 0.251353
O O4 0.889255 0.388409 0.040440
O O5 0.726724 0.216744 0.075243
O O6 0.809494 0.030509 0.826787
O O7 0.746179 0.784909 0.551375
O O8 0.728572 0.014422 0.314869
O O9 0.625649 0.617794 0.332607
O O10 0.879609 0.611838 0.684045
O O11 0.890161 0.090070 0.585063
O O12 0.556894 0.610285 0.772907
O O13 0.500000 0.500000 0.000000
O O14 0.645835 0.797306 0.049102
O O15 0.500000 0.000000 0.000000
O O16 0.422062 0.842625 0.736709
O O17 0.500000 0.500000 0.500000
O O18 0.000000 0.500000 0.500000
#
# Coordination Sequence:
#
# PCOD9015841 Si02
#       8
#     2   2   2   2   2   2   2   2
#     4  11  24  45  75  94 141 187 232 283 347 416
#     4  11  25  44  69 105 135 186 231 289 348 401
#     4  11  24  43  68 100 138 184 229 278 354 414
#     4  12  28  43  71 107 144 182 236 289 342 416
#     4  10  21  42  65  93 127 173 221 275 336 402
#     4  10  23  44  68  94 139 181 230 284 347 415
#     4  11  24  43  69 102 135 181 233 287 346 413
#     4  12  26  46  72 106 142 185 234 286 348 407
#
# _framework density 23.602734999999999
#
# number of rings (size 3 to 8) (size 9 to 14) (size 15 to 20)
#    0.000    1.000    3.750    1.875    7.000    3.500 
#    0.000    0.000    0.000    0.000    0.000    0.000 
#    0.000    0.000    0.000    0.000    0.000    0.000 
#
# Total GULP energy -89090.416909 kJ/mol
# GULP energy per Si atom -5568.151057 kJ/mol
# Density = 2.354901 g / cm^3
# Si number density = 23.602735 Si / 1000 Ang^3
#
#
#
# Elastic Constant Matrix: (Units=GPa)
#
#
# Indices 1 2 3 4 5 6 
#
# 1 45.6387 13.3324 33.2597 -3.1699 6.2948 9.1530
# 2 13.3324 102.8597 14.3958 8.5851 8.0395 -2.8180
# 3 33.2597 14.3958 184.3526 5.8554 15.1154 -5.5729
# 4 -3.1699 8.5851 5.8554 31.9340 7.1900 5.3674
# 5 6.2948 8.0395 15.1154 7.1900 29.8298 4.8568
# 6 9.1530 -2.8180 -5.5729 5.3674 4.8568 23.1876
#
#
#
# Elastic Compliance Matrix: (Units=1/GPa)
#
#
# Indices 1 2 3 4 5 6 
#
# 1 0.031548 -0.004250 -0.005952 0.008485 -0.001943 -0.015957
# 2 -0.004250 0.010808 0.000335 -0.003666 -0.002009 0.004341
# 3 -0.005952 0.000335 0.006913 -0.002215 -0.002637 0.005117
# 4 0.008485 -0.003666 -0.002215 0.036993 -0.006727 -0.011481
# 5 -0.001943 -0.002009 -0.002637 -0.006727 0.038510 -0.006620
# 6 -0.015957 0.004341 0.005117 -0.011481 -0.006620 0.055227
#
#
# Mechanical properties :
#
#
# Convention : Reuss Voigt Hill
#
# Bulk Modulus (GPa) = 33.85762 50.53630 42.19696
# Shear Modulus (GPa) = 23.85737 35.11450 29.48594
#
# Velocity S-wave (km/s) = 3.18274 3.86130 3.53832
# Velocity P-wave (km/s) = 5.28038 6.42940 5.88301
#
# Compressibility (1/GPa) = 0.02953545
#
# Stress axis : x y z
#
# Youngs Moduli (GPa) = 31.69750 92.52543 144.64794
#
# Poissons Ratio (x) = 0.39320 0.86101
# Poissons Ratio (y) = 0.13470 -0.04847
# Poissons Ratio (z) = 0.18868 -0.03101
#
# Static dielectric constant tensor:
#      x y z
#    x 2.133420 -0.022000 0.182220 
#    y -0.022000 1.999820 -0.052790 
#    z 0.182220 -0.052790 2.513350 
# 
# From -- ./inp_files/89878.got.cif
#   From: 2010.05.17/outbox.cif.g08.bks.cpg/sg2_45_cif.got.tgz:89878.got - 2010.06.03 11:33:40.
