data_PCOD9015224
_publ_section_title
;
Structure prediction by ZEFSAII (Michael W. Deem and Ramdas Pophale) SiO2 
 PCOD9015224
Probable space group: P -1
;
_chemical_formula_sum "Si O2"
_cell_formula_units_Z 14
_cell_length_a 11.012386
_cell_length_b 10.656908
_cell_length_c 13.128152
_cell_angle_alpha 148.743060
_cell_angle_beta 46.459102
_cell_angle_gamma 124.807864
_cell_volume 578.825090
_symmetry_space_group_name_H-M "P -1"
_symmetry_group_IT_number 2
_symmetry_cell_setting 'triclinic'
loop_
_space_group_symop_operation_xyz
x,y,z
-x,-y,-z
loop_
_atom_site_type_symbol
_atom_site_label
_atom_site_fract_x
_atom_site_fract_y
_atom_site_fract_z
Si Si1 0.329298 0.153851 0.240684
Si Si2 0.674430 0.405273 0.781586
Si Si3 0.965248 0.157432 0.878591
Si Si4 0.221241 0.459483 0.835148
Si Si5 0.600295 0.329271 0.533992
Si Si6 0.838865 0.891566 0.066126
Si Si7 0.808179 0.102541 0.678642
O O1 0.344215 0.429512 0.388593
O O2 0.156536 0.058090 0.223725
O O3 0.301111 0.091221 0.332425
O O4 0.500000 0.000000 0.000000
O O5 0.645448 0.340127 0.635783
O O6 0.751418 0.195418 0.664784
O O7 0.500000 0.500000 0.000000
O O8 0.795602 0.629445 0.870664
O O9 0.081618 0.269372 0.802720
O O10 0.101151 0.120772 0.861190
O O11 0.829224 0.383547 0.126755
O O12 0.402172 0.335437 0.643724
O O13 0.220799 0.657101 0.065228
O O14 0.685386 0.082921 0.271380
O O15 0.000000 0.000000 0.000000
O O16 0.000000 0.000000 0.500000
#
# Coordination Sequence:
#
# PCOD9015224 Si02
#       7
#     2   2   2   2   2   2   2
#     4  11  22  45  73 105 144 196 248 303 370 441
#     4  12  25  50  74 109 149 189 250 307 366 449
#     4  10  21  41  72  99 145 185 241 305 358 434
#     4  10  21  45  70 104 143 196 247 300 368 445
#     4  12  26  48  78 107 151 201 244 311 378 437
#     4  12  29  47  71 111 152 191 248 310 379 440
#     4  11  24  42  70 107 146 189 250 301 361 441
#
# _framework density 24.186927000000001
#
# number of rings (size 3 to 8) (size 9 to 14) (size 15 to 20)
#    0.000    0.857    5.714    0.857    6.000    3.429 
#    2.571    0.714    0.000    0.000    0.000    0.000 
#    0.000    0.000    0.000    0.000    0.000    0.000 
#
# Total GULP energy -78324.125441 kJ/mol
# GULP energy per Si atom -5594.580389 kJ/mol
# Density = 2.413188 g / cm^3
# Si number density = 24.186927 Si / 1000 Ang^3
#
#
#
# Elastic Constant Matrix: (Units=GPa)
#
#
# Indices 1 2 3 4 5 6 
#
# 1 93.9335 38.7058 40.2106 8.8290 -30.0947 -1.0176
# 2 38.7058 119.2678 23.6114 -9.4543 -3.7407 -14.9157
# 3 40.2106 23.6114 109.7253 5.7713 -29.2503 -10.4948
# 4 8.8290 -9.4543 5.7713 29.2685 4.4915 -10.1894
# 5 -30.0947 -3.7407 -29.2503 4.4915 48.2058 6.8977
# 6 -1.0176 -14.9157 -10.4948 -10.1894 6.8977 49.7466
#
#
#
# Elastic Compliance Matrix: (Units=1/GPa)
#
#
# Indices 1 2 3 4 5 6 
#
# 1 0.019641 -0.007275 -0.002337 -0.011940 0.012311 -0.006425
# 2 -0.007275 0.012385 -0.001608 0.009594 -0.006318 0.006067
# 3 -0.002337 -0.001608 0.012113 -0.002905 0.005950 0.000606
# 4 -0.011940 0.009594 -0.002905 0.048641 -0.015017 0.014065
# 5 0.012311 -0.006318 0.005950 -0.015017 0.034122 -0.008194
# 6 -0.006425 0.006067 0.000606 0.014065 -0.008194 0.025934
#
#
# Mechanical properties :
#
#
# Convention : Reuss Voigt Hill
#
# Bulk Modulus (GPa) = 46.08466 58.66467 52.37467
# Shear Modulus (GPa) = 27.39597 40.13746 33.76672
#
# Velocity S-wave (km/s) = 3.36918 4.07808 3.74046
# Velocity P-wave (km/s) = 5.85065 6.81775 6.35263
#
# Compressibility (1/GPa) = 0.02169920
#
# Stress axis : x y z
#
# Youngs Moduli (GPa) = 50.91388 80.74397 82.55666
#
# Poissons Ratio (x) = 0.58744 0.19292
# Poissons Ratio (y) = 0.37042 0.13271
# Poissons Ratio (z) = 0.11898 0.12980
#
# Static dielectric constant tensor:
#      x y z
#    x 2.086120 -0.130290 0.001770 
#    y -0.130290 1.962880 0.012400 
#    z 0.001770 0.012400 2.028580 
# 
# From -- ./inp_files/519322.got.cif
#   From: 2010.05.17/outbox.cif.g08.bks.cpg/sg2_260_cif.got.tgz:519322.got - 2010.06.03 11:33:40.
