data_PCOD9015925
_publ_section_title
;
Structure prediction by ZEFSAII (Michael W. Deem and Ramdas Pophale) SiO2 
 PCOD9015925
Probable space group: P -1
;
_chemical_formula_sum "Si O2"
_cell_formula_units_Z 14
_cell_length_a 7.947347
_cell_length_b 7.455933
_cell_length_c 12.486260
_cell_angle_alpha 128.723883
_cell_angle_beta 72.093893
_cell_angle_gamma 110.915568
_cell_volume 535.585436
_symmetry_space_group_name_H-M "P -1"
_symmetry_group_IT_number 2
_symmetry_cell_setting 'triclinic'
loop_
_space_group_symop_operation_xyz
x,y,z
-x,-y,-z
loop_
_atom_site_type_symbol
_atom_site_label
_atom_site_fract_x
_atom_site_fract_y
_atom_site_fract_z
Si Si1 0.216286 0.579070 0.863513
Si Si2 0.544995 0.742413 0.012262
Si Si3 0.751187 0.501412 0.741639
Si Si4 0.852112 0.303167 0.309218
Si Si5 0.316493 0.976497 0.284094
Si Si6 0.013219 0.139440 0.854468
Si Si7 0.467134 0.759767 0.485743
O O1 0.391113 0.716748 0.942422
O O2 0.222742 0.592993 0.741516
O O3 0.159020 0.312733 0.816800
O O4 0.058203 0.701610 0.984738
O O5 0.722714 0.718002 0.902646
O O6 0.500000 0.500000 0.000000
O O7 0.496304 0.942735 0.172406
O O8 0.742861 0.269685 0.730357
O O9 0.582660 0.441557 0.669445
O O10 0.942304 0.549084 0.662611
O O11 0.716859 0.279138 0.424685
O O12 0.887337 0.045386 0.183047
O O13 0.154977 0.982230 0.235124
O O14 0.374151 0.189355 0.436787
O O15 0.500000 0.000000 0.500000
#
# Coordination Sequence:
#
# PCOD9015925 Si02
#       7
#     2   2   2   2   2   2   2
#     4  10  22  41  64 104 139 172 216 273 331 397
#     4   9  20  37  72  95 131 177 214 264 337 389
#     4  10  21  42  65  98 134 172 222 276 323 391
#     4  12  24  40  68  98 130 175 228 274 326 393
#     4   9  19  42  65  96 133 176 217 268 328 398
#     4  10  22  39  67  99 140 172 215 273 338 387
#     4  10  24  43  68  92 136 178 223 275 336 393
#
# _framework density 26.139619
#
# number of rings (size 3 to 8) (size 9 to 14) (size 15 to 20)
#    0.000    2.000    1.429    0.857    8.000    2.286 
#    0.000   10.000    0.000    0.000    0.000    0.000 
#    0.000    0.000    0.000    0.000    0.000    0.000 
#
# Total GULP energy -78405.642482 kJ/mol
# GULP energy per Si atom -5600.403034 kJ/mol
# Density = 2.608012 g / cm^3
# Si number density = 26.139619 Si / 1000 Ang^3
#
#
#
# Elastic Constant Matrix: (Units=GPa)
#
#
# Indices 1 2 3 4 5 6 
#
# 1 93.2081 21.6325 17.0410 -5.5590 19.9989 11.3919
# 2 21.6325 96.2949 38.8786 -21.4591 -9.6744 19.2852
# 3 17.0410 38.8786 118.7786 -9.7666 13.1455 1.6135
# 4 -5.5590 -21.4591 -9.7666 40.1334 12.6434 -5.4260
# 5 19.9989 -9.6744 13.1455 12.6434 41.3374 2.4224
# 6 11.3919 19.2852 1.6135 -5.4260 2.4224 30.9168
#
#
#
# Elastic Compliance Matrix: (Units=1/GPa)
#
#
# Indices 1 2 3 4 5 6 
#
# 1 0.013478 -0.002876 0.000120 0.002559 -0.007891 -0.002111
# 2 -0.002876 0.016362 -0.005180 0.003979 0.006158 -0.008660
# 3 0.000120 -0.005180 0.010839 0.002099 -0.005560 0.003425
# 4 0.002559 0.003979 0.002099 0.031715 -0.010844 0.002881
# 5 -0.007891 0.006158 -0.005560 -0.010844 0.034844 -0.005277
# 6 -0.002111 -0.008660 0.003425 0.002881 -0.005277 0.039265
#
#
# Mechanical properties :
#
#
# Convention : Reuss Voigt Hill
#
# Bulk Modulus (GPa) = 40.31096 51.48733 45.89914
# Shear Modulus (GPa) = 29.30086 37.85947 33.58017
#
# Velocity S-wave (km/s) = 3.35167 3.80986 3.58808
# Velocity P-wave (km/s) = 5.51663 6.25245 5.89603
#
# Compressibility (1/GPa) = 0.02480715
#
# Stress axis : x y z
#
# Youngs Moduli (GPa) = 74.19557 61.11737 92.26253
#
# Poissons Ratio (x) = 0.17577 -0.01108
# Poissons Ratio (y) = 0.21339 0.47790
# Poissons Ratio (z) = -0.00891 0.31657
#
# Static dielectric constant tensor:
#      x y z
#    x 2.025070 0.045030 0.020400 
#    y 0.045030 2.065350 0.025530 
#    z 0.020400 0.025530 2.027860 
# 
# From -- ./inp_files/381413.got.cif
#   From: 2010.05.17/outbox.cif.g08.bks.cpg/sg2_191_cif.got.tgz:381413.got - 2010.06.03 11:33:40.
