data_PCOD9015662
_publ_section_title
;
Structure prediction by ZEFSAII (Michael W. Deem and Ramdas Pophale) SiO2 
 PCOD9015662
Probable space group: P -1
;
_chemical_formula_sum "Si O2"
_cell_formula_units_Z 16
_cell_length_a 12.461535
_cell_length_b 12.201194
_cell_length_c 8.016659
_cell_angle_alpha 77.400897
_cell_angle_beta 54.988241
_cell_angle_gamma 119.765345
_cell_volume 612.506574
_symmetry_space_group_name_H-M "P -1"
_symmetry_group_IT_number 2
_symmetry_cell_setting 'triclinic'
loop_
_space_group_symop_operation_xyz
x,y,z
-x,-y,-z
loop_
_atom_site_type_symbol
_atom_site_label
_atom_site_fract_x
_atom_site_fract_y
_atom_site_fract_z
Si Si1 0.835804 0.667794 0.088543
Si Si2 0.612963 0.337117 0.163752
Si Si3 0.154608 0.700660 0.870124
Si Si4 0.448895 0.227456 0.859970
Si Si5 0.680974 0.166604 0.666049
Si Si6 0.753238 0.837430 0.265310
Si Si7 0.326066 0.460125 0.249671
Si Si8 0.948491 0.145103 0.507618
O O1 0.009063 0.712647 0.025773
O O2 0.940225 0.799826 0.788402
O O3 0.722022 0.687420 0.288182
O O4 0.700944 0.480645 0.181053
O O5 0.710341 0.278754 0.123198
O O6 0.366653 0.192469 0.458404
O O7 0.681124 0.434156 0.896348
O O8 0.310410 0.844862 0.536571
O O9 0.000000 0.500000 0.000000
O O10 0.643367 0.272521 0.678864
O O11 0.560505 0.418919 0.728673
O O12 0.338454 0.148672 0.806760
O O13 0.258864 0.066270 0.206265
O O14 0.877966 0.228776 0.531644
O O15 0.500000 0.000000 0.000000
O O16 0.000000 0.000000 0.000000
O O17 0.111090 0.250928 0.481018
O O18 0.500000 0.500000 0.000000
#
# Coordination Sequence:
#
# PCOD9015662 Si02
#       8
#     2   2   2   2   2   2   2   2
#     4   9  20  39  65  91 123 171 205 265 324 380
#     4  10  21  42  64  92 130 158 220 266 319 390
#     4   9  17  37  66  93 125 167 215 271 329 386
#     4  11  23  42  68  91 131 174 211 270 332 382
#     4   9  18  38  65  96 130 173 217 271 327 391
#     4  12  26  40  60  96 129 167 214 265 326 387
#     4  11  25  41  66  96 127 175 218 263 325 397
#     4   9  21  41  65  95 130 164 222 264 318 390
#
# _framework density 26.122164999999999
#
# number of rings (size 3 to 8) (size 9 to 14) (size 15 to 20)
#    0.000    2.000    1.250    2.625    3.500    1.500 
#    0.000    4.375    0.000    0.000    0.000    0.000 
#    0.000    0.000    0.000    0.000    0.000    0.000 
#
# Total GULP energy -89371.405389 kJ/mol
# GULP energy per Si atom -5585.712837 kJ/mol
# Density = 2.606271 g / cm^3
# Si number density = 26.122165 Si / 1000 Ang^3
#
#
#
# Elastic Constant Matrix: (Units=GPa)
#
#
# Indices 1 2 3 4 5 6 
#
# 1 100.8027 13.1062 26.5780 -3.0437 -4.2712 -3.5689
# 2 13.1062 65.2641 2.3956 -15.8848 -13.9228 4.6255
# 3 26.5780 2.3956 95.8403 -15.1577 8.7962 8.9173
# 4 -3.0437 -15.8848 -15.1577 23.8591 -2.4771 -10.6853
# 5 -4.2712 -13.9228 8.7962 -2.4771 44.8735 4.2061
# 6 -3.5689 4.6255 8.9173 -10.6853 4.2061 26.8231
#
#
#
# Elastic Compliance Matrix: (Units=1/GPa)
#
#
# Indices 1 2 3 4 5 6 
#
# 1 0.011259 -0.002470 -0.003559 -0.001283 0.000699 0.002486
# 2 -0.002470 0.021008 0.002003 0.015947 0.006707 0.000684
# 3 -0.003559 0.002003 0.012974 0.008237 -0.001657 -0.001591
# 4 -0.001283 0.015947 0.008237 0.067227 0.005016 0.020335
# 5 0.000699 0.006707 -0.001657 0.005016 0.025266 -0.002477
# 6 0.002486 0.000684 -0.001591 0.020335 -0.002477 0.046512
#
#
# Mechanical properties :
#
#
# Convention : Reuss Voigt Hill
#
# Bulk Modulus (GPa) = 26.88959 38.45186 32.67072
# Shear Modulus (GPa) = 24.42669 33.76629 29.09649
#
# Velocity S-wave (km/s) = 3.06125 3.59922 3.34108
# Velocity P-wave (km/s) = 4.77610 5.65901 5.23620
#
# Compressibility (1/GPa) = 0.03718911
#
# Stress axis : x y z
#
# Youngs Moduli (GPa) = 88.82001 47.60006 77.07903
#
# Poissons Ratio (x) = 0.11755 0.27431
# Poissons Ratio (y) = 0.21935 -0.15436
# Poissons Ratio (z) = 0.31610 -0.09533
#
# Static dielectric constant tensor:
#      x y z
#    x 2.095660 0.172130 0.047260 
#    y 0.172130 1.876990 -0.090480 
#    z 0.047260 -0.090480 2.175030 
# 
# From -- ./inp_files/272406.got.cif
#   From: 2010.05.17/outbox.cif.g08.bks.cpg/sg2_137_cif.got.tgz:272406.got - 2010.06.03 11:33:40.
