data_PCOD9015936
_publ_section_title
;
Structure prediction by ZEFSAII (Michael W. Deem and Ramdas Pophale) SiO2 
 PCOD9015936
Probable space group: P -1
;
_chemical_formula_sum "Si O2"
_cell_formula_units_Z 16
_cell_length_a 6.151233
_cell_length_b 12.267065
_cell_length_c 11.420206
_cell_angle_alpha 114.005693
_cell_angle_beta 73.963100
_cell_angle_gamma 125.014352
_cell_volume 643.670173
_symmetry_space_group_name_H-M "P -1"
_symmetry_group_IT_number 2
_symmetry_cell_setting 'triclinic'
loop_
_space_group_symop_operation_xyz
x,y,z
-x,-y,-z
loop_
_atom_site_type_symbol
_atom_site_label
_atom_site_fract_x
_atom_site_fract_y
_atom_site_fract_z
Si Si1 0.368757 0.860478 0.037174
Si Si2 0.190889 0.982995 0.766162
Si Si3 0.836034 0.763309 0.193378
Si Si4 0.551741 0.666488 0.521327
Si Si5 0.428893 0.862824 0.520166
Si Si6 0.361571 0.266807 0.191534
Si Si7 0.708262 0.481195 0.743388
Si Si8 0.988541 0.641561 0.333846
O O1 0.055599 0.795869 0.075850
O O2 0.547550 0.917135 0.152934
O O3 0.432461 0.752039 0.922262
O O4 0.500000 0.000000 0.000000
O O5 0.244320 0.868530 0.650516
O O6 0.911385 0.886002 0.830484
O O7 0.160319 0.091412 0.735431
O O8 0.531961 0.632433 0.186085
O O9 0.946132 0.716434 0.264717
O O10 0.625586 0.820369 0.528374
O O11 0.534261 0.684404 0.669651
O O12 0.337740 0.565340 0.409877
O O13 0.770229 0.625187 0.450839
O O14 0.264665 0.748830 0.397928
O O15 0.500000 0.000000 0.500000
O O16 0.301999 0.379318 0.194769
O O17 0.974399 0.488064 0.748605
#
# Coordination Sequence:
#
# PCOD9015936 Si02
#       8
#     2   2   2   2   2   2   2   2
#     4  12  26  47  71  99 138 178 231 285 338 397
#     4  12  25  44  69 103 137 177 230 286 334 403
#     4  11  24  46  73  95 142 177 229 285 339 394
#     4  10  22  43  65 101 139 180 222 277 338 407
#     4  11  21  34  65  99 137 176 228 271 341 401
#     4  12  25  45  70 103 138 182 227 280 342 404
#     4  10  24  46  69 102 141 175 227 279 340 413
#     4  10  21  42  65  99 135 179 216 282 334 401
#
# _framework density 24.85745
#
# number of rings (size 3 to 8) (size 9 to 14) (size 15 to 20)
#    0.000    1.000    2.500    5.250    1.750    2.000 
#    9.000    2.500    0.000    0.000    0.000    0.000 
#    0.000    0.000    0.000    0.000    0.000    0.000 
#
# Total GULP energy -89321.273947 kJ/mol
# GULP energy per Si atom -5582.579622 kJ/mol
# Density = 2.480087 g / cm^3
# Si number density = 24.857450 Si / 1000 Ang^3
#
#
#
# Elastic Constant Matrix: (Units=GPa)
#
#
# Indices 1 2 3 4 5 6 
#
# 1 117.8885 52.5418 29.1032 2.5606 -28.5361 -24.2475
# 2 52.5418 128.1414 2.7301 3.4107 -8.1343 -27.7343
# 3 29.1032 2.7301 59.6524 2.5971 -18.7703 -4.0087
# 4 2.5606 3.4107 2.5971 32.2368 -0.5235 -10.3350
# 5 -28.5361 -8.1343 -18.7703 -0.5235 40.0534 6.5337
# 6 -24.2475 -27.7343 -4.0087 -10.3350 6.5337 60.3559
#
#
#
# Elastic Compliance Matrix: (Units=1/GPa)
#
#
# Indices 1 2 3 4 5 6 
#
# 1 0.013619 -0.004562 -0.004293 0.000656 0.006363 0.002513
# 2 -0.004562 0.010252 0.001681 0.000124 -0.000886 0.003107
# 3 -0.004293 0.001681 0.021090 -0.001615 0.007245 -0.000612
# 4 0.000656 0.000124 -0.001615 0.032979 -0.000803 0.005947
# 5 0.006363 -0.000886 0.007245 -0.000803 0.032879 -0.001066
# 6 0.002513 0.003107 -0.000612 0.005947 -0.001066 0.020099
#
#
# Mechanical properties :
#
#
# Convention : Reuss Voigt Hill
#
# Bulk Modulus (GPa) = 32.66610 52.71472 42.69041
# Shear Modulus (GPa) = 32.16078 41.28302 36.72190
#
# Velocity S-wave (km/s) = 3.60086 4.07970 3.84774
# Velocity P-wave (km/s) = 5.51889 6.59127 6.07877
#
# Compressibility (1/GPa) = 0.03061278
#
# Stress axis : x y z
#
# Youngs Moduli (GPa) = 73.42911 97.54611 47.41528
#
# Poissons Ratio (x) = 0.44502 0.20355
# Poissons Ratio (y) = 0.33500 -0.07972
# Poissons Ratio (z) = 0.31523 -0.16401
#
# Static dielectric constant tensor:
#      x y z
#    x 2.079280 -0.058890 -0.115880 
#    y -0.058890 2.160300 0.046830 
#    z -0.115880 0.046830 2.106280 
# 
# From -- ./inp_files/365003.got.cif
#   From: 2010.05.17/outbox.cif.g08.bks.cpg/sg2_183_cif.got.tgz:365003.got - 2010.06.03 11:33:40.
