data_PCOD9015652
_publ_section_title
;
Structure prediction by ZEFSAII (Michael W. Deem and Ramdas Pophale) SiO2 
 PCOD9015652
Probable space group: P -1
;
_chemical_formula_sum "Si O2"
_cell_formula_units_Z 16
_cell_length_a 13.927750
_cell_length_b 10.359052
_cell_length_c 9.436589
_cell_angle_alpha 88.405048
_cell_angle_beta 100.886894
_cell_angle_gamma 143.029527
_cell_volume 786.419947
_symmetry_space_group_name_H-M "P -1"
_symmetry_group_IT_number 2
_symmetry_cell_setting 'triclinic'
loop_
_space_group_symop_operation_xyz
x,y,z
-x,-y,-z
loop_
_atom_site_type_symbol
_atom_site_label
_atom_site_fract_x
_atom_site_fract_y
_atom_site_fract_z
Si Si1 0.423585 0.547232 0.548325
Si Si2 0.624325 0.015329 0.510424
Si Si3 0.853276 0.930045 0.898064
Si Si4 0.040948 0.177114 0.435879
Si Si5 0.496328 0.465954 0.833614
Si Si6 0.133153 0.656335 0.666068
Si Si7 0.802717 0.021907 0.162377
Si Si8 0.943388 0.229734 0.677607
O O1 0.500000 0.500000 0.500000
O O2 0.533186 0.782781 0.517870
O O3 0.237032 0.390608 0.467118
O O4 0.426886 0.509349 0.716413
O O5 0.500000 0.000000 0.500000
O O6 0.698835 0.130554 0.375082
O O7 0.788819 0.164791 0.648009
O O8 0.911019 0.073508 0.773768
O O9 0.689623 0.666619 0.834629
O O10 0.797616 0.978925 0.997597
O O11 0.000000 0.000000 0.000000
O O12 0.944810 0.083379 0.266306
O O13 0.962924 0.196720 0.523634
O O14 0.000000 0.000000 0.500000
O O15 0.368697 0.208487 0.801218
O O16 0.500000 0.500000 0.000000
O O17 0.130619 0.766083 0.780001
O O18 0.000000 0.500000 0.500000
O O19 0.107665 0.490997 0.739258
#
# Coordination Sequence:
#
# PCOD9015652 Si02
#       8
#     2   2   2   2   2   2   2   2
#     4  12  24  38  66 100 132 171 228 289 341 402
#     4  11  22  39  63  98 130 175 222 279 338 400
#     4  11  25  43  68 101 136 178 229 282 344 410
#     4  12  22  37  65  99 131 176 224 283 348 400
#     4  10  23  42  60  94 135 174 217 283 338 395
#     4  10  21  42  64  91 132 174 220 276 332 401
#     4  11  22  42  65  95 135 180 224 278 342 400
#     4  11  23  43  66  97 136 176 228 275 343 413
#
# _framework density 20.345365000000001
#
# number of rings (size 3 to 8) (size 9 to 14) (size 15 to 20)
#    0.000    1.000    5.000    3.000    5.250    0.500 
#    0.000    0.000    0.000    1.500    0.000    0.000 
#    0.000    0.000    0.000    0.000    0.000    0.000 
#
# Total GULP energy -89086.728901 kJ/mol
# GULP energy per Si atom -5567.920556 kJ/mol
# Density = 2.029906 g / cm^3
# Si number density = 20.345365 Si / 1000 Ang^3
#
#
#
# Elastic Constant Matrix: (Units=GPa)
#
#
# Indices 1 2 3 4 5 6 
#
# 1 91.0306 23.9620 18.4392 -1.2161 -4.2476 -9.8704
# 2 23.9620 154.0363 28.0705 -3.7387 -1.4980 -15.7099
# 3 18.4392 28.0705 70.8924 -4.8333 -4.1723 6.3723
# 4 -1.2161 -3.7387 -4.8333 34.5324 0.2414 2.3023
# 5 -4.2476 -1.4980 -4.1723 0.2414 32.0458 4.4333
# 6 -9.8704 -15.7099 6.3723 2.3023 4.4333 33.4082
#
#
#
# Elastic Compliance Matrix: (Units=1/GPa)
#
#
# Indices 1 2 3 4 5 6 
#
# 1 0.012304 -0.000966 -0.003138 -0.000363 0.000666 0.003716
# 2 -0.000966 0.007621 -0.003163 0.000087 -0.000737 0.003993
# 3 -0.003138 -0.003163 0.017032 0.002324 0.002488 -0.006153
# 4 -0.000363 0.000087 0.002324 0.029450 0.000395 -0.002591
# 5 0.000666 -0.000737 0.002488 0.000395 0.032262 -0.004933
# 6 0.003716 0.003993 -0.006153 -0.002591 -0.004933 0.034915
#
#
# Mechanical properties :
#
#
# Convention : Reuss Voigt Hill
#
# Bulk Modulus (GPa) = 44.59228 50.76695 47.67962
# Shear Modulus (GPa) = 32.13529 36.36311 34.24920
#
# Velocity S-wave (km/s) = 3.97859 4.23222 4.10737
# Velocity P-wave (km/s) = 6.56284 6.99207 6.78085
#
# Compressibility (1/GPa) = 0.02242541
#
# Stress axis : x y z
#
# Youngs Moduli (GPa) = 81.27290 131.22046 58.71232
#
# Poissons Ratio (x) = 0.12671 0.18422
# Poissons Ratio (y) = 0.07848 0.18569
# Poissons Ratio (z) = 0.25500 0.41501
#
# Static dielectric constant tensor:
#      x y z
#    x 1.770860 0.008440 -0.034130 
#    y 0.008440 1.800040 -0.000450 
#    z -0.034130 -0.000450 1.731600 
# 
# From -- ./inp_files/307586.got.cif
#   From: 2010.05.17/outbox.cif.g08.bks.cpg/sg2_154_cif.got.tgz:307586.got - 2010.06.03 11:33:40.
