data_PCOD9015692
_publ_section_title
;
Structure prediction by ZEFSAII (Michael W. Deem and Ramdas Pophale) SiO2 
 PCOD9015692
Probable space group: P -1
;
_chemical_formula_sum "Si O2"
_cell_formula_units_Z 16
_cell_length_a 8.873787
_cell_length_b 16.314609
_cell_length_c 19.922672
_cell_angle_alpha 20.061040
_cell_angle_beta 124.472960
_cell_angle_gamma 114.764716
_cell_volume 747.945175
_symmetry_space_group_name_H-M "P -1"
_symmetry_group_IT_number 2
_symmetry_cell_setting 'triclinic'
loop_
_space_group_symop_operation_xyz
x,y,z
-x,-y,-z
loop_
_atom_site_type_symbol
_atom_site_label
_atom_site_fract_x
_atom_site_fract_y
_atom_site_fract_z
Si Si1 0.088358 0.313716 0.728261
Si Si2 0.789135 0.622165 0.814709
Si Si3 0.523861 0.093151 0.008837
Si Si4 0.779948 0.140949 0.369754
Si Si5 0.479731 0.906815 0.275353
Si Si6 0.018978 0.152388 0.969811
Si Si7 0.510681 0.602590 0.023184
Si Si8 0.769757 0.441495 0.799271
O O1 0.979844 0.345646 0.747866
O O2 0.000000 0.500000 0.500000
O O3 0.303460 0.310051 0.800961
O O4 0.106706 0.024651 0.934667
O O5 0.621460 0.540327 0.867608
O O6 0.811661 0.533300 0.811074
O O7 0.735858 0.927495 0.565183
O O8 0.000000 0.500000 0.000000
O O9 0.558580 0.879088 0.240165
O O10 0.679629 0.224149 0.953013
O O11 0.500000 0.000000 0.000000
O O12 0.720943 0.393302 0.208858
O O13 0.621158 0.239292 0.194235
O O14 0.000000 0.000000 0.500000
O O15 0.612702 0.678019 0.534063
O O16 0.248922 0.950084 0.182486
O O17 0.474738 0.181852 0.089360
O O18 0.962938 0.308752 0.903937
#
# Coordination Sequence:
#
# PCOD9015692 Si02
#       8
#     2   2   2   2   2   2   2   2
#     4  10  21  42  64  94 134 173 225 276 338 395
#     4  12  25  46  70 104 138 177 232 281 345 414
#     4  11  23  42  67  99 133 177 227 276 332 405
#     4  11  24  44  72  99 130 178 224 280 344 405
#     4  11  25  43  65 100 139 174 227 275 340 404
#     4  10  24  41  63  98 133 174 225 278 328 407
#     4  11  24  44  69  97 138 177 221 284 341 405
#     4  12  25  43  70  98 138 179 227 280 339 400
#
# _framework density 21.391942
#
# number of rings (size 3 to 8) (size 9 to 14) (size 15 to 20)
#    0.000    1.000    5.000    1.125    3.500    0.500 
#    2.250    0.000    0.000    0.000    0.000    0.000 
#    0.000    0.000    0.000    0.000    0.000    0.000 
#
# Total GULP energy -89370.114402 kJ/mol
# GULP energy per Si atom -5585.632150 kJ/mol
# Density = 2.134325 g / cm^3
# Si number density = 21.391942 Si / 1000 Ang^3
#
#
#
# Elastic Constant Matrix: (Units=GPa)
#
#
# Indices 1 2 3 4 5 6 
#
# 1 94.8963 15.6313 42.9334 7.5532 -2.0771 -4.1507
# 2 15.6313 72.1735 8.0783 19.5595 6.1675 -12.7576
# 3 42.9334 8.0783 86.4117 21.9990 -10.1779 -18.2800
# 4 7.5532 19.5595 21.9990 30.2026 -12.0320 -10.3396
# 5 -2.0771 6.1675 -10.1779 -12.0320 29.6299 -1.1547
# 6 -4.1507 -12.7576 -18.2800 -10.3396 -1.1547 35.4141
#
#
#
# Elastic Compliance Matrix: (Units=1/GPa)
#
#
# Indices 1 2 3 4 5 6 
#
# 1 0.014581 -0.003938 -0.008516 0.004378 0.000585 -0.002808
# 2 -0.003938 0.020782 0.004228 -0.018584 -0.010562 0.003437
# 3 -0.008516 0.004228 0.020237 -0.012585 0.000649 0.007318
# 4 0.004378 -0.018584 -0.012585 0.066697 0.027236 0.007684
# 5 0.000585 -0.010562 0.000649 0.027236 0.047510 0.006100
# 6 -0.002808 0.003437 0.007318 0.007684 0.006100 0.035366
#
#
# Mechanical properties :
#
#
# Convention : Reuss Voigt Hill
#
# Bulk Modulus (GPa) = 25.54440 42.97417 34.25929
# Shear Modulus (GPa) = 21.30625 31.50521 26.40573
#
# Velocity S-wave (km/s) = 3.15936 3.84182 3.51718
# Velocity P-wave (km/s) = 5.02751 6.30968 5.70473
#
# Compressibility (1/GPa) = 0.03914752
#
# Stress axis : x y z
#
# Youngs Moduli (GPa) = 68.58345 48.11940 49.41511
#
# Poissons Ratio (x) = 0.18947 0.42082
# Poissons Ratio (y) = 0.27005 -0.20892
# Poissons Ratio (z) = 0.58406 -0.20344
#
# Static dielectric constant tensor:
#      x y z
#    x 1.827120 -0.034350 0.010150 
#    y -0.034350 1.773410 -0.008040 
#    z 0.010150 -0.008040 1.765810 
# 
# From -- ./inp_files/590913.got.cif
#   From: 2010.05.17/outbox.cif.g08.bks.cpg/sg2_296_cif.got.tgz:590913.got - 2010.06.03 11:33:40.
