data_PCOD9015893
_publ_section_title
;
Structure prediction by ZEFSAII (Michael W. Deem and Ramdas Pophale) SiO2 
 PCOD9015893
Probable space group: P -1
;
_chemical_formula_sum "Si O2"
_cell_formula_units_Z 14
_cell_length_a 10.816618
_cell_length_b 11.302515
_cell_length_c 6.489963
_cell_angle_alpha 120.518224
_cell_angle_beta 83.311722
_cell_angle_gamma 118.842597
_cell_volume 589.978106
_symmetry_space_group_name_H-M "P -1"
_symmetry_group_IT_number 2
_symmetry_cell_setting 'triclinic'
loop_
_space_group_symop_operation_xyz
x,y,z
-x,-y,-z
loop_
_atom_site_type_symbol
_atom_site_label
_atom_site_fract_x
_atom_site_fract_y
_atom_site_fract_z
Si Si1 0.393046 0.816885 0.840192
Si Si2 0.993943 0.607298 0.410456
Si Si3 0.169855 0.113233 0.598462
Si Si4 0.653075 0.570574 0.917596
Si Si5 0.777107 0.386746 0.942260
Si Si6 0.349702 0.231160 0.264626
Si Si7 0.794372 0.083056 0.265672
O O1 0.326769 0.761793 0.031383
O O2 0.491261 0.740888 0.699384
O O3 0.281232 0.815443 0.694846
O O4 0.500000 0.000000 0.000000
O O5 0.039177 0.779304 0.646091
O O6 0.000000 0.500000 0.500000
O O7 0.848363 0.515166 0.228471
O O8 0.106549 0.633890 0.228302
O O9 0.218639 0.262768 0.871073
O O10 0.256651 0.195959 0.452351
O O11 0.229238 0.002943 0.586934
O O12 0.000000 0.000000 0.500000
O O13 0.701709 0.443937 0.844266
O O14 0.500000 0.500000 0.000000
O O15 0.636882 0.623506 0.741080
O O16 0.263422 0.064634 0.007868
#
# Coordination Sequence:
#
# PCOD9015893 Si02
#       7
#     2   2   2   2   2   2   2
#     4  10  21  42  65  96 128 168 213 269 325 380
#     4  11  24  41  64 100 129 172 211 266 335 386
#     4  11  26  45  68  98 131 178 220 268 326 390
#     4  11  24  45  68  99 132 174 222 264 330 389
#     4  11  24  42  66  95 138 165 214 275 319 393
#     4  10  24  45  69  92 132 171 219 274 320 386
#     4  10  23  41  68  98 126 165 223 264 327 386
#
# _framework density 23.729693999999999
#
# number of rings (size 3 to 8) (size 9 to 14) (size 15 to 20)
#    0.000    1.429    2.857    0.857    4.000    8.000 
#    0.000    0.000    0.000    0.000    0.000    0.000 
#    0.000    0.000    0.000    0.000    0.000    0.000 
#
# Total GULP energy -78189.827331 kJ/mol
# GULP energy per Si atom -5584.987666 kJ/mol
# Density = 2.367568 g / cm^3
# Si number density = 23.729694 Si / 1000 Ang^3
#
#
#
# Elastic Constant Matrix: (Units=GPa)
#
#
# Indices 1 2 3 4 5 6 
#
# 1 60.4550 26.3414 25.4845 -33.2607 2.1899 -24.1924
# 2 26.3414 159.2388 34.4679 -34.5429 4.8747 -18.6935
# 3 25.4845 34.4679 73.1171 -11.0230 18.7033 -8.8841
# 4 -33.2607 -34.5429 -11.0230 64.3647 -0.2829 9.8238
# 5 2.1899 4.8747 18.7033 -0.2829 25.0659 -14.1129
# 6 -24.1924 -18.6935 -8.8841 9.8238 -14.1129 41.7777
#
#
#
# Elastic Compliance Matrix: (Units=1/GPa)
#
#
# Indices 1 2 3 4 5 6 
#
# 1 0.038981 0.002219 -0.014747 0.015259 0.020772 0.023859
# 2 0.002219 0.008174 -0.004527 0.004103 0.004122 0.004407
# 3 -0.014747 -0.004527 0.024808 -0.004042 -0.023253 -0.012194
# 4 0.015259 0.004103 -0.004042 0.024095 0.004312 0.005603
# 5 0.020772 0.004122 -0.023253 0.004312 0.073022 0.032582
# 6 0.023859 0.004407 -0.012194 0.005603 0.032582 0.046820
#
#
# Mechanical properties :
#
#
# Convention : Reuss Voigt Hill
#
# Bulk Modulus (GPa) = 26.41805 51.71098 39.06451
# Shear Modulus (GPa) = 19.03839 40.00945 29.52392
#
# Velocity S-wave (km/s) = 2.83557 4.11061 3.53111
# Velocity P-wave (km/s) = 4.67736 6.66096 5.75526
#
# Compressibility (1/GPa) = 0.03785291
#
# Stress axis : x y z
#
# Youngs Moduli (GPa) = 25.65363 122.33814 40.31026
#
# Poissons Ratio (x) = -0.27142 0.59444
# Poissons Ratio (y) = -0.05692 0.18248
# Poissons Ratio (z) = 0.37830 0.55381
#
# Static dielectric constant tensor:
#      x y z
#    x 2.250870 -0.088070 -0.029630 
#    y -0.088070 1.921590 0.104190 
#    z -0.029630 0.104190 2.015330 
# 
# From -- ./inp_files/67082.got.cif
#   From: 2010.05.17/outbox.cif.g08.bks.cpg/sg2_34_cif.got.tgz:67082.got - 2010.06.03 11:33:40.
