data_PCOD9015050
_publ_section_title
;
Structure prediction by ZEFSAII (Michael W. Deem and Ramdas Pophale) SiO2 
 PCOD9015050
Probable space group: P -1
;
_chemical_formula_sum "Si O2"
_cell_formula_units_Z 12
_cell_length_a 17.433974
_cell_length_b 8.781067
_cell_length_c 14.368793
_cell_angle_alpha 138.125347
_cell_angle_beta 158.213638
_cell_angle_gamma 40.921816
_cell_volume 526.353044
_symmetry_space_group_name_H-M "P -1"
_symmetry_group_IT_number 2
_symmetry_cell_setting 'triclinic'
loop_
_space_group_symop_operation_xyz
x,y,z
-x,-y,-z
loop_
_atom_site_type_symbol
_atom_site_label
_atom_site_fract_x
_atom_site_fract_y
_atom_site_fract_z
Si Si1 0.859611 0.849028 0.377793
Si Si2 0.685460 0.492212 0.281490
Si Si3 0.903327 0.809451 0.121533
Si Si4 0.680808 0.947461 0.600258
Si Si5 0.573190 0.054078 0.985277
Si Si6 0.084864 0.735375 0.088218
O O1 0.064101 0.624114 0.516239
O O2 0.680433 0.888247 0.273383
O O3 0.708355 0.857545 0.120373
O O4 0.956782 0.075374 0.598445
O O5 0.657255 0.737714 0.411489
O O6 0.500000 0.500000 0.000000
O O7 0.633956 0.289161 0.195574
O O8 0.997276 0.829040 0.134307
O O9 0.670157 0.974012 0.957392
O O10 0.889307 0.544703 0.003388
O O11 0.500000 0.000000 0.500000
O O12 0.716313 0.170962 0.682951
O O13 0.897516 0.837006 0.850783
#
# Coordination Sequence:
#
# PCOD9015050 Si02
#       6
#     2   2   2   2   2   2
#     4  10  22  41  70  96 138 175 234 285 344 406
#     4  11  25  42  67  99 137 177 227 286 342 410
#     4  10  21  41  70  99 131 175 237 285 338 406
#     4  11  26  44  67  96 142 181 227 276 357 412
#     4  10  22  41  69 100 133 181 230 285 347 401
#     4  10  24  43  67  97 137 182 225 287 342 412
#
# _framework density 22.798386000000001
#
# number of rings (size 3 to 8) (size 9 to 14) (size 15 to 20)
#    0.000    1.667    0.000    4.000    7.000    7.333 
#    0.000    3.333    0.000    0.000    0.000    0.000 
#    0.000    0.000    0.000    0.000    0.000    0.000 
#
# Total GULP energy -66919.872567 kJ/mol
# GULP energy per Si atom -5576.656047 kJ/mol
# Density = 2.274650 g / cm^3
# Si number density = 22.798386 Si / 1000 Ang^3
#
#
#
# Elastic Constant Matrix: (Units=GPa)
#
#
# Indices 1 2 3 4 5 6 
#
# 1 139.1632 74.1972 70.2585 9.4136 31.0681 -14.6564
# 2 74.1972 114.0459 74.8931 4.7761 4.5803 -15.5614
# 3 70.2585 74.8931 131.2027 -8.6722 16.8406 -23.1810
# 4 9.4136 4.7761 -8.6722 45.2839 3.0323 1.2646
# 5 31.0681 4.5803 16.8406 3.0323 55.9220 -6.6266
# 6 -14.6564 -15.5614 -23.1810 1.2646 -6.6266 37.2420
#
#
#
# Elastic Compliance Matrix: (Units=1/GPa)
#
#
# Indices 1 2 3 4 5 6 
#
# 1 0.013732 -0.006691 -0.002944 -0.002298 -0.006097 -0.000231
# 2 -0.006691 0.017901 -0.007152 -0.002217 0.004679 0.001303
# 3 -0.002944 -0.007152 0.014583 0.004160 -0.001868 0.004456
# 4 -0.002298 -0.002217 0.004160 0.023672 -0.001107 -0.000242
# 5 -0.006097 0.004679 -0.001868 -0.001107 0.021782 0.002307
# 6 -0.000231 0.001303 0.004456 -0.000242 0.002307 0.030497
#
#
# Mechanical properties :
#
#
# Convention : Reuss Voigt Hill
#
# Bulk Modulus (GPa) = 79.10626 91.45660 85.28143
# Shear Modulus (GPa) = 31.25883 38.69379 34.97631
#
# Velocity S-wave (km/s) = 3.70685 4.12420 3.92108
# Velocity P-wave (km/s) = 7.28660 7.92976 7.61497
#
# Compressibility (1/GPa) = 0.01264122
#
# Stress axis : x y z
#
# Youngs Moduli (GPa) = 72.82373 55.86344 68.57254
#
# Poissons Ratio (x) = 0.37377 0.20190
# Poissons Ratio (y) = 0.48724 0.49045
# Poissons Ratio (z) = 0.21441 0.39955
#
# Static dielectric constant tensor:
#      x y z
#    x 1.984890 0.060100 0.020610 
#    y 0.060100 1.932620 -0.009460 
#    z 0.020610 -0.009460 1.900140 
# 
# From -- ./inp_files/537699.got.cif
#   From: 2010.05.17/outbox.cif.g08.bks.cpg/sg2_269_cif.got.tgz:537699.got - 2010.06.03 11:33:40.
