data_PCOD9015246
_publ_section_title
;
Structure prediction by ZEFSAII (Michael W. Deem and Ramdas Pophale) SiO2 
 PCOD9015246
Probable space group: P -1
;
_chemical_formula_sum "Si O2"
_cell_formula_units_Z 16
_cell_length_a 5.456487
_cell_length_b 26.937775
_cell_length_c 7.814942
_cell_angle_alpha 138.867712
_cell_angle_beta 98.500784
_cell_angle_gamma 57.984657
_cell_volume 571.862342
_symmetry_space_group_name_H-M "P -1"
_symmetry_group_IT_number 2
_symmetry_cell_setting 'triclinic'
loop_
_space_group_symop_operation_xyz
x,y,z
-x,-y,-z
loop_
_atom_site_type_symbol
_atom_site_label
_atom_site_fract_x
_atom_site_fract_y
_atom_site_fract_z
Si Si1 0.196103 0.797956 0.126854
Si Si2 0.576022 0.081487 0.631095
Si Si3 0.086313 0.534957 0.442146
Si Si4 0.594721 0.662694 0.486565
Si Si5 0.750634 0.918495 0.953312
Si Si6 0.192602 0.652325 0.959498
Si Si7 0.251851 0.916336 0.954571
Si Si8 0.177592 0.613628 0.205857
O O1 0.325939 0.859973 0.309495
O O2 0.385969 0.734777 0.812741
O O3 0.245845 0.728314 0.105759
O O4 0.806873 0.860037 0.230980
O O5 0.312216 0.011700 0.714215
O O6 0.732137 0.057220 0.775513
O O7 0.055424 0.630311 0.728824
O O8 0.456917 0.449337 0.224224
O O9 0.000000 0.500000 0.500000
O O10 0.847366 0.555368 0.324904
O O11 0.344122 0.663178 0.357688
O O12 0.869056 0.659530 0.416303
O O13 0.616264 0.861822 0.802998
O O14 0.122210 0.857745 0.792742
O O15 0.500000 0.000000 0.000000
O O16 0.007708 0.653818 0.105686
O O17 0.000000 0.000000 0.000000
O O18 0.500000 0.500000 0.000000
#
# Coordination Sequence:
#
# PCOD9015246 Si02
#       8
#     2   2   2   2   2   2   2   2
#     4  12  27  45  67 100 151 206 231 274 368 472
#     4  12  24  44  72 104 147 192 235 285 367 450
#     4  11  21  39  71  96 125 180 257 321 347 406
#     4  12  25  44  65  97 138 185 241 305 369 415
#     4  10  21  41  73 112 140 174 233 300 345 410
#     4  11  25  41  66 100 135 184 249 304 365 421
#     4  10  21  41  73 110 137 175 236 300 341 406
#     4  12  25  41  67 101 129 170 242 332 375 390
#
# _framework density 27.978760000000001
#
# number of rings (size 3 to 8) (size 9 to 14) (size 15 to 20)
#    0.000    0.750    2.500    5.625    1.750    0.000 
#    0.000   10.000    0.000    3.000    0.000    0.000 
#    0.000    0.000    0.000    0.000    0.000    0.000 
#
# Total GULP energy -89239.608034 kJ/mol
# GULP energy per Si atom -5577.475502 kJ/mol
# Density = 2.791508 g / cm^3
# Si number density = 27.978760 Si / 1000 Ang^3
#
#
#
# Elastic Constant Matrix: (Units=GPa)
#
#
# Indices 1 2 3 4 5 6 
#
# 1 289.2509 47.8771 51.8766 10.3505 -18.4902 16.6267
# 2 47.8771 153.4982 40.2573 -15.8583 11.9165 35.7574
# 3 51.8766 40.2573 92.8007 -2.4399 -13.1295 7.9416
# 4 10.3505 -15.8583 -2.4399 42.8455 1.0746 0.4231
# 5 -18.4902 11.9165 -13.1295 1.0746 46.1759 -3.1522
# 6 16.6267 35.7574 7.9416 0.4231 -3.1522 59.2502
#
#
#
# Elastic Compliance Matrix: (Units=1/GPa)
#
#
# Indices 1 2 3 4 5 6 
#
# 1 0.004087 -0.001072 -0.001635 -0.001512 0.001470 -0.000192
# 2 -0.001072 0.009833 -0.003738 0.003851 -0.004488 -0.005399
# 3 -0.001635 -0.003738 0.013821 -0.000321 0.004322 0.001095
# 4 -0.001512 0.003851 -0.000321 0.025194 -0.002425 -0.002166
# 5 0.001470 -0.004488 0.004322 -0.002425 0.024897 0.003058
# 6 -0.000192 -0.005399 0.001095 -0.002166 0.003058 0.020221
#
#
# Mechanical properties :
#
#
# Convention : Reuss Voigt Hill
#
# Bulk Modulus (GPa) = 67.33500 90.61907 78.97704
# Shear Modulus (GPa) = 43.14257 56.02356 49.58307
#
# Velocity S-wave (km/s) = 3.93106 4.47963 4.21428
# Velocity P-wave (km/s) = 6.68753 7.69512 7.20895
#
# Compressibility (1/GPa) = 0.01485112
#
# Stress axis : x y z
#
# Youngs Moduli (GPa) = 244.68125 101.69414 72.35392
#
# Poissons Ratio (x) = 0.10897 0.11831
# Poissons Ratio (y) = 0.26218 0.27049
# Poissons Ratio (z) = 0.40009 0.38018
#
# Static dielectric constant tensor:
#      x y z
#    x 2.207970 0.053230 -0.030730 
#    y 0.053230 2.353950 -0.010210 
#    z -0.030730 -0.010210 2.313970 
# 
# From -- ./inp_files/142036.got.cif
#   From: 2010.05.17/outbox.cif.g08.bks.cpg/sg2_72_cif.got.tgz:142036.got - 2010.06.03 11:33:40.
