data_PCOD9015337
_publ_section_title
;
Structure prediction by ZEFSAII (Michael W. Deem and Ramdas Pophale) SiO2 
 PCOD9015337
Probable space group: P -1
;
_chemical_formula_sum "Si O2"
_cell_formula_units_Z 16
_cell_length_a 8.597807
_cell_length_b 7.442159
_cell_length_c 21.567048
_cell_angle_alpha 89.268803
_cell_angle_beta 53.163072
_cell_angle_gamma 125.132755
_cell_volume 756.376145
_symmetry_space_group_name_H-M "P -1"
_symmetry_group_IT_number 2
_symmetry_cell_setting 'triclinic'
loop_
_space_group_symop_operation_xyz
x,y,z
-x,-y,-z
loop_
_atom_site_type_symbol
_atom_site_label
_atom_site_fract_x
_atom_site_fract_y
_atom_site_fract_z
Si Si1 0.747985 0.791868 0.014969
Si Si2 0.214055 0.643930 0.111354
Si Si3 0.902102 0.127847 0.772546
Si Si4 0.473116 0.561925 0.574889
Si Si5 0.657828 0.377451 0.626843
Si Si6 0.299171 0.891840 0.488228
Si Si7 0.925321 0.071146 0.186907
Si Si8 0.311586 0.662766 0.947328
O O1 0.491268 0.757290 0.080451
O O2 0.647029 0.522277 0.054014
O O3 0.000000 0.000000 0.000000
O O4 0.884075 0.880074 0.913876
O O5 0.077372 0.726077 0.173843
O O6 0.312338 0.737281 0.016857
O O7 0.997972 0.330303 0.168509
O O8 0.134700 0.354731 0.668313
O O9 0.986986 0.982975 0.772911
O O10 0.565383 0.901477 0.841882
O O11 0.500000 0.500000 0.500000
O O12 0.589283 0.500088 0.598140
O O13 0.643683 0.861348 0.541180
O O14 0.633800 0.189667 0.586878
O O15 0.409552 0.189077 0.737459
O O16 0.969306 0.618443 0.579703
O O17 0.500000 0.000000 0.500000
O O18 0.000000 0.500000 0.000000
#
# Coordination Sequence:
#
# PCOD9015337 Si02
#       8
#     2   2   2   2   2   2   2   2
#     4  11  22  39  61  90 131 167 206 258 311 373
#     4  11  21  41  64  85 134 164 206 261 307 380
#     4  11  22  39  67  90 123 171 209 257 320 374
#     4  11  23  44  66  98 129 167 219 270 331 386
#     4  10  23  43  70  92 131 166 218 268 320 400
#     4  11  22  44  68  95 128 169 211 273 332 377
#     4  10  21  42  60  95 122 166 211 253 320 374
#     4  11  22  39  60  94 129 166 211 257 309 375
#
# _framework density 21.153499
#
# number of rings (size 3 to 8) (size 9 to 14) (size 15 to 20)
#    0.000    1.250    3.750    3.000    1.750    0.000 
#   11.250    1.250    0.000    0.000    0.000    0.000 
#    0.000    0.000    0.000    0.000    0.000    0.000 
#
# Total GULP energy -89355.427507 kJ/mol
# GULP energy per Si atom -5584.714219 kJ/mol
# Density = 2.110535 g / cm^3
# Si number density = 21.153499 Si / 1000 Ang^3
#
#
#
# Elastic Constant Matrix: (Units=GPa)
#
#
# Indices 1 2 3 4 5 6 
#
# 1 62.4298 28.6354 14.2603 -14.3330 -11.0738 2.8636
# 2 28.6354 104.6167 43.4687 -21.9939 0.9180 -10.1088
# 3 14.2603 43.4687 130.9298 -26.3597 -23.5592 1.4834
# 4 -14.3330 -21.9939 -26.3597 27.6194 2.0168 -6.3207
# 5 -11.0738 0.9180 -23.5592 2.0168 26.9990 -10.9493
# 6 2.8636 -10.1088 1.4834 -6.3207 -10.9493 43.1584
#
#
#
# Elastic Compliance Matrix: (Units=1/GPa)
#
#
# Indices 1 2 3 4 5 6 
#
# 1 0.022090 -0.005351 0.003622 0.010164 0.012366 0.001782
# 2 -0.005351 0.014292 -0.003918 0.006022 -0.005167 0.003408
# 3 0.003622 -0.003918 0.013231 0.011187 0.013754 0.003515
# 4 0.010164 0.006022 0.011187 0.058788 0.014456 0.012629
# 5 0.012366 -0.005167 0.013754 0.014456 0.059136 0.014616
# 6 0.001782 0.003408 0.003515 0.012629 0.014616 0.029287
#
#
# Mechanical properties :
#
#
# Convention : Reuss Voigt Hill
#
# Bulk Modulus (GPa) = 26.09635 52.30057 39.19846
# Shear Modulus (GPa) = 22.63541 33.66283 28.14912
#
# Velocity S-wave (km/s) = 3.27472 3.99351 3.65184
# Velocity P-wave (km/s) = 5.16351 6.78544 6.02926
#
# Compressibility (1/GPa) = 0.03831954
#
# Stress axis : x y z
#
# Youngs Moduli (GPa) = 45.26869 69.96908 75.57750
#
# Poissons Ratio (x) = 0.37439 -0.27373
# Poissons Ratio (y) = 0.24222 0.29612
# Poissons Ratio (z) = -0.16395 0.27415
#
# Static dielectric constant tensor:
#      x y z
#    x 1.819080 -0.019810 -0.002140 
#    y -0.019810 1.817180 -0.075820 
#    z -0.002140 -0.075820 1.823780 
# 
# From -- ./inp_files/606733.got.cif
#   From: 2010.05.17/outbox.cif.g08.bks.cpg/sg2_304_cif.got.tgz:606733.got - 2010.06.03 11:33:40.
