data_PCOD9015921
_publ_section_title
;
Structure prediction by ZEFSAII (Michael W. Deem and Ramdas Pophale) SiO2 
 PCOD9015921
Probable space group: P -1
;
_chemical_formula_sum "Si O2"
_cell_formula_units_Z 16
_cell_length_a 15.658391
_cell_length_b 9.410733
_cell_length_c 9.840497
_cell_angle_alpha 112.236142
_cell_angle_beta 142.581202
_cell_angle_gamma 75.998623
_cell_volume 811.146590
_symmetry_space_group_name_H-M "P -1"
_symmetry_group_IT_number 2
_symmetry_cell_setting 'triclinic'
loop_
_space_group_symop_operation_xyz
x,y,z
-x,-y,-z
loop_
_atom_site_type_symbol
_atom_site_label
_atom_site_fract_x
_atom_site_fract_y
_atom_site_fract_z
Si Si1 0.439953 0.543797 0.793443
Si Si2 0.866305 0.561701 0.226969
Si Si3 0.148338 0.439028 0.481648
Si Si4 0.437801 0.126622 0.059071
Si Si5 0.891340 0.909778 0.429002
Si Si6 0.410724 0.918065 0.482215
Si Si7 0.133578 0.070571 0.284279
Si Si8 0.410415 0.571513 0.295322
O O1 0.270778 0.533715 0.584534
O O2 0.506307 0.707877 0.876870
O O3 0.488922 0.419724 0.705360
O O4 0.500000 0.500000 0.000000
O O5 0.819308 0.509925 0.301458
O O6 0.928766 0.734628 0.402816
O O7 0.987350 0.474985 0.279219
O O8 0.728651 0.543305 0.953871
O O9 0.155291 0.258310 0.390608
O O10 0.491354 0.100573 0.269050
O O11 0.269537 0.099776 0.827472
O O12 0.500000 0.000000 0.000000
O O13 0.895214 0.973814 0.610161
O O14 0.000000 0.000000 0.500000
O O15 0.362659 0.739647 0.320929
O O16 0.500000 0.000000 0.500000
O O17 0.276488 0.007064 0.386612
O O18 0.000000 0.000000 0.000000
O O19 0.500000 0.500000 0.500000
#
# Coordination Sequence:
#
# PCOD9015921 Si02
#       8
#     2   2   2   2   2   2   2   2
#     4  12  23  44  74 100 132 179 230 283 342 402
#     4  10  21  42  65  98 130 171 225 276 333 404
#     4  10  22  40  69  97 128 174 228 276 333 405
#     4  12  26  46  69 103 138 176 236 284 334 421
#     4  11  24  44  69  95 137 179 223 283 347 408
#     4  12  27  43  70 101 139 187 226 281 352 400
#     4  11  24  46  63 100 142 176 229 284 339 415
#     4  12  23  44  67  97 140 171 221 288 335 400
#
# _framework density 19.725163999999999
#
# number of rings (size 3 to 8) (size 9 to 14) (size 15 to 20)
#    0.000    0.750    5.000    2.250    5.250    0.000 
#    2.250    0.625    0.000    0.000    0.000    0.000 
#    0.000    0.000    0.000    0.000    0.000    0.000 
#
# Total GULP energy -89317.562661 kJ/mol
# GULP energy per Si atom -5582.347666 kJ/mol
# Density = 1.968027 g / cm^3
# Si number density = 19.725164 Si / 1000 Ang^3
#
#
#
# Elastic Constant Matrix: (Units=GPa)
#
#
# Indices 1 2 3 4 5 6 
#
# 1 179.7247 73.5538 70.2161 -2.5650 13.1158 -5.0953
# 2 73.5538 92.6393 35.4309 -2.8590 6.4054 -15.5900
# 3 70.2161 35.4309 133.9626 -13.8161 1.6035 10.2461
# 4 -2.5650 -2.8590 -13.8161 29.3286 0.6938 -3.0654
# 5 13.1158 6.4054 1.6035 0.6938 38.9969 -0.5335
# 6 -5.0953 -15.5900 10.2461 -3.0654 -0.5335 47.1436
#
#
#
# Elastic Compliance Matrix: (Units=1/GPa)
#
#
# Indices 1 2 3 4 5 6 
#
# 1 0.009599 -0.006266 -0.003463 -0.001396 -0.002037 -0.000396
# 2 -0.006266 0.017387 -0.001626 0.000968 -0.000624 0.005482
# 3 -0.003463 -0.001626 0.010342 0.004088 0.000895 -0.002884
# 4 -0.001396 0.000968 0.004088 0.036176 -0.000479 0.001628
# 5 -0.002037 -0.000624 0.000895 -0.000479 0.026398 -0.000353
# 6 -0.000396 0.005482 -0.002884 0.001628 -0.000353 0.023710
#
#
# Mechanical properties :
#
#
# Convention : Reuss Voigt Hill
#
# Bulk Modulus (GPa) = 68.41464 84.96982 76.69223
# Shear Modulus (GPa) = 33.06992 38.23552 35.65272
#
# Velocity S-wave (km/s) = 4.09899 4.40752 4.25605
# Velocity P-wave (km/s) = 7.56053 8.31096 7.94461
#
# Compressibility (1/GPa) = 0.01461675
#
# Stress axis : x y z
#
# Youngs Moduli (GPa) = 104.17782 57.51465 96.69530
#
# Poissons Ratio (x) = 0.36036 0.33490
# Poissons Ratio (y) = 0.65273 0.15727
# Poissons Ratio (z) = 0.36082 0.09354
#
# Static dielectric constant tensor:
#      x y z
#    x 1.690690 -0.034190 -0.004670 
#    y -0.034190 1.666300 0.028220 
#    z -0.004670 0.028220 1.704660 
# 
# From -- ./inp_files/299417.got.cif
#   From: 2010.05.17/outbox.cif.g08.bks.cpg/sg2_150_cif.got.tgz:299417.got - 2010.06.03 11:33:40.
