data_PCOD9015715
_publ_section_title
;
Structure prediction by ZEFSAII (Michael W. Deem and Ramdas Pophale) SiO2 
 PCOD9015715
Probable space group: P -1
;
_chemical_formula_sum "Si O2"
_cell_formula_units_Z 14
_cell_length_a 5.554088
_cell_length_b 22.667354
_cell_length_c 8.758127
_cell_angle_alpha 40.900459
_cell_angle_beta 55.165725
_cell_angle_gamma 48.119934
_cell_volume 532.469471
_symmetry_space_group_name_H-M "P -1"
_symmetry_group_IT_number 2
_symmetry_cell_setting 'triclinic'
loop_
_space_group_symop_operation_xyz
x,y,z
-x,-y,-z
loop_
_atom_site_type_symbol
_atom_site_label
_atom_site_fract_x
_atom_site_fract_y
_atom_site_fract_z
Si Si1 0.776130 0.213094 0.434710
Si Si2 0.068582 0.613634 0.703456
Si Si3 0.869229 0.443232 0.540684
Si Si4 0.274113 0.029478 0.780250
Si Si5 0.562286 0.392701 0.994787
Si Si6 0.169629 0.184067 0.754469
Si Si7 0.972724 0.896194 0.739575
O O1 0.738342 0.325371 0.209793
O O2 0.471189 0.209122 0.640116
O O3 0.105492 0.122771 0.546405
O O4 0.784743 0.181092 0.316800
O O5 0.963305 0.586324 0.625843
O O6 0.754945 0.626100 0.890099
O O7 0.066489 0.720016 0.451319
O O8 0.389786 0.514695 0.829603
O O9 0.500000 0.500000 0.500000
O O10 0.000000 0.500000 0.500000
O O11 0.831119 0.362298 0.822850
O O12 0.356372 0.083736 0.784438
O O13 0.580781 0.936248 0.783795
O O14 0.000000 0.000000 0.000000
O O15 0.982385 0.154566 0.010710
O O16 0.000000 0.000000 0.500000
#
# Coordination Sequence:
#
# PCOD9015715 Si02
#       7
#     2   2   2   2   2   2   2
#     4  11  23  43  66 100 133 174 235 283 345 422
#     4   9  20  42  69  95 137 184 224 278 350 418
#     4  10  21  42  64  96 134 182 231 284 342 410
#     4  12  24  44  67  99 135 176 229 291 356 413
#     4   9  20  42  65  98 135 175 231 278 340 415
#     4  11  23  44  66  98 140 179 227 284 352 422
#     4  12  23  42  70  93 132 178 223 283 353 412
#
# _framework density 26.292587000000001
#
# number of rings (size 3 to 8) (size 9 to 14) (size 15 to 20)
#    0.000    1.429    2.857    2.571    0.000    0.571 
#   23.143    1.429    0.000    0.000    0.000    0.000 
#    0.000    0.000    0.000    0.000    0.000    0.000 
#
# Total GULP energy -78081.847127 kJ/mol
# GULP energy per Si atom -5577.274795 kJ/mol
# Density = 2.623274 g / cm^3
# Si number density = 26.292587 Si / 1000 Ang^3
#
#
#
# Elastic Constant Matrix: (Units=GPa)
#
#
# Indices 1 2 3 4 5 6 
#
# 1 58.2056 2.9982 10.3886 -5.2943 -13.4218 -5.0890
# 2 2.9982 92.5173 22.3462 -15.8831 -3.9735 -6.9821
# 3 10.3886 22.3462 201.6682 -18.4203 -2.4078 -12.1119
# 4 -5.2943 -15.8831 -18.4203 56.4061 -18.1630 4.8264
# 5 -13.4218 -3.9735 -2.4078 -18.1630 43.1358 -4.8242
# 6 -5.0890 -6.9821 -12.1119 4.8264 -4.8242 35.8351
#
#
#
# Elastic Compliance Matrix: (Units=1/GPa)
#
#
# Indices 1 2 3 4 5 6 
#
# 1 0.019859 0.000830 -0.000408 0.004400 0.008465 0.003391
# 2 0.000830 0.011974 -0.000837 0.004046 0.003248 0.002060
# 3 -0.000408 -0.000837 0.005323 0.001643 0.000951 0.001485
# 4 0.004400 0.004046 0.001643 0.023587 0.011808 0.000381
# 5 0.008465 0.003248 0.000951 0.011808 0.031681 0.004831
# 6 0.003391 0.002060 0.001485 0.000381 0.004831 0.029889
#
#
# Mechanical properties :
#
#
# Convention : Reuss Voigt Hill
#
# Bulk Modulus (GPa) = 27.52998 47.09525 37.31262
# Shear Modulus (GPa) = 36.96771 48.18594 42.57683
#
# Velocity S-wave (km/s) = 3.75375 4.28563 4.02848
# Velocity P-wave (km/s) = 5.41118 6.51457 5.98835
#
# Compressibility (1/GPa) = 0.03632404
#
# Stress axis : x y z
#
# Youngs Moduli (GPa) = 50.35456 83.51623 187.86059
#
# Poissons Ratio (x) = -0.06931 0.07672
# Poissons Ratio (y) = -0.04179 0.15733
# Poissons Ratio (z) = 0.02056 0.06994
#
# Static dielectric constant tensor:
#      x y z
#    x 1.153910 0.148630 0.139530 
#    y 0.148630 2.127160 0.007490 
#    z 0.139530 0.007490 2.171130 
# 
# From -- ./inp_files/142928.got.cif
#   From: 2010.05.17/outbox.cif.g08.bks.cpg/sg2_72_cif.got.tgz:142928.got - 2010.06.03 11:33:40.
