data_PCOD9015683
_publ_section_title
;
Structure prediction by ZEFSAII (Michael W. Deem and Ramdas Pophale) SiO2 
 PCOD9015683
Probable space group: P -1
;
_chemical_formula_sum "Si O2"
_cell_formula_units_Z 16
_cell_length_a 11.711074
_cell_length_b 8.408410
_cell_length_c 10.303957
_cell_angle_alpha 56.795382
_cell_angle_beta 124.682236
_cell_angle_gamma 114.931777
_cell_volume 689.162620
_symmetry_space_group_name_H-M "P -1"
_symmetry_group_IT_number 2
_symmetry_cell_setting 'triclinic'
loop_
_space_group_symop_operation_xyz
x,y,z
-x,-y,-z
loop_
_atom_site_type_symbol
_atom_site_label
_atom_site_fract_x
_atom_site_fract_y
_atom_site_fract_z
Si Si1 0.878964 0.112928 0.912793
Si Si2 0.560674 0.043452 0.710290
Si Si3 0.836362 0.500212 0.359523
Si Si4 0.909153 0.522362 0.804392
Si Si5 0.121209 0.071391 0.739154
Si Si6 0.549490 0.311408 0.345445
Si Si7 0.416296 0.584824 0.291532
Si Si8 0.105564 0.809181 0.633627
O O1 0.725231 0.035850 0.795103
O O2 0.919961 0.335765 0.807329
O O3 0.873720 0.083399 0.077231
O O4 0.000000 0.000000 0.000000
O O5 0.508356 0.167938 0.504095
O O6 0.558863 0.183360 0.772073
O O7 0.484367 0.824902 0.741483
O O8 0.814552 0.721983 0.252164
O O9 0.715274 0.391879 0.422674
O O10 0.817198 0.366530 0.278719
O O11 0.000000 0.500000 0.500000
O O12 0.747254 0.498102 0.752395
O O13 0.973966 0.707596 0.681518
O O14 0.000000 0.500000 0.000000
O O15 0.965846 0.104251 0.575163
O O16 0.185653 0.982850 0.693522
O O17 0.469352 0.492952 0.236333
O O18 0.500000 0.500000 0.500000
#
# Coordination Sequence:
#
# PCOD9015683 Si02
#       8
#     2   2   2   2   2   2   2   2
#     4  11  23  37  65  98 135 166 215 280 327 379
#     4   9  22  39  62  95 126 165 222 265 327 373
#     4  10  23  38  64  91 130 165 216 264 321 386
#     4  11  22  40  67  97 130 166 222 279 322 376
#     4  10  22  39  57  95 128 168 210 257 331 389
#     4  10  21  42  64  94 124 172 219 269 316 396
#     4   9  21  38  63  94 125 167 217 271 322 381
#     4  10  22  40  62  94 131 170 215 260 328 391
#
# _framework density 23.21658
#
# number of rings (size 3 to 8) (size 9 to 14) (size 15 to 20)
#    0.000    2.000    1.250    0.750   15.750    1.000 
#   13.500    0.625    0.000    2.250    0.000    0.000 
#    0.000    0.000    0.000    0.000    0.000    0.000 
#
# Total GULP energy -89196.205492 kJ/mol
# GULP energy per Si atom -5574.762843 kJ/mol
# Density = 2.316374 g / cm^3
# Si number density = 23.216580 Si / 1000 Ang^3
#
#
#
# Elastic Constant Matrix: (Units=GPa)
#
#
# Indices 1 2 3 4 5 6 
#
# 1 78.3134 58.6092 4.4093 -2.9249 24.9172 -10.8635
# 2 58.6092 179.3129 12.4969 -19.2548 16.6348 -33.8717
# 3 4.4093 12.4969 52.9012 3.3939 11.1183 5.4308
# 4 -2.9249 -19.2548 3.3939 24.4913 2.4426 2.6501
# 5 24.9172 16.6348 11.1183 2.4426 30.3515 1.1351
# 6 -10.8635 -33.8717 5.4308 2.6501 1.1351 42.3035
#
#
#
# Elastic Compliance Matrix: (Units=1/GPa)
#
#
# Indices 1 2 3 4 5 6 
#
# 1 0.022219 -0.005848 0.002840 -0.000861 -0.016050 0.001144
# 2 -0.005848 0.009554 -0.002780 0.006555 -0.000173 0.006099
# 3 0.002840 -0.002780 0.021697 -0.003608 -0.008323 -0.003832
# 4 -0.000861 0.006555 -0.003608 0.046629 -0.005419 0.002715
# 5 -0.016050 -0.000173 -0.008323 -0.005419 0.049860 -0.004190
# 6 0.001144 0.006099 -0.003832 0.002715 -0.004190 0.029250
#
#
# Mechanical properties :
#
#
# Convention : Reuss Voigt Hill
#
# Bulk Modulus (GPa) = 23.86881 51.28425 37.57653
# Shear Modulus (GPa) = 24.42032 35.09673 29.75853
#
# Velocity S-wave (km/s) = 3.24674 3.89229 3.58408
# Velocity P-wave (km/s) = 4.93542 6.50671 5.77476
#
# Compressibility (1/GPa) = 0.04189567
#
# Stress axis : x y z
#
# Youngs Moduli (GPa) = 45.00702 104.66869 46.08889
#
# Poissons Ratio (x) = 0.61208 -0.13091
# Poissons Ratio (y) = 0.26319 0.12812
# Poissons Ratio (z) = -0.12784 0.29097
#
# Static dielectric constant tensor:
#      x y z
#    x 1.903840 -0.075230 -0.024330 
#    y -0.075230 1.945060 0.014530 
#    z -0.024330 0.014530 1.830150 
# 
# From -- ./inp_files/416653.got.cif
#   From: 2010.05.17/outbox.cif.g08.bks.cpg/sg2_209_cif.got.tgz:416653.got - 2010.06.03 11:33:40.
