data_PCOD9015399
_publ_section_title
;
Structure prediction by ZEFSAII (Michael W. Deem and Ramdas Pophale) SiO2 
 PCOD9015399
Probable space group: P -1
;
_chemical_formula_sum "Si O2"
_cell_formula_units_Z 14
_cell_length_a 21.946089
_cell_length_b 27.758391
_cell_length_c 5.394596
_cell_angle_alpha 68.665552
_cell_angle_beta 108.072042
_cell_angle_gamma 169.051768
_cell_volume 560.501693
_symmetry_space_group_name_H-M "P -1"
_symmetry_group_IT_number 2
_symmetry_cell_setting 'triclinic'
loop_
_space_group_symop_operation_xyz
x,y,z
-x,-y,-z
loop_
_atom_site_type_symbol
_atom_site_label
_atom_site_fract_x
_atom_site_fract_y
_atom_site_fract_z
Si Si1 0.337373 0.816687 0.566350
Si Si2 0.179130 0.873237 0.657231
Si Si3 0.269663 0.345095 0.801351
Si Si4 0.223632 0.101934 0.272170
Si Si5 0.351414 0.731133 0.116042
Si Si6 0.577811 0.833396 0.871040
Si Si7 0.529315 0.660039 0.354899
O O1 0.938932 0.503701 0.602313
O O2 0.500000 0.000000 0.500000
O O3 0.575815 0.980554 0.354221
O O4 0.333748 0.770714 0.867124
O O5 0.799720 0.565120 0.681736
O O6 0.272407 0.968064 0.868110
O O7 0.296608 0.014438 0.378034
O O8 0.412807 0.511423 0.566722
O O9 0.500000 0.500000 0.000000
O O10 0.141227 0.208850 0.664756
O O11 0.904034 0.068249 0.979905
O O12 0.468006 0.245991 0.252157
O O13 0.301044 0.202982 0.956388
O O14 0.268743 0.159890 0.491086
O O15 0.306259 0.642703 0.066091
#
# Coordination Sequence:
#
# PCOD9015399 Si02
#       7
#     2   2   2   2   2   2   2
#     4  10  23  38  58  94 125 168 220 272 336 391
#     4  10  22  39  64  89 131 176 220 275 333 398
#     4   9  22  45  69 100 141 179 223 283 341 396
#     4  10  25  42  69 102 135 180 227 279 336 400
#     4  10  21  42  62  86 132 167 217 276 331 400
#     4   8  21  39  63  92 126 175 216 272 338 389
#     4  11  25  43  70 102 137 179 234 273 334 412
#
# _framework density 24.977623000000001
#
# number of rings (size 3 to 8) (size 9 to 14) (size 15 to 20)
#    0.857    1.429    0.000    0.429   10.000    2.857 
#    0.000    1.429    0.000    0.000    0.000    0.000 
#    0.000    0.000    0.000    0.000    0.000    0.000 
#
# Total GULP energy -78098.502124 kJ/mol
# GULP energy per Si atom -5578.464437 kJ/mol
# Density = 2.492077 g / cm^3
# Si number density = 24.977623 Si / 1000 Ang^3
#
#
#
# Elastic Constant Matrix: (Units=GPa)
#
#
# Indices 1 2 3 4 5 6 
#
# 1 91.5357 20.1416 10.8473 -10.7257 2.7177 9.0300
# 2 20.1416 102.3879 25.8418 19.6333 -1.7998 -10.7747
# 3 10.8473 25.8418 72.9953 4.4684 4.5229 -7.4319
# 4 -10.7257 19.6333 4.4684 38.1799 -6.0444 1.2132
# 5 2.7177 -1.7998 4.5229 -6.0444 27.4145 -7.3257
# 6 9.0300 -10.7747 -7.4319 1.2132 -7.3257 34.9851
#
#
#
# Elastic Compliance Matrix: (Units=1/GPa)
#
#
# Indices 1 2 3 4 5 6 
#
# 1 0.013233 -0.003979 -0.001378 0.005859 -0.001511 -0.005453
# 2 -0.003979 0.013373 -0.003262 -0.007537 0.001492 0.005027
# 3 -0.001378 -0.003262 0.015481 -0.000948 -0.002253 0.002201
# 4 0.005859 -0.007537 -0.000948 0.032780 0.005218 -0.004079
# 5 -0.001511 0.001492 -0.002253 0.005218 0.040568 0.008685
# 6 -0.005453 0.005027 0.002201 -0.004079 0.008685 0.033967
#
#
# Mechanical properties :
#
#
# Convention : Reuss Voigt Hill
#
# Bulk Modulus (GPa) = 40.24502 42.28669 41.26586
# Shear Modulus (GPa) = 28.58386 34.12178 31.35282
#
# Velocity S-wave (km/s) = 3.38654 3.70008 3.54677
# Velocity P-wave (km/s) = 5.60704 5.93470 5.77320
#
# Compressibility (1/GPa) = 0.02484779
#
# Stress axis : x y z
#
# Youngs Moduli (GPa) = 75.56862 74.77547 64.59572
#
# Poissons Ratio (x) = 0.29756 0.08901
# Poissons Ratio (y) = 0.30071 0.21074
# Poissons Ratio (z) = 0.10413 0.24395
#
# Static dielectric constant tensor:
#      x y z
#    x 2.060850 0.052660 -0.062640 
#    y 0.052660 2.047320 -0.016980 
#    z -0.062640 -0.016980 1.970700 
# 
# From -- ./inp_files/125327.got.cif
#   From: 2010.05.17/outbox.cif.g08.bks.cpg/sg2_63_cif.got.tgz:125327.got - 2010.06.03 11:33:40.
