data_PCOD9015684
_publ_section_title
;
Structure prediction by ZEFSAII (Michael W. Deem and Ramdas Pophale) SiO2 
 PCOD9015684
Probable space group: P -1
;
_chemical_formula_sum "Si O2"
_cell_formula_units_Z 12
_cell_length_a 14.410230
_cell_length_b 7.164632
_cell_length_c 8.200220
_cell_angle_alpha 126.997629
_cell_angle_beta 57.802573
_cell_angle_gamma 118.771372
_cell_volume 555.779222
_symmetry_space_group_name_H-M "P -1"
_symmetry_group_IT_number 2
_symmetry_cell_setting 'triclinic'
loop_
_space_group_symop_operation_xyz
x,y,z
-x,-y,-z
loop_
_atom_site_type_symbol
_atom_site_label
_atom_site_fract_x
_atom_site_fract_y
_atom_site_fract_z
Si Si1 0.754657 0.532608 0.772213
Si Si2 0.119133 0.068377 0.337375
Si Si3 0.402745 0.908908 0.410904
Si Si4 0.327741 0.318336 0.504226
Si Si5 0.574900 0.784015 0.943965
Si Si6 0.261649 0.714172 0.992631
O O1 0.865569 0.719615 0.699328
O O2 0.763932 0.422361 0.882588
O O3 0.662061 0.694808 0.934828
O O4 0.707758 0.308798 0.573804
O O5 0.216390 0.178252 0.437053
O O6 0.000000 0.000000 0.500000
O O7 0.157506 0.833853 0.111204
O O8 0.464711 0.790534 0.148857
O O9 0.362192 0.137010 0.503767
O O10 0.368175 0.944003 0.019581
O O11 0.296711 0.539920 0.737667
O O12 0.426387 0.371173 0.301074
O O13 0.500000 0.000000 0.500000
#
# Coordination Sequence:
#
# PCOD9015684 Si02
#       6
#     2   2   2   2   2   2
#     4  10  21  43  61  94 132 161 216 263 302 386
#     4  10  24  46  69  90 123 166 214 276 324 363
#     4  12  23  38  64  98 132 178 207 249 316 379
#     4  10  22  41  63  93 131 169 210 260 308 382
#     4  10  23  38  61  92 135 169 213 245 310 371
#     4  10  21  42  64  94 129 165 213 261 314 383
#
# _framework density 21.591305999999999
#
# number of rings (size 3 to 8) (size 9 to 14) (size 15 to 20)
#    0.000    2.000    3.333    2.000    4.667    2.000 
#    0.000    0.833    0.000    0.000    0.000    0.000 
#    0.000    0.000    0.000    0.000    0.000    0.000 
#
# Total GULP energy -67008.569137 kJ/mol
# GULP energy per Si atom -5584.047428 kJ/mol
# Density = 2.154216 g / cm^3
# Si number density = 21.591306 Si / 1000 Ang^3
#
#
#
# Elastic Constant Matrix: (Units=GPa)
#
#
# Indices 1 2 3 4 5 6 
#
# 1 33.5896 23.4371 22.3985 -5.5514 1.6492 0.8839
# 2 23.4371 152.7870 53.0050 -10.2948 -6.2364 -5.4382
# 3 22.3985 53.0050 151.4303 14.9289 -6.7794 9.4642
# 4 -5.5514 -10.2948 14.9289 25.9683 1.3153 -4.1910
# 5 1.6492 -6.2364 -6.7794 1.3153 27.9838 -10.1049
# 6 0.8839 -5.4382 9.4642 -4.1910 -10.1049 30.4371
#
#
#
# Elastic Compliance Matrix: (Units=1/GPa)
#
#
# Indices 1 2 3 4 5 6 
#
# 1 0.037801 -0.003364 -0.005628 0.010204 -0.004880 -0.000164
# 2 -0.003364 0.008796 -0.003240 0.005186 0.002675 0.004279
# 3 -0.005628 -0.003240 0.009753 -0.008845 0.000799 -0.004401
# 4 0.010204 0.005186 -0.008845 0.049475 -0.000265 0.010105
# 5 -0.004880 0.002675 0.000799 -0.000265 0.041978 0.014271
# 6 -0.000164 0.004279 -0.004401 0.010105 0.014271 0.041122
#
#
# Mechanical properties :
#
#
# Convention : Reuss Voigt Hill
#
# Bulk Modulus (GPa) = 31.36109 59.49868 45.42989
# Shear Modulus (GPa) = 22.31961 32.80894 27.56428
#
# Velocity S-wave (km/s) = 3.21866 3.90236 3.57688
# Velocity P-wave (km/s) = 5.32629 6.92251 6.17619
#
# Compressibility (1/GPa) = 0.03188664
#
# Stress axis : x y z
#
# Youngs Moduli (GPa) = 26.45406 113.68744 102.53020
#
# Poissons Ratio (x) = 0.38240 0.57706
# Poissons Ratio (y) = 0.08898 0.33223
# Poissons Ratio (z) = 0.14889 0.36838
#
# Static dielectric constant tensor:
#      x y z
#    x 1.813950 -0.002800 0.013930 
#    y -0.002800 1.873960 -0.013150 
#    z 0.013930 -0.013150 1.837010 
# 
# From -- ./inp_files/326841.got.cif
#   From: 2010.05.17/outbox.cif.g08.bks.cpg/sg2_164_cif.got.tgz:326841.got - 2010.06.03 11:33:40.
