data_PCOD9015248
_publ_section_title
;
Structure prediction by ZEFSAII (Michael W. Deem and Ramdas Pophale) SiO2 
 PCOD9015248
Probable space group: P -1
;
_chemical_formula_sum "Si O2"
_cell_formula_units_Z 15
_cell_length_a 11.164423
_cell_length_b 7.674674
_cell_length_c 8.669235
_cell_angle_alpha 112.542863
_cell_angle_beta 66.832962
_cell_angle_gamma 80.670078
_cell_volume 586.331840
_symmetry_space_group_name_H-M "P -1"
_symmetry_group_IT_number 2
_symmetry_cell_setting 'triclinic'
loop_
_space_group_symop_operation_xyz
x,y,z
-x,-y,-z
loop_
_atom_site_type_symbol
_atom_site_label
_atom_site_fract_x
_atom_site_fract_y
_atom_site_fract_z
Si Si1 0.855092 0.091825 0.422817
Si Si2 0.261656 0.614173 0.820288
Si Si3 0.823522 0.404643 0.793758
Si Si4 0.875459 0.661832 0.383708
Si Si5 0.289901 0.219999 0.195716
Si Si6 0.000000 0.000000 0.000000
Si Si7 0.463310 0.019138 0.777537
Si Si8 0.460711 0.707648 0.409585
O O1 0.879248 0.193268 0.602703
O O2 0.702698 0.249271 0.502191
O O3 0.840501 0.876213 0.388606
O O4 0.971403 0.050393 0.219171
O O5 0.210767 0.457832 0.695088
O O6 0.430048 0.519571 0.694099
O O7 0.157318 0.832611 0.896212
O O8 0.231099 0.605682 0.013898
O O9 0.710268 0.569645 0.801660
O O10 0.959665 0.466830 0.763573
O O11 0.841300 0.709107 0.597517
O O12 0.411892 0.090466 0.204524
O O13 0.321150 0.093764 0.977017
O O14 0.491855 0.202181 0.738090
O O15 0.469064 0.857802 0.590977
#
# Coordination Sequence:
#
# PCOD9015248 Si02
#       8
#     2   2   2   2   2   1   2   2
#     4  12  28  48  74 110 148 196 237 307 361 436
#     4  12  26  51  78 107 141 197 244 305 359 439
#     4  12  27  46  70 108 155 189 243 297 368 424
#     4  12  24  48  79 104 144 197 248 293 364 435
#     4  11  22  41  73 110 141 183 246 296 357 426
#     4  12  30  50  74 106 150 186 256 292 370 428
#     4  10  21  41  73 111 140 183 243 303 351 435
#     4  11  22  47  76 102 150 190 239 300 369 424
#
# _framework density 25.582782000000002
#
# number of rings (size 3 to 8) (size 9 to 14) (size 15 to 20)
#    0.000    0.533    5.333    2.800    0.000    2.133 
#    0.000    0.000    0.000    0.000    0.000    0.000 
#    0.000    0.000    0.000    0.000    0.000    0.000 
#
# Total GULP energy -83695.840510 kJ/mol
# GULP energy per Si atom -5579.722701 kJ/mol
# Density = 2.552455 g / cm^3
# Si number density = 25.582782 Si / 1000 Ang^3
#
#
#
# Elastic Constant Matrix: (Units=GPa)
#
#
# Indices 1 2 3 4 5 6 
#
# 1 57.7633 24.3658 36.9821 10.9343 -2.9875 -8.0814
# 2 24.3658 123.6204 43.3351 12.2768 -0.2113 -32.8009
# 3 36.9821 43.3351 218.0939 -19.5838 -14.5109 -11.5589
# 4 10.9343 12.2768 -19.5838 46.7088 -9.3470 -9.6291
# 5 -2.9875 -0.2113 -14.5109 -9.3470 25.9082 8.6845
# 6 -8.0814 -32.8009 -11.5589 -9.6291 8.6845 31.8287
#
#
#
# Elastic Compliance Matrix: (Units=1/GPa)
#
#
# Indices 1 2 3 4 5 6 
#
# 1 0.022000 -0.002119 -0.004029 -0.006630 -0.002318 0.000565
# 2 -0.002119 0.012990 -0.002190 -0.002462 -0.006652 0.013124
# 3 -0.004029 -0.002190 0.006469 0.005115 0.005261 -0.000818
# 4 -0.006630 -0.002462 0.005115 0.028688 0.011351 0.003219
# 5 -0.002318 -0.006652 0.005261 0.011351 0.050655 -0.015921
# 6 0.000565 0.013124 -0.000818 0.003219 -0.015921 0.050107
#
#
# Mechanical properties :
#
#
# Convention : Reuss Voigt Hill
#
# Bulk Modulus (GPa) = 40.35068 67.64929 53.99998
# Shear Modulus (GPa) = 25.53028 40.54213 33.03621
#
# Velocity S-wave (km/s) = 3.16246 3.98520 3.59743
# Velocity P-wave (km/s) = 5.39830 6.90481 6.19751
#
# Compressibility (1/GPa) = 0.02478273
#
# Stress axis : x y z
#
# Youngs Moduli (GPa) = 45.45531 76.98273 154.57201
#
# Poissons Ratio (x) = 0.16316 0.62276
# Poissons Ratio (y) = 0.09634 0.33849
# Poissons Ratio (z) = 0.18314 0.16858
#
# Static dielectric constant tensor:
#      x y z
#    x 2.034630 0.008600 0.003180 
#    y 0.008600 2.021080 0.001350 
#    z 0.003180 0.001350 1.984160 
# 
# From -- ./inp_files/240234.got.cif
#   From: 2010.05.17/outbox.cif.g08.bks.cpg/sg2_121_cif.got.tgz:240234.got - 2010.06.03 11:33:40.
