data_PCOD9015602
_publ_section_title
;
Structure prediction by ZEFSAII (Michael W. Deem and Ramdas Pophale) SiO2 
 PCOD9015602
Probable space group: P -1
;
_chemical_formula_sum "Si O2"
_cell_formula_units_Z 16
_cell_length_a 22.753795
_cell_length_b 5.812780
_cell_length_c 13.648518
_cell_angle_alpha 84.048660
_cell_angle_beta 156.899627
_cell_angle_gamma 99.855846
_cell_volume 691.019827
_symmetry_space_group_name_H-M "P -1"
_symmetry_group_IT_number 2
_symmetry_cell_setting 'triclinic'
loop_
_space_group_symop_operation_xyz
x,y,z
-x,-y,-z
loop_
_atom_site_type_symbol
_atom_site_label
_atom_site_fract_x
_atom_site_fract_y
_atom_site_fract_z
Si Si1 0.677941 0.601665 0.990529
Si Si2 0.143984 0.831484 0.121904
Si Si3 0.742063 0.045304 0.391010
Si Si4 0.496170 0.921862 0.610604
Si Si5 0.985403 0.698511 0.095329
Si Si6 0.510869 0.329323 0.929809
Si Si7 0.095593 0.061178 0.531646
Si Si8 0.808471 0.213385 0.156286
O O1 0.559763 0.682790 0.731994
O O2 0.575043 0.460111 0.924643
O O3 0.795050 0.784126 0.228300
O O4 0.791811 0.479007 0.107820
O O5 0.328759 0.892955 0.401904
O O6 0.049421 0.760710 0.080640
O O7 0.101565 0.572954 0.014158
O O8 0.097453 0.083331 0.010503
O O9 0.649036 0.848125 0.327838
O O10 0.833509 0.903820 0.466368
O O11 0.858740 0.257972 0.606487
O O12 0.624100 0.158348 0.142323
O O13 0.500000 0.000000 0.500000
O O14 0.632392 0.088806 0.872723
O O15 0.500000 0.500000 0.000000
O O16 0.927844 0.116549 0.275253
O O17 0.120829 0.811716 0.625661
#
# Coordination Sequence:
#
# PCOD9015602 Si02
#       8
#     2   2   2   2   2   2   2   2
#     4  11  23  43  72  98 141 193 230 300 360 440
#     4  10  25  49  70 104 141 189 253 298 367 427
#     4  11  24  39  69 106 145 180 231 298 364 437
#     4  11  28  47  68  98 138 185 249 305 356 421
#     4  10  25  45  76 103 142 192 238 307 363 438
#     4  11  24  39  66 110 145 176 231 284 368 451
#     4  10  21  42  64 105 141 178 232 287 355 432
#     4  10  23  43  69  94 139 186 235 289 361 420
#
# _framework density 23.154184999999998
#
# number of rings (size 3 to 8) (size 9 to 14) (size 15 to 20)
#    0.000    1.500    2.500    0.375    8.750    1.500 
#    0.000    0.000    0.000    0.000    0.000    0.000 
#    0.000    0.000    0.000    0.000    0.000    0.000 
#
# Total GULP energy -89148.084057 kJ/mol
# GULP energy per Si atom -5571.755254 kJ/mol
# Density = 2.310149 g / cm^3
# Si number density = 23.154185 Si / 1000 Ang^3
#
#
#
# Elastic Constant Matrix: (Units=GPa)
#
#
# Indices 1 2 3 4 5 6 
#
# 1 45.6223 41.2316 27.2346 -6.5712 13.6624 9.8594
# 2 41.2316 93.5278 64.2297 -6.7563 13.2724 -1.4773
# 3 27.2346 64.2297 123.3111 8.7306 18.9216 3.7028
# 4 -6.5712 -6.7563 8.7306 43.1894 0.7726 -0.3004
# 5 13.6624 13.2724 18.9216 0.7726 30.8671 -1.8313
# 6 9.8594 -1.4773 3.7028 -0.3004 -1.8313 28.2774
#
#
#
# Elastic Compliance Matrix: (Units=1/GPa)
#
#
# Indices 1 2 3 4 5 6 
#
# 1 0.048961 -0.021595 0.003160 0.003575 -0.015574 -0.019584
# 2 -0.021595 0.027285 -0.010750 0.003141 0.004973 0.010718
# 3 0.003160 -0.010750 0.014283 -0.004014 -0.005665 -0.003943
# 4 0.003575 0.003141 -0.004014 0.025018 -0.001120 -0.000363
# 5 -0.015574 0.004973 -0.005665 -0.001120 0.041192 0.009087
# 6 -0.019584 0.010718 -0.003943 -0.000363 0.009087 0.043853
#
#
# Mechanical properties :
#
#
# Convention : Reuss Voigt Hill
#
# Bulk Modulus (GPa) = 31.09677 58.65033 44.87355
# Shear Modulus (GPa) = 18.54031 29.11780 23.82906
#
# Velocity S-wave (km/s) = 2.83279 3.55006 3.21151
# Velocity P-wave (km/s) = 4.91519 6.49532 5.75970
#
# Compressibility (1/GPa) = 0.03215768
#
# Stress axis : x y z
#
# Youngs Moduli (GPa) = 20.42450 36.64983 70.01277
#
# Poissons Ratio (x) = 0.79146 -0.22121
# Poissons Ratio (y) = 0.44107 0.75264
# Poissons Ratio (z) = -0.06453 0.39399
#
# Static dielectric constant tensor:
#      x y z
#    x 1.873810 0.035130 0.001620 
#    y 0.035130 2.157350 0.012320 
#    z 0.001620 0.012320 1.860190 
# 
# From -- ./inp_files/542181.got.cif
#   From: 2010.05.17/outbox.cif.g08.bks.cpg/sg2_272_cif.got.tgz:542181.got - 2010.06.03 11:33:40.
