data_PCOD9015080
_publ_section_title
;
Structure prediction by ZEFSAII (Michael W. Deem and Ramdas Pophale) SiO2 
 PCOD9015080
Probable space group: P -1
;
_chemical_formula_sum "Si O2"
_cell_formula_units_Z 14
_cell_length_a 25.577562
_cell_length_b 10.070654
_cell_length_c 15.827063
_cell_angle_alpha 144.371713
_cell_angle_beta 16.680549
_cell_angle_gamma 148.411071
_cell_volume 612.828773
_symmetry_space_group_name_H-M "P -1"
_symmetry_group_IT_number 2
_symmetry_cell_setting 'triclinic'
loop_
_space_group_symop_operation_xyz
x,y,z
-x,-y,-z
loop_
_atom_site_type_symbol
_atom_site_label
_atom_site_fract_x
_atom_site_fract_y
_atom_site_fract_z
Si Si1 0.425113 0.409806 0.199776
Si Si2 0.056953 0.279410 0.592921
Si Si3 0.642583 0.098687 0.747674
Si Si4 0.016901 0.070789 0.713451
Si Si5 0.047019 0.569070 0.338828
Si Si6 0.398355 0.180125 0.728348
Si Si7 0.517013 0.428871 0.341501
O O1 0.293881 0.415187 0.324925
O O2 0.245688 0.276740 0.478825
O O3 0.582598 0.659774 0.131788
O O4 0.529865 0.224799 0.929415
O O5 0.998753 0.427664 0.689159
O O6 0.000000 0.000000 0.500000
O O7 0.948460 0.207538 0.814716
O O8 0.645152 0.856618 0.574704
O O9 0.500000 0.000000 0.000000
O O10 0.134933 0.676380 0.465568
O O11 0.040927 0.824193 0.515603
O O12 0.839082 0.981435 0.008913
O O13 0.264285 0.571674 0.014059
O O14 0.496307 0.369401 0.597860
O O15 0.500000 0.000000 0.500000
O O16 0.500000 0.500000 0.500000
#
# Coordination Sequence:
#
# PCOD9015080 Si02
#       7
#     2   2   2   2   2   2   2
#     4  10  21  41  71 102 130 178 236 288 339 412
#     4   8  18  37  63 101 137 167 219 290 348 400
#     4  12  23  42  74 104 133 179 245 291 340 426
#     4   9  20  41  70 101 135 178 234 297 336 413
#     4  11  22  41  70 103 137 182 231 294 354 410
#     4  12  27  45  69 101 140 190 237 286 356 420
#     4  12  29  46  68 104 149 185 227 300 359 416
#
# _framework density 22.844881000000001
#
# number of rings (size 3 to 8) (size 9 to 14) (size 15 to 20)
#    0.857    0.571    4.286    0.000    4.000    4.000 
#    0.000    0.000    0.000    0.000    0.000    0.000 
#    0.000    0.000    0.000    0.000    0.000    0.000 
#
# Total GULP energy -78144.776263 kJ/mol
# GULP energy per Si atom -5581.769733 kJ/mol
# Density = 2.279288 g / cm^3
# Si number density = 22.844881 Si / 1000 Ang^3
#
#
#
# Elastic Constant Matrix: (Units=GPa)
#
#
# Indices 1 2 3 4 5 6 
#
# 1 92.5205 21.8984 1.7757 14.3105 -12.8695 -22.7715
# 2 21.8984 87.4448 31.2641 -7.1815 -6.9920 -22.9675
# 3 1.7757 31.2641 72.4164 -0.8941 -14.0777 -6.9723
# 4 14.3105 -7.1815 -0.8941 41.5072 -0.8902 -14.7959
# 5 -12.8695 -6.9920 -14.0777 -0.8902 33.4614 1.9657
# 6 -22.7715 -22.9675 -6.9723 -14.7959 1.9657 28.6277
#
#
#
# Elastic Compliance Matrix: (Units=1/GPa)
#
#
# Indices 1 2 3 4 5 6 
#
# 1 0.014557 -0.001683 0.002359 -0.001747 0.005634 0.009513
# 2 -0.001683 0.019943 -0.006682 0.010460 -0.000097 0.018446
# 3 0.002359 -0.006682 0.017946 -0.001579 0.007044 -0.000413
# 4 -0.001747 0.010460 -0.001579 0.035339 0.000329 0.024860
# 5 0.005634 -0.000097 0.007044 0.000329 0.034775 0.003902
# 6 0.009513 0.018446 -0.000413 0.024860 0.003902 0.069777
#
#
# Mechanical properties :
#
#
# Convention : Reuss Voigt Hill
#
# Bulk Modulus (GPa) = 24.73187 40.25092 32.49139
# Shear Modulus (GPa) = 22.95404 33.88216 28.41810
#
# Velocity S-wave (km/s) = 3.17326 3.85533 3.53081
# Velocity P-wave (km/s) = 4.92703 6.12173 5.55658
#
# Compressibility (1/GPa) = 0.04043366
#
# Stress axis : x y z
#
# Youngs Moduli (GPa) = 68.69550 50.14398 55.72267
#
# Poissons Ratio (x) = 0.08441 -0.13148
# Poissons Ratio (y) = 0.11563 0.37235
# Poissons Ratio (z) = -0.16209 0.33507
#
# Static dielectric constant tensor:
#      x y z
#    x 1.897350 -0.032890 0.000130 
#    y -0.032890 1.869010 -0.033990 
#    z 0.000130 -0.033990 1.835860 
# 
# From -- ./inp_files/542596.got.cif
#   From: 2010.05.17/outbox.cif.g08.bks.cpg/sg2_272_cif.got.tgz:542596.got - 2010.06.03 11:33:40.
