data_PCOD9015733
_publ_section_title
;
Structure prediction by ZEFSAII (Michael W. Deem and Ramdas Pophale) SiO2 
 PCOD9015733
Probable space group: P -1
;
_chemical_formula_sum "Si O2"
_cell_formula_units_Z 16
_cell_length_a 20.013059
_cell_length_b 10.547972
_cell_length_c 19.813597
_cell_angle_alpha 152.473662
_cell_angle_beta 157.925517
_cell_angle_gamma 33.653758
_cell_volume 725.092028
_symmetry_space_group_name_H-M "P -1"
_symmetry_group_IT_number 2
_symmetry_cell_setting 'triclinic'
loop_
_space_group_symop_operation_xyz
x,y,z
-x,-y,-z
loop_
_atom_site_type_symbol
_atom_site_label
_atom_site_fract_x
_atom_site_fract_y
_atom_site_fract_z
Si Si1 0.789622 0.565154 0.839964
Si Si2 0.081833 0.817825 0.609387
Si Si3 0.540180 0.075966 0.853363
Si Si4 0.581854 0.702165 0.416338
Si Si5 0.237673 0.809541 0.486095
Si Si6 0.054209 0.532694 0.309522
Si Si7 0.342300 0.396503 0.710981
Si Si8 0.714971 0.622611 0.950570
O O1 0.717560 0.390739 0.628919
O O2 0.710055 0.876034 0.900408
O O3 0.739361 0.504263 0.841518
O O4 0.000000 0.500000 0.000000
O O5 0.024404 0.734121 0.440909
O O6 0.149442 0.531783 0.572752
O O7 0.226125 0.056633 0.848221
O O8 0.919200 0.958070 0.565592
O O9 0.404660 0.138202 0.693590
O O10 0.421861 0.938622 0.734442
O O11 0.595594 0.352863 0.068405
O O12 0.792556 0.687565 0.625094
O O13 0.565183 0.651024 0.296894
O O14 0.500000 0.000000 0.500000
O O15 0.473666 0.464922 0.239215
O O16 0.155151 0.663098 0.402846
O O17 0.863996 0.479219 0.073394
#
# Coordination Sequence:
#
# PCOD9015733 Si02
#       8
#     2   2   2   2   2   2   2   2
#     4  12  22  40  63  95 127 163 210 263 317 380
#     4  10  21  42  64  98 127 159 222 261 320 385
#     4  11  24  40  64  92 127 169 214 257 322 381
#     4  11  27  42  64  93 131 170 217 262 323 385
#     4  11  22  37  68  92 127 161 212 269 312 376
#     4  10  23  40  66 100 124 163 218 268 316 387
#     4  10  24  43  61  90 130 170 209 263 316 386
#     4  11  22  41  68  90 128 166 211 269 322 367
#
# _framework density 22.066164000000001
#
# number of rings (size 3 to 8) (size 9 to 14) (size 15 to 20)
#    0.000    1.250    3.750    2.625    7.000    2.000 
#    0.000    0.000    0.000    0.000    0.000    0.000 
#    0.000    0.000    0.000    0.000    0.000    0.000 
#
# Total GULP energy -89171.531240 kJ/mol
# GULP energy per Si atom -5573.220703 kJ/mol
# Density = 2.201594 g / cm^3
# Si number density = 22.066164 Si / 1000 Ang^3
#
#
#
# Elastic Constant Matrix: (Units=GPa)
#
#
# Indices 1 2 3 4 5 6 
#
# 1 103.1683 30.1636 11.8260 5.6397 -31.5520 -11.3813
# 2 30.1636 122.2516 35.3065 9.0492 -21.9528 -16.5196
# 3 11.8260 35.3065 38.1801 -29.5607 -3.1468 -1.0040
# 4 5.6397 9.0492 -29.5607 -6.0838 14.0207 -10.8322
# 5 -31.5520 -21.9528 -3.1468 14.0207 32.0095 -0.6607
# 6 -11.3813 -16.5196 -1.0040 -10.8322 -0.6607 34.9982
#
#
#
# Elastic Compliance Matrix: (Units=1/GPa)
#
#
# Indices 1 2 3 4 5 6 
#
# 1 0.013105 -0.002183 0.003212 0.005608 0.009389 0.005236
# 2 -0.002183 0.009434 -0.001291 0.008445 0.000623 0.006331
# 3 0.003212 -0.001291 0.011889 -0.019836 0.012032 -0.005136
# 4 0.005608 0.008445 -0.019836 -0.015021 0.015967 0.000893
# 5 0.009389 0.000623 0.012032 0.015967 0.035304 0.009301
# 6 0.005236 0.006331 -0.005136 0.000893 0.009301 0.033569
#
#
# Mechanical properties :
#
#
# Convention : Reuss Voigt Hill
#
# Bulk Modulus (GPa) = 29.49449 46.46579 37.98014
# Shear Modulus (GPa) = 49.94756 24.60504 37.27630
#
# Velocity S-wave (km/s) = 4.76282 3.34287 4.11456
# Velocity P-wave (km/s) = 6.60616 6.00024 6.31048
#
# Compressibility (1/GPa) = 0.03390464
#
# Stress axis : x y z
#
# Youngs Moduli (GPa) = 76.30459 106.00357 84.11048
#
# Poissons Ratio (x) = 0.23138 -0.27019
# Poissons Ratio (y) = 0.16656 0.10861
# Poissons Ratio (z) = -0.24511 0.13688
#
# Static dielectric constant tensor:
#      x y z
#    x 1.803990 0.063690 -0.039100 
#    y 0.063690 1.904260 -0.050130 
#    z -0.039100 -0.050130 1.883210 
# 
# From -- ./inp_files/601398.got.cif
#   From: 2010.05.17/outbox.cif.g08.bks.cpg/sg2_301_cif.got.tgz:601398.got - 2010.06.03 11:33:40.
