data_PCOD9015776
_publ_section_title
;
Structure prediction by ZEFSAII (Michael W. Deem and Ramdas Pophale) SiO2 
 PCOD9015776
Probable space group: P -1
;
_chemical_formula_sum "Si O2"
_cell_formula_units_Z 14
_cell_length_a 9.410112
_cell_length_b 12.593946
_cell_length_c 9.129601
_cell_angle_alpha 64.502371
_cell_angle_beta 118.914748
_cell_angle_gamma 121.791154
_cell_volume 782.209619
_symmetry_space_group_name_H-M "P -1"
_symmetry_group_IT_number 2
_symmetry_cell_setting 'triclinic'
loop_
_space_group_symop_operation_xyz
x,y,z
-x,-y,-z
loop_
_atom_site_type_symbol
_atom_site_label
_atom_site_fract_x
_atom_site_fract_y
_atom_site_fract_z
Si Si1 0.402771 0.541596 0.056251
Si Si2 0.240642 0.739581 0.838273
Si Si3 0.395954 0.188284 0.923989
Si Si4 0.805882 0.893002 0.420358
Si Si5 0.156021 0.074101 0.142987
Si Si6 0.682415 0.041285 0.481704
Si Si7 0.137349 0.287028 0.228502
O O1 0.277098 0.612963 0.896377
O O2 0.500000 0.500000 0.000000
O O3 0.551321 0.658496 0.149940
O O4 0.282682 0.421041 0.164738
O O5 0.255363 0.824673 0.651264
O O6 0.054235 0.710829 0.839603
O O7 0.411734 0.819581 0.979444
O O8 0.254048 0.116649 0.771549
O O9 0.323014 0.144192 0.077279
O O10 0.803734 0.762221 0.564273
O O11 0.670581 0.935915 0.416402
O O12 0.000000 0.000000 0.500000
O O13 0.124677 0.179521 0.164657
O O14 0.183491 0.971740 0.324145
O O15 0.000000 0.000000 0.000000
O O16 0.500000 0.000000 0.500000
#
# Coordination Sequence:
#
# PCOD9015776 Si02
#       7
#     2   2   2   2   2   2   2
#     4  10  21  42  65  86 120 165 212 249 302 366
#     4  10  22  37  63  89 120 159 211 248 305 357
#     4  10  22  40  60  93 118 165 206 245 308 369
#     4  11  23  39  63  92 125 158 198 258 313 359
#     4  11  23  36  63  92 122 162 203 245 315 367
#     4  11  21  39  58  89 125 161 194 252 308 364
#     4  11  21  40  65  86 124 163 201 256 305 358
#
# _framework density 17.898015000000001
#
# number of rings (size 3 to 8) (size 9 to 14) (size 15 to 20)
#    0.857    0.571    4.286    2.143    2.000    2.286 
#    0.000    0.000    0.000    1.714    0.000    0.000 
#    0.000    0.000    0.000    0.000    0.000    0.000 
#
# Total GULP energy -77979.225961 kJ/mol
# GULP energy per Si atom -5569.944712 kJ/mol
# Density = 1.785728 g / cm^3
# Si number density = 17.898015 Si / 1000 Ang^3
#
#
#
# Elastic Constant Matrix: (Units=GPa)
#
#
# Indices 1 2 3 4 5 6 
#
# 1 120.2998 15.9098 31.1620 -10.2229 -6.3735 2.0374
# 2 15.9098 65.8146 47.4703 -19.6829 0.4176 12.9300
# 3 31.1620 47.4703 118.8254 -12.8211 -7.7767 -1.1156
# 4 -10.2229 -19.6829 -12.8211 37.5222 -2.7174 -4.2912
# 5 -6.3735 0.4176 -7.7767 -2.7174 19.7155 -8.4403
# 6 2.0374 12.9300 -1.1156 -4.2912 -8.4403 32.4875
#
#
#
# Elastic Compliance Matrix: (Units=1/GPa)
#
#
# Indices 1 2 3 4 5 6 
#
# 1 0.009142 -0.000432 -0.001839 0.001888 0.002708 0.000488
# 2 -0.000432 0.028569 -0.011079 0.008912 -0.009453 -0.013003
# 3 -0.001839 -0.011079 0.013906 -0.000160 0.008141 0.007096
# 4 0.001888 0.008912 -0.000160 0.032441 0.005730 0.002103
# 5 0.002708 -0.009453 0.008141 0.005730 0.065010 0.021519
# 6 0.000488 -0.013003 0.007096 0.002103 0.021519 0.042038
#
#
# Mechanical properties :
#
#
# Convention : Reuss Voigt Hill
#
# Bulk Modulus (GPa) = 40.13402 54.89156 47.51279
# Shear Modulus (GPa) = 22.11283 31.97156 27.04219
#
# Velocity S-wave (km/s) = 3.51877 4.23107 3.89125
# Velocity P-wave (km/s) = 6.24351 7.38952 6.84055
#
# Compressibility (1/GPa) = 0.02491652
#
# Stress axis : x y z
#
# Youngs Moduli (GPa) = 109.38813 35.00241 71.90903
#
# Poissons Ratio (x) = 0.01511 0.13228
# Poissons Ratio (y) = 0.04722 0.79671
# Poissons Ratio (z) = 0.20122 0.38781
#
# Static dielectric constant tensor:
#      x y z
#    x 1.665840 0.012460 0.004000 
#    y 0.012460 1.620810 -0.012530 
#    z 0.004000 -0.012530 1.615300 
# 
# From -- ./inp_files/186141.got.cif
#   From: 2010.05.17/outbox.cif.g08.bks.cpg/sg2_94_cif.got.tgz:186141.got - 2010.06.03 11:33:40.
