data_PCOD9015190
_publ_section_title
;
Structure prediction by ZEFSAII (Michael W. Deem and Ramdas Pophale) SiO2 
 PCOD9015190
Probable space group: P -1
;
_chemical_formula_sum "Si O2"
_cell_formula_units_Z 12
_cell_length_a 8.220915
_cell_length_b 9.100649
_cell_length_c 13.942793
_cell_angle_alpha 134.919578
_cell_angle_beta 42.935576
_cell_angle_gamma 109.953348
_cell_volume 468.576400
_symmetry_space_group_name_H-M "P -1"
_symmetry_group_IT_number 2
_symmetry_cell_setting 'triclinic'
loop_
_space_group_symop_operation_xyz
x,y,z
-x,-y,-z
loop_
_atom_site_type_symbol
_atom_site_label
_atom_site_fract_x
_atom_site_fract_y
_atom_site_fract_z
Si Si1 0.384022 0.992516 0.317407
Si Si2 0.819015 0.597157 0.214466
Si Si3 0.271289 0.879692 0.648942
Si Si4 0.633804 0.443400 0.811388
Si Si5 0.185690 0.824580 0.145491
Si Si6 0.138309 0.522964 0.662532
O O1 0.654892 0.953005 0.235086
O O2 0.294530 0.259037 0.470570
O O3 0.282429 0.824524 0.346576
O O4 0.331851 0.931609 0.203608
O O5 0.523661 0.767870 0.420064
O O6 0.846129 0.421582 0.206270
O O7 0.984855 0.741806 0.250812
O O8 0.996489 0.991323 0.228994
O O9 0.238115 0.676401 0.626207
O O10 0.861362 0.534268 0.752578
O O11 0.500000 0.500000 0.000000
O O12 0.413739 0.598401 0.906103
O O13 0.000000 0.500000 0.000000
#
# Coordination Sequence:
#
# PCOD9015190 Si02
#       6
#     2   2   2   2   2   2
#     4  10  22  44  78 103 147 198 251 305 367 446
#     4  11  24  44  74 109 149 195 253 306 360 457
#     4  11  27  46  76 114 151 193 245 314 385 436
#     4  10  21  41  72 108 145 191 251 304 360 444
#     4  11  25  44  73 112 148 196 256 299 369 454
#     4  11  23  48  76 110 150 197 246 313 384 431
#
# _framework density 25.609483999999998
#
# number of rings (size 3 to 8) (size 9 to 14) (size 15 to 20)
#    0.000    1.333    3.333    3.000    4.667    2.667 
#    0.000   12.500    0.000    0.000    0.000    0.000 
#    0.000    0.000    0.000    0.000    0.000    0.000 
#
# Total GULP energy -66910.470223 kJ/mol
# GULP energy per Si atom -5575.872519 kJ/mol
# Density = 2.555120 g / cm^3
# Si number density = 25.609484 Si / 1000 Ang^3
#
#
#
# Elastic Constant Matrix: (Units=GPa)
#
#
# Indices 1 2 3 4 5 6 
#
# 1 174.7533 51.6401 77.6519 4.9611 -26.6400 1.1555
# 2 51.6401 142.2470 40.7201 7.0888 -12.1865 8.0993
# 3 77.6519 40.7201 119.9322 3.3752 -24.9456 -4.1404
# 4 4.9611 7.0888 3.3752 17.0081 4.5696 -8.0920
# 5 -26.6400 -12.1865 -24.9456 4.5696 49.7017 9.7982
# 6 1.1555 8.0993 -4.1404 -8.0920 9.7982 47.4113
#
#
#
# Elastic Compliance Matrix: (Units=1/GPa)
#
#
# Indices 1 2 3 4 5 6 
#
# 1 0.008618 -0.001428 -0.004569 -0.002261 0.002431 -0.001253
# 2 -0.001428 0.008507 -0.001633 -0.004430 0.001423 -0.002611
# 3 -0.004569 -0.001633 0.012627 -0.001153 0.003481 0.000577
# 4 -0.002261 -0.004430 -0.001153 0.072378 -0.012621 0.015673
# 5 0.002431 0.001423 0.003481 -0.012621 0.026170 -0.007561
# 6 -0.001253 -0.002611 0.000577 0.015673 -0.007561 0.025856
#
#
# Mechanical properties :
#
#
# Convention : Reuss Voigt Hill
#
# Bulk Modulus (GPa) = 69.00658 86.32852 77.66755
# Shear Modulus (GPa) = 28.69498 40.61890 34.65694
#
# Velocity S-wave (km/s) = 3.35099 3.98689 3.68269
# Velocity P-wave (km/s) = 6.47892 7.41462 6.96250
#
# Compressibility (1/GPa) = 0.01449137
#
# Stress axis : x y z
#
# Youngs Moduli (GPa) = 116.04252 117.54465 79.19572
#
# Poissons Ratio (x) = 0.16789 0.36182
# Poissons Ratio (y) = 0.16575 0.12935
# Poissons Ratio (z) = 0.53016 0.19198
#
# Static dielectric constant tensor:
#      x y z
#    x 2.293360 -0.035840 0.088750 
#    y -0.035840 1.926320 0.034770 
#    z 0.088750 0.034770 2.215530 
# 
# From -- ./inp_files/556658.got.cif
#   From: 2010.05.17/outbox.cif.g08.bks.cpg/sg2_279_cif.got.tgz:556658.got - 2010.06.03 11:33:40.
