data_PCOD9015364
_publ_section_title
;
Structure prediction by ZEFSAII (Michael W. Deem and Ramdas Pophale) SiO2 
 PCOD9015364
Probable space group: P -1
;
_chemical_formula_sum "Si O2"
_cell_formula_units_Z 16
_cell_length_a 19.604622
_cell_length_b 21.972600
_cell_length_c 12.811724
_cell_angle_alpha 155.451559
_cell_angle_beta 29.556076
_cell_angle_gamma 162.826108
_cell_volume 677.006576
_symmetry_space_group_name_H-M "P -1"
_symmetry_group_IT_number 2
_symmetry_cell_setting 'triclinic'
loop_
_space_group_symop_operation_xyz
x,y,z
-x,-y,-z
loop_
_atom_site_type_symbol
_atom_site_label
_atom_site_fract_x
_atom_site_fract_y
_atom_site_fract_z
Si Si1 0.278643 0.524650 0.805274
Si Si2 0.828336 0.965247 0.457658
Si Si3 0.914744 0.297288 0.219304
Si Si4 0.380498 0.642209 0.620810
Si Si5 0.015215 0.478954 0.715949
Si Si6 0.686001 0.024574 0.294822
Si Si7 0.199865 0.279926 0.714483
Si Si8 0.852675 0.868014 0.886376
O O1 0.417627 0.675609 0.749802
O O2 0.353957 0.474434 0.718237
O O3 0.035353 0.242855 0.654981
O O4 0.199195 0.606651 0.092444
O O5 0.595766 0.863550 0.603091
O O6 0.721659 0.758659 0.358722
O O7 0.951146 0.975944 0.221334
O O8 0.832104 0.301119 0.228562
O O9 0.749046 0.065670 0.152829
O O10 0.000000 0.500000 0.500000
O O11 0.102457 0.342217 0.997660
O O12 0.168527 0.564053 0.742309
O O13 0.273253 0.392766 0.351385
O O14 0.894601 0.254531 0.452657
O O15 0.500000 0.000000 0.500000
O O16 0.667820 0.841966 0.073672
O O17 0.000000 0.000000 0.500000
O O18 0.000000 0.000000 0.000000
#
# Coordination Sequence:
#
# PCOD9015364 Si02
#       8
#     2   2   2   2   2   2   2   2
#     4   9  21  40  61  90 131 165 211 276 313 376
#     4  10  22  39  64  92 125 173 212 260 329 387
#     4   9  19  36  62  83 118 161 207 264 316 375
#     4  11  23  39  65  95 128 173 215 257 324 398
#     4  10  21  42  61  90 130 168 209 269 324 377
#     4  11  23  42  65  94 125 168 219 267 326 387
#     4   9  17  36  60  83 122 164 204 264 321 368
#     4  11  23  43  64  93 136 165 211 276 318 381
#
# _framework density 23.633448000000001
#
# number of rings (size 3 to 8) (size 9 to 14) (size 15 to 20)
#    0.000    2.000    2.500    0.375    0.000    5.500 
#    6.750    0.000    0.000    0.000    0.000    0.000 
#    0.000    0.000    0.000    0.000    0.000    0.000 
#
# Total GULP energy -89094.309025 kJ/mol
# GULP energy per Si atom -5568.394314 kJ/mol
# Density = 2.357966 g / cm^3
# Si number density = 23.633448 Si / 1000 Ang^3
#
#
#
# Elastic Constant Matrix: (Units=GPa)
#
#
# Indices 1 2 3 4 5 6 
#
# 1 76.6929 21.7103 16.7346 -0.7383 8.1176 -6.5740
# 2 21.7103 61.0456 16.6208 -19.4785 5.4875 -4.2680
# 3 16.7346 16.6208 99.1817 -10.3594 8.7280 -8.4432
# 4 -0.7383 -19.4785 -10.3594 33.7159 -6.1168 -0.9996
# 5 8.1176 5.4875 8.7280 -6.1168 36.2431 -2.7559
# 6 -6.5740 -4.2680 -8.4432 -0.9996 -2.7559 16.9517
#
#
#
# Elastic Compliance Matrix: (Units=1/GPa)
#
#
# Indices 1 2 3 4 5 6 
#
# 1 0.015560 -0.005914 -0.001548 -0.003939 -0.002645 0.003112
# 2 -0.005914 0.023225 -0.001253 0.013127 0.000615 0.003804
# 3 -0.001548 -0.001253 0.011347 0.002612 -0.001401 0.004662
# 4 -0.003939 0.013127 0.002612 0.039115 0.005342 0.006254
# 5 -0.002645 0.000615 -0.001401 0.005342 0.029600 0.003559
# 6 0.003112 0.003804 0.004662 0.006254 0.003559 0.064425
#
#
# Mechanical properties :
#
#
# Convention : Reuss Voigt Hill
#
# Bulk Modulus (GPa) = 30.58000 38.56129 34.57064
# Shear Modulus (GPa) = 23.62925 29.50575 26.56750
#
# Velocity S-wave (km/s) = 3.16543 3.53721 3.35647
# Velocity P-wave (km/s) = 5.13101 5.74755 5.44801
#
# Compressibility (1/GPa) = 0.03270112
#
# Stress axis : x y z
#
# Youngs Moduli (GPa) = 64.26877 43.05711 88.13100
#
# Poissons Ratio (x) = 0.25463 0.13643
# Poissons Ratio (y) = 0.38007 0.11046
# Poissons Ratio (z) = 0.09949 0.05397
#
# Static dielectric constant tensor:
#      x y z
#    x 2.039930 0.090940 -0.121710 
#    y 0.090940 2.010130 -0.115880 
#    z -0.121710 -0.115880 2.014720 
# 
# From -- ./inp_files/467166.got.cif
#   From: 2010.05.17/outbox.cif.g08.bks.cpg/sg2_234_cif.got.tgz:467166.got - 2010.06.03 11:33:40.
