data_PCOD9015052
_publ_section_title
;
Structure prediction by ZEFSAII (Michael W. Deem and Ramdas Pophale) SiO2 
 PCOD9015052
Probable space group: P -1
;
_chemical_formula_sum "Si O2"
_cell_formula_units_Z 16
_cell_length_a 7.967330
_cell_length_b 11.510190
_cell_length_c 11.362523
_cell_angle_alpha 86.799165
_cell_angle_beta 92.973518
_cell_angle_gamma 139.413433
_cell_volume 676.795356
_symmetry_space_group_name_H-M "P -1"
_symmetry_group_IT_number 2
_symmetry_cell_setting 'triclinic'
loop_
_space_group_symop_operation_xyz
x,y,z
-x,-y,-z
loop_
_atom_site_type_symbol
_atom_site_label
_atom_site_fract_x
_atom_site_fract_y
_atom_site_fract_z
Si Si1 0.630857 0.096740 0.373425
Si Si2 0.126294 0.601409 0.151982
Si Si3 0.486200 0.676829 0.326445
Si Si4 0.504819 0.576030 0.748980
Si Si5 0.428618 0.701391 0.933218
Si Si6 0.745028 0.410561 0.432626
Si Si7 0.354345 0.953055 0.120223
Si Si8 0.014338 0.931307 0.624278
O O1 0.651738 0.245775 0.373435
O O2 0.494686 0.000762 0.247938
O O3 0.881930 0.146197 0.385590
O O4 0.500000 0.000000 0.500000
O O5 0.249192 0.631499 0.277352
O O6 0.846717 0.402091 0.128205
O O7 0.123140 0.738691 0.122953
O O8 0.341820 0.661298 0.067131
O O9 0.469380 0.545269 0.269050
O O10 0.439621 0.641268 0.466416
O O11 0.759136 0.883889 0.306066
O O12 0.488198 0.610481 0.880033
O O13 0.255820 0.489655 0.670601
O O14 0.745921 0.773019 0.689964
O O15 0.652551 0.911121 0.898247
O O16 0.000000 0.500000 0.500000
O O17 0.500000 0.000000 0.000000
O O18 0.000000 0.000000 0.500000
#
# Coordination Sequence:
#
# PCOD9015052 Si02
#       8
#     2   2   2   2   2   2   2   2
#     4  12  22  42  71  98 129 177 236 279 332 407
#     4  10  22  44  70  98 127 171 229 288 331 397
#     4  12  25  42  64  94 138 176 215 277 347 404
#     4  12  26  43  63  96 137 179 214 271 352 406
#     4  10  23  43  70  97 129 172 230 281 336 407
#     4  12  24  41  65  97 127 170 232 274 328 405
#     4  10  21  41  70  99 132 170 225 291 337 391
#     4  12  26  44  63  95 142 177 212 281 344 406
#
# _framework density 23.640822
#
# number of rings (size 3 to 8) (size 9 to 14) (size 15 to 20)
#    0.000    0.750    5.000    1.875    3.500    1.500 
#    0.000    0.625    0.000    0.000    0.000    0.000 
#    0.000    0.000    0.000    0.000    0.000    0.000 
#
# Total GULP energy -89301.962195 kJ/mol
# GULP energy per Si atom -5581.372637 kJ/mol
# Density = 2.358701 g / cm^3
# Si number density = 23.640822 Si / 1000 Ang^3
#
#
#
# Elastic Constant Matrix: (Units=GPa)
#
#
# Indices 1 2 3 4 5 6 
#
# 1 72.1919 28.2262 3.6373 -1.1651 -19.3623 -20.1818
# 2 28.2262 93.8987 18.3519 2.7944 -14.7606 -17.5199
# 3 3.6373 18.3519 121.4004 -4.4429 -22.5530 -1.5093
# 4 -1.1651 2.7944 -4.4429 33.6492 -2.6382 -5.2361
# 5 -19.3623 -14.7606 -22.5530 -2.6382 40.7899 9.6962
# 6 -20.1818 -17.5199 -1.5093 -5.2361 9.6962 44.8188
#
#
#
# Elastic Compliance Matrix: (Units=1/GPa)
#
#
# Indices 1 2 3 4 5 6 
#
# 1 0.018870 -0.003834 0.001521 0.002640 0.007203 0.005800
# 2 -0.003834 0.012870 -0.001602 -0.000869 0.001209 0.002888
# 3 0.001521 -0.001602 0.009549 0.001793 0.005690 -0.000641
# 4 0.002640 -0.000869 0.001793 0.030958 0.003011 0.003875
# 5 0.007203 0.001209 0.005690 0.003011 0.032365 -0.002742
# 6 0.005800 0.002888 -0.000641 0.003875 -0.002742 0.027077
#
#
# Mechanical properties :
#
#
# Convention : Reuss Voigt Hill
#
# Bulk Modulus (GPa) = 29.88706 43.10241 36.49473
# Shear Modulus (GPa) = 33.18483 39.66995 36.42739
#
# Velocity S-wave (km/s) = 3.75067 4.10082 3.92965
# Velocity P-wave (km/s) = 5.60592 6.37919 6.00501
#
# Compressibility (1/GPa) = 0.03345930
#
# Stress axis : x y z
#
# Youngs Moduli (GPa) = 52.99352 77.70001 104.72832
#
# Poissons Ratio (x) = 0.29789 -0.15930
# Poissons Ratio (y) = 0.20317 0.16777
# Poissons Ratio (z) = -0.08061 0.12447
#
# Static dielectric constant tensor:
#      x y z
#    x 1.895410 0.057500 -0.008650 
#    y 0.057500 1.894460 -0.000180 
#    z -0.008650 -0.000180 1.948040 
# 
# From -- ./inp_files/390226.got.cif
#   From: 2010.05.17/outbox.cif.g08.bks.cpg/sg2_196_cif.got.tgz:390226.got - 2010.06.03 11:33:40.
