data_PCOD9015431
_publ_section_title
;
Structure prediction by ZEFSAII (Michael W. Deem and Ramdas Pophale) SiO2 
 PCOD9015431
Probable space group: P -1
;
_chemical_formula_sum "Si O2"
_cell_formula_units_Z 16
_cell_length_a 9.866167
_cell_length_b 18.477565
_cell_length_c 10.539707
_cell_angle_alpha 135.982091
_cell_angle_beta 105.282212
_cell_angle_gamma 39.242372
_cell_volume 629.006904
_symmetry_space_group_name_H-M "P -1"
_symmetry_group_IT_number 2
_symmetry_cell_setting 'triclinic'
loop_
_space_group_symop_operation_xyz
x,y,z
-x,-y,-z
loop_
_atom_site_type_symbol
_atom_site_label
_atom_site_fract_x
_atom_site_fract_y
_atom_site_fract_z
Si Si1 0.298279 0.242862 0.630686
Si Si2 0.830325 0.462740 0.124880
Si Si3 0.819916 0.217784 0.082824
Si Si4 0.144837 0.893781 0.538835
Si Si5 0.195278 0.540032 0.606057
Si Si6 0.111839 0.154051 0.589242
Si Si7 0.362913 0.860507 0.941366
Si Si8 0.363077 0.087347 0.215008
O O1 0.116366 0.464081 0.844225
O O2 0.126082 0.249500 0.630010
O O3 0.440923 0.125671 0.381113
O O4 0.559737 0.086813 0.596546
O O5 0.486129 0.676893 0.330303
O O6 0.948644 0.389243 0.204359
O O7 0.949106 0.293927 0.854449
O O8 0.685016 0.419477 0.299803
O O9 0.617578 0.249898 0.099184
O O10 0.007908 0.068153 0.817580
O O11 0.043017 0.076420 0.076993
O O12 0.047540 0.842981 0.502076
O O13 0.000000 0.000000 0.500000
O O14 0.434187 0.301567 0.330391
O O15 0.970644 0.682707 0.615691
O O16 0.427534 0.933221 0.098271
O O17 0.500000 0.000000 0.000000
#
# Coordination Sequence:
#
# PCOD9015431 Si02
#       8
#     2   2   2   2   2   2   2   2
#     4  11  25  46  66  94 135 173 218 266 320 384
#     4  12  24  43  70  95 132 168 220 269 322 386
#     4  10  22  40  64  93 130 163 207 261 325 378
#     4  12  23  43  68  97 129 170 216 269 326 379
#     4  11  23  40  68  97 126 169 212 261 324 385
#     4  11  25  45  68  95 130 176 217 268 322 378
#     4  10  21  42  62  92 129 166 205 263 317 384
#     4  11  24  40  66  94 130 167 214 263 317 382
#
# _framework density 25.436923
#
# number of rings (size 3 to 8) (size 9 to 14) (size 15 to 20)
#    0.000    1.000    2.500    4.125    1.750    3.000 
#    4.500    0.000    0.000    0.000    0.000    0.000 
#    0.000    0.000    0.000    0.000    0.000    0.000 
#
# Total GULP energy -89627.580253 kJ/mol
# GULP energy per Si atom -5601.723766 kJ/mol
# Density = 2.537903 g / cm^3
# Si number density = 25.436923 Si / 1000 Ang^3
#
#
#
# Elastic Constant Matrix: (Units=GPa)
#
#
# Indices 1 2 3 4 5 6 
#
# 1 105.0407 15.0952 -2.3866 13.8149 15.3586 10.1965
# 2 15.0952 80.8547 -2.5637 2.7998 2.8699 4.8837
# 3 -2.3866 -2.5637 86.9140 -9.6185 14.1647 -6.1042
# 4 13.8149 2.7998 -9.6185 29.1181 7.5506 -0.6389
# 5 15.3586 2.8699 14.1647 7.5506 45.2492 3.3547
# 6 10.1965 4.8837 -6.1042 -0.6389 3.3547 30.5618
#
#
#
# Elastic Compliance Matrix: (Units=1/GPa)
#
#
# Indices 1 2 3 4 5 6 
#
# 1 0.011042 -0.001618 -0.000036 -0.004480 -0.002646 -0.003236
# 2 -0.001618 0.012783 0.000214 -0.000382 -0.000157 -0.001451
# 3 -0.000036 0.000214 0.013269 0.005848 -0.005379 0.003341
# 4 -0.004480 -0.000382 0.005848 0.040441 -0.007359 0.004377
# 5 -0.002646 -0.000157 -0.005379 -0.007359 0.026156 -0.003191
# 6 -0.003236 -0.001451 0.003341 0.004377 -0.003191 0.035141
#
#
# Mechanical properties :
#
#
# Convention : Reuss Voigt Hill
#
# Bulk Modulus (GPa) = 29.22775 32.56657 30.89716
# Shear Modulus (GPa) = 32.65452 38.49679 35.57566
#
# Velocity S-wave (km/s) = 3.58683 3.89449 3.74382
# Velocity P-wave (km/s) = 5.35434 5.74921 5.55529
#
# Compressibility (1/GPa) = 0.03421406
#
# Stress axis : x y z
#
# Youngs Moduli (GPa) = 90.56236 78.22770 75.36178
#
# Poissons Ratio (x) = 0.12658 0.00273
# Poissons Ratio (y) = 0.14654 -0.01614
# Poissons Ratio (z) = 0.00328 -0.01675
#
# Static dielectric constant tensor:
#      x y z
#    x 2.085870 0.044960 -0.047740 
#    y 0.044960 1.979080 -0.003010 
#    z -0.047740 -0.003010 1.970020 
# 
# From -- ./inp_files/70883.got.cif
#   From: 2010.05.17/outbox.cif.g08.bks.cpg/sg2_36_cif.got.tgz:70883.got - 2010.06.03 11:33:40.
