data_PCOD9015508
_publ_section_title
;
Structure prediction by ZEFSAII (Michael W. Deem and Ramdas Pophale) SiO2 
 PCOD9015508
Probable space group: P -1
;
_chemical_formula_sum "Si O2"
_cell_formula_units_Z 14
_cell_length_a 14.070938
_cell_length_b 8.622659
_cell_length_c 12.429041
_cell_angle_alpha 56.159306
_cell_angle_beta 62.129953
_cell_angle_gamma 32.865546
_cell_volume 679.709640
_symmetry_space_group_name_H-M "P -1"
_symmetry_group_IT_number 2
_symmetry_cell_setting 'triclinic'
loop_
_space_group_symop_operation_xyz
x,y,z
-x,-y,-z
loop_
_atom_site_type_symbol
_atom_site_label
_atom_site_fract_x
_atom_site_fract_y
_atom_site_fract_z
Si Si1 0.206087 0.381317 0.986304
Si Si2 0.350840 0.239366 0.394732
Si Si3 0.908210 0.609023 0.180855
Si Si4 0.519944 0.692465 0.146445
Si Si5 0.458060 0.692262 0.846873
Si Si6 0.495250 0.285515 0.601815
Si Si7 0.132045 0.652173 0.542355
O O1 0.061914 0.535269 0.092164
O O2 0.353688 0.016828 0.052878
O O3 0.122367 0.479398 0.874363
O O4 0.306924 0.434827 0.932013
O O5 0.414900 0.309346 0.249355
O O6 0.185087 0.537455 0.435359
O O7 0.500000 0.000000 0.500000
O O8 0.349529 0.043648 0.409942
O O9 0.947048 0.423205 0.331868
O O10 0.731520 0.960600 0.166469
O O11 0.533646 0.457590 0.201492
O O12 0.499566 0.757231 0.257932
O O13 0.500000 0.500000 0.000000
O O14 0.500000 0.500000 0.500000
O O15 0.313140 0.455843 0.584228
O O16 0.000000 0.000000 0.500000
#
# Coordination Sequence:
#
# PCOD9015508 Si02
#       7
#     2   2   2   2   2   2   2
#     4  10  23  39  64  92 130 170 209 267 328 385
#     4  10  21  42  63  92 127 173 215 264 316 402
#     4  11  22  43  63  93 132 167 217 270 320 396
#     4  11  22  40  65  95 127 170 214 266 327 386
#     4  12  23  39  68  99 128 173 218 263 334 398
#     4  11  23  41  67  94 126 167 222 273 320 385
#     4  11  24  42  66  93 126 175 220 264 324 391
#
# _framework density 20.597028999999999
#
# number of rings (size 3 to 8) (size 9 to 14) (size 15 to 20)
#    0.000    1.143    5.714    1.714    6.000    0.571 
#    0.000    2.143    0.000    0.000    0.000    0.000 
#    0.000    0.000    0.000    0.000    0.000    0.000 
#
# Total GULP energy -78214.213286 kJ/mol
# GULP energy per Si atom -5586.729520 kJ/mol
# Density = 2.055015 g / cm^3
# Si number density = 20.597029 Si / 1000 Ang^3
#
#
#
# Elastic Constant Matrix: (Units=GPa)
#
#
# Indices 1 2 3 4 5 6 
#
# 1 45.9944 19.3793 18.3465 12.6430 -3.9409 22.5460
# 2 19.3793 108.4243 41.1950 15.1987 -7.8136 30.8069
# 3 18.3465 41.1950 115.9642 11.9198 -18.1245 6.8272
# 4 12.6430 15.1987 11.9198 34.6075 2.5565 -2.3005
# 5 -3.9409 -7.8136 -18.1245 2.5565 31.4751 -1.8826
# 6 22.5460 30.8069 6.8272 -2.3005 -1.8826 34.7811
#
#
#
# Elastic Compliance Matrix: (Units=1/GPa)
#
#
# Indices 1 2 3 4 5 6 
#
# 1 0.043304 0.006816 -0.004587 -0.019812 0.004031 -0.034300
# 2 0.006816 0.016532 -0.004555 -0.009571 0.001994 -0.018692
# 3 -0.004587 -0.004555 0.011531 -0.000351 0.005263 0.005006
# 4 -0.019812 -0.009571 -0.000351 0.042565 -0.007092 0.023821
# 5 0.004031 0.001994 0.005263 -0.007092 0.036143 -0.003924
# 6 -0.034300 -0.018692 0.005006 0.023821 -0.003924 0.067923
#
#
# Mechanical properties :
#
#
# Convention : Reuss Voigt Hill
#
# Bulk Modulus (GPa) = 14.98896 47.58050 31.28473
# Shear Modulus (GPa) = 20.41749 32.93688 26.67719
#
# Velocity S-wave (km/s) = 3.15188 4.00322 3.60279
# Velocity P-wave (km/s) = 4.53198 6.67222 5.70339
#
# Compressibility (1/GPa) = 0.06671577
#
# Stress axis : x y z
#
# Youngs Moduli (GPa) = 23.09241 60.48876 86.72152
#
# Poissons Ratio (x) = -0.41230 0.39777
# Poissons Ratio (y) = -0.15740 0.39504
# Poissons Ratio (z) = 0.10592 0.27554
#
# Static dielectric constant tensor:
#      x y z
#    x 1.762360 -0.002490 0.015700 
#    y -0.002490 1.734340 -0.005000 
#    z 0.015700 -0.005000 1.778670 
# 
# From -- ./inp_files/158803.got.cif
#   From: 2010.05.17/outbox.cif.g08.bks.cpg/sg2_80_cif.got.tgz:158803.got - 2010.06.03 11:33:40.
