data_PCOD9015122
_publ_section_title
;
Structure prediction by ZEFSAII (Michael W. Deem and Ramdas Pophale) SiO2 
 PCOD9015122
Probable space group: P -1
;
_chemical_formula_sum "Si O2"
_cell_formula_units_Z 15
_cell_length_a 8.110360
_cell_length_b 23.717455
_cell_length_c 23.382195
_cell_angle_alpha 12.172848
_cell_angle_beta 142.019580
_cell_angle_gamma 139.800040
_cell_volume 582.858122
_symmetry_space_group_name_H-M "P -1"
_symmetry_group_IT_number 2
_symmetry_cell_setting 'triclinic'
loop_
_space_group_symop_operation_xyz
x,y,z
-x,-y,-z
loop_
_atom_site_type_symbol
_atom_site_label
_atom_site_fract_x
_atom_site_fract_y
_atom_site_fract_z
Si Si1 0.726426 0.457553 0.388000
Si Si2 0.500000 0.000000 0.000000
Si Si3 0.722189 0.751343 0.887030
Si Si4 0.987690 0.243192 0.429825
Si Si5 0.496893 0.692633 0.411571
Si Si6 0.807288 0.260293 0.191220
Si Si7 0.412637 0.952121 0.769434
Si Si8 0.910882 0.321727 0.828682
O O1 0.729652 0.376973 0.535680
O O2 0.967399 0.551238 0.321007
O O3 0.603510 0.201593 0.576436
O O4 0.519656 0.721569 0.070712
O O5 0.404755 0.925554 0.112907
O O6 0.188758 0.971321 0.920321
O O7 0.409108 0.708210 0.848832
O O8 0.770876 0.056794 0.582635
O O9 0.868597 0.540774 0.092674
O O10 0.888168 0.679662 0.061930
O O11 0.246858 0.245068 0.540915
O O12 0.120802 0.087803 0.567392
O O13 0.624920 0.468479 0.624392
O O14 0.611191 0.213876 0.130046
O O15 0.000000 0.000000 0.500000
O O16 0.000000 0.500000 0.000000
#
# Coordination Sequence:
#
# PCOD9015122 Si02
#       8
#     2   1   2   2   2   2   2   2
#     4  11  25  42  75 103 137 195 256 285 355 432
#     4  12  24  44  68 106 150 184 234 308 370 406
#     4  11  22  42  70  98 133 189 240 277 360 431
#     4  10  21  41  71  96 130 188 242 287 338 428
#     4  10  24  42  65 102 145 184 239 310 347 417
#     4  12  26  43  67 107 147 177 228 301 362 423
#     4  11  23  45  70 106 137 184 241 300 347 429
#     4  11  24  43  70 100 142 193 241 292 362 431
#
# _framework density 25.735250000000001
#
# number of rings (size 3 to 8) (size 9 to 14) (size 15 to 20)
#    0.000    1.067    2.667    4.400    7.467    0.533 
#    0.000    5.333    0.000    0.000    0.000    0.000 
#    0.000    0.000    0.000    0.000    0.000    0.000 
#
# Total GULP energy -83637.788697 kJ/mol
# GULP energy per Si atom -5575.852580 kJ/mol
# Density = 2.567667 g / cm^3
# Si number density = 25.735250 Si / 1000 Ang^3
#
#
#
# Elastic Constant Matrix: (Units=GPa)
#
#
# Indices 1 2 3 4 5 6 
#
# 1 144.0692 53.7743 1.1331 -49.6491 -17.6222 -11.9822
# 2 53.7743 91.2710 10.4637 -46.9787 -5.1783 -5.4476
# 3 1.1331 10.4637 111.4906 -3.1328 -6.9884 26.6080
# 4 -49.6491 -46.9787 -3.1328 91.4150 8.9074 26.0858
# 5 -17.6222 -5.1783 -6.9884 8.9074 50.4734 -1.5867
# 6 -11.9822 -5.4476 26.6080 26.0858 -1.5867 72.5647
#
#
#
# Elastic Compliance Matrix: (Units=1/GPa)
#
#
# Indices 1 2 3 4 5 6 
#
# 1 0.009832 -0.004199 0.000505 0.002912 0.002562 0.000132
# 2 -0.004199 0.016978 -0.001054 0.006966 -0.001148 -0.001561
# 3 0.000505 -0.001054 0.010145 0.001139 0.001143 -0.004100
# 4 0.002912 0.006966 0.001139 0.017968 -0.001467 -0.005905
# 5 0.002562 -0.001148 0.001143 -0.001467 0.021035 0.000905
# 6 0.000132 -0.001561 -0.004100 -0.005905 0.000905 0.017331
#
#
# Mechanical properties :
#
#
# Convention : Reuss Voigt Hill
#
# Bulk Modulus (GPa) = 36.41654 53.06369 44.74011
# Shear Modulus (GPa) = 44.66714 61.65460 53.16087
#
# Velocity S-wave (km/s) = 4.17062 4.89992 4.54991
# Velocity P-wave (km/s) = 6.11337 7.25784 6.71005
#
# Compressibility (1/GPa) = 0.02746005
#
# Stress axis : x y z
#
# Youngs Moduli (GPa) = 101.70561 58.89915 98.56707
#
# Poissons Ratio (x) = 0.24729 -0.04977
# Poissons Ratio (y) = 0.42701 0.10393
# Poissons Ratio (z) = -0.05136 0.06210
#
# Static dielectric constant tensor:
#      x y z
#    x 2.345390 -0.095880 0.018690 
#    y -0.095880 2.052930 -0.071330 
#    z 0.018690 -0.071330 2.148230 
# 
# From -- ./inp_files/617637.got.cif
#   From: 2010.05.17/outbox.cif.g08.bks.cpg/sg2_309_cif.got.tgz:617637.got - 2010.06.03 11:33:40.
