data_PCOD9015870
_publ_section_title
;
Structure prediction by ZEFSAII (Michael W. Deem and Ramdas Pophale) SiO2 
 PCOD9015870
Probable space group: P -1
;
_chemical_formula_sum "Si O2"
_cell_formula_units_Z 16
_cell_length_a 9.120201
_cell_length_b 14.607818
_cell_length_c 6.046300
_cell_angle_alpha 79.390639
_cell_angle_beta 67.621355
_cell_angle_gamma 100.932130
_cell_volume 701.593145
_symmetry_space_group_name_H-M "P -1"
_symmetry_group_IT_number 2
_symmetry_cell_setting 'triclinic'
loop_
_space_group_symop_operation_xyz
x,y,z
-x,-y,-z
loop_
_atom_site_type_symbol
_atom_site_label
_atom_site_fract_x
_atom_site_fract_y
_atom_site_fract_z
Si Si1 0.010024 0.451256 0.765734
Si Si2 0.911398 0.106547 0.217367
Si Si3 0.475901 0.105077 0.950507
Si Si4 0.364899 0.486931 0.398906
Si Si5 0.729258 0.248469 0.043054
Si Si6 0.800667 0.827319 0.717796
Si Si7 0.530386 0.654297 0.927598
Si Si8 0.764780 0.883722 0.262846
O O1 0.195458 0.447854 0.641150
O O2 0.000000 0.500000 0.500000
O O3 0.881476 0.344443 0.882251
O O4 0.000000 0.500000 0.000000
O O5 0.001865 0.134029 0.388602
O O6 0.821054 0.994598 0.271992
O O7 0.798706 0.174452 0.182805
O O8 0.087946 0.125981 0.978070
O O9 0.637773 0.183737 0.914870
O O10 0.412840 0.129249 0.739012
O O11 0.309160 0.100608 0.188774
O O12 0.500000 0.000000 0.000000
O O13 0.500000 0.500000 0.500000
O O14 0.393029 0.414030 0.230660
O O15 0.399795 0.589457 0.205062
O O16 0.578041 0.291349 0.179266
O O17 0.685375 0.727685 0.931997
O O18 0.766763 0.809919 0.486804
#
# Coordination Sequence:
#
# PCOD9015870 Si02
#       8
#     2   2   2   2   2   2   2   2
#     4  12  28  52  78 115 159 197 257 325 386 460
#     4  10  22  40  65  97 141 185 239 309 368 442
#     4  10  21  43  64  95 143 183 240 302 365 452
#     4  11  25  45  76  96 148 196 241 316 388 455
#     4  11  23  46  70 107 145 196 254 310 385 447
#     4  10  23  39  66  98 138 184 255 294 378 457
#     4  10  24  45  65 104 142 188 254 302 387 456
#     4  10  21  42  65  94 140 191 235 302 373 443
#
# _framework density 22.805237999999999
#
# number of rings (size 3 to 8) (size 9 to 14) (size 15 to 20)
#    0.000    1.500    2.500    1.125    5.250    2.500 
#    4.500    0.000    0.000    0.000    0.000    0.000 
#    0.000    0.000    0.000    0.000    0.000    0.000 
#
# Total GULP energy -89093.094645 kJ/mol
# GULP energy per Si atom -5568.318415 kJ/mol
# Density = 2.275333 g / cm^3
# Si number density = 22.805238 Si / 1000 Ang^3
#
#
#
# Elastic Constant Matrix: (Units=GPa)
#
#
# Indices 1 2 3 4 5 6 
#
# 1 158.1723 42.7425 19.1501 6.2965 5.8416 26.2739
# 2 42.7425 103.3463 9.8695 -0.9336 -5.1647 16.0916
# 3 19.1501 9.8695 39.5364 7.6403 -6.8863 0.5275
# 4 6.2965 -0.9336 7.6403 13.1132 1.7697 0.5716
# 5 5.8416 -5.1647 -6.8863 1.7697 35.7852 -5.1773
# 6 26.2739 16.0916 0.5275 0.5716 -5.1773 40.9031
#
#
#
# Elastic Compliance Matrix: (Units=1/GPa)
#
#
# Indices 1 2 3 4 5 6 
#
# 1 0.008407 -0.002565 -0.003609 -0.001500 -0.003044 -0.004709
# 2 -0.002565 0.011437 -0.001992 0.003172 0.001135 -0.002727
# 3 -0.003609 -0.001992 0.032479 -0.018591 0.008044 0.003961
# 4 -0.001500 0.003172 -0.018591 0.089162 -0.007610 -0.002254
# 5 -0.003044 0.001135 0.008044 -0.007610 0.031322 0.005476
# 6 -0.004709 -0.002727 0.003961 -0.002254 0.005476 0.029219
#
#
# Mechanical properties :
#
#
# Convention : Reuss Voigt Hill
#
# Bulk Modulus (GPa) = 27.78400 49.39768 38.59084
# Shear Modulus (GPa) = 21.70572 33.24650 27.47611
#
# Velocity S-wave (km/s) = 3.08845 3.82232 3.47481
# Velocity P-wave (km/s) = 4.99276 6.41777 5.74959
#
# Compressibility (1/GPa) = 0.03599194
#
# Stress axis : x y z
#
# Youngs Moduli (GPa) = 118.95530 87.43487 30.78884
#
# Poissons Ratio (x) = 0.22424 0.11112
# Poissons Ratio (y) = 0.30508 0.06132
# Poissons Ratio (z) = 0.42932 0.17415
#
# Static dielectric constant tensor:
#      x y z
#    x 1.879090 0.056680 0.145750 
#    y 0.056680 1.869330 0.024870 
#    z 0.145750 0.024870 1.988860 
# 
# From -- ./inp_files/37859.got.cif
#   From: 2010.05.17/outbox.cif.g08.bks.cpg/sg2_19_cif.got.tgz:37859.got - 2010.06.03 11:33:40.
