data_PCOD9015730
_publ_section_title
;
Structure prediction by ZEFSAII (Michael W. Deem and Ramdas Pophale) SiO2 
 PCOD9015730
Probable space group: P -1
;
_chemical_formula_sum "Si O2"
_cell_formula_units_Z 13
_cell_length_a 8.268092
_cell_length_b 5.258755
_cell_length_c 14.086400
_cell_angle_alpha 82.000297
_cell_angle_beta 96.547844
_cell_angle_gamma 59.488021
_cell_volume 510.135300
_symmetry_space_group_name_H-M "P -1"
_symmetry_group_IT_number 2
_symmetry_cell_setting 'triclinic'
loop_
_space_group_symop_operation_xyz
x,y,z
-x,-y,-z
loop_
_atom_site_type_symbol
_atom_site_label
_atom_site_fract_x
_atom_site_fract_y
_atom_site_fract_z
Si Si1 0.750946 0.573426 0.463285
Si Si2 0.000000 0.000000 0.000000
Si Si3 0.606286 0.143622 0.052086
Si Si4 0.359659 0.035480 0.378526
Si Si5 0.565764 0.294048 0.257664
Si Si6 0.960773 0.831105 0.357990
Si Si7 0.181124 0.892944 0.215735
O O1 0.533771 0.681658 0.416117
O O2 0.863891 0.639324 0.387823
O O3 0.883164 0.258314 0.543258
O O4 0.716174 0.812945 0.533275
O O5 0.065483 0.058278 0.106372
O O6 0.177012 0.009681 0.960950
O O7 0.595012 0.133917 0.165853
O O8 0.500000 0.500000 0.000000
O O9 0.500000 0.000000 0.000000
O O10 0.201440 0.078365 0.291649
O O11 0.470159 0.179923 0.330805
O O12 0.400416 0.643970 0.213374
O O13 0.778965 0.175083 0.317218
O O14 0.075689 0.749431 0.271491
#
# Coordination Sequence:
#
# PCOD9015730 Si02
#       7
#     2   1   2   2   2   2   2
#     4   9  20  43  64  97 141 181 236 292 369 451
#     4  12  26  50  72 112 148 202 258 318 390 470
#     4  12  27  50  77 111 153 201 264 324 387 459
#     4  10  22  42  69  96 139 187 231 304 368 443
#     4  11  23  45  65  97 141 182 236 305 367 442
#     4  10  21  42  64  97 137 179 231 293 357 449
#     4  12  24  44  68 100 137 184 243 302 374 449
#
# _framework density 25.483435
#
# number of rings (size 3 to 8) (size 9 to 14) (size 15 to 20)
#    0.000    1.231    4.615    0.923    0.000    1.846 
#   13.846    0.000    0.000    0.000    0.000    0.000 
#    0.000    0.000    0.000    0.000    0.000    0.000 
#
# Total GULP energy -72466.210386 kJ/mol
# GULP energy per Si atom -5574.323876 kJ/mol
# Density = 2.542543 g / cm^3
# Si number density = 25.483435 Si / 1000 Ang^3
#
#
#
# Elastic Constant Matrix: (Units=GPa)
#
#
# Indices 1 2 3 4 5 6 
#
# 1 123.6571 38.0651 38.7522 18.2719 5.4495 -18.3760
# 2 38.0651 73.4914 13.8729 9.1313 3.0479 -7.3293
# 3 38.7522 13.8729 135.4705 24.3710 1.9525 7.0360
# 4 18.2719 9.1313 24.3710 30.5636 -10.1638 3.5084
# 5 5.4495 3.0479 1.9525 -10.1638 57.7692 5.6911
# 6 -18.3760 -7.3293 7.0360 3.5084 5.6911 37.0448
#
#
#
# Elastic Compliance Matrix: (Units=1/GPa)
#
#
# Indices 1 2 3 4 5 6 
#
# 1 0.012046 -0.004362 -0.002286 -0.005634 -0.002456 0.006458
# 2 -0.004362 0.016415 0.000017 -0.002853 -0.001107 0.001521
# 3 -0.002286 0.000017 0.009255 -0.006088 -0.000956 -0.002165
# 4 -0.005634 -0.002853 -0.006088 0.045967 0.009769 -0.008057
# 5 -0.002456 -0.001107 -0.000956 0.009769 0.019867 -0.005233
# 6 0.006458 0.001521 -0.002165 -0.008057 -0.005233 0.032477
#
#
# Mechanical properties :
#
#
# Convention : Reuss Voigt Hill
#
# Bulk Modulus (GPa) = 40.89115 57.11106 49.00110
# Shear Modulus (GPa) = 31.75799 41.20411 36.48105
#
# Velocity S-wave (km/s) = 3.53402 4.02543 3.78770
# Velocity P-wave (km/s) = 5.72131 6.63816 6.19671
#
# Compressibility (1/GPa) = 0.02445517
#
# Stress axis : x y z
#
# Youngs Moduli (GPa) = 83.01300 60.91916 108.04713
#
# Poissons Ratio (x) = 0.26573 0.24696
# Poissons Ratio (y) = 0.36211 -0.00183
# Poissons Ratio (z) = 0.18974 -0.00103
#
# Static dielectric constant tensor:
#      x y z
#    x 2.010120 -0.038840 0.042500 
#    y -0.038840 2.146150 -0.069320 
#    z 0.042500 -0.069320 2.007250 
# 
# From -- ./inp_files/486543.got.cif
#   From: 2010.05.17/outbox.cif.g08.bks.cpg/sg2_244_cif.got.tgz:486543.got - 2010.06.03 11:33:40.
