data_PCOD9015476
_publ_section_title
;
Structure prediction by ZEFSAII (Michael W. Deem and Ramdas Pophale) SiO2 
 PCOD9015476
Probable space group: P -1
;
_chemical_formula_sum "Si O2"
_cell_formula_units_Z 16
_cell_length_a 7.670601
_cell_length_b 8.696925
_cell_length_c 21.708741
_cell_angle_alpha 124.054116
_cell_angle_beta 53.876360
_cell_angle_gamma 82.914278
_cell_volume 712.748600
_symmetry_space_group_name_H-M "P -1"
_symmetry_group_IT_number 2
_symmetry_cell_setting 'triclinic'
loop_
_space_group_symop_operation_xyz
x,y,z
-x,-y,-z
loop_
_atom_site_type_symbol
_atom_site_label
_atom_site_fract_x
_atom_site_fract_y
_atom_site_fract_z
Si Si1 0.732211 0.906143 0.525882
Si Si2 0.326848 0.873125 0.209730
Si Si3 0.178631 0.085895 0.623716
Si Si4 0.413303 0.372656 0.781932
Si Si5 0.657440 0.182012 0.135118
Si Si6 0.049283 0.397823 0.179158
Si Si7 0.391925 0.952256 0.084859
Si Si8 0.199759 0.375640 0.367747
O O1 0.760548 0.006780 0.479650
O O2 0.009281 0.620595 0.419221
O O3 0.462263 0.923801 0.571976
O O4 0.648092 0.096231 0.640284
O O5 0.210115 0.150789 0.302658
O O6 0.599878 0.680948 0.156139
O O7 0.374294 0.824528 0.116638
O O8 0.078094 0.880920 0.286477
O O9 0.092268 0.352923 0.698429
O O10 0.484624 0.548100 0.802244
O O11 0.137126 0.515484 0.825172
O O12 0.535903 0.240835 0.245424
O O13 0.533271 0.062769 0.106075
O O14 0.000000 0.000000 0.000000
O O15 0.097673 0.187536 0.163693
O O16 0.376166 0.260323 0.059446
O O17 0.000000 0.500000 0.500000
#
# Coordination Sequence:
#
# PCOD9015476 Si02
#       8
#     2   2   2   2   2   2   2   2
#     4  10  22  42  64  92 128 177 209 271 320 408
#     4  11  23  39  63  98 130 166 209 284 324 383
#     4  10  22  40  63  92 127 165 222 263 331 384
#     4  11  22  39  69  96 127 169 224 262 330 388
#     4  11  23  43  66  97 128 176 219 268 323 406
#     4  10  21  42  63  87 127 177 217 261 322 404
#     4  10  22  42  63  89 133 172 217 269 331 381
#     4  11  23  41  62  95 135 165 213 272 332 378
#
# _framework density 22.448308999999998
#
# number of rings (size 3 to 8) (size 9 to 14) (size 15 to 20)
#    0.000    1.500    2.500    3.000    1.750    2.500 
#    2.250    0.000    0.000    0.000    0.000    0.000 
#    0.000    0.000    0.000    0.000    0.000    0.000 
#
# Total GULP energy -89151.943847 kJ/mol
# GULP energy per Si atom -5571.996490 kJ/mol
# Density = 2.239722 g / cm^3
# Si number density = 22.448309 Si / 1000 Ang^3
#
#
#
# Elastic Constant Matrix: (Units=GPa)
#
#
# Indices 1 2 3 4 5 6 
#
# 1 51.9433 28.4510 23.7687 -8.1488 -24.9699 -11.4855
# 2 28.4510 110.7026 44.8479 -14.8809 -8.4688 -17.5425
# 3 23.7687 44.8479 78.3500 -12.9059 -8.1184 -13.4665
# 4 -8.1488 -14.8809 -12.9059 48.0519 -5.4040 7.2021
# 5 -24.9699 -8.4688 -8.1184 -5.4040 27.2536 -1.8963
# 6 -11.4855 -17.5425 -13.4665 7.2021 -1.8963 29.7981
#
#
#
# Elastic Compliance Matrix: (Units=1/GPa)
#
#
# Indices 1 2 3 4 5 6 
#
# 1 0.051098 -0.004097 -0.003933 0.009222 0.047333 0.016289
# 2 -0.004097 0.012913 -0.005490 0.001251 -0.000907 0.003182
# 3 -0.003933 -0.005490 0.018020 0.002110 0.000681 0.002929
# 4 0.009222 0.001251 0.002110 0.024930 0.014419 0.000137
# 5 0.047333 -0.000907 0.000681 0.014419 0.084224 0.019893
# 6 0.016289 0.003182 0.002929 0.000137 0.019893 0.044268
#
#
# Mechanical properties :
#
#
# Convention : Reuss Voigt Hill
#
# Bulk Modulus (GPa) = 18.18437 48.34789 33.26613
# Shear Modulus (GPa) = 17.80480 30.61592 24.21036
#
# Velocity S-wave (km/s) = 2.81934 3.69703 3.28761
# Velocity P-wave (km/s) = 4.32624 6.30937 5.40946
#
# Compressibility (1/GPa) = 0.05499228
#
# Stress axis : x y z
#
# Youngs Moduli (GPa) = 19.57027 77.44038 55.49285
#
# Poissons Ratio (x) = 0.31728 0.21824
# Poissons Ratio (y) = 0.08018 0.30464
# Poissons Ratio (z) = 0.07697 0.42512
#
# Static dielectric constant tensor:
#      x y z
#    x 1.895340 -0.051270 -0.010260 
#    y -0.051270 1.834740 -0.042660 
#    z -0.010260 -0.042660 1.889570 
# 
# From -- ./inp_files/226382.got.cif
#   From: 2010.05.17/outbox.cif.g08.bks.cpg/sg2_114_cif.got.tgz:226382.got - 2010.06.03 11:33:40.
