data_PCOD9015953
_publ_section_title
;
Structure prediction by ZEFSAII (Michael W. Deem and Ramdas Pophale) SiO2 
 PCOD9015953
Probable space group: P -1
;
_chemical_formula_sum "Si O2"
_cell_formula_units_Z 12
_cell_length_a 8.166957
_cell_length_b 7.625755
_cell_length_c 16.700516
_cell_angle_alpha 107.209862
_cell_angle_beta 47.335211
_cell_angle_gamma 140.407315
_cell_volume 426.803015
_symmetry_space_group_name_H-M "P -1"
_symmetry_group_IT_number 2
_symmetry_cell_setting 'triclinic'
loop_
_space_group_symop_operation_xyz
x,y,z
-x,-y,-z
loop_
_atom_site_type_symbol
_atom_site_label
_atom_site_fract_x
_atom_site_fract_y
_atom_site_fract_z
Si Si1 0.074629 0.737804 0.281912
Si Si2 0.114588 0.328065 0.833429
Si Si3 0.104552 0.471533 0.355863
Si Si4 0.057187 0.814105 0.950887
Si Si5 0.007412 0.075071 0.416984
Si Si6 0.984730 0.144297 0.197936
O O1 0.908571 0.513969 0.382487
O O2 0.997161 0.630901 0.201717
O O3 0.524499 0.997017 0.173406
O O4 0.913644 0.835500 0.361246
O O5 0.555915 0.599964 0.706985
O O6 0.873604 0.648058 0.745299
O O7 0.075433 0.351920 0.942379
O O8 0.868304 0.189176 0.459217
O O9 0.520528 0.814454 0.296897
O O10 0.874457 0.666298 0.904335
O O11 0.106141 0.013362 0.146785
O O12 0.000000 0.000000 0.500000
O O13 0.000000 0.000000 0.000000
#
# Coordination Sequence:
#
# PCOD9015953 Si02
#       6
#     2   2   2   2   2   2
#     4  11  23  41  71 100 137 179 229 282 349 415
#     4  10  21  42  66 100 139 179 230 281 343 415
#     4  10  22  43  67  97 138 176 228 285 340 405
#     4   9  20  40  67 104 139 180 219 279 350 421
#     4  11  26  47  68  97 136 185 236 289 341 404
#     4   9  19  41  65  97 140 180 218 279 343 409
#
# _framework density 28.116015999999998
#
# number of rings (size 3 to 8) (size 9 to 14) (size 15 to 20)
#    0.000    2.000    1.667    1.500    4.667    2.000 
#    6.000    9.167    0.000    0.000    0.000    0.000 
#    0.000    0.000    0.000    0.000    0.000    0.000 
#
# Total GULP energy -66988.833099 kJ/mol
# GULP energy per Si atom -5582.402758 kJ/mol
# Density = 2.805202 g / cm^3
# Si number density = 28.116016 Si / 1000 Ang^3
#
#
#
# Elastic Constant Matrix: (Units=GPa)
#
#
# Indices 1 2 3 4 5 6 
#
# 1 139.7882 45.6879 55.6028 4.9211 39.8687 -5.5597
# 2 45.6879 112.0984 45.5636 6.3482 -1.6462 -12.4752
# 3 55.6028 45.5636 175.1926 0.9736 43.5663 1.1690
# 4 4.9211 6.3482 0.9736 38.3206 6.2127 2.1691
# 5 39.8687 -1.6462 43.5663 6.2127 68.6211 0.2531
# 6 -5.5597 -12.4752 1.1690 2.1691 0.2531 61.5402
#
#
#
# Elastic Compliance Matrix: (Units=1/GPa)
#
#
# Indices 1 2 3 4 5 6 
#
# 1 0.010390 -0.003954 -0.000880 0.000241 -0.005595 0.000168
# 2 -0.003954 0.012255 -0.003122 -0.002345 0.004777 0.002249
# 3 -0.000880 -0.003122 0.007976 0.001246 -0.004737 -0.000888
# 4 0.000241 -0.002345 0.001246 0.027058 -0.003432 -0.001417
# 5 -0.005595 0.004777 -0.004737 -0.003432 0.021254 0.000587
# 6 0.000168 0.002249 -0.000888 -0.001417 0.000587 0.016785
#
#
# Mechanical properties :
#
#
# Convention : Reuss Voigt Hill
#
# Bulk Modulus (GPa) = 67.99045 80.08755 74.03900
# Shear Modulus (GPa) = 42.90593 52.37805 47.64199
#
# Velocity S-wave (km/s) = 3.91068 4.32084 4.12087
# Velocity P-wave (km/s) = 6.68026 7.31023 7.00233
#
# Compressibility (1/GPa) = 0.01470795
#
# Stress axis : x y z
#
# Youngs Moduli (GPa) = 96.24550 81.60235 125.36897
#
# Poissons Ratio (x) = 0.32264 0.11038
# Poissons Ratio (y) = 0.38054 0.39143
# Poissons Ratio (z) = 0.08474 0.25478
#
# Static dielectric constant tensor:
#      x y z
#    x 2.595550 -0.237290 -0.031670 
#    y -0.237290 2.265910 -0.018320 
#    z -0.031670 -0.018320 2.185310 
# 
# From -- ./inp_files/342366.got.cif
#   From: 2010.05.17/outbox.cif.g08.bks.cpg/sg2_172_cif.got.tgz:342366.got - 2010.06.03 11:33:40.
