data_PCOD9015084
_publ_section_title
;
Structure prediction by ZEFSAII (Michael W. Deem and Ramdas Pophale) SiO2 
 PCOD9015084
Probable space group: P -1
;
_chemical_formula_sum "Si O2"
_cell_formula_units_Z 12
_cell_length_a 9.827998
_cell_length_b 12.389596
_cell_length_c 9.527693
_cell_angle_alpha 131.115897
_cell_angle_beta 42.251693
_cell_angle_gamma 145.076660
_cell_volume 442.683340
_symmetry_space_group_name_H-M "P -1"
_symmetry_group_IT_number 2
_symmetry_cell_setting 'triclinic'
loop_
_space_group_symop_operation_xyz
x,y,z
-x,-y,-z
loop_
_atom_site_type_symbol
_atom_site_label
_atom_site_fract_x
_atom_site_fract_y
_atom_site_fract_z
Si Si1 0.175065 0.661242 0.277160
Si Si2 0.374409 0.281379 0.826609
Si Si3 0.191218 0.728394 0.890779
Si Si4 0.527552 0.940916 0.579197
Si Si5 0.212481 0.055823 0.264290
Si Si6 0.761714 0.680029 0.757238
O O1 0.369061 0.661332 0.231220
O O2 0.956623 0.649223 0.521855
O O3 0.347085 0.874013 0.264745
O O4 0.036835 0.498604 0.127214
O O5 0.301972 0.120793 0.638908
O O6 0.482463 0.466168 0.815555
O O7 0.171842 0.227667 0.059316
O O8 0.252483 0.766885 0.709616
O O9 0.483637 0.815925 0.796736
O O10 0.130486 0.859344 0.102802
O O11 0.500000 0.000000 0.500000
O O12 0.247198 0.194320 0.237326
O O13 0.000000 0.000000 0.500000
#
# Coordination Sequence:
#
# PCOD9015084 Si02
#       6
#     2   2   2   2   2   2
#     4  11  23  43  73 102 141 186 230 290 355 409
#     4  10  23  44  70 110 145 176 235 293 353 418
#     4  11  25  48  70 101 143 181 239 294 350 420
#     4  10  21  41  71 102 139 183 229 284 350 416
#     4  11  26  49  71 101 142 189 239 288 350 424
#     4  11  23  44  72 105 138 186 236 288 349 420
#
# _framework density 27.107413000000001
#
# number of rings (size 3 to 8) (size 9 to 14) (size 15 to 20)
#    0.000    1.333    1.667    3.500    2.333    4.000 
#    6.000   11.667    0.000    0.000    0.000    0.000 
#    0.000    0.000    0.000    0.000    0.000    0.000 
#
# Total GULP energy -67248.843174 kJ/mol
# GULP energy per Si atom -5604.070264 kJ/mol
# Density = 2.704571 g / cm^3
# Si number density = 27.107413 Si / 1000 Ang^3
#
#
#
# Elastic Constant Matrix: (Units=GPa)
#
#
# Indices 1 2 3 4 5 6 
#
# 1 126.8809 63.6162 58.4766 13.1066 -7.4314 -8.8152
# 2 63.6162 190.0890 51.8842 43.3464 10.4117 -3.4151
# 3 58.4766 51.8842 168.3298 25.3099 -12.6723 -25.2308
# 4 13.1066 43.3464 25.3099 61.3512 -9.0393 11.0887
# 5 -7.4314 10.4117 -12.6723 -9.0393 43.8048 4.7124
# 6 -8.8152 -3.4151 -25.2308 11.0887 4.7124 37.6239
#
#
#
# Elastic Compliance Matrix: (Units=1/GPa)
#
#
# Indices 1 2 3 4 5 6 
#
# 1 0.010804 -0.003331 -0.002877 0.001635 0.002179 -0.000455
# 2 -0.003331 0.008061 -0.000505 -0.005687 -0.003993 0.001789
# 3 -0.002877 -0.000505 0.008581 -0.003542 0.000740 0.005986
# 4 0.001635 -0.005687 -0.003542 0.024327 0.006757 -0.010524
# 5 0.002179 -0.003993 0.000740 0.006757 0.026254 -0.004636
# 6 -0.000455 0.001789 0.005986 -0.010524 -0.004636 0.034331
#
#
# Mechanical properties :
#
#
# Convention : Reuss Voigt Hill
#
# Bulk Modulus (GPa) = 71.31981 92.58376 81.95178
# Shear Modulus (GPa) = 38.32648 49.31083 43.81865
#
# Velocity S-wave (km/s) = 3.76423 4.26971 4.02491
# Velocity P-wave (km/s) = 6.72754 7.65087 7.20401
#
# Compressibility (1/GPa) = 0.01402135
#
# Stress axis : x y z
#
# Youngs Moduli (GPa) = 92.55428 124.05439 116.53534
#
# Poissons Ratio (x) = 0.41324 0.33524
# Poissons Ratio (y) = 0.30831 0.05882
# Poissons Ratio (z) = 0.26625 0.06262
#
# Static dielectric constant tensor:
#      x y z
#    x 2.229350 0.062540 0.019170 
#    y 0.062540 2.114150 0.026930 
#    z 0.019170 0.026930 2.126840 
# 
# From -- ./inp_files/262847.got.cif
#   From: 2010.05.17/outbox.cif.g08.bks.cpg/sg2_132_cif.got.tgz:262847.got - 2010.06.03 11:33:40.
