data_PCOD9015755
_publ_section_title
;
Structure prediction by ZEFSAII (Michael W. Deem and Ramdas Pophale) SiO2 
 PCOD9015755
Probable space group: P -1
;
_chemical_formula_sum "Si O2"
_cell_formula_units_Z 16
_cell_length_a 10.140936
_cell_length_b 19.561843
_cell_length_c 8.003874
_cell_angle_alpha 129.823715
_cell_angle_beta 51.758850
_cell_angle_gamma 145.963374
_cell_volume 668.005254
_symmetry_space_group_name_H-M "P -1"
_symmetry_group_IT_number 2
_symmetry_cell_setting 'triclinic'
loop_
_space_group_symop_operation_xyz
x,y,z
-x,-y,-z
loop_
_atom_site_type_symbol
_atom_site_label
_atom_site_fract_x
_atom_site_fract_y
_atom_site_fract_z
Si Si1 0.010135 0.217827 0.624561
Si Si2 0.388094 0.501685 0.872494
Si Si3 0.369252 0.278697 0.177297
Si Si4 0.098046 0.946901 0.934371
Si Si5 0.784504 0.986482 0.669210
Si Si6 0.299245 0.718744 0.696678
Si Si7 0.399053 0.824744 0.156516
Si Si8 0.236506 0.499207 0.326259
O O1 0.831459 0.212222 0.646176
O O2 0.175552 0.350082 0.798704
O O3 0.204453 0.229318 0.394099
O O4 0.843648 0.092887 0.674312
O O5 0.439498 0.571376 0.769318
O O6 0.620880 0.532235 0.776826
O O7 0.324935 0.546771 0.139317
O O8 0.146331 0.202193 0.102420
O O9 0.511303 0.241219 0.977036
O O10 0.355013 0.026420 0.770025
O O11 0.192502 0.985995 0.109613
O O12 0.000000 0.000000 0.000000
O O13 0.527667 0.843457 0.612645
O O14 0.000000 0.000000 0.500000
O O15 0.308192 0.614911 0.552443
O O16 0.045837 0.629318 0.660834
O O17 0.316492 0.776146 0.950509
#
# Coordination Sequence:
#
# PCOD9015755 Si02
#       8
#     2   2   2   2   2   2   2   2
#     4  12  25  44  67 101 134 176 230 272 335 402
#     4  11  24  42  66  94 134 178 223 278 337 392
#     4  11  25  44  66  93 136 184 220 278 335 396
#     4   9  21  41  63  95 133 173 218 272 330 396
#     4  11  23  39  73  99 135 178 217 276 342 396
#     4  10  21  42  65 100 131 172 216 280 334 397
#     4  10  22  44  66  92 138 172 223 277 328 406
#     4  10  22  41  67  98 134 166 226 280 327 408
#
# _framework density 23.951906000000001
#
# number of rings (size 3 to 8) (size 9 to 14) (size 15 to 20)
#    0.000    1.500    1.250    4.125    5.250    4.000 
#    4.500    0.000    0.000    0.000    0.000    0.000 
#    0.000    0.000    0.000    0.000    0.000    0.000 
#
# Total GULP energy -89210.352627 kJ/mol
# GULP energy per Si atom -5575.647039 kJ/mol
# Density = 2.389739 g / cm^3
# Si number density = 23.951906 Si / 1000 Ang^3
#
#
#
# Elastic Constant Matrix: (Units=GPa)
#
#
# Indices 1 2 3 4 5 6 
#
# 1 84.6094 62.9795 17.5658 -11.4403 -19.8495 19.0954
# 2 62.9795 162.8524 19.9706 0.4174 -12.9987 6.1458
# 3 17.5658 19.9706 55.4093 11.0984 -11.0171 -3.9298
# 4 -11.4403 0.4174 11.0984 28.3131 3.3074 -1.5977
# 5 -19.8495 -12.9987 -11.0171 3.3074 25.1783 -8.0649
# 6 19.0954 6.1458 -3.9298 -1.5977 -8.0649 40.8858
#
#
#
# Elastic Compliance Matrix: (Units=1/GPa)
#
#
# Indices 1 2 3 4 5 6 
#
# 1 0.024068 -0.007615 -0.006012 0.010745 0.008237 -0.008629
# 2 -0.007615 0.009007 -0.000173 -0.002983 -0.000399 0.001991
# 3 -0.006012 -0.000173 0.025099 -0.013057 0.010019 0.006712
# 4 0.010745 -0.002983 -0.013057 0.045274 -0.006435 -0.005325
# 5 0.008237 -0.000399 0.010019 -0.006435 0.053637 0.007505
# 6 -0.008629 0.001991 0.006712 -0.005325 0.007505 0.030107
#
#
# Mechanical properties :
#
#
# Convention : Reuss Voigt Hill
#
# Bulk Modulus (GPa) = 32.70690 55.98920 44.34805
# Shear Modulus (GPa) = 22.22375 32.36578 27.29477
#
# Velocity S-wave (km/s) = 3.04937 3.67997 3.37941
# Velocity P-wave (km/s) = 5.10716 6.44070 5.81230
#
# Compressibility (1/GPa) = 0.03057459
#
# Stress axis : x y z
#
# Youngs Moduli (GPa) = 41.54856 111.02070 39.84198
#
# Poissons Ratio (x) = 0.84542 0.23953
# Poissons Ratio (y) = 0.31639 0.00690
# Poissons Ratio (z) = 0.24979 0.01922
#
# Static dielectric constant tensor:
#      x y z
#    x 1.923080 0.024110 -0.000450 
#    y 0.024110 1.911450 0.048030 
#    z -0.000450 0.048030 1.963090 
# 
# From -- ./inp_files/284915.got.cif
#   From: 2010.05.17/outbox.cif.g08.bks.cpg/sg2_143_cif.got.tgz:284915.got - 2010.06.03 11:33:40.
