data_PCOD9015596
_publ_section_title
;
Structure prediction by ZEFSAII (Michael W. Deem and Ramdas Pophale) SiO2 
 PCOD9015596
Probable space group: P -1
;
_chemical_formula_sum "Si O2"
_cell_formula_units_Z 12
_cell_length_a 17.756688
_cell_length_b 5.529615
_cell_length_c 4.946774
_cell_angle_alpha 76.864051
_cell_angle_beta 92.885284
_cell_angle_gamma 79.113936
_cell_volume 462.277086
_symmetry_space_group_name_H-M "P -1"
_symmetry_group_IT_number 2
_symmetry_cell_setting 'triclinic'
loop_
_space_group_symop_operation_xyz
x,y,z
-x,-y,-z
loop_
_atom_site_type_symbol
_atom_site_label
_atom_site_fract_x
_atom_site_fract_y
_atom_site_fract_z
Si Si1 0.168421 0.455370 0.452363
Si Si2 0.986207 0.220638 0.663928
Si Si3 0.447870 0.455535 0.251936
Si Si4 0.860773 0.851848 0.977747
Si Si5 0.667680 0.813298 0.471332
Si Si6 0.303925 0.895894 0.099311
O O1 0.157020 0.380641 0.778859
O O2 0.259645 0.425845 0.433846
O O3 0.105690 0.708359 0.313231
O O4 0.145476 0.241303 0.305618
O O5 0.052181 0.145042 0.921638
O O6 0.000000 0.500000 0.500000
O O7 0.000000 0.000000 0.500000
O O8 0.500000 0.500000 0.500000
O O9 0.412807 0.217982 0.408643
O O10 0.367609 0.648287 0.127679
O O11 0.500000 0.500000 0.000000
O O12 0.786654 0.068735 0.991518
O O13 0.691727 0.028725 0.606166
O O14 0.666392 0.897387 0.139549
#
# Coordination Sequence:
#
# PCOD9015596 Si02
#       6
#     2   2   2   2   2   2
#     4   9  19  40  65  93 132 176 229 277 337 407
#     4  10  21  42  64 102 140 184 234 286 342 409
#     4  12  26  42  64 101 130 167 224 282 346 418
#     4   9  19  40  65  93 132 176 229 277 337 407
#     4  10  22  43  66  94 131 177 222 276 342 410
#     4  10  22  43  66  94 131 177 222 276 342 410
#
# _framework density 25.958456000000002
#
# number of rings (size 3 to 8) (size 9 to 14) (size 15 to 20)
#    0.000    2.000    0.000    2.500    0.000    4.000 
#   33.000    6.667    0.000    0.000    0.000    0.000 
#    0.000    0.000    0.000    0.000    0.000    0.000 
#
# Total GULP energy -67030.462623 kJ/mol
# GULP energy per Si atom -5585.871885 kJ/mol
# Density = 2.589937 g / cm^3
# Si number density = 25.958456 Si / 1000 Ang^3
#
#
#
# Elastic Constant Matrix: (Units=GPa)
#
#
# Indices 1 2 3 4 5 6 
#
# 1 195.4670 21.2530 17.1612 2.0536 -21.9859 -8.3943
# 2 21.2530 65.2098 0.8677 -1.5821 -3.9133 -17.0519
# 3 17.1612 0.8677 91.9784 5.3406 0.5710 2.1460
# 4 2.0536 -1.5821 5.3406 43.9452 -11.3518 10.2018
# 5 -21.9859 -3.9133 0.5710 -11.3518 36.3216 8.0448
# 6 -8.3943 -17.0519 2.1460 10.2018 8.0448 40.2945
#
#
#
# Elastic Compliance Matrix: (Units=1/GPa)
#
#
# Indices 1 2 3 4 5 6 
#
# 1 0.005793 -0.001742 -0.001127 0.000858 0.003699 -0.000426
# 2 -0.001742 0.017829 0.000066 -0.001435 -0.001311 0.007804
# 3 -0.001127 0.000066 0.011187 -0.001618 -0.001328 -0.000128
# 4 0.000858 -0.001435 -0.001618 0.028029 0.011298 -0.009694
# 5 0.003699 -0.001311 -0.001328 0.011298 0.035313 -0.009624
# 6 -0.000426 0.007804 -0.000128 -0.009694 -0.009624 0.032414
#
#
# Mechanical properties :
#
#
# Convention : Reuss Voigt Hill
#
# Bulk Modulus (GPa) = 34.24245 47.91324 41.07785
# Shear Modulus (GPa) = 34.26882 45.00382 39.63632
#
# Velocity S-wave (km/s) = 3.63732 4.16827 3.91181
# Velocity P-wave (km/s) = 5.55518 6.45474 6.02178
#
# Compressibility (1/GPa) = 0.02920351
#
# Stress axis : x y z
#
# Youngs Moduli (GPa) = 172.62032 56.08846 89.38958
#
# Poissons Ratio (x) = 0.09769 0.10077
# Poissons Ratio (y) = 0.30064 -0.00591
# Poissons Ratio (z) = 0.19459 -0.00371
#
# Static dielectric constant tensor:
#      x y z
#    x 2.128220 0.065680 -0.088840 
#    y 0.065680 2.083300 -0.120900 
#    z -0.088840 -0.120900 2.002120 
# 
# From -- ./inp_files/6877.got.cif
#   From: 2010.05.17/outbox.cif.g08.bks.cpg/sg2_4_cif.got.tgz:6877.got - 2010.06.03 11:33:40.
