data_PCOD9015354
_publ_section_title
;
Structure prediction by ZEFSAII (Michael W. Deem and Ramdas Pophale) SiO2 
 PCOD9015354
Probable space group: P -1
;
_chemical_formula_sum "Si O2"
_cell_formula_units_Z 15
_cell_length_a 21.548560
_cell_length_b 8.159250
_cell_length_c 17.898955
_cell_angle_alpha 49.892471
_cell_angle_beta 161.195678
_cell_angle_gamma 136.814643
_cell_volume 678.949125
_symmetry_space_group_name_H-M "P -1"
_symmetry_group_IT_number 2
_symmetry_cell_setting 'triclinic'
loop_
_space_group_symop_operation_xyz
x,y,z
-x,-y,-z
loop_
_atom_site_type_symbol
_atom_site_label
_atom_site_fract_x
_atom_site_fract_y
_atom_site_fract_z
Si Si1 0.500000 0.500000 0.500000
Si Si2 0.959958 0.846837 0.575307
Si Si3 0.008975 0.651426 0.368687
Si Si4 0.035769 0.262694 0.116465
Si Si5 0.258854 0.729632 0.490828
Si Si6 0.700608 0.990456 0.689141
Si Si7 0.264132 0.859881 0.736870
Si Si8 0.230680 0.051281 0.957084
O O1 0.288500 0.357013 0.357532
O O2 0.615017 0.736055 0.622158
O O3 0.825745 0.556790 0.508527
O O4 0.812854 0.940893 0.423951
O O5 0.000000 0.000000 0.500000
O O6 0.179854 0.946632 0.845906
O O7 0.122180 0.781388 0.383091
O O8 0.206418 0.721193 0.632690
O O9 0.882074 0.357688 0.308235
O O10 0.829638 0.729000 0.168745
O O11 0.939586 0.149795 0.120761
O O12 0.000000 0.500000 0.000000
O O13 0.885472 0.062969 0.941627
O O14 0.211879 0.797536 0.336258
O O15 0.521374 0.873604 0.760271
O O16 0.500000 0.000000 0.500000
O O17 0.500000 0.000000 0.000000
#
# Coordination Sequence:
#
# PCOD9015354 Si02
#       8
#     1   2   2   2   2   2   2   2
#     4  12  26  44  76 104 144 196 238 296 364 422
#     4  11  24  41  65 101 134 175 231 277 345 425
#     4  10  23  40  62  94 130 166 230 269 332 415
#     4  12  24  47  73 105 147 188 243 300 359 433
#     4  12  24  44  70 100 136 181 225 285 351 412
#     4  12  25  48  74 107 147 191 239 301 360 426
#     4  10  21  42  61  89 130 174 213 283 332 393
#     4  11  25  42  67  99 135 182 224 287 351 410
#
# _framework density 22.092966000000001
#
# number of rings (size 3 to 8) (size 9 to 14) (size 15 to 20)
#    0.000    0.800    4.000    2.800    1.867    0.533 
#    0.000    2.667    0.000    0.000    0.000    0.000 
#    0.000    0.000    0.000    0.000    0.000    0.000 
#
# Total GULP energy -83509.744486 kJ/mol
# GULP energy per Si atom -5567.316299 kJ/mol
# Density = 2.204268 g / cm^3
# Si number density = 22.092966 Si / 1000 Ang^3
#
#
#
# Elastic Constant Matrix: (Units=GPa)
#
#
# Indices 1 2 3 4 5 6 
#
# 1 105.6053 25.4532 17.5275 18.0545 -6.7674 27.3521
# 2 25.4532 94.4864 10.3842 23.8711 -11.3386 8.2936
# 3 17.5275 10.3842 76.9712 19.4412 -9.6383 4.4622
# 4 18.0545 23.8711 19.4412 30.5323 4.8420 -3.8549
# 5 -6.7674 -11.3386 -9.6383 4.8420 33.3485 -0.2602
# 6 27.3521 8.2936 4.4622 -3.8549 -0.2602 44.9379
#
#
#
# Elastic Compliance Matrix: (Units=1/GPa)
#
#
# Indices 1 2 3 4 5 6 
#
# 1 0.013878 0.000293 0.000643 -0.010767 0.004591 -0.009462
# 2 0.000293 0.015841 0.003408 -0.016736 0.008822 -0.004825
# 3 0.000643 0.003408 0.017850 -0.016327 0.008786 -0.004143
# 4 -0.010767 -0.016736 -0.016327 0.068294 -0.022377 0.016993
# 5 0.004591 0.008822 0.008786 -0.022377 0.039652 -0.006985
# 6 -0.009462 -0.004825 -0.004143 0.016993 -0.006985 0.030731
#
#
# Mechanical properties :
#
#
# Convention : Reuss Voigt Hill
#
# Bulk Modulus (GPa) = 17.77599 42.64363 30.20981
# Shear Modulus (GPa) = 25.47006 36.67694 31.07350
#
# Velocity S-wave (km/s) = 3.39906 4.07888 3.75439
# Velocity P-wave (km/s) = 4.84441 6.44413 5.70066
#
# Compressibility (1/GPa) = 0.05625567
#
# Stress axis : x y z
#
# Youngs Moduli (GPa) = 72.05894 63.12911 56.02289
#
# Poissons Ratio (x) = -0.01847 -0.03604
# Poissons Ratio (y) = -0.02109 -0.19092
# Poissons Ratio (z) = -0.04636 -0.21514
#
# Static dielectric constant tensor:
#      x y z
#    x 1.837330 0.045370 0.058220 
#    y 0.045370 1.779190 -0.117380 
#    z 0.058220 -0.117380 1.757330 
# 
# From -- ./inp_files/577284.got.cif
#   From: 2010.05.17/outbox.cif.g08.bks.cpg/sg2_289_cif.got.tgz:577284.got - 2010.06.03 11:33:40.
