data_PCOD9015326
_publ_section_title
;
Structure prediction by ZEFSAII (Michael W. Deem and Ramdas Pophale) SiO2 
 PCOD9015326
Probable space group: P -1
;
_chemical_formula_sum "Si O2"
_cell_formula_units_Z 14
_cell_length_a 12.059165
_cell_length_b 13.665348
_cell_length_c 10.135525
_cell_angle_alpha 72.971115
_cell_angle_beta 143.295712
_cell_angle_gamma 132.351332
_cell_volume 611.348399
_symmetry_space_group_name_H-M "P -1"
_symmetry_group_IT_number 2
_symmetry_cell_setting 'triclinic'
loop_
_space_group_symop_operation_xyz
x,y,z
-x,-y,-z
loop_
_atom_site_type_symbol
_atom_site_label
_atom_site_fract_x
_atom_site_fract_y
_atom_site_fract_z
Si Si1 0.936588 0.476741 0.102704
Si Si2 0.375374 0.461701 0.249962
Si Si3 0.197568 0.760866 0.749101
Si Si4 0.123130 0.952183 0.709691
Si Si5 0.989578 0.127261 0.069023
Si Si6 0.533914 0.783967 0.690579
Si Si7 0.630528 0.472167 0.231768
O O1 0.215938 0.639004 0.382384
O O2 0.854569 0.330779 0.135230
O O3 0.000000 0.500000 0.000000
O O4 0.673473 0.444079 0.880350
O O5 0.500000 0.500000 0.500000
O O6 0.063685 0.273016 0.036247
O O7 0.565580 0.485846 0.312632
O O8 0.109841 0.842051 0.654792
O O9 0.976677 0.618633 0.488671
O O10 0.535446 0.894749 0.992356
O O11 0.974093 0.870088 0.740988
O O12 0.000000 0.000000 0.500000
O O13 0.237577 0.166041 0.216752
O O14 0.676056 0.951827 0.797767
O O15 0.519685 0.702033 0.836918
O O16 0.500000 0.500000 0.000000
#
# Coordination Sequence:
#
# PCOD9015326 Si02
#       7
#     2   2   2   2   2   2   2
#     4  11  22  39  67  92 128 166 219 276 316 390
#     4  11  23  40  66  96 125 175 219 265 328 385
#     4  10  25  43  59 103 126 164 227 260 327 394
#     4  11  25  41  67  92 130 175 210 273 325 385
#     4  10  21  42  60  90 131 162 218 260 320 392
#     4   9  22  40  62  94 125 170 211 269 327 379
#     4  10  22  41  66  92 132 170 214 271 326 393
#
# _framework density 22.900200000000002
#
# number of rings (size 3 to 8) (size 9 to 14) (size 15 to 20)
#    0.000    1.714    0.000    4.286    8.000    1.714 
#    0.000    2.857    0.000    0.000    0.000    0.000 
#    0.000    0.000    0.000    0.000    0.000    0.000 
#
# Total GULP energy -78243.756930 kJ/mol
# GULP energy per Si atom -5588.839781 kJ/mol
# Density = 2.284808 g / cm^3
# Si number density = 22.900200 Si / 1000 Ang^3
#
#
#
# Elastic Constant Matrix: (Units=GPa)
#
#
# Indices 1 2 3 4 5 6 
#
# 1 52.3040 22.0926 9.0745 -4.0916 0.3546 -5.6585
# 2 22.0926 128.8601 48.9209 -3.6258 11.8532 1.2955
# 3 9.0745 48.9209 82.3311 4.0765 6.7419 2.2097
# 4 -4.0916 -3.6258 4.0765 49.8182 -1.0519 4.6292
# 5 0.3546 11.8532 6.7419 -1.0519 25.4044 -7.2292
# 6 -5.6585 1.2955 2.2097 4.6292 -7.2292 33.5709
#
#
#
# Elastic Compliance Matrix: (Units=1/GPa)
#
#
# Indices 1 2 3 4 5 6 
#
# 1 0.021314 -0.003717 -0.000545 0.001193 0.002831 0.004217
# 2 -0.003717 0.011019 -0.005819 0.001044 -0.003977 -0.001669
# 3 -0.000545 -0.005819 0.015932 -0.001711 -0.001885 -0.001086
# 4 0.001193 0.001044 -0.001711 0.020626 0.000078 -0.002554
# 5 0.002831 -0.003977 -0.001885 0.000078 0.044629 0.010354
# 6 0.004217 -0.001669 -0.001086 -0.002554 0.010354 0.033216
#
#
# Mechanical properties :
#
#
# Convention : Reuss Voigt Hill
#
# Bulk Modulus (GPa) = 35.58250 47.07461 41.32855
# Shear Modulus (GPa) = 28.36659 33.98585 31.17622
#
# Velocity S-wave (km/s) = 3.52334 3.85656 3.69371
# Velocity P-wave (km/s) = 5.66778 6.35860 6.02310
#
# Compressibility (1/GPa) = 0.02810371
#
# Stress axis : x y z
#
# Youngs Moduli (GPa) = 46.91835 90.75605 62.76719
#
# Poissons Ratio (x) = 0.33729 0.03420
# Poissons Ratio (y) = 0.17437 0.36523
# Poissons Ratio (z) = 0.02556 0.52809
#
# Static dielectric constant tensor:
#      x y z
#    x 1.925520 -0.042650 0.040840 
#    y -0.042650 1.888540 0.052220 
#    z 0.040840 0.052220 1.903340 
# 
# From -- ./inp_files/455653.got.cif
#   From: 2010.05.17/outbox.cif.g08.bks.cpg/sg2_228_cif.got.tgz:455653.got - 2010.06.03 11:33:40.
