data_PCOD9015493
_publ_section_title
;
Structure prediction by ZEFSAII (Michael W. Deem and Ramdas Pophale) SiO2 
 PCOD9015493
Probable space group: P -1
;
_chemical_formula_sum "Si O2"
_cell_formula_units_Z 16
_cell_length_a 13.355757
_cell_length_b 16.910938
_cell_length_c 5.586946
_cell_angle_alpha 120.830153
_cell_angle_beta 119.410823
_cell_angle_gamma 40.353391
_cell_volume 690.036316
_symmetry_space_group_name_H-M "P -1"
_symmetry_group_IT_number 2
_symmetry_cell_setting 'triclinic'
loop_
_space_group_symop_operation_xyz
x,y,z
-x,-y,-z
loop_
_atom_site_type_symbol
_atom_site_label
_atom_site_fract_x
_atom_site_fract_y
_atom_site_fract_z
Si Si1 0.137505 0.395285 0.680826
Si Si2 0.172948 0.947507 0.681947
Si Si3 0.914392 0.415045 0.808320
Si Si4 0.166026 0.154705 0.775014
Si Si5 0.610867 0.871781 0.694509
Si Si6 0.304683 0.598292 0.690291
Si Si7 0.304418 0.996720 0.291626
Si Si8 0.656681 0.325562 0.654759
O O1 0.267674 0.262382 0.503388
O O2 0.000000 0.500000 0.500000
O O3 0.054523 0.389342 0.794435
O O4 0.194149 0.459554 0.967046
O O5 0.298064 0.806501 0.506842
O O6 0.172168 0.050460 0.733763
O O7 0.235979 0.940887 0.012978
O O8 0.000000 0.000000 0.500000
O O9 0.816242 0.418120 0.498580
O O10 0.008976 0.290630 0.887155
O O11 0.164123 0.130832 0.456390
O O12 0.310972 0.144897 0.985615
O O13 0.442486 0.916044 0.528880
O O14 0.617396 0.971710 0.746622
O O15 0.475787 0.456708 0.664704
O O16 0.287810 0.665040 0.524931
O O17 0.275998 0.670082 0.011070
#
# Coordination Sequence:
#
# PCOD9015493 Si02
#       8
#     2   2   2   2   2   2   2   2
#     4  11  23  40  61  95 128 162 221 271 323 403
#     4  11  26  41  65  96 129 170 223 277 330 402
#     4  11  24  39  65  94 125 175 213 273 339 390
#     4  11  22  41  64  93 127 169 217 269 336 394
#     4  10  21  42  63  90 127 166 216 265 327 401
#     4  10  24  45  74  93 139 177 218 283 333 405
#     4  10  23  40  64  89 129 171 206 271 327 398
#     4  10  24  47  67 103 131 175 229 274 338 395
#
# _framework density 23.187186000000001
#
# number of rings (size 3 to 8) (size 9 to 14) (size 15 to 20)
#    0.000    1.500    2.500    1.125    7.000    0.500 
#    2.250    0.000    0.000    0.000    0.000    0.000 
#    0.000    0.000    0.000    0.000    0.000    0.000 
#
# Total GULP energy -89180.743754 kJ/mol
# GULP energy per Si atom -5573.796485 kJ/mol
# Density = 2.313441 g / cm^3
# Si number density = 23.187186 Si / 1000 Ang^3
#
#
#
# Elastic Constant Matrix: (Units=GPa)
#
#
# Indices 1 2 3 4 5 6 
#
# 1 43.8386 26.7568 31.0965 1.5824 7.1938 -2.1655
# 2 26.7568 75.6973 59.3613 23.6750 5.6525 11.3566
# 3 31.0965 59.3613 218.6481 23.1898 20.8573 -12.7680
# 4 1.5824 23.6750 23.1898 46.2100 -5.2279 -0.9641
# 5 7.1938 5.6525 20.8573 -5.2279 34.2494 -3.1575
# 6 -2.1655 11.3566 -12.7680 -0.9641 -3.1575 20.0310
#
#
#
# Elastic Compliance Matrix: (Units=1/GPa)
#
#
# Indices 1 2 3 4 5 6 
#
# 1 0.033001 -0.015086 -0.000436 0.006834 -0.002041 0.011850
# 2 -0.015086 0.031347 -0.006139 -0.013257 -0.002535 -0.024354
# 3 -0.000436 -0.006139 0.007038 -0.000506 -0.002568 0.007491
# 4 0.006834 -0.013257 -0.000506 0.029405 0.006506 0.010373
# 5 -0.002041 -0.002535 -0.002568 0.006506 0.033072 0.005106
# 6 0.011850 -0.024354 0.007491 0.010373 0.005106 0.071090
#
#
# Mechanical properties :
#
#
# Convention : Reuss Voigt Hill
#
# Bulk Modulus (GPa) = 35.63248 63.62368 49.62808
# Shear Modulus (GPa) = 19.40766 34.82936 27.11851
#
# Velocity S-wave (km/s) = 2.89623 3.87989 3.42357
# Velocity P-wave (km/s) = 5.15605 6.89711 6.08913
#
# Compressibility (1/GPa) = 0.02806428
#
# Stress axis : x y z
#
# Youngs Moduli (GPa) = 30.30169 31.90147 142.07907
#
# Poissons Ratio (x) = 0.48127 0.06194
# Poissons Ratio (y) = 0.45713 0.87223
# Poissons Ratio (z) = 0.01321 0.19584
#
# Static dielectric constant tensor:
#      x y z
#    x 1.925960 0.075430 -0.051240 
#    y 0.075430 1.991300 -0.085350 
#    z -0.051240 -0.085350 1.959550 
# 
# From -- ./inp_files/69998.got.cif
#   From: 2010.05.17/outbox.cif.g08.bks.cpg/sg2_35_cif.got.tgz:69998.got - 2010.06.03 11:33:40.
