data_PCOD9015255
_publ_section_title
;
Structure prediction by ZEFSAII (Michael W. Deem and Ramdas Pophale) SiO2 
 PCOD9015255
Probable space group: P -1
;
_chemical_formula_sum "Si O2"
_cell_formula_units_Z 16
_cell_length_a 10.097170
_cell_length_b 8.940176
_cell_length_c 19.993192
_cell_angle_alpha 150.093089
_cell_angle_beta 50.235084
_cell_angle_gamma 135.353799
_cell_volume 630.999275
_symmetry_space_group_name_H-M "P -1"
_symmetry_group_IT_number 2
_symmetry_cell_setting 'triclinic'
loop_
_space_group_symop_operation_xyz
x,y,z
-x,-y,-z
loop_
_atom_site_type_symbol
_atom_site_label
_atom_site_fract_x
_atom_site_fract_y
_atom_site_fract_z
Si Si1 0.388358 0.090115 0.967073
Si Si2 0.591003 0.074043 0.427818
Si Si3 0.069783 0.223615 0.629478
Si Si4 0.508535 0.157054 0.760685
Si Si5 0.980024 0.131311 0.351404
Si Si6 0.479215 0.314996 0.321831
Si Si7 0.873707 0.110752 0.156659
Si Si8 0.104794 0.872222 0.086229
O O1 0.480990 0.484315 0.089133
O O2 0.298539 0.960884 0.018070
O O3 0.510405 0.892207 0.826803
O O4 0.237046 0.021984 0.928163
O O5 0.763504 0.965736 0.330931
O O6 0.635425 0.458659 0.551865
O O7 0.500000 0.000000 0.500000
O O8 0.440879 0.866723 0.340671
O O9 0.300881 0.423988 0.636137
O O10 0.997284 0.512410 0.754514
O O11 0.011595 0.043081 0.649431
O O12 0.000000 0.000000 0.500000
O O13 0.595128 0.971004 0.709332
O O14 0.287051 0.916329 0.748097
O O15 0.000000 0.500000 0.500000
O O16 0.105671 0.092759 0.235454
O O17 0.982409 0.927389 0.086867
O O18 0.000000 0.500000 0.000000
#
# Coordination Sequence:
#
# PCOD9015255 Si02
#       8
#     2   2   2   2   2   2   2   2
#     4  10  23  43  73 103 135 180 232 275 337 418
#     4  12  25  44  70  96 146 179 226 294 345 405
#     4  10  21  41  73  97 133 185 230 281 341 416
#     4  10  22  44  71 101 136 179 233 282 337 413
#     4  12  27  47  66 103 141 179 233 286 354 405
#     4  10  22  45  72 102 140 180 233 285 345 402
#     4  10  21  44  70  95 139 177 229 287 332 409
#     4  12  25  45  69  99 141 179 223 282 349 406
#
# _framework density 25.356604999999998
#
# number of rings (size 3 to 8) (size 9 to 14) (size 15 to 20)
#    0.000    1.500    2.500    4.500    3.500    1.000 
#    6.750    1.250    0.000    0.000    0.000    0.000 
#    0.000    0.000    0.000    0.000    0.000    0.000 
#
# Total GULP energy -89494.500856 kJ/mol
# GULP energy per Si atom -5593.406303 kJ/mol
# Density = 2.529889 g / cm^3
# Si number density = 25.356605 Si / 1000 Ang^3
#
#
#
# Elastic Constant Matrix: (Units=GPa)
#
#
# Indices 1 2 3 4 5 6 
#
# 1 99.7867 38.7199 28.6163 -8.2655 -19.5410 -16.1385
# 2 38.7199 121.0192 38.7769 -6.8889 14.1861 -29.8199
# 3 28.6163 38.7769 151.5055 -13.0033 3.9805 -21.0357
# 4 -8.2655 -6.8889 -13.0033 56.4827 -15.6012 2.1260
# 5 -19.5410 14.1861 3.9805 -15.6012 26.5569 2.6602
# 6 -16.1385 -29.8199 -21.0357 2.1260 2.6602 26.6494
#
#
#
# Elastic Compliance Matrix: (Units=1/GPa)
#
#
# Indices 1 2 3 4 5 6 
#
# 1 0.018437 -0.008154 -0.001632 0.007742 0.022930 -0.002154
# 2 -0.008154 0.017011 -0.000517 -0.005292 -0.019729 0.016081
# 3 -0.001632 -0.000517 0.007821 0.000726 -0.002148 0.004763
# 4 0.007742 -0.005292 0.000726 0.025081 0.023652 -0.005022
# 5 0.022930 -0.019729 -0.002148 0.023652 0.081275 -0.019885
# 6 -0.002154 0.016081 0.004763 -0.005022 -0.019885 0.060360
#
#
# Mechanical properties :
#
#
# Convention : Reuss Voigt Hill
#
# Bulk Modulus (GPa) = 44.12456 64.94861 54.53659
# Shear Modulus (GPa) = 20.99557 39.68437 30.33997
#
# Velocity S-wave (km/s) = 2.88064 3.96036 3.46284
# Velocity P-wave (km/s) = 5.33887 6.82512 6.12723
#
# Compressibility (1/GPa) = 0.02266311
#
# Stress axis : x y z
#
# Youngs Moduli (GPa) = 54.23965 58.78401 127.85859
#
# Poissons Ratio (x) = 0.47930 0.20872
# Poissons Ratio (y) = 0.44225 0.06610
# Poissons Ratio (z) = 0.08854 0.03039
#
# Static dielectric constant tensor:
#      x y z
#    x 2.115630 0.086420 -0.026170 
#    y 0.086420 1.998090 -0.026430 
#    z -0.026170 -0.026430 2.034670 
# 
# From -- ./inp_files/567120.got.cif
#   From: 2010.05.17/outbox.cif.g08.bks.cpg/sg2_284_cif.got.tgz:567120.got - 2010.06.03 11:33:40.
