data_PCOD9015716
_publ_section_title
;
Structure prediction by ZEFSAII (Michael W. Deem and Ramdas Pophale) SiO2 
 PCOD9015716
Probable space group: P -1
;
_chemical_formula_sum "Si O2"
_cell_formula_units_Z 14
_cell_length_a 15.330801
_cell_length_b 14.506876
_cell_length_c 6.279579
_cell_angle_alpha 74.347610
_cell_angle_beta 62.340007
_cell_angle_gamma 28.945871
_cell_volume 567.550093
_symmetry_space_group_name_H-M "P -1"
_symmetry_group_IT_number 2
_symmetry_cell_setting 'triclinic'
loop_
_space_group_symop_operation_xyz
x,y,z
-x,-y,-z
loop_
_atom_site_type_symbol
_atom_site_label
_atom_site_fract_x
_atom_site_fract_y
_atom_site_fract_z
Si Si1 0.770700 0.077235 0.202605
Si Si2 0.884932 0.153606 0.723951
Si Si3 0.129335 0.173336 0.096034
Si Si4 0.219121 0.424774 0.253521
Si Si5 0.769479 0.783977 0.393716
Si Si6 0.681698 0.510413 0.573469
Si Si7 0.477817 0.914192 0.181674
O O1 0.534134 0.280493 0.425566
O O2 0.790285 0.156956 0.989377
O O3 0.942936 0.935965 0.278645
O O4 0.819425 0.948885 0.066547
O O5 0.721095 0.366131 0.674287
O O6 0.000000 0.000000 0.500000
O O7 0.892033 0.364744 0.311341
O O8 0.286258 0.028568 0.204581
O O9 0.181542 0.231434 0.893936
O O10 0.251271 0.306850 0.448019
O O11 0.323066 0.427245 0.238679
O O12 0.975718 0.643709 0.368542
O O13 0.319612 0.313692 0.982260
O O14 0.583534 0.007389 0.557779
O O15 0.500000 0.000000 0.000000
#
# Coordination Sequence:
#
# PCOD9015716 Si02
#       7
#     2   2   2   2   2   2   2
#     4  11  26  47  73 105 131 182 230 280 360 413
#     4  11  25  51  75  98 140 172 227 296 347 421
#     4  12  24  43  66 102 141 178 234 278 336 413
#     4  10  21  42  64  96 135 182 231 276 341 391
#     4  10  23  41  63  94 140 184 227 281 327 400
#     4  12  24  46  71 104 140 181 227 290 345 411
#     4  10  22  42  64  93 136 184 228 275 330 389
#
# _framework density 24.667427
#
# number of rings (size 3 to 8) (size 9 to 14) (size 15 to 20)
#    0.000    1.143    4.286    1.286    0.000    4.571 
#    5.143    0.000    0.000    0.000    0.000    0.000 
#    0.000    0.000    0.000    0.000    0.000    0.000 
#
# Total GULP energy -78416.032931 kJ/mol
# GULP energy per Si atom -5601.145209 kJ/mol
# Density = 2.461128 g / cm^3
# Si number density = 24.667427 Si / 1000 Ang^3
#
#
#
# Elastic Constant Matrix: (Units=GPa)
#
#
# Indices 1 2 3 4 5 6 
#
# 1 69.5660 15.6942 -0.9346 8.1529 7.2932 4.1977
# 2 15.6942 104.8881 20.5714 17.2091 2.4765 -7.6375
# 3 -0.9346 20.5714 90.7008 15.9738 -19.2960 8.4510
# 4 8.1529 17.2091 15.9738 47.3078 1.9668 0.0974
# 5 7.2932 2.4765 -19.2960 1.9668 39.8381 2.7532
# 6 4.1977 -7.6375 8.4510 0.0974 2.7532 45.9504
#
#
#
# Elastic Compliance Matrix: (Units=1/GPa)
#
#
# Indices 1 2 3 4 5 6 
#
# 1 0.015447 -0.002204 0.000730 -0.002015 -0.002115 -0.001781
# 2 -0.002204 0.011052 -0.002644 -0.002686 -0.001613 0.002627
# 3 0.000730 -0.002644 0.014299 -0.004293 0.007415 -0.003571
# 4 -0.002015 -0.002686 -0.004293 0.024026 -0.002774 0.000642
# 5 -0.002115 -0.001613 0.007415 -0.002774 0.029539 -0.003203
# 6 -0.001781 0.002627 -0.003571 0.000642 -0.003203 0.023209
#
#
# Mechanical properties :
#
#
# Convention : Reuss Voigt Hill
#
# Bulk Modulus (GPa) = 30.71029 37.31298 34.01163
# Shear Modulus (GPa) = 36.58630 41.94085 39.26358
#
# Velocity S-wave (km/s) = 3.85539 4.12788 3.99396
# Velocity P-wave (km/s) = 5.68291 6.15455 5.92343
#
# Compressibility (1/GPa) = 0.03256238
#
# Stress axis : x y z
#
# Youngs Moduli (GPa) = 64.73695 90.47783 69.93544
#
# Poissons Ratio (x) = 0.19937 -0.05104
# Poissons Ratio (y) = 0.14265 0.18494
# Poissons Ratio (z) = -0.04725 0.23926
#
# Static dielectric constant tensor:
#      x y z
#    x 1.952980 -0.016350 -0.032440 
#    y -0.016350 1.921010 -0.008930 
#    z -0.032440 -0.008930 1.966940 
# 
# From -- ./inp_files/49455.got.cif
#   From: 2010.05.17/outbox.cif.g08.bks.cpg/sg2_25_cif.got.tgz:49455.got - 2010.06.03 11:33:40.
