data_PCOD9015051
_publ_section_title
;
Structure prediction by ZEFSAII (Michael W. Deem and Ramdas Pophale) SiO2 
 PCOD9015051
Probable space group: P -1
;
_chemical_formula_sum "Si O2"
_cell_formula_units_Z 16
_cell_length_a 11.398154
_cell_length_b 9.024428
_cell_length_c 12.311609
_cell_angle_alpha 51.136527
_cell_angle_beta 50.463515
_cell_angle_gamma 74.425306
_cell_volume 742.179480
_symmetry_space_group_name_H-M "P -1"
_symmetry_group_IT_number 2
_symmetry_cell_setting 'triclinic'
loop_
_space_group_symop_operation_xyz
x,y,z
-x,-y,-z
loop_
_atom_site_type_symbol
_atom_site_label
_atom_site_fract_x
_atom_site_fract_y
_atom_site_fract_z
Si Si1 0.082939 0.576836 0.027708
Si Si2 0.240735 0.382924 0.198367
Si Si3 0.395028 0.782341 0.646987
Si Si4 0.546307 0.424823 0.732163
Si Si5 0.454256 0.200961 0.671648
Si Si6 0.103125 0.200363 0.808558
Si Si7 0.535596 0.217582 0.046230
Si Si8 0.886610 0.643539 0.491199
O O1 0.229535 0.747482 0.821849
O O2 0.150352 0.411831 0.128768
O O3 0.000000 0.500000 0.000000
O O4 0.963913 0.643500 0.151538
O O5 0.377720 0.268572 0.160001
O O6 0.138756 0.288566 0.404069
O O7 0.322639 0.605658 0.082464
O O8 0.466472 0.602586 0.732574
O O9 0.410767 0.759557 0.517966
O O10 0.500000 0.000000 0.500000
O O11 0.494502 0.350981 0.677745
O O12 0.727029 0.518626 0.593015
O O13 0.517426 0.245161 0.915423
O O14 0.286817 0.213149 0.714195
O O15 0.441975 0.985721 0.827801
O O16 0.062068 0.204381 0.703696
O O17 0.000000 0.000000 0.000000
O O18 0.000000 0.500000 0.500000
#
# Coordination Sequence:
#
# PCOD9015051 Si02
#       8
#     2   2   2   2   2   2   2   2
#     4  12  26  44  70 105 145 183 225 297 365 409
#     4  10  21  41  70  99 131 184 233 284 341 422
#     4  12  25  43  72 104 136 184 242 288 344 424
#     4  11  24  44  70 100 135 183 237 292 349 412
#     4  12  26  42  72 103 141 180 239 297 346 416
#     4  12  26  44  68 102 141 181 232 288 354 421
#     4  10  22  41  70 100 136 176 239 287 346 412
#     4  11  24  42  69  95 135 184 231 280 352 424
#
# _framework density 21.558129000000001
#
# number of rings (size 3 to 8) (size 9 to 14) (size 15 to 20)
#    0.000    0.750    3.750    3.750    7.000    0.000 
#    0.000    0.000    0.000    2.250    0.000    0.000 
#    0.000    0.000    0.000    0.000    0.000    0.000 
#
# Total GULP energy -89400.365281 kJ/mol
# GULP energy per Si atom -5587.522830 kJ/mol
# Density = 2.150906 g / cm^3
# Si number density = 21.558129 Si / 1000 Ang^3
#
#
#
# Elastic Constant Matrix: (Units=GPa)
#
#
# Indices 1 2 3 4 5 6 
#
# 1 100.0335 20.0171 29.4186 0.2073 32.5741 -1.6367
# 2 20.0171 62.7800 15.2316 -4.4761 8.4074 -10.6403
# 3 29.4186 15.2316 135.3136 9.9738 35.2568 -9.3493
# 4 0.2073 -4.4761 9.9738 36.2111 -0.0977 9.0628
# 5 32.5741 8.4074 35.2568 -0.0977 37.9527 0.4223
# 6 -1.6367 -10.6403 -9.3493 9.0628 0.4223 31.8557
#
#
#
# Elastic Compliance Matrix: (Units=1/GPa)
#
#
# Indices 1 2 3 4 5 6 
#
# 1 0.014438 -0.003103 0.000425 -0.000661 -0.012103 0.000179
# 2 -0.003103 0.018207 -0.000957 0.001202 -0.000537 0.005306
# 3 0.000425 -0.000957 0.010617 -0.004103 -0.010072 0.004119
# 4 -0.000661 0.001202 -0.004103 0.031367 0.004302 -0.009817
# 5 -0.012103 -0.000537 -0.010072 0.004302 0.046285 -0.005595
# 6 0.000179 0.005306 0.004119 -0.009817 -0.005595 0.037249
#
#
# Mechanical properties :
#
#
# Convention : Reuss Voigt Hill
#
# Bulk Modulus (GPa) = 27.78365 47.49572 37.63969
# Shear Modulus (GPa) = 28.18016 36.76788 32.47402
#
# Velocity S-wave (km/s) = 3.61940 4.13428 3.88538
# Velocity P-wave (km/s) = 5.51204 6.69843 6.13398
#
# Compressibility (1/GPa) = 0.03599239
#
# Stress axis : x y z
#
# Youngs Moduli (GPa) = 69.26212 54.92370 94.18975
#
# Poissons Ratio (x) = 0.17040 -0.04001
# Poissons Ratio (y) = 0.21489 0.09013
# Poissons Ratio (z) = -0.02942 0.05256
#
# Static dielectric constant tensor:
#      x y z
#    x 1.695650 0.011050 -0.027040 
#    y 0.011050 1.772080 0.017240 
#    z -0.027040 0.017240 1.804200 
# 
# From -- ./inp_files/262192.got.cif
#   From: 2010.05.17/outbox.cif.g08.bks.cpg/sg2_132_cif.got.tgz:262192.got - 2010.06.03 11:33:40.
