data_PCOD9015890
_publ_section_title
;
Structure prediction by ZEFSAII (Michael W. Deem and Ramdas Pophale) SiO2 
 PCOD9015890
Probable space group: P -1
;
_chemical_formula_sum "Si O2"
_cell_formula_units_Z 16
_cell_length_a 13.294220
_cell_length_b 8.868152
_cell_length_c 17.256923
_cell_angle_alpha 66.891733
_cell_angle_beta 131.822005
_cell_angle_gamma 71.425258
_cell_volume 742.310930
_symmetry_space_group_name_H-M "P -1"
_symmetry_group_IT_number 2
_symmetry_cell_setting 'triclinic'
loop_
_space_group_symop_operation_xyz
x,y,z
-x,-y,-z
loop_
_atom_site_type_symbol
_atom_site_label
_atom_site_fract_x
_atom_site_fract_y
_atom_site_fract_z
Si Si1 0.142250 0.862352 0.520898
Si Si2 0.601830 0.152032 0.935569
Si Si3 0.830369 0.165264 0.954621
Si Si4 0.630675 0.117229 0.459530
Si Si5 0.303187 0.849505 0.841692
Si Si6 0.080698 0.188962 0.169187
Si Si7 0.299571 0.182463 0.695905
Si Si8 0.392065 0.088544 0.243061
O O1 0.397630 0.504774 0.743631
O O2 0.173049 0.015500 0.476754
O O3 0.000000 0.000000 0.500000
O O4 0.977218 0.932607 0.359954
O O5 0.805836 0.004968 0.006950
O O6 0.466026 0.122656 0.851408
O O7 0.681412 0.086878 0.078326
O O8 0.581722 0.522284 0.726938
O O9 0.954523 0.146259 0.090672
O O10 0.000000 0.000000 0.000000
O O11 0.511554 0.071173 0.378259
O O12 0.763294 0.973637 0.638926
O O13 0.362782 0.927298 0.793295
O O14 0.500000 0.500000 0.000000
O O15 0.267872 0.054305 0.223006
O O16 0.848378 0.557195 0.981713
O O17 0.000000 0.500000 0.500000
O O18 0.396842 0.140615 0.669686
#
# Coordination Sequence:
#
# PCOD9015890 Si02
#       8
#     2   2   2   2   2   2   2   2
#     4  11  21  38  63  94 129 169 216 269 321 386
#     4  11  24  43  63  95 133 168 217 269 328 391
#     4  10  22  41  64  92 130 168 215 273 331 387
#     4  10  22  37  65  95 124 168 224 272 324 395
#     4  12  25  41  70  94 126 178 226 262 324 402
#     4  10  21  42  65  96 124 170 231 270 325 393
#     4  12  26  46  64  97 143 175 214 280 341 388
#     4  10  23  41  65  90 133 173 216 276 328 392
#
# _framework density 21.554309
#
# number of rings (size 3 to 8) (size 9 to 14) (size 15 to 20)
#    0.000    1.250    2.500    3.000    5.250    0.500 
#    4.500    0.000    0.000    0.000    0.000    0.000 
#    0.000    0.000    0.000    0.000    0.000    0.000 
#
# Total GULP energy -89360.028273 kJ/mol
# GULP energy per Si atom -5585.001767 kJ/mol
# Density = 2.150525 g / cm^3
# Si number density = 21.554309 Si / 1000 Ang^3
#
#
#
# Elastic Constant Matrix: (Units=GPa)
#
#
# Indices 1 2 3 4 5 6 
#
# 1 104.2476 7.0029 20.5791 -7.7076 13.4664 -4.4396
# 2 7.0029 29.2381 14.3813 2.9958 -6.0093 -8.6126
# 3 20.5791 14.3813 108.2018 33.3369 -7.2615 -6.9070
# 4 -7.7076 2.9958 33.3369 27.2177 -2.3884 6.0598
# 5 13.4664 -6.0093 -7.2615 -2.3884 22.5266 4.0901
# 6 -4.4396 -8.6126 -6.9070 6.0598 4.0901 44.4015
#
#
#
# Elastic Compliance Matrix: (Units=1/GPa)
#
#
# Indices 1 2 3 4 5 6 
#
# 1 0.012977 -0.003436 -0.006032 0.010832 -0.009302 -0.000929
# 2 -0.003436 0.040777 -0.002895 -0.002429 0.010566 0.006474
# 3 -0.006032 -0.002895 0.019377 -0.025724 0.005471 0.004856
# 4 0.010832 -0.002429 -0.025724 0.074023 -0.005205 -0.013013
# 5 -0.009302 0.010566 0.005471 -0.005205 0.054406 -0.002331
# 6 -0.000929 0.006474 0.004856 -0.013013 -0.002331 0.026431
#
#
# Mechanical properties :
#
#
# Convention : Reuss Voigt Hill
#
# Bulk Modulus (GPa) = 20.66024 36.17934 28.41979
# Shear Modulus (GPa) = 18.59755 32.14412 25.37084
#
# Velocity S-wave (km/s) = 2.94057 3.86594 3.43456
# Velocity P-wave (km/s) = 4.59731 6.06209 5.37979
#
# Compressibility (1/GPa) = 0.04840215
#
# Stress axis : x y z
#
# Youngs Moduli (GPa) = 77.05861 24.52386 51.60827
#
# Poissons Ratio (x) = 0.08427 0.31132
# Poissons Ratio (y) = 0.26480 0.14943
# Poissons Ratio (z) = 0.46485 0.07101
#
# Static dielectric constant tensor:
#      x y z
#    x 1.694370 -0.006750 0.003370 
#    y -0.006750 1.782220 -0.004660 
#    z 0.003370 -0.004660 1.771340 
# 
# From -- ./inp_files/272985.got.cif
#   From: 2010.05.17/outbox.cif.g08.bks.cpg/sg2_137_cif.got.tgz:272985.got - 2010.06.03 11:33:40.
