data_PCOD9015839
_publ_section_title
;
Structure prediction by ZEFSAII (Michael W. Deem and Ramdas Pophale) SiO2 
 PCOD9015839
Probable space group: P -1
;
_chemical_formula_sum "Si O2"
_cell_formula_units_Z 14
_cell_length_a 18.933301
_cell_length_b 8.808609
_cell_length_c 10.264524
_cell_angle_alpha 66.288881
_cell_angle_beta 54.555928
_cell_angle_gamma 31.170975
_cell_volume 703.666697
_symmetry_space_group_name_H-M "P -1"
_symmetry_group_IT_number 2
_symmetry_cell_setting 'triclinic'
loop_
_space_group_symop_operation_xyz
x,y,z
-x,-y,-z
loop_
_atom_site_type_symbol
_atom_site_label
_atom_site_fract_x
_atom_site_fract_y
_atom_site_fract_z
Si Si1 0.131151 0.768443 0.829293
Si Si2 0.197456 0.266351 0.512018
Si Si3 0.749722 0.135631 0.807391
Si Si4 0.065163 0.149345 0.561124
Si Si5 0.539499 0.782124 0.211731
Si Si6 0.950606 0.418846 0.162166
Si Si7 0.518851 0.201144 0.032747
O O1 0.302414 0.538058 0.781639
O O2 0.133560 0.576955 0.842314
O O3 0.083108 0.959439 0.693892
O O4 0.000000 0.000000 0.000000
O O5 0.119570 0.217396 0.567941
O O6 0.152489 0.372455 0.672624
O O7 0.108838 0.539854 0.417686
O O8 0.381994 0.978504 0.387082
O O9 0.621725 0.480556 0.852894
O O10 0.822900 0.035167 0.620700
O O11 0.667766 0.086111 0.923916
O O12 0.890969 0.916948 0.834463
O O13 0.545912 0.972592 0.133843
O O14 0.524656 0.744794 0.091779
O O15 0.000000 0.500000 0.000000
#
# Coordination Sequence:
#
# PCOD9015839 Si02
#       7
#     2   2   2   2   2   2   2
#     4  12  27  42  64  96 130 168 210 264 320 379
#     4  10  23  42  68  92 128 171 210 261 315 379
#     4  10  21  42  65  93 122 171 212 261 309 380
#     4  10  23  43  65  93 128 166 217 256 319 378
#     4  11  24  41  65  96 128 165 209 267 317 372
#     4  11  24  42  65  93 129 171 210 261 320 377
#     4  10  22  39  67  92 125 164 216 259 314 377
#
# _framework density 19.895783000000002
#
# number of rings (size 3 to 8) (size 9 to 14) (size 15 to 20)
#    0.000    1.429    1.429    2.571    8.000    2.286 
#    5.143    0.000    0.000    0.000    0.000    0.000 
#    0.000    0.000    0.000    0.000    0.000    0.000 
#
# Total GULP energy -78304.803029 kJ/mol
# GULP energy per Si atom -5593.200216 kJ/mol
# Density = 1.985050 g / cm^3
# Si number density = 19.895783 Si / 1000 Ang^3
#
#
#
# Elastic Constant Matrix: (Units=GPa)
#
#
# Indices 1 2 3 4 5 6 
#
# 1 75.1987 16.2630 13.1503 12.5066 8.7634 -8.1868
# 2 16.2630 62.6721 30.4748 16.0328 1.3245 -12.8499
# 3 13.1503 30.4748 64.9411 14.9602 9.5890 -9.0012
# 4 12.5066 16.0328 14.9602 33.7754 2.7133 -9.1319
# 5 8.7634 1.3245 9.5890 2.7133 24.1239 0.9515
# 6 -8.1868 -12.8499 -9.0012 -9.1319 0.9515 30.2559
#
#
#
# Elastic Compliance Matrix: (Units=1/GPa)
#
#
# Indices 1 2 3 4 5 6 
#
# 1 0.015248 -0.002487 -0.000080 -0.003437 -0.005070 0.002168
# 2 -0.002487 0.023237 -0.009098 -0.005060 0.003622 0.004848
# 3 -0.000080 -0.009098 0.022066 -0.004363 -0.007815 0.001608
# 4 -0.003437 -0.005060 -0.004363 0.037170 -0.001191 0.006879
# 5 -0.005070 0.003622 -0.007815 -0.001191 0.046493 -0.003980
# 6 0.002168 0.004848 0.001608 0.006879 -0.003980 0.038377
#
#
# Mechanical properties :
#
#
# Convention : Reuss Voigt Hill
#
# Bulk Modulus (GPa) = 26.86593 35.84311 31.35452
# Shear Modulus (GPa) = 22.90119 27.15931 25.03025
#
# Velocity S-wave (km/s) = 3.39640 3.69871 3.55077
# Velocity P-wave (km/s) = 5.37712 6.02454 5.71001
#
# Compressibility (1/GPa) = 0.03722186
#
# Stress axis : x y z
#
# Youngs Moduli (GPa) = 65.58067 43.03399 45.31835
#
# Poissons Ratio (x) = 0.10703 0.00361
# Poissons Ratio (y) = 0.16311 0.41231
# Poissons Ratio (z) = 0.00523 0.39153
#
# Static dielectric constant tensor:
#      x y z
#    x 1.700570 -0.002430 -0.007050 
#    y -0.002430 1.693750 -0.000260 
#    z -0.007050 -0.000260 1.654860 
# 
# From -- ./inp_files/157669.got.cif
#   From: 2010.05.17/outbox.cif.g08.bks.cpg/sg2_79_cif.got.tgz:157669.got - 2010.06.03 11:33:40.
