data_PCOD9015064
_publ_section_title
;
Structure prediction by ZEFSAII (Michael W. Deem and Ramdas Pophale) SiO2 
 PCOD9015064
Probable space group: P -1
;
_chemical_formula_sum "Si O2"
_cell_formula_units_Z 12
_cell_length_a 9.512411
_cell_length_b 9.714161
_cell_length_c 8.378684
_cell_angle_alpha 134.996750
_cell_angle_beta 121.931818
_cell_angle_gamma 76.201144
_cell_volume 452.657336
_symmetry_space_group_name_H-M "P -1"
_symmetry_group_IT_number 2
_symmetry_cell_setting 'triclinic'
loop_
_space_group_symop_operation_xyz
x,y,z
-x,-y,-z
loop_
_atom_site_type_symbol
_atom_site_label
_atom_site_fract_x
_atom_site_fract_y
_atom_site_fract_z
Si Si1 0.344174 0.554466 0.364766
Si Si2 0.011245 0.288389 0.910958
Si Si3 0.277118 0.832313 0.835070
Si Si4 0.101173 0.122372 0.410188
Si Si5 0.857280 0.449180 0.235506
Si Si6 0.435932 0.121365 0.418868
O O1 0.500000 0.500000 0.500000
O O2 0.212823 0.341774 0.091957
O O3 0.276384 0.708987 0.568909
O O4 0.419768 0.676076 0.352270
O O5 0.924721 0.301872 0.040653
O O6 0.000000 0.500000 0.000000
O O7 0.913763 0.062947 0.628531
O O8 0.296771 0.669570 0.850628
O O9 0.093471 0.894225 0.778274
O O10 0.411770 0.019566 0.143994
O O11 0.152359 0.348135 0.693041
O O12 0.247961 0.136281 0.376686
O O13 0.000000 0.500000 0.500000
O O14 0.500000 0.000000 0.500000
#
# Coordination Sequence:
#
# PCOD9015064 Si02
#       6
#     2   2   2   2   2   2
#     4  12  26  46  68 104 147 182 234 293 351 418
#     4  12  25  44  69 104 139 182 237 292 340 413
#     4  11  23  46  75 100 133 194 243 272 341 448
#     4  11  23  45  78  94 136 193 237 273 343 429
#     4  10  21  41  71 100 128 174 250 273 329 417
#     4  12  26  44  69 108 144 176 227 306 363 395
#
# _framework density 26.510120000000001
#
# number of rings (size 3 to 8) (size 9 to 14) (size 15 to 20)
#    0.000    0.667    5.000    4.000    4.667    0.667 
#    6.000    1.667    0.000    0.000    0.000    0.000 
#    0.000    0.000    0.000    0.000    0.000    0.000 
#
# Total GULP energy -66925.067480 kJ/mol
# GULP energy per Si atom -5577.088957 kJ/mol
# Density = 2.644978 g / cm^3
# Si number density = 26.510120 Si / 1000 Ang^3
#
#
#
# Elastic Constant Matrix: (Units=GPa)
#
#
# Indices 1 2 3 4 5 6 
#
# 1 106.2140 29.4782 26.7419 15.5474 -2.9180 15.5626
# 2 29.4782 129.2264 1.7777 28.6711 13.1216 18.8576
# 3 26.7419 1.7777 72.5815 16.1402 -0.9118 15.7806
# 4 15.5474 28.6711 16.1402 45.9485 20.6456 19.2695
# 5 -2.9180 13.1216 -0.9118 20.6456 47.3810 4.8407
# 6 15.5626 18.8576 15.7806 19.2695 4.8407 47.9901
#
#
#
# Elastic Compliance Matrix: (Units=1/GPa)
#
#
# Indices 1 2 3 4 5 6 
#
# 1 0.011387 -0.002211 -0.003475 -0.001690 0.002107 -0.001215
# 2 -0.002211 0.009631 0.002076 -0.005139 -0.000356 -0.001651
# 3 -0.003475 0.002076 0.017031 -0.005852 0.002414 -0.003183
# 4 -0.001690 -0.005139 -0.005852 0.037960 -0.014384 -0.009300
# 5 0.002107 -0.000356 0.002414 -0.014384 0.027478 0.001667
# 6 -0.001215 -0.001651 -0.003183 -0.009300 0.001667 0.026493
#
#
# Mechanical properties :
#
#
# Convention : Reuss Voigt Hill
#
# Bulk Modulus (GPa) = 32.43756 47.11306 39.77531
# Shear Modulus (GPa) = 33.90366 44.93219 39.41792
#
# Velocity S-wave (km/s) = 3.58004 4.12139 3.86022
# Velocity P-wave (km/s) = 5.41770 6.36067 5.90803
#
# Compressibility (1/GPa) = 0.03082846
#
# Stress axis : x y z
#
# Youngs Moduli (GPa) = 87.82074 103.82733 58.71763
#
# Poissons Ratio (x) = 0.22961 0.20403
# Poissons Ratio (y) = 0.19421 -0.12190
# Poissons Ratio (z) = 0.30516 -0.21555
#
# Static dielectric constant tensor:
#      x y z
#    x 3.269550 0.158240 0.552790 
#    y 0.158240 2.277130 0.093660 
#    z 0.552790 0.093660 2.357410 
# 
# From -- ./inp_files/160366.got.cif
#   From: 2010.05.17/outbox.cif.g08.bks.cpg/sg2_81_cif.got.tgz:160366.got - 2010.06.03 11:33:40.
