data_PCOD9015047
_publ_section_title
;
Structure prediction by ZEFSAII (Michael W. Deem and Ramdas Pophale) SiO2 
 PCOD9015047
Probable space group: P -1
;
_chemical_formula_sum "Si O2"
_cell_formula_units_Z 12
_cell_length_a 10.940690
_cell_length_b 5.431479
_cell_length_c 10.736642
_cell_angle_alpha 80.341945
_cell_angle_beta 50.348893
_cell_angle_gamma 80.584141
_cell_volume 482.928355
_symmetry_space_group_name_H-M "P -1"
_symmetry_group_IT_number 2
_symmetry_cell_setting 'triclinic'
loop_
_space_group_symop_operation_xyz
x,y,z
-x,-y,-z
loop_
_atom_site_type_symbol
_atom_site_label
_atom_site_fract_x
_atom_site_fract_y
_atom_site_fract_z
Si Si1 0.400660 0.354302 0.979041
Si Si2 0.936536 0.410602 0.801600
Si Si3 0.231478 0.566595 0.698408
Si Si4 0.347003 0.999020 0.262939
Si Si5 0.475453 0.239875 0.402260
Si Si6 0.048175 0.924598 0.622329
O O1 0.239891 0.522216 0.039388
O O2 0.346188 0.119866 0.116342
O O3 0.500000 0.500000 0.000000
O O4 0.529394 0.244756 0.805096
O O5 0.072274 0.414542 0.821301
O O6 0.973956 0.657134 0.676519
O O7 0.955223 0.168375 0.722322
O O8 0.335144 0.421177 0.536512
O O9 0.361536 0.620938 0.711110
O O10 0.168027 0.837716 0.665825
O O11 0.423852 0.162706 0.305602
O O12 0.167046 0.967388 0.427334
O O13 0.500000 0.000000 0.500000
#
# Coordination Sequence:
#
# PCOD9015047 Si02
#       6
#     2   2   2   2   2   2
#     4  11  29  43  64  90 146 184 218 267 341 408
#     4  10  22  44  65 100 133 173 226 279 330 394
#     4   9  20  34  68 103 129 162 211 289 330 383
#     4  11  24  44  63 102 131 182 220 275 334 402
#     4  11  18  37  68 103 132 161 224 282 336 383
#     4  10  21  41  70  99 130 166 230 279 327 382
#
# _framework density 24.848403999999999
#
# number of rings (size 3 to 8) (size 9 to 14) (size 15 to 20)
#    1.000    0.667    3.333    0.000    9.333    1.333 
#    0.000    0.833    0.000    3.000    0.000    0.000 
#    0.000    0.000    0.000    0.000    0.000    0.000 
#
# Total GULP energy -66990.577582 kJ/mol
# GULP energy per Si atom -5582.548132 kJ/mol
# Density = 2.479185 g / cm^3
# Si number density = 24.848404 Si / 1000 Ang^3
#
#
#
# Elastic Constant Matrix: (Units=GPa)
#
#
# Indices 1 2 3 4 5 6 
#
# 1 76.8023 24.8330 32.0150 20.2399 -19.1686 23.4997
# 2 24.8330 125.6020 65.4541 42.6753 -3.0364 5.0886
# 3 32.0150 65.4541 152.8908 36.8510 -16.8704 3.0344
# 4 20.2399 42.6753 36.8510 41.8883 -6.4539 0.8940
# 5 -19.1686 -3.0364 -16.8704 -6.4539 43.9509 6.0499
# 6 23.4997 5.0886 3.0344 0.8940 6.0499 43.8669
#
#
#
# Elastic Compliance Matrix: (Units=1/GPa)
#
#
# Indices 1 2 3 4 5 6 
#
# 1 0.021983 -0.000437 -0.001347 -0.007216 0.009747 -0.012830
# 2 -0.000437 0.013416 -0.003234 -0.010911 -0.002025 -0.000597
# 3 -0.001347 -0.003234 0.009407 -0.004000 0.002182 0.000226
# 4 -0.007216 -0.010911 -0.004000 0.041912 0.000093 0.004541
# 5 0.009747 -0.002025 0.002182 0.000093 0.028972 -0.009135
# 6 -0.012830 -0.000597 0.000226 0.004541 -0.009135 0.030890
#
#
# Mechanical properties :
#
#
# Convention : Reuss Voigt Hill
#
# Bulk Modulus (GPa) = 28.75958 66.65549 47.70753
# Shear Modulus (GPa) = 29.72558 41.47409 35.59983
#
# Velocity S-wave (km/s) = 3.46248 4.08988 3.78918
# Velocity P-wave (km/s) = 5.25206 7.01326 6.19556
#
# Compressibility (1/GPa) = 0.03477102
#
# Stress axis : x y z
#
# Youngs Moduli (GPa) = 45.48936 74.54029 106.30194
#
# Poissons Ratio (x) = 0.03260 0.14314
# Poissons Ratio (y) = 0.01990 0.34373
# Poissons Ratio (z) = 0.06125 0.24103
#
# Static dielectric constant tensor:
#      x y z
#    x 2.068990 -0.050770 -0.026060 
#    y -0.050770 1.994230 -0.078800 
#    z -0.026060 -0.078800 1.955050 
# 
# From -- ./inp_files/407800.got.cif
#   From: 2010.05.17/outbox.cif.g08.bks.cpg/sg2_204_cif.got.tgz:407800.got - 2010.06.03 11:33:40.
