data_PCOD9015524
_publ_section_title
;
Structure prediction by ZEFSAII (Michael W. Deem and Ramdas Pophale) SiO2 
 PCOD9015524
Probable space group: P -1
;
_chemical_formula_sum "Si O2"
_cell_formula_units_Z 16
_cell_length_a 30.574694
_cell_length_b 9.566240
_cell_length_c 14.887187
_cell_angle_alpha 134.939001
_cell_angle_beta 159.871136
_cell_angle_gamma 34.662512
_cell_volume 802.432015
_symmetry_space_group_name_H-M "P -1"
_symmetry_group_IT_number 2
_symmetry_cell_setting 'triclinic'
loop_
_space_group_symop_operation_xyz
x,y,z
-x,-y,-z
loop_
_atom_site_type_symbol
_atom_site_label
_atom_site_fract_x
_atom_site_fract_y
_atom_site_fract_z
Si Si1 0.809222 0.659966 0.671772
Si Si2 0.499105 0.180373 0.379599
Si Si3 0.689584 0.346255 0.261436
Si Si4 0.191322 0.735245 0.747484
Si Si5 0.336991 0.036837 0.665912
Si Si6 0.898569 0.578700 0.483405
Si Si7 0.479867 0.490107 0.313372
Si Si8 0.784446 0.816737 0.182554
O O1 0.763054 0.473268 0.502852
O O2 0.750394 0.785658 0.513342
O O3 0.691633 0.918658 0.624066
O O4 0.000000 0.500000 0.000000
O O5 0.458857 0.355978 0.294069
O O6 0.449688 0.377150 0.453354
O O7 0.399058 0.077828 0.143173
O O8 0.713300 0.348116 0.200664
O O9 0.788992 0.038158 0.324102
O O10 0.500000 0.500000 0.000000
O O11 0.177875 0.524568 0.656807
O O12 0.303587 0.722684 0.033637
O O13 0.000000 0.000000 0.500000
O O14 0.193916 0.155896 0.520162
O O15 0.409732 0.748227 0.650408
O O16 0.500000 0.000000 0.000000
O O17 0.839791 0.635142 0.293160
O O18 0.096799 0.350200 0.749006
#
# Coordination Sequence:
#
# PCOD9015524 Si02
#       8
#     2   2   2   2   2   2   2   2
#     4  11  24  41  68 102 137 177 224 285 344 404
#     4  10  21  42  63  92 139 173 216 274 344 410
#     4  12  25  41  68 100 136 177 227 282 343 400
#     4  12  23  40  67  99 126 173 231 273 328 406
#     4  11  20  41  70  93 123 178 237 275 316 416
#     4  11  22  39  67  94 130 169 234 280 320 399
#     4  10  22  38  67  92 123 177 223 264 336 409
#     4  11  23  41  64 100 134 174 223 285 340 397
#
# _framework density 19.939382999999999
#
# number of rings (size 3 to 8) (size 9 to 14) (size 15 to 20)
#    0.000    1.000    6.250    0.750    3.500    0.000 
#    6.750    2.500    0.000    0.000    0.000    0.000 
#    0.000    0.000    0.000    0.000    0.000    0.000 
#
# Total GULP energy -89098.632957 kJ/mol
# GULP energy per Si atom -5568.664560 kJ/mol
# Density = 1.989400 g / cm^3
# Si number density = 19.939383 Si / 1000 Ang^3
#
#
#
# Elastic Constant Matrix: (Units=GPa)
#
#
# Indices 1 2 3 4 5 6 
#
# 1 82.3751 30.2358 32.6010 -10.3965 20.8044 -16.2374
# 2 30.2358 91.2536 39.1696 3.9411 2.2536 -18.2580
# 3 32.6010 39.1696 97.4283 -12.0395 6.1039 -1.9184
# 4 -10.3965 3.9411 -12.0395 34.9785 -4.4740 2.0257
# 5 20.8044 2.2536 6.1039 -4.4740 25.6037 -3.0780
# 6 -16.2374 -18.2580 -1.9184 2.0257 -3.0780 40.7348
#
#
#
# Elastic Compliance Matrix: (Units=1/GPa)
#
#
# Indices 1 2 3 4 5 6 
#
# 1 0.019834 -0.003757 -0.003801 0.002967 -0.013777 0.004855
# 2 -0.003757 0.016036 -0.005862 -0.004912 0.002887 0.005877
# 3 -0.003801 -0.005862 0.014373 0.004763 0.000570 -0.003659
# 4 0.002967 -0.004912 0.004763 0.032077 0.002224 -0.002222
# 5 -0.013777 0.002887 0.000570 0.002224 0.050191 -0.000489
# 6 0.004855 0.005877 -0.003659 -0.002222 -0.000489 0.029019
#
#
# Mechanical properties :
#
#
# Convention : Reuss Voigt Hill
#
# Bulk Modulus (GPa) = 42.72879 52.78553 47.75716
# Shear Modulus (GPa) = 25.48789 31.53343 28.51066
#
# Velocity S-wave (km/s) = 3.57917 3.98108 3.78546
# Velocity P-wave (km/s) = 6.20938 6.90380 6.56578
#
# Compressibility (1/GPa) = 0.02340342
#
# Stress axis : x y z
#
# Youngs Moduli (GPa) = 50.41941 62.35921 69.57285
#
# Poissons Ratio (x) = 0.23426 0.26445
# Poissons Ratio (y) = 0.18941 0.40785
# Poissons Ratio (z) = 0.19164 0.36556
#
# Static dielectric constant tensor:
#      x y z
#    x 1.768000 -0.032730 -0.005280 
#    y -0.032730 1.820240 -0.032980 
#    z -0.005280 -0.032980 1.732920 
# 
# From -- ./inp_files/544846.got.cif
#   From: 2010.05.17/outbox.cif.g08.bks.cpg/sg2_273_cif.got.tgz:544846.got - 2010.06.03 11:33:40.
