data_PCOD9015808
_publ_section_title
;
Structure prediction by ZEFSAII (Michael W. Deem and Ramdas Pophale) SiO2 
 PCOD9015808
Probable space group: P -1
;
_chemical_formula_sum "Si O2"
_cell_formula_units_Z 14
_cell_length_a 18.073857
_cell_length_b 7.967892
_cell_length_c 16.874936
_cell_angle_alpha 63.234879
_cell_angle_beta 21.755746
_cell_angle_gamma 50.428285
_cell_volume 603.414047
_symmetry_space_group_name_H-M "P -1"
_symmetry_group_IT_number 2
_symmetry_cell_setting 'triclinic'
loop_
_space_group_symop_operation_xyz
x,y,z
-x,-y,-z
loop_
_atom_site_type_symbol
_atom_site_label
_atom_site_fract_x
_atom_site_fract_y
_atom_site_fract_z
Si Si1 0.225182 0.089180 0.144780
Si Si2 0.808026 0.342179 0.249298
Si Si3 0.190908 0.250161 0.755711
Si Si4 0.750713 0.910442 0.703828
Si Si5 0.772079 0.655857 0.468728
Si Si6 0.100966 0.605276 0.287472
Si Si7 0.762386 0.133143 0.984331
O O1 0.230304 0.005941 0.247299
O O2 0.937508 0.361200 0.365596
O O3 0.459171 0.102356 0.914789
O O4 0.275054 0.944506 0.046665
O O5 0.500000 0.500000 0.500000
O O6 0.825868 0.527239 0.240599
O O7 0.989346 0.255522 0.008587
O O8 0.952102 0.096009 0.213013
O O9 0.123561 0.293775 0.720661
O O10 0.500000 0.000000 0.500000
O O11 0.782092 0.663202 0.740532
O O12 0.988490 0.799541 0.430532
O O13 0.461153 0.805955 0.747202
O O14 0.849100 0.705830 0.463313
O O15 0.274733 0.626650 0.052989
#
# Coordination Sequence:
#
# PCOD9015808 Si02
#       7
#     2   2   2   2   2   2   2
#     4  10  21  42  65  90 133 166 216 272 312 393
#     4  11  27  44  67 103 132 171 226 273 327 400
#     4  11  24  45  71  93 135 180 209 275 340 390
#     4   9  20  44  64  93 131 175 216 261 335 385
#     4  11  23  44  64  96 131 171 219 263 332 394
#     4  10  23  40  67  94 131 174 211 275 322 383
#     4  12  24  42  65  98 131 167 222 273 324 388
#
# _framework density 23.201315000000001
#
# number of rings (size 3 to 8) (size 9 to 14) (size 15 to 20)
#    0.000    1.429    4.286    0.000    2.000    4.000 
#    7.714    0.000    0.000    0.000    0.000    0.000 
#    0.000    0.000    0.000    0.000    0.000    0.000 
#
# Total GULP energy -78144.856196 kJ/mol
# GULP energy per Si atom -5581.775443 kJ/mol
# Density = 2.314851 g / cm^3
# Si number density = 23.201315 Si / 1000 Ang^3
#
#
#
# Elastic Constant Matrix: (Units=GPa)
#
#
# Indices 1 2 3 4 5 6 
#
# 1 91.0692 19.4287 46.1916 2.2962 11.9118 -11.2031
# 2 19.4287 51.8588 23.3467 1.4668 1.2947 -3.3241
# 3 46.1916 23.3467 104.0213 10.8000 18.6110 -6.7062
# 4 2.2962 1.4668 10.8000 31.3683 -8.6405 0.4059
# 5 11.9118 1.2947 18.6110 -8.6405 39.5151 1.4237
# 6 -11.2031 -3.3241 -6.7062 0.4059 1.4237 22.4574
#
#
#
# Elastic Compliance Matrix: (Units=1/GPa)
#
#
# Indices 1 2 3 4 5 6 
#
# 1 0.015329 -0.002883 -0.005434 0.000224 -0.002125 0.005728
# 2 -0.002883 0.022202 -0.004241 0.001291 0.002407 0.000406
# 3 -0.005434 -0.004241 0.014959 -0.006431 -0.006735 0.001672
# 4 0.000224 0.001291 -0.006431 0.037125 0.011145 -0.002995
# 5 -0.002125 0.002407 -0.006735 0.011145 0.031655 -0.004923
# 6 0.005728 0.000406 0.001672 -0.002995 -0.004923 0.048312
#
#
# Mechanical properties :
#
#
# Convention : Reuss Voigt Hill
#
# Bulk Modulus (GPa) = 36.53153 47.20925 41.87039
# Shear Modulus (GPa) = 24.53129 29.20031 26.86580
#
# Velocity S-wave (km/s) = 3.25518 3.55147 3.40655
# Velocity P-wave (km/s) = 5.46881 6.09993 5.79297
#
# Compressibility (1/GPa) = 0.02737361
#
# Stress axis : x y z
#
# Youngs Moduli (GPa) = 65.23753 45.04090 66.85094
#
# Poissons Ratio (x) = 0.12984 0.36325
# Poissons Ratio (y) = 0.18806 0.28355
# Poissons Ratio (z) = 0.35448 0.19104
#
# Static dielectric constant tensor:
#      x y z
#    x 1.876530 -0.001760 0.019470 
#    y -0.001760 1.887950 -0.004840 
#    z 0.019470 -0.004840 1.921620 
# 
# From -- ./inp_files/575376.got.cif
#   From: 2010.05.17/outbox.cif.g08.bks.cpg/sg2_288_cif.got.tgz:575376.got - 2010.06.03 11:33:40.
