data_PCOD9015485
_publ_section_title
;
Structure prediction by ZEFSAII (Michael W. Deem and Ramdas Pophale) SiO2 
 PCOD9015485
Probable space group: P -1
;
_chemical_formula_sum "Si O2"
_cell_formula_units_Z 16
_cell_length_a 14.865510
_cell_length_b 10.477531
_cell_length_c 20.038901
_cell_angle_alpha 144.232434
_cell_angle_beta 23.421640
_cell_angle_gamma 130.893031
_cell_volume 668.675005
_symmetry_space_group_name_H-M "P -1"
_symmetry_group_IT_number 2
_symmetry_cell_setting 'triclinic'
loop_
_space_group_symop_operation_xyz
x,y,z
-x,-y,-z
loop_
_atom_site_type_symbol
_atom_site_label
_atom_site_fract_x
_atom_site_fract_y
_atom_site_fract_z
Si Si1 0.699110 0.543169 0.046199
Si Si2 0.864703 0.170148 0.227163
Si Si3 0.824373 0.801576 0.186455
Si Si4 0.551103 0.734219 0.826753
Si Si5 0.638067 0.484342 0.263971
Si Si6 0.948551 0.307918 0.584123
Si Si7 0.344204 0.234070 0.969257
Si Si8 0.848675 0.857524 0.474329
O O1 0.989427 0.373012 0.774633
O O2 0.688467 0.722519 0.186927
O O3 0.541966 0.390315 0.105071
O O4 0.606563 0.684030 0.101779
O O5 0.616379 0.389740 0.469469
O O6 0.773150 0.065140 0.309360
O O7 0.077587 0.233753 0.140400
O O8 0.000000 0.000000 0.000000
O O9 0.736053 0.691552 0.262692
O O10 0.120992 0.689824 0.936426
O O11 0.423024 0.665136 0.818993
O O12 0.839652 0.642576 0.576981
O O13 0.500000 0.000000 0.000000
O O14 0.040903 0.227523 0.563323
O O15 0.908754 0.071487 0.490987
O O16 0.707261 0.548576 0.852829
O O17 0.556203 0.983052 0.734869
#
# Coordination Sequence:
#
# PCOD9015485 Si02
#       8
#     2   2   2   2   2   2   2   2
#     4  10  22  40  62  92 128 162 204 259 308 368
#     4  12  24  39  63  95 127 160 206 257 303 370
#     4  10  23  42  65  90 124 171 205 252 313 366
#     4  11  21  42  68  90 123 163 208 262 312 362
#     4  10  24  44  65  90 127 165 210 255 311 369
#     4  10  21  42  63  89 123 164 207 262 309 364
#     4  11  23  40  60  94 126 164 206 252 314 371
#     4  10  22  39  65  88 125 165 205 255 314 370
#
# _framework density 23.927916
#
# number of rings (size 3 to 8) (size 9 to 14) (size 15 to 20)
#    0.000    1.500    3.750    0.750    3.500    0.500 
#    0.000    1.875    0.000    0.000    0.000    0.000 
#    0.000    0.000    0.000    0.000    0.000    0.000 
#
# Total GULP energy -89182.942569 kJ/mol
# GULP energy per Si atom -5573.933911 kJ/mol
# Density = 2.387346 g / cm^3
# Si number density = 23.927916 Si / 1000 Ang^3
#
#
#
# Elastic Constant Matrix: (Units=GPa)
#
#
# Indices 1 2 3 4 5 6 
#
# 1 33.0843 2.9894 16.0312 5.9968 -6.3266 6.3384
# 2 2.9894 98.0437 15.0815 -11.9458 -8.1149 8.1056
# 3 16.0312 15.0815 104.6117 -18.6635 -14.0548 0.6503
# 4 5.9968 -11.9458 -18.6635 27.7267 5.9678 -6.5692
# 5 -6.3266 -8.1149 -14.0548 5.9678 32.1626 -2.2735
# 6 6.3384 8.1056 0.6503 -6.5692 -2.2735 28.5079
#
#
#
# Elastic Compliance Matrix: (Units=1/GPa)
#
#
# Indices 1 2 3 4 5 6 
#
# 1 0.042033 -0.000694 -0.008880 -0.019949 0.006997 -0.012985
# 2 -0.000694 0.011059 -0.000606 0.003697 0.001562 -0.002000
# 3 -0.008880 -0.000606 0.013268 0.011219 0.002142 0.004600
# 4 -0.019949 0.003697 0.011219 0.054657 -0.007159 0.015152
# 5 0.006997 0.001562 0.002142 -0.007159 0.035063 -0.000902
# 6 -0.012985 -0.002000 0.004600 0.015152 -0.000902 0.041848
#
#
# Mechanical properties :
#
#
# Convention : Reuss Voigt Hill
#
# Bulk Modulus (GPa) = 21.73895 33.77154 27.75524
# Shear Modulus (GPa) = 21.40225 31.12194 26.26210
#
# Velocity S-wave (km/s) = 2.99398 3.61037 3.31652
# Velocity P-wave (km/s) = 4.58876 5.61464 5.12742
#
# Compressibility (1/GPa) = 0.04600039
#
# Stress axis : x y z
#
# Youngs Moduli (GPa) = 23.79100 90.42450 75.36889
#
# Poissons Ratio (x) = 0.06273 0.66925
# Poissons Ratio (y) = 0.01651 0.04569
# Poissons Ratio (z) = 0.21126 0.05482
#
# Static dielectric constant tensor:
#      x y z
#    x 1.905540 -0.001220 0.043150 
#    y -0.001220 2.056370 0.024800 
#    z 0.043150 0.024800 1.996700 
# 
# From -- ./inp_files/273252.got.cif
#   From: 2010.05.17/outbox.cif.g08.bks.cpg/sg2_137_cif.got.tgz:273252.got - 2010.06.03 11:33:40.
