data_PCOD9015926
_publ_section_title
;
Structure prediction by ZEFSAII (Michael W. Deem and Ramdas Pophale) SiO2 
 PCOD9015926
Probable space group: P -1
;
_chemical_formula_sum "Si O2"
_cell_formula_units_Z 16
_cell_length_a 8.314187
_cell_length_b 9.304680
_cell_length_c 24.046970
_cell_angle_alpha 149.396957
_cell_angle_beta 126.142825
_cell_angle_gamma 64.322306
_cell_volume 752.182886
_symmetry_space_group_name_H-M "P -1"
_symmetry_group_IT_number 2
_symmetry_cell_setting 'triclinic'
loop_
_space_group_symop_operation_xyz
x,y,z
-x,-y,-z
loop_
_atom_site_type_symbol
_atom_site_label
_atom_site_fract_x
_atom_site_fract_y
_atom_site_fract_z
Si Si1 0.887188 0.109761 0.822343
Si Si2 0.276555 0.834847 0.413192
Si Si3 0.285399 0.372391 0.057364
Si Si4 0.561492 0.189269 0.966587
Si Si5 0.955651 0.225878 0.441273
Si Si6 0.701479 0.459311 0.561521
Si Si7 0.807270 0.732241 0.868379
Si Si8 0.810021 0.755398 0.169854
O O1 0.716049 0.305799 0.858188
O O2 0.988947 0.170643 0.802183
O O3 0.803154 0.781483 0.704778
O O4 0.071454 0.206442 0.934380
O O5 0.301494 0.727821 0.445666
O O6 0.193003 0.547632 0.263291
O O7 0.500000 0.000000 0.500000
O O8 0.134734 0.069769 0.449000
O O9 0.260210 0.364596 0.115239
O O10 0.471613 0.242922 0.027025
O O11 0.374601 0.221639 0.900533
O O12 0.624430 0.890525 0.865602
O O13 0.754723 0.435388 0.075399
O O14 0.840291 0.328078 0.503203
O O15 0.000000 0.500000 0.500000
O O16 0.820184 0.978257 0.295417
O O17 0.500000 0.500000 0.500000
O O18 0.000000 0.000000 0.000000
#
# Coordination Sequence:
#
# PCOD9015926 Si02
#       8
#     2   2   2   2   2   2   2   2
#     4  10  21  42  65  98 136 177 228 286 348 423
#     4  12  30  48  71 109 147 189 244 305 354 436
#     4  10  22  39  67  99 135 177 230 290 348 419
#     4  10  23  39  67 103 134 178 233 294 351 424
#     4  12  25  47  75  99 142 189 240 289 369 421
#     4  12  28  45  73 103 142 191 244 288 366 427
#     4  12  25  44  70  96 144 185 238 287 368 413
#     4  10  22  41  68 101 135 180 232 290 354 427
#
# _framework density 21.271422999999999
#
# number of rings (size 3 to 8) (size 9 to 14) (size 15 to 20)
#    0.000    1.000    1.250    4.500    7.000    3.000 
#    0.000    2.500    0.000    0.000    0.000    0.000 
#    0.000    0.000    0.000    0.000    0.000    0.000 
#
# Total GULP energy -89352.668304 kJ/mol
# GULP energy per Si atom -5584.541769 kJ/mol
# Density = 2.122301 g / cm^3
# Si number density = 21.271423 Si / 1000 Ang^3
#
#
#
# Elastic Constant Matrix: (Units=GPa)
#
#
# Indices 1 2 3 4 5 6 
#
# 1 97.7178 78.0991 31.4794 9.3290 -4.3782 -1.3648
# 2 78.0991 152.3319 61.8917 22.2821 -7.3890 8.4226
# 3 31.4794 61.8917 93.4699 14.9318 -8.0613 0.4556
# 4 9.3290 22.2821 14.9318 32.2812 2.5405 -17.1484
# 5 -4.3782 -7.3890 -8.0613 2.5405 27.5360 7.7790
# 6 -1.3648 8.4226 0.4556 -17.1484 7.7790 38.2609
#
#
#
# Elastic Compliance Matrix: (Units=1/GPa)
#
#
# Indices 1 2 3 4 5 6 
#
# 1 0.018064 -0.010321 -0.000289 0.005217 -0.002067 0.005678
# 2 -0.010321 0.016489 -0.005003 -0.012050 0.005378 -0.010433
# 3 -0.000289 -0.005003 0.015281 -0.005023 0.004167 -0.002189
# 4 0.005217 -0.012050 -0.005023 0.059259 -0.018740 0.033268
# 5 -0.002067 0.005378 0.004167 -0.018740 0.045749 -0.019008
# 6 0.005678 -0.010433 -0.002189 0.033268 -0.019008 0.047437
#
#
# Mechanical properties :
#
#
# Convention : Reuss Voigt Hill
#
# Bulk Modulus (GPa) = 53.73794 76.27334 65.00564
# Shear Modulus (GPa) = 20.85873 31.08559 25.97216
#
# Velocity S-wave (km/s) = 3.13485 3.82694 3.49806
# Velocity P-wave (km/s) = 6.19846 7.44731 6.85139
#
# Compressibility (1/GPa) = 0.01860883
#
# Stress axis : x y z
#
# Youngs Moduli (GPa) = 55.35729 60.64578 65.44148
#
# Poissons Ratio (x) = 0.62595 0.01890
# Poissons Ratio (y) = 0.57137 0.32738
# Poissons Ratio (z) = 0.01599 0.30339
#
# Static dielectric constant tensor:
#      x y z
#    x 1.771730 0.008340 0.016130 
#    y 0.008340 1.842660 0.003710 
#    z 0.016130 0.003710 1.722170 
# 
# From -- ./inp_files/316171.got.cif
#   From: 2010.05.17/outbox.cif.g08.bks.cpg/sg2_159_cif.got.tgz:316171.got - 2010.06.03 11:33:40.
