data_PCOD9015656
_publ_section_title
;
Structure prediction by ZEFSAII (Michael W. Deem and Ramdas Pophale) SiO2 
 PCOD9015656
Probable space group: P -1
;
_chemical_formula_sum "Si O2"
_cell_formula_units_Z 16
_cell_length_a 11.711948
_cell_length_b 15.954075
_cell_length_c 10.196662
_cell_angle_alpha 62.882371
_cell_angle_beta 76.652978
_cell_angle_gamma 28.793212
_cell_volume 750.969463
_symmetry_space_group_name_H-M "P -1"
_symmetry_group_IT_number 2
_symmetry_cell_setting 'triclinic'
loop_
_space_group_symop_operation_xyz
x,y,z
-x,-y,-z
loop_
_atom_site_type_symbol
_atom_site_label
_atom_site_fract_x
_atom_site_fract_y
_atom_site_fract_z
Si Si1 0.815551 0.850864 0.922957
Si Si2 0.128623 0.343179 0.427571
Si Si3 0.775250 0.760574 0.240943
Si Si4 0.820809 0.056478 0.731510
Si Si5 0.472544 0.580697 0.320043
Si Si6 0.584138 0.374738 0.188942
Si Si7 0.016511 0.263763 0.329940
Si Si8 0.433774 0.809122 0.562907
O O1 0.980995 0.726706 0.834867
O O2 0.532651 0.014703 0.842536
O O3 0.796127 0.974887 0.869577
O O4 0.893711 0.739433 0.110720
O O5 0.132669 0.283475 0.605459
O O6 0.157489 0.251867 0.365872
O O7 0.344443 0.270303 0.434850
O O8 0.864920 0.589907 0.311374
O O9 0.764999 0.180765 0.756786
O O10 0.617801 0.198171 0.562974
O O11 0.104628 0.855265 0.736044
O O12 0.500000 0.500000 0.500000
O O13 0.475140 0.509196 0.246822
O O14 0.727972 0.461429 0.317338
O O15 0.510306 0.317336 0.264343
O O16 0.500000 0.500000 0.000000
O O17 0.174023 0.056988 0.475492
#
# Coordination Sequence:
#
# PCOD9015656 Si02
#       8
#     2   2   2   2   2   2   2   2
#     4  10  21  42  64  91 139 180 217 276 341 395
#     4  11  23  39  65 103 134 177 232 271 336 407
#     4  10  22  38  62  94 135 182 215 275 336 396
#     4  11  22  45  71  98 132 183 228 275 342 417
#     4  12  24  43  76 100 131 186 235 277 341 414
#     4  12  27  47  70 103 140 172 231 294 344 395
#     4  11  23  41  69 102 135 179 233 278 332 412
#     4  11  22  43  70  94 139 186 217 280 340 403
#
# _framework density 21.305793000000001
#
# number of rings (size 3 to 8) (size 9 to 14) (size 15 to 20)
#    0.000    1.000    6.250    2.250    3.500    1.000 
#    2.250    0.000    0.000    0.000    0.000    0.000 
#    0.000    0.000    0.000    0.000    0.000    0.000 
#
# Total GULP energy -89366.098708 kJ/mol
# GULP energy per Si atom -5585.381169 kJ/mol
# Density = 2.125730 g / cm^3
# Si number density = 21.305793 Si / 1000 Ang^3
#
#
#
# Elastic Constant Matrix: (Units=GPa)
#
#
# Indices 1 2 3 4 5 6 
#
# 1 68.4995 13.8055 32.7457 9.9785 -8.5610 7.8546
# 2 13.8055 74.4396 14.4904 19.4509 2.6034 11.9030
# 3 32.7457 14.4904 130.7761 21.4159 -32.1456 4.7941
# 4 9.9785 19.4509 21.4159 23.4368 -3.3959 5.2771
# 5 -8.5610 2.6034 -32.1456 -3.3959 23.2648 1.0566
# 6 7.8546 11.9030 4.7941 5.2771 1.0566 38.6092
#
#
#
# Elastic Compliance Matrix: (Units=1/GPa)
#
#
# Indices 1 2 3 4 5 6 
#
# 1 0.017313 -0.001694 -0.003242 -0.002204 0.001866 -0.002347
# 2 -0.001694 0.018177 -0.000460 -0.013988 -0.005192 -0.003148
# 3 -0.003242 -0.000460 0.014149 -0.008625 0.017161 -0.000246
# 4 -0.002204 -0.013988 -0.008625 0.063469 -0.001772 -0.002795
# 5 0.001866 -0.005192 0.017161 -0.001772 0.067819 -0.002524
# 6 -0.002347 -0.003148 -0.000246 -0.002795 -0.002524 0.027830
#
#
# Mechanical properties :
#
#
# Convention : Reuss Voigt Hill
#
# Bulk Modulus (GPa) = 25.74111 43.97759 34.85935
# Shear Modulus (GPa) = 21.50552 31.24040 26.37296
#
# Velocity S-wave (km/s) = 3.18051 3.83337 3.52210
# Velocity P-wave (km/s) = 5.05920 6.34656 5.73909
#
# Compressibility (1/GPa) = 0.03884836
#
# Stress axis : x y z
#
# Youngs Moduli (GPa) = 57.75943 55.01352 70.67597
#
# Poissons Ratio (x) = 0.09318 0.22911
# Poissons Ratio (y) = 0.09783 0.03252
# Poissons Ratio (z) = 0.18724 0.02532
#
# Static dielectric constant tensor:
#      x y z
#    x 1.821450 -0.009710 0.005300 
#    y -0.009710 1.809880 -0.021300 
#    z 0.005300 -0.021300 1.774550 
# 
# From -- ./inp_files/272498.got.cif
#   From: 2010.05.17/outbox.cif.g08.bks.cpg/sg2_137_cif.got.tgz:272498.got - 2010.06.03 11:33:40.
