data_PCOD9015139
_publ_section_title
;
Structure prediction by ZEFSAII (Michael W. Deem and Ramdas Pophale) SiO2 
 PCOD9015139
Probable space group: P -1
;
_chemical_formula_sum "Si O2"
_cell_formula_units_Z 13
_cell_length_a 11.186565
_cell_length_b 11.658383
_cell_length_c 7.145260
_cell_angle_alpha 108.864964
_cell_angle_beta 114.269679
_cell_angle_gamma 122.075292
_cell_volume 513.251395
_symmetry_space_group_name_H-M "P -1"
_symmetry_group_IT_number 2
_symmetry_cell_setting 'triclinic'
loop_
_space_group_symop_operation_xyz
x,y,z
-x,-y,-z
loop_
_atom_site_type_symbol
_atom_site_label
_atom_site_fract_x
_atom_site_fract_y
_atom_site_fract_z
Si Si1 0.580805 0.333634 0.278387
Si Si2 0.977097 0.374622 0.147816
Si Si3 0.000000 0.000000 0.500000
Si Si4 0.361170 0.675969 0.135921
Si Si5 0.710752 0.076737 0.146467
Si Si6 0.799837 0.055201 0.599307
Si Si7 0.601790 0.566275 0.897064
O O1 0.617381 0.334235 0.079556
O O2 0.376007 0.113521 0.085131
O O3 0.784960 0.432271 0.561237
O O4 0.538074 0.445850 0.326705
O O5 0.868148 0.256792 0.210461
O O6 0.184338 0.878817 0.565597
O O7 0.844312 0.393900 0.002511
O O8 0.938406 0.231093 0.917379
O O9 0.158848 0.056767 0.471595
O O10 0.819806 0.787031 0.180198
O O11 0.371632 0.556747 0.187915
O O12 0.563202 0.897986 0.429041
O O13 0.500000 0.000000 0.000000
O O14 0.500000 0.500000 0.000000
#
# Coordination Sequence:
#
# PCOD9015139 Si02
#       7
#     2   2   1   2   2   2   2
#     4  10  22  42  67 109 139 188 239 283 360 428
#     4  12  25  45  73 108 146 181 236 304 355 415
#     4  12  22  46  72  98 138 196 234 282 364 422
#     4  10  21  43  73 100 143 187 230 292 358 417
#     4  11  23  43  72 100 145 187 228 291 360 417
#     4  11  25  45  72 107 139 190 242 287 359 431
#     4  10  21  41  71  98 138 191 236 280 354 426
#
# _framework density 25.328717999999999
#
# number of rings (size 3 to 8) (size 9 to 14) (size 15 to 20)
#    0.000    1.231    7.692    0.923    4.308    0.000 
#    2.769    5.385    0.000    0.000    0.000    0.000 
#    0.000    0.000    0.000    0.000    0.000    0.000 
#
# Total GULP energy -72587.294284 kJ/mol
# GULP energy per Si atom -5583.638022 kJ/mol
# Density = 2.527107 g / cm^3
# Si number density = 25.328718 Si / 1000 Ang^3
#
#
#
# Elastic Constant Matrix: (Units=GPa)
#
#
# Indices 1 2 3 4 5 6 
#
# 1 68.9329 14.1453 -6.0562 15.4104 -3.7505 -3.6475
# 2 14.1453 89.5312 11.0262 6.0696 5.5858 -13.8223
# 3 -6.0562 11.0262 68.5566 3.3409 8.2643 4.3933
# 4 15.4104 6.0696 3.3409 29.4188 -0.5487 -9.3579
# 5 -3.7505 5.5858 8.2643 -0.5487 46.8343 6.4909
# 6 -3.6475 -13.8223 4.3933 -9.3579 6.4909 39.5280
#
#
#
# Elastic Compliance Matrix: (Units=1/GPa)
#
#
# Indices 1 2 3 4 5 6 
#
# 1 0.017377 -0.002824 0.002407 -0.009444 0.001488 -0.002131
# 2 -0.002824 0.012757 -0.002409 0.000659 -0.002001 0.004953
# 3 0.002407 -0.002409 0.015777 -0.003509 -0.001945 -0.002885
# 4 -0.009444 0.000659 -0.003509 0.042347 -0.001099 0.009955
# 5 0.001488 -0.002001 -0.001945 -0.001099 0.022639 -0.004324
# 6 -0.002131 0.004953 -0.002885 0.009955 -0.004324 0.030221
#
#
# Mechanical properties :
#
#
# Convention : Reuss Voigt Hill
#
# Bulk Modulus (GPa) = 24.83966 29.47237 27.15601
# Shear Modulus (GPa) = 31.21270 37.01658 34.11464
#
# Velocity S-wave (km/s) = 3.51423 3.82704 3.67396
# Velocity P-wave (km/s) = 5.12783 5.58475 5.36116
#
# Compressibility (1/GPa) = 0.04025819
#
# Stress axis : x y z
#
# Youngs Moduli (GPa) = 57.54707 78.38872 63.38336
#
# Poissons Ratio (x) = 0.22133 -0.15254
# Poissons Ratio (y) = 0.16249 0.15272
# Poissons Ratio (z) = -0.13849 0.18887
#
# Static dielectric constant tensor:
#      x y z
#    x 2.136750 -0.043130 0.021030 
#    y -0.043130 2.062830 0.033300 
#    z 0.021030 0.033300 2.044090 
# 
# From -- ./inp_files/422276.got.cif
#   From: 2010.05.17/outbox.cif.g08.bks.cpg/sg2_212_cif.got.tgz:422276.got - 2010.06.03 11:33:40.
