data_PCOD9015765
_publ_section_title
;
Structure prediction by ZEFSAII (Michael W. Deem and Ramdas Pophale) SiO2 
 PCOD9015765
Probable space group: P -1
;
_chemical_formula_sum "Si O2"
_cell_formula_units_Z 15
_cell_length_a 17.854914
_cell_length_b 11.995375
_cell_length_c 5.146486
_cell_angle_alpha 45.720720
_cell_angle_beta 116.480344
_cell_angle_gamma 124.999173
_cell_volume 644.499922
_symmetry_space_group_name_H-M "P -1"
_symmetry_group_IT_number 2
_symmetry_cell_setting 'triclinic'
loop_
_space_group_symop_operation_xyz
x,y,z
-x,-y,-z
loop_
_atom_site_type_symbol
_atom_site_label
_atom_site_fract_x
_atom_site_fract_y
_atom_site_fract_z
Si Si1 0.476811 0.084628 0.570482
Si Si2 0.884279 0.362453 0.317923
Si Si3 0.695263 0.847679 0.236432
Si Si4 0.913708 0.588612 0.483331
Si Si5 0.500000 0.500000 0.500000
Si Si6 0.293186 0.887695 0.801200
Si Si7 0.377293 0.616882 0.477213
Si Si8 0.226499 0.257045 0.970643
O O1 0.541987 0.283070 0.356470
O O2 0.500000 0.000000 0.500000
O O3 0.370266 0.038402 0.509443
O O4 0.500000 0.000000 0.000000
O O5 0.866562 0.442552 0.427609
O O6 0.803259 0.193871 0.358047
O O7 0.978459 0.338330 0.533467
O O8 0.900058 0.500976 0.887504
O O9 0.590693 0.700884 0.322932
O O10 0.751822 0.829287 0.107444
O O11 0.700874 0.033201 0.031609
O O12 0.751081 0.818182 0.614375
O O13 0.869356 0.724917 0.196625
O O14 0.430995 0.570876 0.409545
O O15 0.327687 0.735588 0.116344
O O16 0.302529 0.450937 0.757019
#
# Coordination Sequence:
#
# PCOD9015765 Si02
#       8
#     2   2   2   2   1   2   2   2
#     4  10  23  37  58  90 124 162 209 259 314 371
#     4  10  22  38  71  98 131 162 221 273 321 393
#     4  11  26  42  64  93 136 172 221 265 327 385
#     4  10  21  42  65 102 127 169 214 271 331 389
#     4  10  22  44  58  96 124 178 214 264 312 392
#     4  11  23  45  65 100 127 175 217 277 321 386
#     4  10  22  41  67  90 129 171 219 266 320 381
#     4  11  24  43  66  93 132 175 215 268 328 393
#
# _framework density 23.273855999999999
#
# number of rings (size 3 to 8) (size 9 to 14) (size 15 to 20)
#    0.000    1.600    2.667    0.800    3.733    7.467 
#    2.400    1.333    0.000    0.000    0.000    0.000 
#    0.000    0.000    0.000    0.000    0.000    0.000 
#
# Total GULP energy -83710.699885 kJ/mol
# GULP energy per Si atom -5580.713326 kJ/mol
# Density = 2.322088 g / cm^3
# Si number density = 23.273856 Si / 1000 Ang^3
#
#
#
# Elastic Constant Matrix: (Units=GPa)
#
#
# Indices 1 2 3 4 5 6 
#
# 1 121.8163 51.0349 34.8108 9.4309 29.5448 -22.5372
# 2 51.0349 149.5915 16.2879 8.2090 13.0000 -13.2297
# 3 34.8108 16.2879 56.2044 18.6013 9.2333 -25.6254
# 4 9.4309 8.2090 18.6013 33.4529 -6.9425 2.3972
# 5 29.5448 13.0000 9.2333 -6.9425 33.3074 2.6954
# 6 -22.5372 -13.2297 -25.6254 2.3972 2.6954 45.3407
#
#
#
# Elastic Compliance Matrix: (Units=1/GPa)
#
#
# Indices 1 2 3 4 5 6 
#
# 1 0.014748 -0.002755 -0.000482 -0.006621 -0.013855 0.007428
# 2 -0.002755 0.007928 0.001384 -0.002432 -0.001700 0.001956
# 3 -0.000482 0.001384 0.044370 -0.031296 -0.021215 0.028157
# 4 -0.006621 -0.002432 -0.031296 0.057820 0.029695 -0.026511
# 5 -0.013855 -0.001700 -0.021215 0.029695 0.057016 -0.024332
# 6 0.007428 0.001956 0.028157 -0.026511 -0.024332 0.045080
#
#
# Mechanical properties :
#
#
# Convention : Reuss Voigt Hill
#
# Bulk Modulus (GPa) = 15.78736 59.09769 37.44253
# Shear Modulus (GPa) = 19.85860 37.45211 28.65535
#
# Velocity S-wave (km/s) = 2.92423 4.01583 3.51269
# Velocity P-wave (km/s) = 4.26609 6.85200 5.70743
#
# Compressibility (1/GPa) = 0.06334180
#
# Stress axis : x y z
#
# Youngs Moduli (GPa) = 67.80591 126.13418 22.53784
#
# Poissons Ratio (x) = 0.34746 0.01086
# Poissons Ratio (y) = 0.18678 -0.03120
# Poissons Ratio (z) = 0.03267 -0.17463
#
# Static dielectric constant tensor:
#      x y z
#    x 1.869530 0.024860 -0.074600 
#    y 0.024860 1.929130 0.047770 
#    z -0.074600 0.047770 2.580200 
# 
# From -- ./inp_files/108799.got.cif
#   From: 2010.05.17/outbox.cif.g08.bks.cpg/sg2_55_cif.got.tgz:108799.got - 2010.06.03 11:33:40.
