data_PCOD9015597
_publ_section_title
;
Structure prediction by ZEFSAII (Michael W. Deem and Ramdas Pophale) SiO2 
 PCOD9015597
Probable space group: P -1
;
_chemical_formula_sum "Si O2"
_cell_formula_units_Z 10
_cell_length_a 8.037145
_cell_length_b 5.132229
_cell_length_c 20.703946
_cell_angle_alpha 74.950781
_cell_angle_beta 147.490987
_cell_angle_gamma 117.711005
_cell_volume 390.254747
_symmetry_space_group_name_H-M "P -1"
_symmetry_group_IT_number 2
_symmetry_cell_setting 'triclinic'
loop_
_space_group_symop_operation_xyz
x,y,z
-x,-y,-z
loop_
_atom_site_type_symbol
_atom_site_label
_atom_site_fract_x
_atom_site_fract_y
_atom_site_fract_z
Si Si1 0.723343 0.461282 0.742792
Si Si2 0.786703 0.144788 0.009263
Si Si3 0.430492 0.984683 0.779778
Si Si4 0.657180 0.778561 0.583136
Si Si5 0.635812 0.514851 0.127603
O O1 0.479084 0.134930 0.716724
O O2 0.572954 0.631289 0.636402
O O3 0.996983 0.416835 0.788427
O O4 0.910982 0.681582 0.851486
O O5 0.775589 0.190448 0.924567
O O6 0.481149 0.227531 0.924597
O O7 0.348370 0.218939 0.012976
O O8 0.386599 0.644923 0.799083
O O9 0.076709 0.955123 0.697626
O O10 0.500000 0.500000 0.500000
O O11 0.500000 0.000000 0.500000
#
# Coordination Sequence:
#
# PCOD9015597 Si02
#       5
#     2   2   2   2   2
#     4  11  22  43  70  98 129 174 207 269 326 381
#     4  10  21  42  64 103 137 162 204 261 331 397
#     4   9  24  42  69 100 130 164 214 267 324 388
#     4  11  28  48  65  90 129 172 227 271 308 372
#     4   9  22  38  60  98 143 162 202 250 319 399
#
# _framework density 25.624286000000001
#
# number of rings (size 3 to 8) (size 9 to 14) (size 15 to 20)
#    1.200    0.800    0.000    1.800    5.600    4.000 
#    7.200    0.000    0.000    0.000    0.000    0.000 
#    0.000    0.000    0.000    0.000    0.000    0.000 
#
# Total GULP energy -55891.259214 kJ/mol
# GULP energy per Si atom -5589.125921 kJ/mol
# Density = 2.556596 g / cm^3
# Si number density = 25.624286 Si / 1000 Ang^3
#
#
#
# Elastic Constant Matrix: (Units=GPa)
#
#
# Indices 1 2 3 4 5 6 
#
# 1 102.3141 61.0711 25.2286 -18.7446 -12.2347 19.2868
# 2 61.0711 154.1693 61.5570 -28.2083 -10.5896 2.8976
# 3 25.2286 61.5570 122.9548 -21.1094 -21.6523 2.1740
# 4 -18.7446 -28.2083 -21.1094 53.4987 -1.0633 -13.8688
# 5 -12.2347 -10.5896 -21.6523 -1.0633 33.0221 -18.4816
# 6 19.2868 2.8976 2.1740 -13.8688 -18.4816 66.1316
#
#
#
# Elastic Compliance Matrix: (Units=1/GPa)
#
#
# Indices 1 2 3 4 5 6 
#
# 1 0.013846 -0.005170 0.000466 0.001610 0.002225 -0.002868
# 2 -0.005170 0.010497 -0.003752 0.002699 0.000059 0.001754
# 3 0.000466 -0.003752 0.012034 0.003838 0.008569 0.002832
# 4 0.001610 0.002699 0.003838 0.024105 0.008516 0.006721
# 5 0.002225 0.000059 0.008569 0.008516 0.044448 0.013275
# 6 -0.002868 0.001754 0.002832 0.006721 0.013275 0.020907
#
#
# Mechanical properties :
#
#
# Convention : Reuss Voigt Hill
#
# Bulk Modulus (GPa) = 51.37139 75.01685 63.19412
# Shear Modulus (GPa) = 33.50376 45.96926 39.73651
#
# Velocity S-wave (km/s) = 3.61986 4.24013 3.94221
# Velocity P-wave (km/s) = 6.12884 7.30142 6.74068
#
# Compressibility (1/GPa) = 0.01946609
#
# Stress axis : x y z
#
# Youngs Moduli (GPa) = 72.22160 95.26328 83.10111
#
# Poissons Ratio (x) = 0.49248 -0.03873
# Poissons Ratio (y) = 0.37336 0.31178
# Poissons Ratio (z) = -0.03366 0.35742
#
# Static dielectric constant tensor:
#      x y z
#    x 2.064070 0.069780 -0.037510 
#    y 0.069780 2.068060 0.002960 
#    z -0.037510 0.002960 2.072350 
# 
# From -- ./inp_files/374063.got.cif
#   From: 2010.05.17/outbox.cif.g08.bks.cpg/sg2_188_cif.got.tgz:374063.got - 2010.06.03 11:33:40.
