data_PCOD9015693
_publ_section_title
;
Structure prediction by ZEFSAII (Michael W. Deem and Ramdas Pophale) SiO2 
 PCOD9015693
Probable space group: P -1
;
_chemical_formula_sum "Si O2"
_cell_formula_units_Z 16
_cell_length_a 12.544473
_cell_length_b 9.277373
_cell_length_c 10.111033
_cell_angle_alpha 36.588154
_cell_angle_beta 83.708155
_cell_angle_gamma 91.610733
_cell_volume 683.651286
_symmetry_space_group_name_H-M "P -1"
_symmetry_group_IT_number 2
_symmetry_cell_setting 'triclinic'
loop_
_space_group_symop_operation_xyz
x,y,z
-x,-y,-z
loop_
_atom_site_type_symbol
_atom_site_label
_atom_site_fract_x
_atom_site_fract_y
_atom_site_fract_z
Si Si1 0.957440 0.173182 0.483146
Si Si2 0.206900 0.555659 0.799888
Si Si3 0.670149 0.616517 0.643198
Si Si4 0.848061 0.397095 0.923292
Si Si5 0.588638 0.752731 0.290734
Si Si6 0.618585 0.017424 0.536872
Si Si7 0.023166 0.106760 0.063046
Si Si8 0.539603 0.799640 0.977777
O O1 0.843738 0.218111 0.413959
O O2 0.047346 0.417135 0.281715
O O3 0.000000 0.000000 0.500000
O O4 0.948658 0.089627 0.694521
O O5 0.332891 0.688896 0.668951
O O6 0.131216 0.326405 0.904372
O O7 0.181542 0.529027 0.979319
O O8 0.751500 0.439252 0.808860
O O9 0.674878 0.702923 0.425628
O O10 0.683726 0.869810 0.536915
O O11 0.550945 0.451567 0.817123
O O12 0.905759 0.161294 0.091642
O O13 0.500000 0.500000 0.500000
O O14 0.529406 0.978597 0.169749
O O15 0.615211 0.803657 0.094963
O O16 0.500000 0.000000 0.500000
O O17 0.606402 0.861788 0.788874
O O18 0.000000 0.000000 0.000000
#
# Coordination Sequence:
#
# PCOD9015693 Si02
#       8
#     2   2   2   2   2   2   2   2
#     4  11  19  43  73  97 132 177 224 280 346 419
#     4  11  24  42  70 106 136 184 234 276 351 421
#     4  11  23  40  70  99 133 181 239 284 338 417
#     4  11  23  40  73 105 133 177 232 278 348 427
#     4   9  20  41  64  88 132 184 233 274 348 406
#     4  12  24  42  70 100 142 180 238 292 333 396
#     4  11  25  47  75 104 141 173 223 297 352 415
#     4  10  21  42  64  94 136 189 232 286 341 398
#
# _framework density 23.403744
#
# number of rings (size 3 to 8) (size 9 to 14) (size 15 to 20)
#    0.000    1.250    3.750    2.625    0.000    2.000 
#    0.000   10.000    0.000    0.000    0.000    0.000 
#    0.000    0.000    0.000    0.000    0.000    0.000 
#
# Total GULP energy -89294.981926 kJ/mol
# GULP energy per Si atom -5580.936370 kJ/mol
# Density = 2.335048 g / cm^3
# Si number density = 23.403744 Si / 1000 Ang^3
#
#
#
# Elastic Constant Matrix: (Units=GPa)
#
#
# Indices 1 2 3 4 5 6 
#
# 1 105.8721 21.9341 33.4980 9.3239 8.1774 22.9518
# 2 21.9341 76.7271 36.5398 21.3755 3.0010 29.7964
# 3 33.4980 36.5398 122.6959 26.0098 13.1714 34.1007
# 4 9.3239 21.3755 26.0098 40.6943 11.2600 14.4788
# 5 8.1774 3.0010 13.1714 11.2600 42.0882 -0.5929
# 6 22.9518 29.7964 34.1007 14.4788 -0.5929 29.3871
#
#
#
# Elastic Compliance Matrix: (Units=1/GPa)
#
#
# Indices 1 2 3 4 5 6 
#
# 1 0.011735 0.000324 -0.000724 0.001750 -0.002680 -0.009569
# 2 0.000324 0.022165 0.000048 -0.004124 -0.000847 -0.020767
# 3 -0.000724 0.000048 0.012932 -0.002412 -0.003453 -0.013370
# 4 0.001750 -0.004124 -0.002412 0.034361 -0.008646 -0.011490
# 5 -0.002680 -0.000847 -0.003453 -0.008646 0.027900 0.011781
# 6 -0.009569 -0.020767 -0.013370 -0.011490 0.011781 0.083972
#
#
# Mechanical properties :
#
#
# Convention : Reuss Voigt Hill
#
# Bulk Modulus (GPa) = 21.67990 54.35986 38.01988
# Shear Modulus (GPa) = 23.90698 36.65547 30.28122
#
# Velocity S-wave (km/s) = 3.19956 3.96185 3.60093
# Velocity P-wave (km/s) = 4.78886 6.64874 5.79391
#
# Compressibility (1/GPa) = 0.04612568
#
# Stress axis : x y z
#
# Youngs Moduli (GPa) = 85.21713 45.11690 77.33035
#
# Poissons Ratio (x) = -0.01460 0.05598
# Poissons Ratio (y) = -0.02757 -0.00369
# Poissons Ratio (z) = 0.06169 -0.00215
#
# Static dielectric constant tensor:
#      x y z
#    x 2.066140 -0.073960 0.044870 
#    y -0.073960 1.929100 -0.031240 
#    z 0.044870 -0.031240 1.847850 
# 
# From -- ./inp_files/297275.got.cif
#   From: 2010.05.17/outbox.cif.g08.bks.cpg/sg2_149_cif.got.tgz:297275.got - 2010.06.03 11:33:40.
