data_PCOD9015633
_publ_section_title
;
Structure prediction by ZEFSAII (Michael W. Deem and Ramdas Pophale) SiO2 
 PCOD9015633
Probable space group: P -1
;
_chemical_formula_sum "Si O2"
_cell_formula_units_Z 14
_cell_length_a 14.798482
_cell_length_b 6.498663
_cell_length_c 8.342531
_cell_angle_alpha 91.190865
_cell_angle_beta 109.908876
_cell_angle_gamma 53.237984
_cell_volume 586.224926
_symmetry_space_group_name_H-M "P -1"
_symmetry_group_IT_number 2
_symmetry_cell_setting 'triclinic'
loop_
_space_group_symop_operation_xyz
x,y,z
-x,-y,-z
loop_
_atom_site_type_symbol
_atom_site_label
_atom_site_fract_x
_atom_site_fract_y
_atom_site_fract_z
Si Si1 0.568961 0.220571 0.628216
Si Si2 0.580749 0.965442 0.334771
Si Si3 0.931394 0.104559 0.727724
Si Si4 0.019756 0.232267 0.508898
Si Si5 0.910717 0.428286 0.978341
Si Si6 0.595463 0.465123 0.927987
Si Si7 0.766417 0.552943 0.184244
O O1 0.500000 0.500000 0.500000
O O2 0.474848 0.178123 0.644046
O O3 0.635089 0.242153 0.817266
O O4 0.637806 0.003090 0.525363
O O5 0.674557 0.801584 0.245192
O O6 0.473683 0.256634 0.204443
O O7 0.019605 0.145624 0.685790
O O8 0.855815 0.368162 0.795679
O O9 0.884739 0.007403 0.559483
O O10 0.002168 0.853459 0.882169
O O11 0.886803 0.348012 0.357946
O O12 0.000000 0.500000 0.500000
O O13 0.806489 0.619193 0.049028
O O14 0.000000 0.500000 0.000000
O O15 0.500000 0.500000 0.000000
O O16 0.705338 0.424223 0.088082
#
# Coordination Sequence:
#
# PCOD9015633 Si02
#       7
#     2   2   2   2   2   2   2
#     4   9  20  41  67  85 131 168 205 268 320 366
#     4  10  21  43  65  95 131 167 217 265 312 396
#     4   9  19  40  63  88 124 165 204 274 316 377
#     4  10  21  42  64  90 129 166 217 271 321 381
#     4  10  21  42  66  90 131 164 217 272 320 375
#     4  11  22  42  65  96 135 167 210 272 318 381
#     4  11  23  41  67  95 128 174 218 260 326 388
#
# _framework density 23.881618
#
# number of rings (size 3 to 8) (size 9 to 14) (size 15 to 20)
#    0.000    2.000    1.429    2.143    0.000    0.000 
#   25.714    0.000    0.000    0.000    0.000    0.000 
#    0.000    0.000    0.000    0.000    0.000    0.000 
#
# Total GULP energy -78078.490545 kJ/mol
# GULP energy per Si atom -5577.035039 kJ/mol
# Density = 2.382726 g / cm^3
# Si number density = 23.881618 Si / 1000 Ang^3
#
#
#
# Elastic Constant Matrix: (Units=GPa)
#
#
# Indices 1 2 3 4 5 6 
#
# 1 121.4169 54.8052 46.8324 18.5792 -18.1356 22.9700
# 2 54.8052 131.8672 54.9175 35.1627 -20.4451 21.1976
# 3 46.8324 54.9175 92.1605 37.0257 -7.1875 4.6549
# 4 18.5792 35.1627 37.0257 66.6860 1.6354 -15.7393
# 5 -18.1356 -20.4451 -7.1875 1.6354 45.7900 -2.0239
# 6 22.9700 21.1976 4.6549 -15.7393 -2.0239 42.4778
#
#
#
# Elastic Compliance Matrix: (Units=1/GPa)
#
#
# Indices 1 2 3 4 5 6 
#
# 1 0.012435 -0.001410 -0.004107 -0.001974 0.003450 -0.006138
# 2 -0.001410 0.013533 -0.003989 -0.006468 0.004747 -0.007724
# 3 -0.004107 -0.003989 0.018053 -0.006843 -0.000344 -0.000319
# 4 -0.001974 -0.006468 -0.006843 0.026314 -0.005040 0.014555
# 5 0.003450 0.004747 -0.000344 -0.005040 0.025236 -0.004862
# 6 -0.006138 -0.007724 -0.000319 0.014555 -0.004862 0.035912
#
#
# Mechanical properties :
#
#
# Convention : Reuss Voigt Hill
#
# Bulk Modulus (GPa) = 39.98411 73.17278 56.57844
# Shear Modulus (GPa) = 31.48018 43.58339 37.53178
#
# Velocity S-wave (km/s) = 3.63461 4.27661 3.96861
# Velocity P-wave (km/s) = 5.86454 7.42241 6.68898
#
# Compressibility (1/GPa) = 0.02500994
#
# Stress axis : x y z
#
# Youngs Moduli (GPa) = 80.41767 73.89426 55.39299
#
# Poissons Ratio (x) = 0.10418 0.22748
# Poissons Ratio (y) = 0.11338 0.22096
# Poissons Ratio (z) = 0.33025 0.29476
#
# Static dielectric constant tensor:
#      x y z
#    x 1.923460 -0.025410 -0.023760 
#    y -0.025410 2.016690 0.056720 
#    z -0.023760 0.056720 1.995780 
# 
# From -- ./inp_files/88986.got.cif
#   From: 2010.05.17/outbox.cif.g08.bks.cpg/sg2_45_cif.got.tgz:88986.got - 2010.06.03 11:33:40.
