data_PCOD9015268
_publ_section_title
;
Structure prediction by ZEFSAII (Michael W. Deem and Ramdas Pophale) SiO2 
 PCOD9015268
Probable space group: P -1
;
_chemical_formula_sum "Si O2"
_cell_formula_units_Z 14
_cell_length_a 12.041193
_cell_length_b 12.859935
_cell_length_c 7.684952
_cell_angle_alpha 149.204198
_cell_angle_beta 56.777324
_cell_angle_gamma 122.654810
_cell_volume 503.029298
_symmetry_space_group_name_H-M "P -1"
_symmetry_group_IT_number 2
_symmetry_cell_setting 'triclinic'
loop_
_space_group_symop_operation_xyz
x,y,z
-x,-y,-z
loop_
_atom_site_type_symbol
_atom_site_label
_atom_site_fract_x
_atom_site_fract_y
_atom_site_fract_z
Si Si1 0.934447 0.380394 0.551308
Si Si2 0.143852 0.977420 0.418814
Si Si3 0.551472 0.328870 0.525097
Si Si4 0.496802 0.107592 0.880243
Si Si5 0.284130 0.382904 0.753308
Si Si6 0.262462 0.984157 0.686163
Si Si7 0.205688 0.517574 0.650705
O O1 0.837789 0.162270 0.312056
O O2 0.000000 0.500000 0.500000
O O3 0.065352 0.364201 0.532256
O O4 0.839436 0.525752 0.927879
O O5 0.171453 0.044226 0.692479
O O6 0.251983 0.136011 0.447704
O O7 0.164776 0.742803 0.041654
O O8 0.000000 0.000000 0.500000
O O9 0.425749 0.449241 0.824331
O O10 0.699932 0.455894 0.562708
O O11 0.536873 0.132819 0.380358
O O12 0.526332 0.234705 0.213928
O O13 0.628960 0.128393 0.675484
O O14 0.366390 0.144299 0.936159
O O15 0.282302 0.451720 0.656478
#
# Coordination Sequence:
#
# PCOD9015268 Si02
#       7
#     2   2   2   2   2   2   2
#     4  12  26  46  67 100 146 187 230 300 365 412
#     4  12  22  42  76 101 137 195 237 281 354 423
#     4  11  21  43  73 108 135 192 241 286 357 426
#     4  10  21  41  74 104 147 184 236 296 352 421
#     4  12  24  43  72 103 138 187 243 283 352 431
#     4  11  22  44  69 103 147 188 226 302 357 406
#     4  12  24  46  72 104 149 181 234 302 347 426
#
# _framework density 27.831384
#
# number of rings (size 3 to 8) (size 9 to 14) (size 15 to 20)
#    0.000    0.571    5.714    3.429    0.000    0.000 
#    2.571    3.571    0.000    0.000    0.000    0.000 
#    0.000    0.000    0.000    0.000    0.000    0.000 
#
# Total GULP energy -78589.134806 kJ/mol
# GULP energy per Si atom -5613.509629 kJ/mol
# Density = 2.776804 g / cm^3
# Si number density = 27.831384 Si / 1000 Ang^3
#
#
#
# Elastic Constant Matrix: (Units=GPa)
#
#
# Indices 1 2 3 4 5 6 
#
# 1 197.4751 45.4982 7.9814 3.5528 -14.9241 14.2754
# 2 45.4982 174.2596 25.0216 -3.5327 -11.7738 10.6136
# 3 7.9814 25.0216 77.2617 -0.2182 -6.2451 2.5276
# 4 3.5528 -3.5327 -0.2182 43.0100 2.8944 -6.4512
# 5 -14.9241 -11.7738 -6.2451 2.8944 37.1141 -1.2816
# 6 14.2754 10.6136 2.5276 -6.4512 -1.2816 62.7458
#
#
#
# Elastic Compliance Matrix: (Units=1/GPa)
#
#
# Indices 1 2 3 4 5 6 
#
# 1 0.005597 -0.001288 0.000024 -0.000860 0.001875 -0.001107
# 2 -0.001288 0.006468 -0.001845 0.000451 0.001166 -0.000656
# 3 0.000024 -0.001845 0.013685 -0.000236 0.001738 -0.000234
# 4 -0.000860 0.000451 -0.000236 0.023874 -0.002016 0.002542
# 5 0.001875 0.001166 0.001738 -0.002016 0.028506 -0.000319
# 6 -0.001107 -0.000656 -0.000234 0.002542 -0.000319 0.016564
#
#
# Mechanical properties :
#
#
# Convention : Reuss Voigt Hill
#
# Bulk Modulus (GPa) = 51.19524 67.33320 59.26422
# Shear Modulus (GPa) = 46.54511 53.27368 49.90939
#
# Velocity S-wave (km/s) = 4.09393 4.37986 4.23930
# Velocity P-wave (km/s) = 6.38606 7.05856 6.73072
#
# Compressibility (1/GPa) = 0.01953307
#
# Stress axis : x y z
#
# Youngs Moduli (GPa) = 178.67008 154.61610 73.07106
#
# Poissons Ratio (x) = 0.19917 -0.00178
# Poissons Ratio (y) = 0.23016 0.13478
# Poissons Ratio (z) = -0.00435 0.28520
#
# Static dielectric constant tensor:
#      x y z
#    x 2.195980 -0.014050 0.027310 
#    y -0.014050 2.111360 -0.027350 
#    z 0.027310 -0.027350 2.229900 
# 
# From -- ./inp_files/260860.got.cif
#   From: 2010.05.17/outbox.cif.g08.bks.cpg/sg2_131_cif.got.tgz:260860.got - 2010.06.03 11:33:40.
