data_PCOD9015545
_publ_section_title
;
Structure prediction by ZEFSAII (Michael W. Deem and Ramdas Pophale) SiO2 
 PCOD9015545
Probable space group: P -1
;
_chemical_formula_sum "Si O2"
_cell_formula_units_Z 12
_cell_length_a 5.177444
_cell_length_b 12.953747
_cell_length_c 9.033990
_cell_angle_alpha 86.781055
_cell_angle_beta 80.227013
_cell_angle_gamma 118.976277
_cell_volume 515.575779
_symmetry_space_group_name_H-M "P -1"
_symmetry_group_IT_number 2
_symmetry_cell_setting 'triclinic'
loop_
_space_group_symop_operation_xyz
x,y,z
-x,-y,-z
loop_
_atom_site_type_symbol
_atom_site_label
_atom_site_fract_x
_atom_site_fract_y
_atom_site_fract_z
Si Si1 0.922662 0.694648 0.651979
Si Si2 0.423002 0.097941 0.442762
Si Si3 0.591940 0.779469 0.838717
Si Si4 0.696283 0.264786 0.806089
Si Si5 0.059225 0.528566 0.818689
Si Si6 0.169436 0.217339 0.636258
O O1 0.899276 0.776769 0.779126
O O2 0.762510 0.689584 0.512618
O O3 0.272352 0.774851 0.561733
O O4 0.859358 0.572821 0.744987
O O5 0.388428 0.114764 0.270810
O O6 0.162828 0.106687 0.558593
O O7 0.500000 0.000000 0.500000
O O8 0.378915 0.650303 0.789237
O O9 0.458538 0.771251 0.013614
O O10 0.432004 0.256502 0.728137
O O11 0.976779 0.401907 0.769505
O O12 0.857061 0.191127 0.745291
O O13 0.000000 0.500000 0.000000
#
# Coordination Sequence:
#
# PCOD9015545 Si02
#       6
#     2   2   2   2   2   2
#     4  10  21  42  63  94 125 165 224 251 306 389
#     4  10  22  46  70  89 121 168 215 266 317 382
#     4   9  22  39  65  94 125 170 220 249 307 381
#     4  11  24  40  64  94 138 166 201 265 311 365
#     4   9  21  37  61  94 129 175 211 246 304 376
#     4  11  24  42  62  97 130 164 211 260 319 370
#
# _framework density 23.274946
#
# number of rings (size 3 to 8) (size 9 to 14) (size 15 to 20)
#    0.000    2.000    1.667    0.000    9.333    5.333 
#    0.000    1.667    0.000    0.000    0.000    0.000 
#    0.000    0.000    0.000    0.000    0.000    0.000 
#
# Total GULP energy -66848.514112 kJ/mol
# GULP energy per Si atom -5570.709509 kJ/mol
# Density = 2.322197 g / cm^3
# Si number density = 23.274946 Si / 1000 Ang^3
#
#
#
# Elastic Constant Matrix: (Units=GPa)
#
#
# Indices 1 2 3 4 5 6 
#
# 1 96.3563 17.6751 67.1909 1.0773 -9.6170 -24.3437
# 2 17.6751 85.1513 47.9073 -18.6529 8.6379 -24.1302
# 3 67.1909 47.9073 193.5844 -7.0586 -11.3983 -23.7461
# 4 1.0773 -18.6529 -7.0586 35.9851 -6.4198 0.9935
# 5 -9.6170 8.6379 -11.3983 -6.4198 40.9860 6.2214
# 6 -24.3437 -24.1302 -23.7461 0.9935 6.2214 39.9946
#
#
#
# Elastic Compliance Matrix: (Units=1/GPa)
#
#
# Indices 1 2 3 4 5 6 
#
# 1 0.015359 0.001263 -0.004743 -0.000791 0.000804 0.007189
# 2 0.001263 0.018816 -0.003831 0.007765 -0.005104 0.010448
# 3 -0.004743 -0.003831 0.007770 0.000062 0.002001 -0.000898
# 4 -0.000791 0.007765 0.000062 0.032266 0.002793 0.003005
# 5 0.000804 -0.005104 0.002001 0.002793 0.027530 -0.005754
# 6 0.007189 0.010448 -0.000898 0.003005 -0.005754 0.035970
#
#
# Mechanical properties :
#
#
# Convention : Reuss Voigt Hill
#
# Bulk Modulus (GPa) = 36.59798 71.18208 53.89003
# Shear Modulus (GPa) = 30.97082 39.54770 35.25926
#
# Velocity S-wave (km/s) = 3.65177 4.12655 3.89640
# Velocity P-wave (km/s) = 5.79127 7.30439 6.59139
#
# Compressibility (1/GPa) = 0.02732391
#
# Stress axis : x y z
#
# Youngs Moduli (GPa) = 65.10668 53.14489 128.69964
#
# Poissons Ratio (x) = -0.06712 0.61046
# Poissons Ratio (y) = -0.08223 0.49302
# Poissons Ratio (z) = 0.30882 0.20359
#
# Static dielectric constant tensor:
#      x y z
#    x 2.226290 0.044290 -0.054160 
#    y 0.044290 1.913920 0.015040 
#    z -0.054160 0.015040 1.870220 
# 
# From -- ./inp_files/19838.got.cif
#   From: 2010.05.17/outbox.cif.g08.bks.cpg/sg2_10_cif.got.tgz:19838.got - 2010.06.03 11:33:40.
