data_PCOD9015214
_publ_section_title
;
Structure prediction by ZEFSAII (Michael W. Deem and Ramdas Pophale) SiO2 
 PCOD9015214
Probable space group: P -1
;
_chemical_formula_sum "Si O2"
_cell_formula_units_Z 16
_cell_length_a 9.257362
_cell_length_b 5.457042
_cell_length_c 17.966760
_cell_angle_alpha 104.958780
_cell_angle_beta 49.188921
_cell_angle_gamma 83.931816
_cell_volume 615.177164
_symmetry_space_group_name_H-M "P -1"
_symmetry_group_IT_number 2
_symmetry_cell_setting 'triclinic'
loop_
_space_group_symop_operation_xyz
x,y,z
-x,-y,-z
loop_
_atom_site_type_symbol
_atom_site_label
_atom_site_fract_x
_atom_site_fract_y
_atom_site_fract_z
Si Si1 0.099666 0.017278 0.546754
Si Si2 0.842949 0.271574 0.344582
Si Si3 0.754295 0.479854 0.912827
Si Si4 0.720329 0.422509 0.746608
Si Si5 0.559376 0.926150 0.733602
Si Si6 0.435723 0.193991 0.439738
Si Si7 0.920125 0.758769 0.100666
Si Si8 0.819840 0.966975 0.917516
O O1 0.342692 0.957190 0.461411
O O2 0.958407 0.331644 0.635616
O O3 0.065893 0.854092 0.615916
O O4 0.000000 0.000000 0.500000
O O5 0.674765 0.142067 0.364621
O O6 0.689558 0.580374 0.439499
O O7 0.027878 0.190472 0.215041
O O8 0.732129 0.439701 0.831670
O O9 0.989997 0.357852 0.856635
O O10 0.693880 0.794549 0.976511
O O11 0.674450 0.271319 0.965169
O O12 0.599702 0.709270 0.769697
O O13 0.646893 0.170509 0.732276
O O14 0.629521 0.739835 0.620068
O O15 0.319144 0.092363 0.814822
O O16 0.031821 0.973602 0.068768
O O17 0.000000 0.500000 0.000000
#
# Coordination Sequence:
#
# PCOD9015214 Si02
#       8
#     2   2   2   2   2   2   2   2
#     4  12  23  38  60  91 137 185 230 269 334 400
#     4  11  23  40  63  95 133 187 234 284 327 401
#     4  10  22  43  73  98 135 182 225 271 348 411
#     4  12  26  44  69  99 147 185 226 282 346 411
#     4  12  27  46  67 105 142 179 233 291 343 399
#     4  11  24  40  62  95 138 182 239 283 328 392
#     4  10  25  49  79 105 133 177 232 290 350 417
#     4  10  21  41  72  98 133 174 234 276 334 403
#
# _framework density 26.008769999999998
#
# number of rings (size 3 to 8) (size 9 to 14) (size 15 to 20)
#    0.750    0.250    3.750    2.625    3.500    1.500 
#    2.250    1.250    0.000    0.000    0.000    0.000 
#    0.000    0.000    0.000    0.000    0.000    0.000 
#
# Total GULP energy -89324.213842 kJ/mol
# GULP energy per Si atom -5582.763365 kJ/mol
# Density = 2.594957 g / cm^3
# Si number density = 26.008770 Si / 1000 Ang^3
#
#
#
# Elastic Constant Matrix: (Units=GPa)
#
#
# Indices 1 2 3 4 5 6 
#
# 1 157.7116 66.2369 52.6719 -15.6015 3.8951 9.0435
# 2 66.2369 151.0056 9.5755 9.1786 2.2961 3.1755
# 3 52.6719 9.5755 103.8845 14.9954 7.3836 -3.4295
# 4 -15.6015 9.1786 14.9954 20.8428 4.8361 11.0079
# 5 3.8951 2.2961 7.3836 4.8361 44.5179 -13.2173
# 6 9.0435 3.1755 -3.4295 11.0079 -13.2173 58.5755
#
#
#
# Elastic Compliance Matrix: (Units=1/GPa)
#
#
# Indices 1 2 3 4 5 6 
#
# 1 0.019645 -0.009608 -0.014339 0.036910 -0.006333 -0.011717
# 2 -0.009608 0.011510 0.006817 -0.021026 0.003159 0.005923
# 3 -0.014339 0.006817 0.021504 -0.035989 0.004475 0.010876
# 4 0.036910 -0.021026 -0.035989 0.135403 -0.021885 -0.037050
# 5 -0.006333 0.003159 0.004475 -0.021885 0.027896 0.011476
# 6 -0.011717 0.005923 0.010876 -0.037050 0.011476 0.028749
#
#
# Mechanical properties :
#
#
# Convention : Reuss Voigt Hill
#
# Bulk Modulus (GPa) = 54.35624 74.39669 64.37647
# Shear Modulus (GPa) = 17.53767 43.72841 30.63304
#
# Velocity S-wave (km/s) = 2.59954 4.10481 3.43563
# Velocity P-wave (km/s) = 5.47309 7.15070 6.36739
#
# Compressibility (1/GPa) = 0.01839715
#
# Stress axis : x y z
#
# Youngs Moduli (GPa) = 50.90461 86.88036 46.50336
#
# Poissons Ratio (x) = 0.83478 0.66682
# Poissons Ratio (y) = 0.48911 -0.31701
# Poissons Ratio (z) = 0.72993 -0.59225
#
# Static dielectric constant tensor:
#      x y z
#    x 2.139120 0.030660 0.003810 
#    y 0.030660 2.170480 -0.012990 
#    z 0.003810 -0.012990 2.074050 
# 
# From -- ./inp_files/339843.got.cif
#   From: 2010.05.17/outbox.cif.g08.bks.cpg/sg2_170_cif.got.tgz:339843.got - 2010.06.03 11:33:40.
