data_PCOD9015303
_publ_section_title
;
Structure prediction by ZEFSAII (Michael W. Deem and Ramdas Pophale) SiO2 
 PCOD9015303
Probable space group: P -1
;
_chemical_formula_sum "Si O2"
_cell_formula_units_Z 16
_cell_length_a 24.130627
_cell_length_b 5.343127
_cell_length_c 6.263796
_cell_angle_alpha 101.668618
_cell_angle_beta 121.172785
_cell_angle_gamma 77.134597
_cell_volume 669.978515
_symmetry_space_group_name_H-M "P -1"
_symmetry_group_IT_number 2
_symmetry_cell_setting 'triclinic'
loop_
_space_group_symop_operation_xyz
x,y,z
-x,-y,-z
loop_
_atom_site_type_symbol
_atom_site_label
_atom_site_fract_x
_atom_site_fract_y
_atom_site_fract_z
Si Si1 0.112983 0.950186 0.982061
Si Si2 0.784942 0.317992 0.199278
Si Si3 0.346065 0.932637 0.685607
Si Si4 0.211132 0.146610 0.541081
Si Si5 0.030547 0.490717 0.809225
Si Si6 0.572865 0.331634 0.880160
Si Si7 0.344299 0.500573 0.282915
Si Si8 0.562824 0.789755 0.294106
O O1 0.164834 0.800551 0.897972
O O2 0.067102 0.743449 0.927272
O O3 0.073887 0.208830 0.847733
O O4 0.157087 0.044430 0.271838
O O5 0.813685 0.556975 0.404781
O O6 0.776149 0.074041 0.288582
O O7 0.717744 0.465356 0.987310
O O8 0.325237 0.700413 0.470134
O O9 0.283512 0.148008 0.582810
O O10 0.418753 0.966570 0.752039
O O11 0.365489 0.868777 0.955399
O O12 0.000000 0.500000 0.500000
O O13 0.000000 0.500000 0.000000
O O14 0.593491 0.430847 0.713208
O O15 0.505790 0.213677 0.731407
O O16 0.568752 0.564049 0.086687
O O17 0.376495 0.247538 0.426323
#
# Coordination Sequence:
#
# PCOD9015303 Si02
#       8
#     2   2   2   2   2   2   2   2
#     4  12  28  52  84 120 163 209 271 311 387 464
#     4  12  27  46  77 111 154 203 256 324 392 461
#     4  11  23  39  62  95 135 183 245 316 392 457
#     4  12  27  46  76 110 156 200 257 325 388 463
#     4  12  30  55  89 128 176 222 267 328 387 466
#     4  10  21  42  56  91 123 187 237 317 386 473
#     4  11  23  39  62  96 135 181 248 312 394 458
#     4  10  23  37  64  83 132 176 252 311 387 470
#
# _framework density 23.881363
#
# number of rings (size 3 to 8) (size 9 to 14) (size 15 to 20)
#    0.000    0.750    2.500    3.750    8.750    2.500 
#    0.000    0.000    0.000    0.000    0.000    0.000 
#    0.000    0.000    0.000    0.000    0.000    0.000 
#
# Total GULP energy -89258.042428 kJ/mol
# GULP energy per Si atom -5578.627652 kJ/mol
# Density = 2.382701 g / cm^3
# Si number density = 23.881363 Si / 1000 Ang^3
#
#
#
# Elastic Constant Matrix: (Units=GPa)
#
#
# Indices 1 2 3 4 5 6 
#
# 1 271.2216 66.9764 -16.7592 16.4524 -74.4303 -136.7610
# 2 66.9764 83.7829 -7.9688 7.3320 -13.5080 -27.1656
# 3 -16.7592 -7.9688 76.2059 -9.2447 19.2417 44.4897
# 4 16.4524 7.3320 -9.2447 51.2533 -9.6915 -17.5464
# 5 -74.4303 -13.5080 19.2417 -9.6915 57.5296 57.1400
# 6 -136.7610 -27.1656 44.4897 -17.5464 57.1400 140.9096
#
#
#
# Elastic Compliance Matrix: (Units=1/GPa)
#
#
# Indices 1 2 3 4 5 6 
#
# 1 0.010336 -0.005159 -0.004420 0.000493 0.005525 0.008254
# 2 -0.005159 0.015386 0.002005 -0.001247 -0.001897 -0.002060
# 3 -0.004420 0.002005 0.018062 0.001001 -0.002852 -0.008325
# 4 0.000493 -0.001247 0.001001 0.020650 0.001695 0.001806
# 5 0.005525 -0.001897 -0.002852 0.001695 0.032245 -0.006968
# 6 0.008254 -0.002060 -0.008325 0.001806 -0.006968 0.020389
#
#
# Mechanical properties :
#
#
# Convention : Reuss Voigt Hill
#
# Bulk Modulus (GPa) = 34.92340 57.30080 46.11210
# Shear Modulus (GPa) = 35.27033 75.86929 55.56981
#
# Velocity S-wave (km/s) = 3.84721 5.64254 4.82904
# Velocity P-wave (km/s) = 5.86431 8.15457 7.10236
#
# Compressibility (1/GPa) = 0.02863410
#
# Stress axis : x y z
#
# Youngs Moduli (GPa) = 96.74869 64.99410 55.36593
#
# Poissons Ratio (x) = 0.33533 0.24473
# Poissons Ratio (y) = 0.49916 -0.11099
# Poissons Ratio (z) = 0.42764 -0.13029
#
# Static dielectric constant tensor:
#      x y z
#    x 1.942700 0.042810 -0.000660 
#    y 0.042810 1.985800 0.030060 
#    z -0.000660 0.030060 1.927200 
# 
# From -- ./inp_files/10860.got.cif
#   From: 2010.05.17/outbox.cif.g08.bks.cpg/sg2_6_cif.got.tgz:10860.got - 2010.06.03 11:33:40.
