data_PCOD9015720
_publ_section_title
;
Structure prediction by ZEFSAII (Michael W. Deem and Ramdas Pophale) SiO2 
 PCOD9015720
Probable space group: P -1
;
_chemical_formula_sum "Si O2"
_cell_formula_units_Z 12
_cell_length_a 13.247651
_cell_length_b 11.158802
_cell_length_c 9.144454
_cell_angle_alpha 85.907535
_cell_angle_beta 92.051001
_cell_angle_gamma 23.056076
_cell_volume 509.939467
_symmetry_space_group_name_H-M "P -1"
_symmetry_group_IT_number 2
_symmetry_cell_setting 'triclinic'
loop_
_space_group_symop_operation_xyz
x,y,z
-x,-y,-z
loop_
_atom_site_type_symbol
_atom_site_label
_atom_site_fract_x
_atom_site_fract_y
_atom_site_fract_z
Si Si1 0.345957 0.551718 0.037344
Si Si2 0.071829 0.121930 0.181880
Si Si3 0.611984 0.640096 0.341670
Si Si4 0.161841 0.148811 0.905762
Si Si5 0.276425 0.482423 0.301183
Si Si6 0.435439 0.047246 0.821992
O O1 0.056203 0.844422 0.925094
O O2 0.500000 0.500000 0.000000
O O3 0.348218 0.523360 0.212565
O O4 0.463097 0.769246 0.980407
O O5 0.888974 0.316916 0.298093
O O6 0.377195 0.804815 0.273169
O O7 0.030705 0.276244 0.047225
O O8 0.653282 0.591646 0.521121
O O9 0.542105 0.852557 0.268860
O O10 0.157484 0.281679 0.815011
O O11 0.032860 0.199295 0.779551
O O12 0.406843 0.224178 0.245515
O O13 0.500000 0.000000 0.000000
#
# Coordination Sequence:
#
# PCOD9015720 Si02
#       6
#     2   2   2   2   2   2
#     4  10  22  46  73  94 123 170 223 275 323 389
#     4  11  23  43  66  95 129 174 219 259 323 385
#     4  12  25  41  65  96 143 171 208 271 320 385
#     4  10  21  42  64  97 124 172 227 261 316 392
#     4  10  25  39  63 100 133 169 220 268 327 377
#     4  11  21  39  65  95 132 181 220 255 313 386
#
# _framework density 23.532205000000001
#
# number of rings (size 3 to 8) (size 9 to 14) (size 15 to 20)
#    0.000    1.333    3.333    2.500    7.000    4.667 
#    0.000    1.667    0.000    0.000    0.000    0.000 
#    0.000    0.000    0.000    0.000    0.000    0.000 
#
# Total GULP energy -66880.888726 kJ/mol
# GULP energy per Si atom -5573.407394 kJ/mol
# Density = 2.347864 g / cm^3
# Si number density = 23.532205 Si / 1000 Ang^3
#
#
#
# Elastic Constant Matrix: (Units=GPa)
#
#
# Indices 1 2 3 4 5 6 
#
# 1 142.4483 36.1946 63.5436 6.1201 -24.1828 -32.5016
# 2 36.1946 66.2942 47.4138 13.4823 -1.7134 -24.8119
# 3 63.5436 47.4138 234.5294 8.1504 -3.9649 -22.2661
# 4 6.1201 13.4823 8.1504 24.2040 -3.6020 1.6031
# 5 -24.1828 -1.7134 -3.9649 -3.6020 36.9613 3.0986
# 6 -32.5016 -24.8119 -22.2661 1.6031 3.0986 50.9139
#
#
#
# Elastic Compliance Matrix: (Units=1/GPa)
#
#
# Indices 1 2 3 4 5 6 
#
# 1 0.010535 -0.002754 -0.001797 0.000123 0.006231 0.004215
# 2 -0.002754 0.024981 -0.002970 -0.013320 -0.003076 0.009724
# 3 -0.001797 -0.002970 0.005309 0.000232 -0.000701 -0.000237
# 4 0.000123 -0.013320 0.000232 0.049918 0.005039 -0.008190
# 5 0.006231 -0.003076 -0.000701 0.005039 0.031397 0.000103
# 6 0.004215 0.009724 -0.000237 -0.008190 0.000103 0.027218
#
#
# Mechanical properties :
#
#
# Convention : Reuss Voigt Hill
#
# Bulk Modulus (GPa) = 38.78367 81.95287 60.36827
# Shear Modulus (GPa) = 28.90289 42.15715 35.53002
#
# Velocity S-wave (km/s) = 3.50841 4.23716 3.88989
# Velocity P-wave (km/s) = 5.73836 7.67069 6.77378
#
# Compressibility (1/GPa) = 0.02578405
#
# Stress axis : x y z
#
# Youngs Moduli (GPa) = 94.91822 40.03102 188.37330
#
# Poissons Ratio (x) = 0.11023 0.33843
# Poissons Ratio (y) = 0.26137 0.55948
# Poissons Ratio (z) = 0.17053 0.11890
#
# Static dielectric constant tensor:
#      x y z
#    x 2.004120 -0.005780 0.006120 
#    y -0.005780 2.100880 0.026940 
#    z 0.006120 0.026940 1.842600 
# 
# From -- ./inp_files/90298.got.cif
#   From: 2010.05.17/outbox.cif.g08.bks.cpg/sg2_46_cif.got.tgz:90298.got - 2010.06.03 11:33:40.
