data_PCOD9015670
_publ_section_title
;
Structure prediction by ZEFSAII (Michael W. Deem and Ramdas Pophale) SiO2 
 PCOD9015670
Probable space group: P -1
;
_chemical_formula_sum "Si O2"
_cell_formula_units_Z 14
_cell_length_a 14.871758
_cell_length_b 7.014965
_cell_length_c 10.865829
_cell_angle_alpha 88.234602
_cell_angle_beta 112.544595
_cell_angle_gamma 45.082743
_cell_volume 657.882273
_symmetry_space_group_name_H-M "P -1"
_symmetry_group_IT_number 2
_symmetry_cell_setting 'triclinic'
loop_
_space_group_symop_operation_xyz
x,y,z
-x,-y,-z
loop_
_atom_site_type_symbol
_atom_site_label
_atom_site_fract_x
_atom_site_fract_y
_atom_site_fract_z
Si Si1 0.806794 0.642705 0.279204
Si Si2 0.424572 0.321349 0.449890
Si Si3 0.498594 0.666281 0.895154
Si Si4 0.164250 0.659063 0.934385
Si Si5 0.650325 0.256049 0.429216
Si Si6 0.873828 0.370619 0.821654
Si Si7 0.098335 0.422145 0.404876
O O1 0.850442 0.420729 0.203851
O O2 0.840632 0.552629 0.444251
O O3 0.915987 0.660774 0.311456
O O4 0.629327 0.973614 0.158707
O O5 0.556135 0.260504 0.470925
O O6 0.365824 0.503074 0.541910
O O7 0.273427 0.542492 0.280780
O O8 0.500000 0.000000 0.500000
O O9 0.433841 0.655608 0.742965
O O10 0.500000 0.500000 0.000000
O O11 0.666718 0.502722 0.970263
O O12 0.139507 0.556897 0.042336
O O13 0.031613 0.018523 0.881042
O O14 0.821085 0.907626 0.529619
O O15 0.860739 0.550693 0.705746
#
# Coordination Sequence:
#
# PCOD9015670 Si02
#       7
#     2   2   2   2   2   2   2
#     4  10  23  41  64  89 126 168 214 266 309 382
#     4  11  21  39  64  94 123 165 207 262 323 370
#     4  11  23  42  61  88 126 170 211 258 320 386
#     4  11  24  41  60  94 131 166 213 263 317 391
#     4  10  22  39  63  91 129 160 211 269 306 375
#     4  11  23  39  64  92 131 164 211 267 321 381
#     4  10  21  42  64  93 124 166 216 266 320 370
#
# _framework density 21.280404000000001
#
# number of rings (size 3 to 8) (size 9 to 14) (size 15 to 20)
#    0.000    1.429    2.857    2.143    0.000    3.429 
#    0.000    0.000    0.000    0.000    0.000    0.000 
#    0.000    0.000    0.000    0.000    0.000    0.000 
#
# Total GULP energy -78112.384918 kJ/mol
# GULP energy per Si atom -5579.456066 kJ/mol
# Density = 2.123197 g / cm^3
# Si number density = 21.280404 Si / 1000 Ang^3
#
#
#
# Elastic Constant Matrix: (Units=GPa)
#
#
# Indices 1 2 3 4 5 6 
#
# 1 81.0641 26.8212 33.6973 -13.7147 -4.5210 -12.0930
# 2 26.8212 121.4058 54.7141 9.0713 -5.1234 -12.5451
# 3 33.6973 54.7141 103.5973 -2.4152 -6.5849 -8.1161
# 4 -13.7147 9.0713 -2.4152 31.2895 -17.6382 8.9647
# 5 -4.5210 -5.1234 -6.5849 -17.6382 46.8361 -9.9151
# 6 -12.0930 -12.5451 -8.1161 8.9647 -9.9151 24.9710
#
#
#
# Elastic Compliance Matrix: (Units=1/GPa)
#
#
# Indices 1 2 3 4 5 6 
#
# 1 0.017177 -0.002228 -0.003451 0.009681 0.005596 0.004824
# 2 -0.002228 0.012291 -0.005592 -0.007207 -0.001233 0.005376
# 3 -0.003451 -0.005592 0.013895 0.002228 0.001841 -0.000034
# 4 0.009681 -0.007207 0.002228 0.051186 0.017714 -0.009551
# 5 0.005596 -0.001233 0.001841 0.017714 0.030471 0.008429
# 6 0.004824 0.005376 -0.000034 -0.009551 0.008429 0.051848
#
#
# Mechanical properties :
#
#
# Convention : Reuss Voigt Hill
#
# Bulk Modulus (GPa) = 48.02848 59.61472 53.82160
# Shear Modulus (GPa) = 24.23047 33.34162 28.78605
#
# Velocity S-wave (km/s) = 3.37802 3.96255 3.68190
# Velocity P-wave (km/s) = 6.15085 7.00074 6.58952
#
# Compressibility (1/GPa) = 0.02082098
#
# Stress axis : x y z
#
# Youngs Moduli (GPa) = 58.21591 81.35873 71.96840
#
# Poissons Ratio (x) = 0.18129 0.24837
# Poissons Ratio (y) = 0.12972 0.40244
# Poissons Ratio (z) = 0.20091 0.45495
#
# Static dielectric constant tensor:
#      x y z
#    x 1.858940 -0.079800 -0.107740 
#    y -0.079800 1.847070 0.069540 
#    z -0.107740 0.069540 1.881280 
# 
# From -- ./inp_files/441957.got.cif
#   From: 2010.05.17/outbox.cif.g08.bks.cpg/sg2_221_cif.got.tgz:441957.got - 2010.06.03 11:33:40.
