data_PCOD9015564
_publ_section_title
;
Structure prediction by ZEFSAII (Michael W. Deem and Ramdas Pophale) SiO2 
 PCOD9015564
Probable space group: P -1
;
_chemical_formula_sum "Si O2"
_cell_formula_units_Z 16
_cell_length_a 8.674720
_cell_length_b 18.727496
_cell_length_c 6.398569
_cell_angle_alpha 42.424181
_cell_angle_beta 96.382529
_cell_angle_gamma 89.640522
_cell_volume 690.828883
_symmetry_space_group_name_H-M "P -1"
_symmetry_group_IT_number 2
_symmetry_cell_setting 'triclinic'
loop_
_space_group_symop_operation_xyz
x,y,z
-x,-y,-z
loop_
_atom_site_type_symbol
_atom_site_label
_atom_site_fract_x
_atom_site_fract_y
_atom_site_fract_z
Si Si1 0.616827 0.710426 0.715167
Si Si2 0.691993 0.384246 0.001122
Si Si3 0.845828 0.574282 0.731719
Si Si4 0.048940 0.736143 0.391350
Si Si5 0.006913 0.096932 0.640314
Si Si6 0.479799 0.108455 0.034363
Si Si7 0.303541 0.103999 0.407945
Si Si8 0.757429 0.203929 0.083642
O O1 0.479556 0.641870 0.908010
O O2 0.747593 0.631634 0.784368
O O3 0.675128 0.777295 0.770281
O O4 0.553746 0.808246 0.337558
O O5 0.806900 0.331799 0.316232
O O6 0.733630 0.321885 0.925751
O O7 0.732215 0.504924 0.740749
O O8 0.926269 0.664958 0.428595
O O9 0.000000 0.500000 0.000000
O O10 0.962343 0.807476 0.407269
O O11 0.128572 0.799161 0.090495
O O12 0.138795 0.079311 0.523100
O O13 0.841201 0.130377 0.435227
O O14 0.000000 0.000000 0.000000
O O15 0.329221 0.097493 0.177832
O O16 0.598250 0.163408 0.081661
O O17 0.568934 0.989085 0.271353
#
# Coordination Sequence:
#
# PCOD9015564 Si02
#       8
#     2   2   2   2   2   2   2   2
#     4  12  22  44  70  94 136 173 223 270 329 393
#     4  10  22  41  67  94 127 178 219 274 331 382
#     4  10  23  43  69  97 129 175 225 277 333 385
#     4  10  21  42  63  95 133 173 219 272 325 387
#     4  11  25  40  67  97 132 177 216 264 332 390
#     4  11  25  42  66 101 134 177 216 267 327 396
#     4  11  25  42  65  99 136 173 218 266 326 398
#     4  11  23  42  66  97 137 169 221 273 323 393
#
# _framework density 23.160585000000001
#
# number of rings (size 3 to 8) (size 9 to 14) (size 15 to 20)
#    0.000    1.250    3.750    1.500    3.500    4.500 
#    0.000    3.125    0.000    0.000    0.000    0.000 
#    0.000    0.000    0.000    0.000    0.000    0.000 
#
# Total GULP energy -89481.750098 kJ/mol
# GULP energy per Si atom -5592.609381 kJ/mol
# Density = 2.310787 g / cm^3
# Si number density = 23.160585 Si / 1000 Ang^3
#
#
#
# Elastic Constant Matrix: (Units=GPa)
#
#
# Indices 1 2 3 4 5 6 
#
# 1 91.1300 33.1527 4.2475 -7.1952 -20.9492 -1.6601
# 2 33.1527 98.9141 -9.9334 -15.4709 4.0629 5.1522
# 3 4.2475 -9.9334 26.5894 4.8557 0.8105 11.1501
# 4 -7.1952 -15.4709 4.8557 26.9002 0.1928 -5.7019
# 5 -20.9492 4.0629 0.8105 0.1928 35.1923 -5.7498
# 6 -1.6601 5.1522 11.1501 -5.7019 -5.7498 41.4280
#
#
#
# Elastic Compliance Matrix: (Units=1/GPa)
#
#
# Indices 1 2 3 4 5 6 
#
# 1 0.017056 -0.006886 -0.008831 0.003394 0.012124 0.006066
# 2 -0.006886 0.014354 0.007821 0.004089 -0.006700 -0.004533
# 3 -0.008831 0.007821 0.051920 -0.011029 -0.010276 -0.018245
# 4 0.003394 0.004089 -0.011029 0.044336 0.003050 0.009121
# 5 0.012124 -0.006700 -0.010276 0.003050 0.038229 0.009810
# 6 0.006066 -0.004533 -0.018245 0.009121 0.009810 0.032473
#
#
# Mechanical properties :
#
#
# Convention : Reuss Voigt Hill
#
# Bulk Modulus (GPa) = 14.80657 30.17413 22.49035
# Shear Modulus (GPa) = 21.12634 33.31521 27.22077
#
# Velocity S-wave (km/s) = 3.02349 3.79680 3.43199
# Velocity P-wave (km/s) = 4.31225 5.68132 5.04346
#
# Compressibility (1/GPa) = 0.06753756
#
# Stress axis : x y z
#
# Youngs Moduli (GPa) = 58.63127 69.66631 19.26056
#
# Poissons Ratio (x) = 0.47975 0.17008
# Poissons Ratio (y) = 0.40376 -0.15064
# Poissons Ratio (z) = 0.51775 -0.54486
#
# Static dielectric constant tensor:
#      x y z
#    x 1.866750 0.007130 0.012900 
#    y 0.007130 1.890330 -0.037080 
#    z 0.012900 -0.037080 1.853780 
# 
# From -- ./inp_files/37564.got.cif
#   From: 2010.05.17/outbox.cif.g08.bks.cpg/sg2_19_cif.got.tgz:37564.got - 2010.06.03 11:33:40.
