data_PCOD9015931
_publ_section_title
;
Structure prediction by ZEFSAII (Michael W. Deem and Ramdas Pophale) SiO2 
 PCOD9015931
Probable space group: P -1
;
_chemical_formula_sum "Si O2"
_cell_formula_units_Z 16
_cell_length_a 9.607554
_cell_length_b 7.666404
_cell_length_c 12.998877
_cell_angle_alpha 93.765047
_cell_angle_beta 64.321984
_cell_angle_gamma 52.914363
_cell_volume 613.054158
_symmetry_space_group_name_H-M "P -1"
_symmetry_group_IT_number 2
_symmetry_cell_setting 'triclinic'
loop_
_space_group_symop_operation_xyz
x,y,z
-x,-y,-z
loop_
_atom_site_type_symbol
_atom_site_label
_atom_site_fract_x
_atom_site_fract_y
_atom_site_fract_z
Si Si1 0.278387 0.963890 0.469981
Si Si2 0.322712 0.552933 0.632210
Si Si3 0.918723 0.975690 0.889794
Si Si4 0.862906 0.097545 0.684806
Si Si5 0.800220 0.448667 0.972026
Si Si6 0.754760 0.840997 0.102514
Si Si7 0.074349 0.465512 0.591619
Si Si8 0.343835 0.381797 0.200263
O O1 0.523332 0.708853 0.372049
O O2 0.180347 0.012461 0.390213
O O3 0.258666 0.171450 0.529153
O O4 0.106919 0.983194 0.592489
O O5 0.500000 0.500000 0.500000
O O6 0.164246 0.573173 0.608551
O O7 0.174545 0.773179 0.770145
O O8 0.135617 0.152789 0.033270
O O9 0.815706 0.069941 0.812915
O O10 0.822652 0.225514 0.985680
O O11 0.713121 0.386849 0.721011
O O12 0.653831 0.580973 0.921552
O O13 0.061323 0.285257 0.873470
O O14 0.719802 0.664813 0.082037
O O15 0.534257 0.127302 0.187232
O O16 0.000000 0.500000 0.500000
O O17 0.866620 0.572488 0.725447
#
# Coordination Sequence:
#
# PCOD9015931 Si02
#       8
#     2   2   2   2   2   2   2   2
#     4  10  21  42  65  98 143 176 226 277 349 409
#     4  12  25  41  70  99 137 183 223 282 349 406
#     4  11  23  44  67 100 138 174 237 284 341 420
#     4   9  20  39  69 101 137 181 226 285 336 432
#     4  10  24  44  67 100 139 176 236 291 338 420
#     4  11  24  46  72  97 136 184 231 291 355 400
#     4  11  25  45  67 105 138 177 229 282 339 423
#     4  10  23  45  73  95 144 182 225 285 358 402
#
# _framework density 26.098837
#
# number of rings (size 3 to 8) (size 9 to 14) (size 15 to 20)
#    0.000    1.500    1.250    2.625    5.250    2.000 
#   11.250    0.000    0.000    0.000    0.000    0.000 
#    0.000    0.000    0.000    0.000    0.000    0.000 
#
# Total GULP energy -89470.152679 kJ/mol
# GULP energy per Si atom -5591.884542 kJ/mol
# Density = 2.603944 g / cm^3
# Si number density = 26.098837 Si / 1000 Ang^3
#
#
#
# Elastic Constant Matrix: (Units=GPa)
#
#
# Indices 1 2 3 4 5 6 
#
# 1 90.3944 26.0477 26.9458 3.0037 19.7577 10.2195
# 2 26.0477 103.0635 39.9258 31.2130 -2.2741 0.1054
# 3 26.9458 39.9258 100.1971 11.8809 -9.2473 11.8249
# 4 3.0037 31.2130 11.8809 60.7250 -1.4532 2.5117
# 5 19.7577 -2.2741 -9.2473 -1.4532 32.0225 12.4554
# 6 10.2195 0.1054 11.8249 2.5117 12.4554 47.2247
#
#
#
# Elastic Compliance Matrix: (Units=1/GPa)
#
#
# Indices 1 2 3 4 5 6 
#
# 1 0.015503 -0.002895 -0.004268 0.001264 -0.011180 0.000602
# 2 -0.002895 0.013978 -0.004211 -0.006280 0.000564 0.001835
# 3 -0.004268 -0.004211 0.014135 0.000007 0.008280 -0.004790
# 4 0.001264 -0.006280 0.000007 0.019693 0.000199 -0.001361
# 5 -0.011180 0.000564 0.008280 0.000199 0.045059 -0.011550
# 6 0.000602 0.001835 -0.004790 -0.001361 -0.011550 0.025359
#
#
# Mechanical properties :
#
#
# Convention : Reuss Voigt Hill
#
# Bulk Modulus (GPa) = 47.92170 53.27707 50.59938
# Shear Modulus (GPa) = 30.59386 41.37681 35.98534
#
# Velocity S-wave (km/s) = 3.42750 3.98601 3.71726
# Velocity P-wave (km/s) = 5.83654 6.45309 6.15254
#
# Compressibility (1/GPa) = 0.02086738
#
# Stress axis : x y z
#
# Youngs Moduli (GPa) = 64.50492 71.53949 70.74582
#
# Poissons Ratio (x) = 0.20707 0.30197
# Poissons Ratio (y) = 0.18671 0.29794
# Poissons Ratio (z) = 0.27533 0.30128
#
# Static dielectric constant tensor:
#      x y z
#    x 2.003380 -0.024850 -0.011830 
#    y -0.024850 2.248100 -0.066930 
#    z -0.011830 -0.066930 2.155170 
# 
# From -- ./inp_files/311362.got.cif
#   From: 2010.05.17/outbox.cif.g08.bks.cpg/sg2_156_cif.got.tgz:311362.got - 2010.06.03 11:33:40.
