data_PCOD9015358
_publ_section_title
;
Structure prediction by ZEFSAII (Michael W. Deem and Ramdas Pophale) SiO2 
 PCOD9015358
Probable space group: P -1
;
_chemical_formula_sum "Si O2"
_cell_formula_units_Z 14
_cell_length_a 14.504309
_cell_length_b 6.691048
_cell_length_c 6.758926
_cell_angle_alpha 90.825065
_cell_angle_beta 79.378197
_cell_angle_gamma 78.066262
_cell_volume 629.832636
_symmetry_space_group_name_H-M "P -1"
_symmetry_group_IT_number 2
_symmetry_cell_setting 'triclinic'
loop_
_space_group_symop_operation_xyz
x,y,z
-x,-y,-z
loop_
_atom_site_type_symbol
_atom_site_label
_atom_site_fract_x
_atom_site_fract_y
_atom_site_fract_z
Si Si1 0.802956 0.326391 0.277783
Si Si2 0.865527 0.548219 0.874600
Si Si3 0.487580 0.075655 0.284239
Si Si4 0.687772 0.531747 0.669295
Si Si5 0.928894 0.203264 0.601255
Si Si6 0.571657 0.280701 0.949554
Si Si7 0.108731 0.011996 0.020955
O O1 0.710348 0.444132 0.436451
O O2 0.879962 0.298033 0.423092
O O3 0.830254 0.454070 0.085710
O O4 0.817027 0.098737 0.176122
O O5 0.778895 0.584099 0.749308
O O6 0.951684 0.387668 0.728483
O O7 0.891768 0.756646 0.929372
O O8 0.395751 0.264350 0.301358
O O9 0.500000 0.000000 0.500000
O O10 0.470840 0.877990 0.168900
O O11 0.575315 0.166434 0.158081
O O12 0.658943 0.349573 0.807011
O O13 0.865762 0.112043 0.786398
O O14 0.000000 0.000000 0.500000
O O15 0.500000 0.500000 0.000000
O O16 0.000000 0.000000 0.000000
#
# Coordination Sequence:
#
# PCOD9015358 Si02
#       7
#     2   2   2   2   2   2   2
#     4  10  23  41  62  93 123 170 215 261 329 374
#     4  10  25  41  62  90 128 172 215 263 336 371
#     4  10  22  40  68 101 123 169 216 252 318 383
#     4  10  23  43  61  91 136 168 209 268 316 385
#     4  10  21  42  61  90 119 158 215 266 320 383
#     4   9  21  41  64  92 130 163 207 260 314 378
#     4  11  23  43  63  93 128 167 223 275 318 385
#
# _framework density 22.228126
#
# number of rings (size 3 to 8) (size 9 to 14) (size 15 to 20)
#    0.000    2.000    1.429    0.000    0.000   16.571 
#    0.000    0.000    0.000    0.000    0.000    0.000 
#    0.000    0.000    0.000    0.000    0.000    0.000 
#
# Total GULP energy -78048.995416 kJ/mol
# GULP energy per Si atom -5574.928244 kJ/mol
# Density = 2.217753 g / cm^3
# Si number density = 22.228126 Si / 1000 Ang^3
#
#
#
# Elastic Constant Matrix: (Units=GPa)
#
#
# Indices 1 2 3 4 5 6 
#
# 1 54.7885 45.6136 28.9554 9.5957 -0.6747 -2.8870
# 2 45.6136 186.0753 73.9090 35.5489 -5.1390 13.6818
# 3 28.9554 73.9090 168.2665 14.4544 -4.7535 -1.7471
# 4 9.5957 35.5489 14.4544 54.7243 -12.2655 3.0508
# 5 -0.6747 -5.1390 -4.7535 -12.2655 23.8405 0.6168
# 6 -2.8870 13.6818 -1.7471 3.0508 0.6168 31.9241
#
#
#
# Elastic Compliance Matrix: (Units=1/GPa)
#
#
# Indices 1 2 3 4 5 6 
#
# 1 0.024027 -0.005447 -0.001665 -0.000789 -0.001349 0.004518
# 2 -0.005447 0.008800 -0.002647 -0.004005 -0.000742 -0.004012
# 3 -0.001665 -0.002647 0.007416 0.000183 0.000920 0.001354
# 4 -0.000789 -0.004005 0.000183 0.023539 0.011282 -0.000812
# 5 -0.001349 -0.000742 0.000920 0.011282 0.047781 -0.001755
# 6 0.004518 -0.004012 0.001354 -0.000812 -0.001755 0.033638
#
#
# Mechanical properties :
#
#
# Convention : Reuss Voigt Hill
#
# Bulk Modulus (GPa) = 48.25051 78.45401 63.35226
# Shear Modulus (GPa) = 29.13283 39.47461 34.30372
#
# Velocity S-wave (km/s) = 3.62419 4.21870 3.93269
# Velocity P-wave (km/s) = 6.26635 7.68775 7.01315
#
# Compressibility (1/GPa) = 0.02072517
#
# Stress axis : x y z
#
# Youngs Moduli (GPa) = 41.62054 113.63203 134.83649
#
# Poissons Ratio (x) = 0.61895 0.22456
# Poissons Ratio (y) = 0.22671 0.35687
# Poissons Ratio (z) = 0.06932 0.30075
#
# Static dielectric constant tensor:
#      x y z
#    x 1.896830 -0.038700 -0.044840 
#    y -0.038700 1.838210 0.016590 
#    z -0.044840 0.016590 1.861110 
# 
# From -- ./inp_files/102845.got.cif
#   From: 2010.05.17/outbox.cif.g08.bks.cpg/sg2_52_cif.got.tgz:102845.got - 2010.06.03 11:33:40.
