data_PCOD9015285
_publ_section_title
;
Structure prediction by ZEFSAII (Michael W. Deem and Ramdas Pophale) SiO2 
 PCOD9015285
Probable space group: P -1
;
_chemical_formula_sum "Si O2"
_cell_formula_units_Z 12
_cell_length_a 13.014604
_cell_length_b 14.926944
_cell_length_c 5.092819
_cell_angle_alpha 64.829878
_cell_angle_beta 92.873587
_cell_angle_gamma 141.436527
_cell_volume 483.223662
_symmetry_space_group_name_H-M "P -1"
_symmetry_group_IT_number 2
_symmetry_cell_setting 'triclinic'
loop_
_space_group_symop_operation_xyz
x,y,z
-x,-y,-z
loop_
_atom_site_type_symbol
_atom_site_label
_atom_site_fract_x
_atom_site_fract_y
_atom_site_fract_z
Si Si1 0.409564 0.263188 0.909886
Si Si2 0.598084 0.347034 0.328705
Si Si3 0.414118 0.984907 0.755050
Si Si4 0.003050 0.385472 0.697103
Si Si5 0.125776 0.189663 0.152701
Si Si6 0.973074 0.173478 0.630437
O O1 0.570046 0.359600 0.013455
O O2 0.318584 0.291560 0.964695
O O3 0.496344 0.337162 0.538023
O O4 0.239185 0.042771 0.175418
O O5 0.805423 0.487484 0.285471
O O6 0.477448 0.148615 0.576144
O O7 0.500000 0.000000 0.500000
O O8 0.188064 0.794118 0.947534
O O9 0.500000 0.000000 0.000000
O O10 0.000000 0.500000 0.500000
O O11 0.983073 0.296668 0.553836
O O12 0.107030 0.253863 0.302225
O O13 0.040373 0.167744 0.905571
O O14 0.000000 0.000000 0.500000
#
# Coordination Sequence:
#
# PCOD9015285 Si02
#       6
#     2   2   2   2   2   2
#     4  11  22  45  74 107 146 188 243 301 367 437
#     4  12  26  45  72 111 147 190 243 303 367 437
#     4  12  27  49  75 102 145 202 251 301 368 433
#     4  12  29  50  75 112 155 195 249 311 365 443
#     4  10  21  41  75 109 141 191 251 301 365 439
#     4  11  23  44  72 109 145 196 246 301 366 439
#
# _framework density 24.833221000000002
#
# number of rings (size 3 to 8) (size 9 to 14) (size 15 to 20)
#    0.000    0.667    3.333    6.000    0.000    3.333 
#    0.000    5.000    0.000    0.000    0.000    0.000 
#    0.000    0.000    0.000    0.000    0.000    0.000 
#
# Total GULP energy -67323.578910 kJ/mol
# GULP energy per Si atom -5610.298243 kJ/mol
# Density = 2.477670 g / cm^3
# Si number density = 24.833221 Si / 1000 Ang^3
#
#
#
# Elastic Constant Matrix: (Units=GPa)
#
#
# Indices 1 2 3 4 5 6 
#
# 1 146.1365 74.2194 43.8305 1.5485 -23.5944 -24.5288
# 2 74.2194 171.5879 57.9910 -9.6295 -1.6326 1.1857
# 3 43.8305 57.9910 76.8310 21.9122 -19.8590 -8.3879
# 4 1.5485 -9.6295 21.9122 66.9535 -2.0165 -1.5745
# 5 -23.5944 -1.6326 -19.8590 -2.0165 52.2957 2.3153
# 6 -24.5288 1.1857 -8.3879 -1.5745 2.3153 48.4695
#
#
#
# Elastic Compliance Matrix: (Units=1/GPa)
#
#
# Indices 1 2 3 4 5 6 
#
# 1 0.010961 -0.004299 -0.001333 -0.000190 0.004066 0.005221
# 2 -0.004299 0.010736 -0.008382 0.004169 -0.004470 -0.003540
# 3 -0.001333 -0.008382 0.025163 -0.009088 0.008200 0.003198
# 4 -0.000190 0.004169 -0.009088 0.018409 -0.002650 -0.001046
# 5 0.004066 -0.004470 0.008200 -0.002650 0.023724 0.002367
# 6 0.005221 -0.003540 0.003198 -0.001046 0.002367 0.023767
#
#
# Mechanical properties :
#
#
# Convention : Reuss Voigt Hill
#
# Bulk Modulus (GPa) = 53.09855 82.95968 68.02912
# Shear Modulus (GPa) = 33.99874 48.11138 41.05506
#
# Velocity S-wave (km/s) = 3.70413 4.40634 4.07041
# Velocity P-wave (km/s) = 6.30258 7.70500 7.03881
#
# Compressibility (1/GPa) = 0.01883290
#
# Stress axis : x y z
#
# Youngs Moduli (GPa) = 91.23471 93.14605 39.74075
#
# Poissons Ratio (x) = 0.40039 0.05298
# Poissons Ratio (y) = 0.39217 0.33310
# Poissons Ratio (z) = 0.12163 0.78072
#
# Static dielectric constant tensor:
#      x y z
#    x 1.957220 -0.022760 0.006680 
#    y -0.022760 2.004230 -0.051680 
#    z 0.006680 -0.051680 1.966640 
# 
# From -- ./inp_files/75792.got.cif
#   From: 2010.05.17/outbox.cif.g08.bks.cpg/sg2_38_cif.got.tgz:75792.got - 2010.06.03 11:33:40.
