data_PCOD9015274
_publ_section_title
;
Structure prediction by ZEFSAII (Michael W. Deem and Ramdas Pophale) SiO2 
 PCOD9015274
Probable space group: P -1
;
_chemical_formula_sum "Si O2"
_cell_formula_units_Z 10
_cell_length_a 7.077916
_cell_length_b 8.118934
_cell_length_c 7.046442
_cell_angle_alpha 76.246731
_cell_angle_beta 122.414530
_cell_angle_gamma 91.515636
_cell_volume 329.505515
_symmetry_space_group_name_H-M "P -1"
_symmetry_group_IT_number 2
_symmetry_cell_setting 'triclinic'
loop_
_space_group_symop_operation_xyz
x,y,z
-x,-y,-z
loop_
_atom_site_type_symbol
_atom_site_label
_atom_site_fract_x
_atom_site_fract_y
_atom_site_fract_z
Si Si1 0.761571 0.975072 0.478298
Si Si2 0.659111 0.466356 0.318503
Si Si3 0.143167 0.780625 0.212402
Si Si4 0.986904 0.346118 0.182024
Si Si5 0.613089 0.779730 0.980468
O O1 0.562573 0.056297 0.211522
O O2 0.791101 0.778784 0.608959
O O3 0.749497 0.083789 0.637316
O O4 0.000000 0.000000 0.500000
O O5 0.746906 0.398670 0.587124
O O6 0.857171 0.401507 0.290504
O O7 0.604784 0.666326 0.197335
O O8 0.458580 0.363019 0.168713
O O9 0.873066 0.808731 0.097104
O O10 0.150956 0.775407 0.991850
O O11 0.000000 0.500000 0.000000
#
# Coordination Sequence:
#
# PCOD9015274 Si02
#       5
#     2   2   2   2   2
#     4  11  24  47  67  98 141 174 223 281 328 397
#     4  10  22  45  66 102 140 170 222 281 327 403
#     4  11  23  43  75  95 135 180 220 275 342 386
#     4  12  24  44  71 100 137 175 223 281 331 396
#     4  10  21  41  74  95 133 182 221 270 338 398
#
# _framework density 30.348507999999999
#
# number of rings (size 3 to 8) (size 9 to 14) (size 15 to 20)
#    0.000    1.200    6.000    1.200    0.000    1.600 
#    0.000   13.000    0.000    0.000    0.000    0.000 
#    0.000    0.000    0.000    0.000    0.000    0.000 
#
# Total GULP energy -56147.385534 kJ/mol
# GULP energy per Si atom -5614.738553 kJ/mol
# Density = 3.027943 g / cm^3
# Si number density = 30.348508 Si / 1000 Ang^3
#
#
#
# Elastic Constant Matrix: (Units=GPa)
#
#
# Indices 1 2 3 4 5 6 
#
# 1 118.6453 40.1940 29.9138 -25.7771 21.5216 -11.0478
# 2 40.1940 191.5241 87.9080 -57.9996 16.5178 -22.6984
# 3 29.9138 87.9080 286.7722 -18.9914 23.9664 -12.3048
# 4 -25.7771 -57.9996 -18.9914 89.2233 -9.6143 12.6977
# 5 21.5216 16.5178 23.9664 -9.6143 57.9656 -15.0434
# 6 -11.0478 -22.6984 -12.3048 12.6977 -15.0434 44.5142
#
#
#
# Elastic Compliance Matrix: (Units=1/GPa)
#
#
# Indices 1 2 3 4 5 6 
#
# 1 0.009796 -0.001116 -0.000318 0.001685 -0.002820 0.000341
# 2 -0.001116 0.007803 -0.001934 0.004064 0.000204 0.002076
# 3 -0.000318 -0.001934 0.004168 -0.000568 -0.001188 -0.000152
# 4 0.001685 0.004064 -0.000568 0.014497 0.000426 -0.001658
# 5 -0.002820 0.000204 -0.001188 0.000426 0.020312 0.005819
# 6 0.000341 0.002076 -0.000152 -0.001658 0.005819 0.026005
#
#
# Mechanical properties :
#
#
# Convention : Reuss Voigt Hill
#
# Bulk Modulus (GPa) = 66.53191 101.44147 83.98669
# Shear Modulus (GPa) = 53.00612 67.60234 60.30423
#
# Velocity S-wave (km/s) = 4.18375 4.72480 4.46248
# Velocity P-wave (km/s) = 6.73116 7.95381 7.36789
#
# Compressibility (1/GPa) = 0.01503038
#
# Stress axis : x y z
#
# Youngs Moduli (GPa) = 102.08283 128.16157 239.90778
#
# Poissons Ratio (x) = 0.14306 0.07625
# Poissons Ratio (y) = 0.11395 0.46402
# Poissons Ratio (z) = 0.03244 0.24789
#
# Static dielectric constant tensor:
#      x y z
#    x 2.445110 0.050440 0.019130 
#    y 0.050440 2.461960 0.031400 
#    z 0.019130 0.031400 2.259980 
# 
# From -- ./inp_files/16294.got.cif
#   From: 2010.05.17/outbox.cif.g08.bks.cpg/sg2_9_cif.got.tgz:16294.got - 2010.06.03 11:33:40.
