data_PCOD9015406
_publ_section_title
;
Structure prediction by ZEFSAII (Michael W. Deem and Ramdas Pophale) SiO2 
 PCOD9015406
Probable space group: P -1
;
_chemical_formula_sum "Si O2"
_cell_formula_units_Z 16
_cell_length_a 14.822581
_cell_length_b 15.321883
_cell_length_c 14.857639
_cell_angle_alpha 32.352958
_cell_angle_beta 30.587384
_cell_angle_gamma 31.164058
_cell_volume 810.154879
_symmetry_space_group_name_H-M "P -1"
_symmetry_group_IT_number 2
_symmetry_cell_setting 'triclinic'
loop_
_space_group_symop_operation_xyz
x,y,z
-x,-y,-z
loop_
_atom_site_type_symbol
_atom_site_label
_atom_site_fract_x
_atom_site_fract_y
_atom_site_fract_z
Si Si1 0.969577 0.840025 0.216412
Si Si2 0.160406 0.020931 0.408098
Si Si3 0.410731 0.027795 0.652768
Si Si4 0.408817 0.644881 0.031981
Si Si5 0.222624 0.956589 0.614335
Si Si6 0.463042 0.376737 0.564434
Si Si7 0.332263 0.562786 0.842593
Si Si8 0.991151 0.547061 0.861262
O O1 0.183527 0.675959 0.196949
O O2 0.816700 0.812992 0.305539
O O3 0.877674 0.908347 0.334500
O O4 0.000000 0.000000 0.000000
O O5 0.119317 0.229695 0.246156
O O6 0.120349 0.012473 0.556475
O O7 0.382724 0.842690 0.357578
O O8 0.000000 0.000000 0.500000
O O9 0.500000 0.000000 0.500000
O O10 0.551197 0.068824 0.562395
O O11 0.411702 0.837047 0.842691
O O12 0.519060 0.576273 0.091298
O O13 0.500000 0.500000 0.000000
O O14 0.234331 0.763220 0.798352
O O15 0.500000 0.500000 0.500000
O O16 0.544222 0.420681 0.363417
O O17 0.222432 0.445776 0.713665
O O18 0.155932 0.518795 0.002152
O O19 0.000000 0.500000 0.000000
#
# Coordination Sequence:
#
# PCOD9015406 Si02
#       8
#     2   2   2   2   2   2   2   2
#     4   9  19  36  62  88 118 163 207 258 320 386
#     4  11  23  41  70  96 132 177 215 273 333 388
#     4   9  18  38  62  84 120 165 208 262 319 386
#     4  11  22  39  60  94 129 165 213 271 327 387
#     4  10  21  42  62  89 127 166 214 268 326 389
#     4  11  23  46  68  98 136 175 221 275 335 395
#     4  11  24  43  64  96 133 168 217 281 322 395
#     4  12  24  45  69  98 136 174 224 275 331 399
#
# _framework density 19.749309
#
# number of rings (size 3 to 8) (size 9 to 14) (size 15 to 20)
#    0.000    1.500    2.500    3.750    1.750    0.500 
#   15.750    3.125    0.000    0.000    0.000    0.000 
#    0.000    0.000    0.000    0.000    0.000    0.000 
#
# Total GULP energy -89187.780898 kJ/mol
# GULP energy per Si atom -5574.236306 kJ/mol
# Density = 1.970436 g / cm^3
# Si number density = 19.749309 Si / 1000 Ang^3
#
#
#
# Elastic Constant Matrix: (Units=GPa)
#
#
# Indices 1 2 3 4 5 6 
#
# 1 146.5356 55.4074 46.1036 13.4638 -15.9738 -28.9122
# 2 55.4074 134.4873 53.1586 5.2095 -14.2931 -21.1065
# 3 46.1036 53.1586 80.6003 1.8581 -14.8731 -22.6586
# 4 13.4638 5.2095 1.8581 39.4679 -4.9513 -1.2312
# 5 -15.9738 -14.2931 -14.8731 -4.9513 45.0374 -2.2554
# 6 -28.9122 -21.1065 -22.6586 -1.2312 -2.2554 34.8409
#
#
#
# Elastic Compliance Matrix: (Units=1/GPa)
#
#
# Indices 1 2 3 4 5 6 
#
# 1 0.009851 -0.001939 -0.002362 -0.002559 0.002093 0.005509
# 2 -0.001939 0.010691 -0.005350 -0.000331 0.000974 0.001440
# 3 -0.002362 -0.005350 0.020540 0.001417 0.004830 0.008520
# 4 -0.002559 -0.000331 0.001417 0.026472 0.002350 -0.000315
# 5 0.002093 0.000974 0.004830 0.002350 0.025469 0.007200
# 6 0.005509 0.001440 0.008520 -0.000315 0.007200 0.040141
#
#
# Mechanical properties :
#
#
# Convention : Reuss Voigt Hill
#
# Bulk Modulus (GPa) = 45.91242 74.55138 60.23190
# Shear Modulus (GPa) = 31.30334 37.66615 34.48475
#
# Velocity S-wave (km/s) = 3.98557 4.37190 4.18320
# Velocity P-wave (km/s) = 6.66916 7.95711 7.34143
#
# Compressibility (1/GPa) = 0.02178060
#
# Stress axis : x y z
#
# Youngs Moduli (GPa) = 101.51572 93.53245 48.68454
#
# Poissons Ratio (x) = 0.18132 0.11500
# Poissons Ratio (y) = 0.19679 0.26048
# Poissons Ratio (z) = 0.23980 0.50042
#
# Static dielectric constant tensor:
#      x y z
#    x 1.699570 -0.033600 -0.012390 
#    y -0.033600 1.741390 0.044350 
#    z -0.012390 0.044350 1.711840 
# 
# From -- ./inp_files/534054.got.cif
#   From: 2010.05.17/outbox.cif.g08.bks.cpg/sg2_268_cif.got.tgz:534054.got - 2010.06.03 11:33:40.
