data_PCOD9015984
_publ_section_title
;
Structure prediction by ZEFSAII (Michael W. Deem and Ramdas Pophale) SiO2 
 PCOD9015984
Probable space group: P -1
;
_chemical_formula_sum "Si O2"
_cell_formula_units_Z 12
_cell_length_a 9.105493
_cell_length_b 14.908503
_cell_length_c 5.800697
_cell_angle_alpha 93.878927
_cell_angle_beta 86.856522
_cell_angle_gamma 143.871486
_cell_volume 463.210011
_symmetry_space_group_name_H-M "P -1"
_symmetry_group_IT_number 2
_symmetry_cell_setting 'triclinic'
loop_
_space_group_symop_operation_xyz
x,y,z
-x,-y,-z
loop_
_atom_site_type_symbol
_atom_site_label
_atom_site_fract_x
_atom_site_fract_y
_atom_site_fract_z
Si Si1 0.720497 0.193375 0.774200
Si Si2 0.761954 0.923811 0.635498
Si Si3 0.191534 0.881896 0.634267
Si Si4 0.266203 0.616480 0.382008
Si Si5 0.504566 0.553068 0.258428
Si Si6 0.005398 0.837575 0.058879
O O1 0.812852 0.214686 0.508513
O O2 0.717994 0.299165 0.804296
O O3 0.892908 0.214615 0.914931
O O4 0.440262 0.018079 0.786216
O O5 0.500700 0.749936 0.560876
O O6 0.749135 0.019240 0.555805
O O7 0.000000 0.000000 0.500000
O O8 0.832555 0.990524 0.898348
O O9 0.958478 0.803041 0.783695
O O10 0.305674 0.535189 0.276461
O O11 0.000000 0.500000 0.500000
O O12 0.500000 0.500000 0.500000
O O13 0.774205 0.732809 0.230330
O O14 0.500000 0.500000 0.000000
#
# Coordination Sequence:
#
# PCOD9015984 Si02
#       6
#     2   2   2   2   2   2
#     4   9  20  41  64 103 144 182 244 301 377 435
#     4  10  21  42  66 106 141 184 245 306 375 441
#     4   9  20  37  67 101 142 182 237 310 368 446
#     4  11  24  47  73 103 149 198 252 313 377 456
#     4  12  30  53  75 107 154 203 252 314 386 453
#     4  11  22  41  75 101 143 190 247 308 375 449
#
# _framework density 25.906178000000001
#
# number of rings (size 3 to 8) (size 9 to 14) (size 15 to 20)
#    0.000    1.667    1.667    2.500    7.000    0.667 
#    9.000    1.667    0.000    0.000    0.000    0.000 
#    0.000    0.000    0.000    0.000    0.000    0.000 
#
# Total GULP energy -66898.211906 kJ/mol
# GULP energy per Si atom -5574.850992 kJ/mol
# Density = 2.584721 g / cm^3
# Si number density = 25.906178 Si / 1000 Ang^3
#
#
#
# Elastic Constant Matrix: (Units=GPa)
#
#
# Indices 1 2 3 4 5 6 
#
# 1 156.7047 38.5716 37.8796 3.0344 -27.3395 -7.3979
# 2 38.5716 113.2050 42.1680 4.3641 -20.0572 11.2944
# 3 37.8796 42.1680 99.2480 2.7961 -32.7197 -10.8130
# 4 3.0344 4.3641 2.7961 44.9721 3.0861 -8.9150
# 5 -27.3395 -20.0572 -32.7197 3.0861 49.2808 -3.2937
# 6 -7.3979 11.2944 -10.8130 -8.9150 -3.2937 47.3819
#
#
#
# Elastic Compliance Matrix: (Units=1/GPa)
#
#
# Indices 1 2 3 4 5 6 
#
# 1 0.007675 -0.001881 -0.000975 -0.000161 0.002962 0.001600
# 2 -0.001881 0.011762 -0.004535 -0.001643 0.000542 -0.004404
# 3 -0.000975 -0.004535 0.015690 -0.000036 0.008373 0.005084
# 4 -0.000161 -0.001643 -0.000036 0.023461 -0.001941 0.004637
# 5 0.002962 0.000542 0.008373 -0.001941 0.028093 0.003832
# 6 0.001600 -0.004404 0.005084 0.004637 0.003832 0.024704
#
#
# Mechanical properties :
#
#
# Convention : Reuss Voigt Hill
#
# Bulk Modulus (GPa) = 49.14716 67.37732 58.26224
# Shear Modulus (GPa) = 37.60889 45.02951 41.31920
#
# Velocity S-wave (km/s) = 3.81430 4.17367 3.99802
# Velocity P-wave (km/s) = 6.19765 7.02073 6.62199
#
# Compressibility (1/GPa) = 0.02034706
#
# Stress axis : x y z
#
# Youngs Moduli (GPa) = 130.28511 85.01939 63.73564
#
# Poissons Ratio (x) = 0.15989 0.06214
# Poissons Ratio (y) = 0.24501 0.28901
# Poissons Ratio (z) = 0.12703 0.38552
#
# Static dielectric constant tensor:
#      x y z
#    x 2.096490 0.125300 0.081760 
#    y 0.125300 2.288910 0.154450 
#    z 0.081760 0.154450 2.434600 
# 
# From -- ./inp_files/38829.got.cif
#   From: 2010.05.17/outbox.cif.g08.bks.cpg/sg2_20_cif.got.tgz:38829.got - 2010.06.03 11:33:40.
