data_PCOD9015918
_publ_section_title
;
Structure prediction by ZEFSAII (Michael W. Deem and Ramdas Pophale) SiO2 
 PCOD9015918
Probable space group: P -1
;
_chemical_formula_sum "Si O2"
_cell_formula_units_Z 16
_cell_length_a 11.978550
_cell_length_b 14.393978
_cell_length_c 14.831893
_cell_angle_alpha 125.614813
_cell_angle_beta 151.500889
_cell_angle_gamma 43.923824
_cell_volume 836.487074
_symmetry_space_group_name_H-M "P -1"
_symmetry_group_IT_number 2
_symmetry_cell_setting 'triclinic'
loop_
_space_group_symop_operation_xyz
x,y,z
-x,-y,-z
loop_
_atom_site_type_symbol
_atom_site_label
_atom_site_fract_x
_atom_site_fract_y
_atom_site_fract_z
Si Si1 0.769184 0.951818 0.604611
Si Si2 0.620406 0.937921 0.951519
Si Si3 0.701134 0.569695 0.420863
Si Si4 0.655623 0.574391 0.185712
Si Si5 0.377462 0.827769 0.001406
Si Si6 0.762228 0.158807 0.423006
Si Si7 0.171805 0.728030 0.646488
Si Si8 0.743011 0.199681 0.636920
O O1 0.046201 0.909031 0.835991
O O2 0.880731 0.820438 0.545707
O O3 0.500000 0.000000 0.500000
O O4 0.714777 0.072750 0.568501
O O5 0.508899 0.844646 0.791431
O O6 0.950626 0.849395 0.140560
O O7 0.500000 0.000000 0.000000
O O8 0.539364 0.063717 0.898066
O O9 0.597811 0.621591 0.275464
O O10 0.726916 0.426490 0.362512
O O11 0.490901 0.673094 0.402918
O O12 0.012374 0.533769 0.639786
O O13 0.500000 0.500000 0.000000
O O14 0.559766 0.704228 0.127807
O O15 0.368392 0.763498 0.862317
O O16 0.831498 0.228813 0.433206
O O17 0.737325 0.219480 0.537507
O O18 0.000000 0.000000 0.500000
#
# Coordination Sequence:
#
# PCOD9015918 Si02
#       8
#     2   2   2   2   2   2   2   2
#     4   9  19  37  65  92 134 161 215 275 312 381
#     4  11  20  41  67  97 126 168 218 274 324 384
#     4  11  27  42  64  98 134 173 220 269 329 392
#     4  11  23  43  67  87 134 184 217 257 329 402
#     4   9  20  39  66  96 123 171 220 266 320 389
#     4  12  21  41  70  92 128 172 215 269 328 380
#     4  10  21  42  65  98 124 175 218 259 325 398
#     4  11  25  42  61  99 135 167 218 277 318 390
#
# _framework density 19.127611000000002
#
# number of rings (size 3 to 8) (size 9 to 14) (size 15 to 20)
#    0.750    0.750    5.000    0.000    7.000    1.500 
#    0.000    1.875    0.000    0.000    0.000    0.000 
#    0.000    0.000    0.000    0.000    0.000    0.000 
#
# Total GULP energy -89285.366588 kJ/mol
# GULP energy per Si atom -5580.335412 kJ/mol
# Density = 1.908408 g / cm^3
# Si number density = 19.127611 Si / 1000 Ang^3
#
#
#
# Elastic Constant Matrix: (Units=GPa)
#
#
# Indices 1 2 3 4 5 6 
#
# 1 122.5329 38.5776 34.9734 -22.6148 -19.1447 -9.7684
# 2 38.5776 81.7832 7.5011 -8.8533 -10.3277 -15.4004
# 3 34.9734 7.5011 66.8560 -4.4495 -3.5041 -4.0527
# 4 -22.6148 -8.8533 -4.4495 18.9866 4.1657 1.2035
# 5 -19.1447 -10.3277 -3.5041 4.1657 28.6318 -1.8111
# 6 -9.7684 -15.4004 -4.0527 1.2035 -1.8111 40.3519
#
#
#
# Elastic Compliance Matrix: (Units=1/GPa)
#
#
# Indices 1 2 3 4 5 6 
#
# 1 0.014397 -0.003922 -0.005874 0.012602 0.005741 0.001280
# 2 -0.003922 0.015560 0.000903 0.001772 0.003170 0.005169
# 3 -0.005874 0.000903 0.017770 -0.002225 -0.001058 0.000726
# 4 0.012602 0.001772 -0.002225 0.068119 -0.001027 0.001426
# 5 0.005741 0.003170 -0.001058 -0.001027 0.040202 0.004328
# 6 0.001280 0.005169 0.000726 0.001426 0.004328 0.027289
#
#
# Mechanical properties :
#
#
# Convention : Reuss Voigt Hill
#
# Bulk Modulus (GPa) = 33.39891 48.14181 40.77036
# Shear Modulus (GPa) = 23.68497 30.26874 26.97685
#
# Velocity S-wave (km/s) = 3.52271 3.98233 3.75955
# Velocity P-wave (km/s) = 5.83481 6.80946 6.34089
#
# Compressibility (1/GPa) = 0.02994110
#
# Stress axis : x y z
#
# Youngs Moduli (GPa) = 69.45665 64.26601 56.27597
#
# Poissons Ratio (x) = 0.25207 0.33058
# Poissons Ratio (y) = 0.27243 -0.05084
# Poissons Ratio (z) = 0.40801 -0.05806
#
# Static dielectric constant tensor:
#      x y z
#    x 1.671870 0.012770 0.019180 
#    y 0.012770 1.637260 0.002310 
#    z 0.019180 0.002310 1.726610 
# 
# From -- ./inp_files/521694.got.cif
#   From: 2010.05.17/outbox.cif.g08.bks.cpg/sg2_261_cif.got.tgz:521694.got - 2010.06.03 11:33:40.
