data_PCOD9015794
_publ_section_title
;
Structure prediction by ZEFSAII (Michael W. Deem and Ramdas Pophale) SiO2 
 PCOD9015794
Probable space group: P -1
;
_chemical_formula_sum "Si O2"
_cell_formula_units_Z 14
_cell_length_a 12.951484
_cell_length_b 10.927672
_cell_length_c 9.225325
_cell_angle_alpha 113.837703
_cell_angle_beta 121.438698
_cell_angle_gamma 32.477993
_cell_volume 596.347043
_symmetry_space_group_name_H-M "P -1"
_symmetry_group_IT_number 2
_symmetry_cell_setting 'triclinic'
loop_
_space_group_symop_operation_xyz
x,y,z
-x,-y,-z
loop_
_atom_site_type_symbol
_atom_site_label
_atom_site_fract_x
_atom_site_fract_y
_atom_site_fract_z
Si Si1 0.982806 0.449060 0.273770
Si Si2 0.393883 0.830601 0.122199
Si Si3 0.277915 0.387579 0.361522
Si Si4 0.034909 0.734146 0.100600
Si Si5 0.807674 0.389280 0.315659
Si Si6 0.433487 0.045497 0.804892
Si Si7 0.134693 0.917301 0.200310
O O1 0.931246 0.407669 0.355353
O O2 0.810032 0.717935 0.265399
O O3 0.202404 0.321617 0.357602
O O4 0.953705 0.371025 0.082117
O O5 0.605714 0.553543 0.141939
O O6 0.477895 0.904392 0.192015
O O7 0.293704 0.879872 0.228056
O O8 0.201262 0.997346 0.948161
O O9 0.278672 0.501765 0.536858
O O10 0.101867 0.584021 0.210980
O O11 0.476564 0.166705 0.307879
O O12 0.193587 0.717259 0.202771
O O13 0.978142 0.122884 0.297965
O O14 0.500000 0.000000 0.000000
O O15 0.000000 0.000000 0.000000
#
# Coordination Sequence:
#
# PCOD9015794 Si02
#       7
#     2   2   2   2   2   2   2
#     4  11  21  40  64  92 124 165 203 249 310 379
#     4  10  22  40  64  91 121 162 212 249 298 373
#     4  12  24  40  62  95 131 157 197 266 312 361
#     4  11  21  41  66  88 123 163 212 250 295 369
#     4  11  24  40  64  95 124 160 206 253 318 355
#     4  11  21  36  62  90 128 158 204 246 311 366
#     4  10  21  42  65  89 121 165 212 254 291 374
#
# _framework density 23.476261999999998
#
# number of rings (size 3 to 8) (size 9 to 14) (size 15 to 20)
#    0.000    1.143    5.714    1.714    0.000    6.286 
#    0.000    0.714    0.000    0.000    0.000    0.000 
#    0.000    0.000    0.000    0.000    0.000    0.000 
#
# Total GULP energy -78090.486029 kJ/mol
# GULP energy per Si atom -5577.891859 kJ/mol
# Density = 2.342283 g / cm^3
# Si number density = 23.476262 Si / 1000 Ang^3
#
#
#
# Elastic Constant Matrix: (Units=GPa)
#
#
# Indices 1 2 3 4 5 6 
#
# 1 76.7706 26.5571 8.8482 15.7527 -9.0836 0.1828
# 2 26.5571 46.3870 16.0169 16.4594 9.4836 -16.8030
# 3 8.8482 16.0169 91.8671 20.7441 -11.8892 -1.5134
# 4 15.7527 16.4594 20.7441 33.9304 -6.3435 0.1207
# 5 -9.0836 9.4836 -11.8892 -6.3435 8.5713 2.8776
# 6 0.1828 -16.8030 -1.5134 0.1207 2.8776 25.9658
#
#
#
# Elastic Compliance Matrix: (Units=1/GPa)
#
#
# Indices 1 2 3 4 5 6 
#
# 1 0.004979 0.020239 -0.005485 -0.016905 -0.043146 0.017602
# 2 0.020239 -0.037838 0.013444 0.021423 0.109947 -0.036129
# 3 -0.005485 0.013444 0.009613 -0.013935 -0.021615 0.011759
# 4 -0.016905 0.021423 -0.013935 0.026506 -0.047478 0.018309
# 5 -0.043146 0.109947 -0.021615 -0.047478 -0.144854 0.086467
# 6 0.017602 -0.036129 0.011759 0.018309 0.086467 0.006026
#
#
# Mechanical properties :
#
#
# Convention : Reuss Voigt Hill
#
# Bulk Modulus (GPa) = 30.16633 35.31880 32.74256
# Shear Modulus (GPa) = -27.63720 24.60034 -1.51843
#
# Velocity S-wave (km/s) = -3.43482 3.24061 -0.80511
# Velocity P-wave (km/s) = 1.68908 5.39251 3.62120
#
# Compressibility (1/GPa) = 0.03314954
#
# Stress axis : x y z
#
# Youngs Moduli (GPa) = 200.86361 -26.42811 104.03068
#
# Poissons Ratio (x) = 0.53488 0.57058
# Poissons Ratio (y) = -4.06530 -1.39861
# Poissons Ratio (z) = 1.10169 0.35530
#
# Static dielectric constant tensor:
#      x y z
#    x 2.013670 0.001060 0.013180 
#    y 0.001060 1.929310 0.004370 
#    z 0.013180 0.004370 1.943590 
# 
# From -- ./inp_files/261189.got.cif
#   From: 2010.05.17/outbox.cif.g08.bks.cpg/sg2_131_cif.got.tgz:261189.got - 2010.06.03 11:33:40.
