data_PCOD9015000
_publ_section_title
;
Structure prediction by ZEFSAII (Michael W. Deem and Ramdas Pophale) SiO2 
 PCOD9015000
Probable space group: P -1
;
_chemical_formula_sum "Si O2"
_cell_formula_units_Z 12
_cell_length_a 5.610413
_cell_length_b 18.617876
_cell_length_c 14.745613
_cell_angle_alpha 20.687218
_cell_angle_beta 110.083490
_cell_angle_gamma 114.575045
_cell_volume 489.798926
_symmetry_space_group_name_H-M "P -1"
_symmetry_group_IT_number 2
_symmetry_cell_setting 'triclinic'
loop_
_space_group_symop_operation_xyz
x,y,z
-x,-y,-z
loop_
_atom_site_type_symbol
_atom_site_label
_atom_site_fract_x
_atom_site_fract_y
_atom_site_fract_z
Si Si1 0.053121 0.893236 0.864237
Si Si2 0.393207 0.624907 0.261859
Si Si3 0.381996 0.313385 0.463692
Si Si4 0.718077 0.961589 0.463285
Si Si5 0.533854 0.686043 0.919270
Si Si6 0.288472 0.967153 0.098445
O O1 0.795394 0.782966 0.902049
O O2 0.119866 0.108908 0.677205
O O3 0.262825 0.001882 0.683714
O O4 0.133548 0.704932 0.148857
O O5 0.500000 0.500000 0.500000
O O6 0.360601 0.484013 0.335259
O O7 0.609735 0.851807 0.025837
O O8 0.645977 0.239777 0.606903
O O9 0.411030 0.446869 0.217219
O O10 0.563260 0.741804 0.750555
O O11 0.634247 0.160844 0.252773
O O12 0.000000 0.000000 0.500000
O O13 0.500000 0.000000 0.000000
O O14 0.000000 0.000000 0.000000
#
# Coordination Sequence:
#
# PCOD9015000 Si02
#       6
#     2   2   2   2   2   2
#     4  10  23  42  65  99 135 172 234 282 342 428
#     4  11  23  43  67  96 139 181 233 289 348 407
#     4  11  24  43  68 101 134 185 231 285 351 415
#     4   9  19  42  67  96 134 168 222 287 343 421
#     4  10  21  41  70  95 132 178 219 288 351 409
#     4  11  26  46  70 103 138 185 244 291 349 428
#
# _framework density 24.499851
#
# number of rings (size 3 to 8) (size 9 to 14) (size 15 to 20)
#    0.000    1.667    3.333    0.000    2.333    4.000 
#    3.000    7.500    0.000    0.000    0.000    0.000 
#    0.000    0.000    0.000    0.000    0.000    0.000 
#
# Total GULP energy -66820.580870 kJ/mol
# GULP energy per Si atom -5568.381739 kJ/mol
# Density = 2.444409 g / cm^3
# Si number density = 24.499851 Si / 1000 Ang^3
#
#
#
# Elastic Constant Matrix: (Units=GPa)
#
#
# Indices 1 2 3 4 5 6 
#
# 1 54.5300 -3.7855 33.2918 5.0738 16.8352 14.6926
# 2 -3.7855 67.5193 12.6963 -7.5251 2.2460 -3.5360
# 3 33.2918 12.6963 180.6423 9.8108 12.8182 0.9708
# 4 5.0738 -7.5251 9.8108 66.5339 3.7864 5.1481
# 5 16.8352 2.2460 12.8182 3.7864 36.6418 14.9602
# 6 14.6926 -3.5360 0.9708 5.1481 14.9602 35.2391
#
#
#
# Elastic Compliance Matrix: (Units=1/GPa)
#
#
# Indices 1 2 3 4 5 6 
#
# 1 0.025251 0.002075 -0.004234 -0.000101 -0.007352 -0.007067
# 2 0.002075 0.015543 -0.001428 0.001826 -0.002160 0.001384
# 3 -0.004234 -0.001428 0.006523 -0.000899 -0.000966 0.001984
# 4 -0.000101 0.001826 -0.000899 0.015549 -0.000644 -0.001748
# 5 -0.007352 -0.002160 -0.000966 -0.000644 0.036283 -0.012434
# 6 -0.007067 0.001384 0.001984 -0.001748 -0.012434 0.036943
#
#
# Mechanical properties :
#
#
# Convention : Reuss Voigt Hill
#
# Bulk Modulus (GPa) = 24.91104 43.01073 33.96089
# Shear Modulus (GPa) = 31.91877 45.04887 38.48382
#
# Velocity S-wave (km/s) = 3.61337 4.29271 3.96760
# Velocity P-wave (km/s) = 5.25343 6.49333 5.90601
#
# Compressibility (1/GPa) = 0.04014284
#
# Stress axis : x y z
#
# Youngs Moduli (GPa) = 39.60207 64.33607 153.29694
#
# Poissons Ratio (x) = -0.13350 0.64912
# Poissons Ratio (y) = -0.08218 0.21894
# Poissons Ratio (z) = 0.16769 0.09189
#
# Static dielectric constant tensor:
#      x y z
#    x 2.067190 -0.126540 -0.063130 
#    y -0.126540 1.850800 -0.014820 
#    z -0.063130 -0.014820 1.984100 
# 
# From -- ./inp_files/3178.got.cif
#   From: 2010.05.17/outbox.cif.g08.bks.cpg/sg2_2_cif.got.tgz:3178.got - 2010.06.03 11:33:40.
