data_PCOD9015299
_publ_section_title
;
Structure prediction by ZEFSAII (Michael W. Deem and Ramdas Pophale) SiO2 
 PCOD9015299
Probable space group: P -1
;
_chemical_formula_sum "Si O2"
_cell_formula_units_Z 11
_cell_length_a 7.534741
_cell_length_b 10.110138
_cell_length_c 7.139550
_cell_angle_alpha 67.007714
_cell_angle_beta 109.905446
_cell_angle_gamma 75.017685
_cell_volume 419.843633
_symmetry_space_group_name_H-M "P -1"
_symmetry_group_IT_number 2
_symmetry_cell_setting 'triclinic'
loop_
_space_group_symop_operation_xyz
x,y,z
-x,-y,-z
loop_
_atom_site_type_symbol
_atom_site_label
_atom_site_fract_x
_atom_site_fract_y
_atom_site_fract_z
Si Si1 0.660153 0.721549 0.265749
Si Si2 0.283428 0.576676 0.764424
Si Si3 0.124938 0.338754 0.248073
Si Si4 0.500000 0.000000 0.500000
Si Si5 0.251641 0.975116 0.811481
Si Si6 0.764847 0.112543 0.578948
O O1 0.756980 0.567478 0.248661
O O2 0.751129 0.638283 0.543432
O O3 0.730777 0.865052 0.208656
O O4 0.418858 0.812335 0.055487
O O5 0.299008 0.700679 0.553042
O O6 0.070148 0.694287 0.733322
O O7 0.500000 0.500000 0.000000
O O8 0.301686 0.188013 0.289458
O O9 0.000000 0.500000 0.000000
O O10 0.391053 0.930784 0.335639
O O11 0.012194 0.012053 0.744910
O O12 0.298847 0.947824 0.613749
#
# Coordination Sequence:
#
# PCOD9015299 Si02
#       6
#     2   2   2   1   2   2
#     4  11  23  43  77 112 143 190 260 305 361 451
#     4  12  24  45  78 108 142 200 253 308 364 450
#     4  12  27  47  74 109 155 196 239 314 381 432
#     4  12  26  48  72 104 156 196 246 312 380 440
#     4  10  21  41  77 102 141 195 256 295 362 453
#     4  11  21  44  72 102 142 200 243 298 374 437
#
# _framework density 26.200229
#
# number of rings (size 3 to 8) (size 9 to 14) (size 15 to 20)
#    0.000    0.727    5.455    2.727    0.000    0.000 
#    0.000    4.545    0.000    0.000    0.000    0.000 
#    0.000    0.000    0.000    0.000    0.000    0.000 
#
# Total GULP energy -61361.301000 kJ/mol
# GULP energy per Si atom -5578.300091 kJ/mol
# Density = 2.614060 g / cm^3
# Si number density = 26.200229 Si / 1000 Ang^3
#
#
#
# Elastic Constant Matrix: (Units=GPa)
#
#
# Indices 1 2 3 4 5 6 
#
# 1 110.8643 29.7477 47.7270 -10.3643 49.8385 -0.3499
# 2 29.7477 159.3349 54.9505 -24.0995 18.9089 -7.4613
# 3 47.7270 54.9505 187.3205 -35.4384 32.2034 -17.9376
# 4 -10.3643 -24.0995 -35.4384 50.9898 -7.4265 6.4075
# 5 49.8385 18.9089 32.2034 -7.4265 61.1311 -6.8592
# 6 -0.3499 -7.4613 -17.9376 6.4075 -6.8592 32.3442
#
#
#
# Elastic Compliance Matrix: (Units=1/GPa)
#
#
# Indices 1 2 3 4 5 6 
#
# 1 0.015311 -0.000971 -0.001966 0.000059 -0.011544 -0.003608
# 2 -0.000971 0.007335 -0.001375 0.002201 -0.000442 0.000389
# 3 -0.001966 -0.001375 0.007377 0.003563 -0.001110 0.002811
# 4 0.000059 0.002201 0.003563 0.023410 -0.000003 -0.002154
# 5 -0.011544 -0.000442 -0.001110 -0.000003 0.027040 0.004893
# 6 -0.003608 0.000389 0.002811 -0.002154 0.004893 0.033992
#
#
# Mechanical properties :
#
#
# Convention : Reuss Voigt Hill
#
# Bulk Modulus (GPa) = 46.72987 80.26335 63.49661
# Shear Modulus (GPa) = 38.39665 50.56598 44.48132
#
# Velocity S-wave (km/s) = 3.83235 4.39792 4.12484
# Velocity P-wave (km/s) = 6.12021 7.51599 6.85372
#
# Compressibility (1/GPa) = 0.02139959
#
# Stress axis : x y z
#
# Youngs Moduli (GPa) = 65.31448 136.33292 135.56348
#
# Poissons Ratio (x) = 0.13231 0.26652
# Poissons Ratio (y) = 0.06339 0.18637
# Poissons Ratio (z) = 0.12841 0.18743
#
# Static dielectric constant tensor:
#      x y z
#    x 10.577330 0.723280 -0.563530 
#    y 0.723280 2.107340 0.040470 
#    z -0.563530 0.040470 2.103500 
# 
# From -- ./inp_files/147618.got.cif
#   From: 2010.05.17/outbox.cif.g08.bks.cpg/sg2_74_cif.got.tgz:147618.got - 2010.06.03 11:33:40.
