data_PCOD9015161
_publ_section_title
;
Structure prediction by ZEFSAII (Michael W. Deem and Ramdas Pophale) SiO2 
 PCOD9015161
Probable space group: P -1
;
_chemical_formula_sum "Si O2"
_cell_formula_units_Z 16
_cell_length_a 13.863458
_cell_length_b 12.267437
_cell_length_c 8.187230
_cell_angle_alpha 71.819928
_cell_angle_beta 50.269297
_cell_angle_gamma 110.075694
_cell_volume 681.224989
_symmetry_space_group_name_H-M "P -1"
_symmetry_group_IT_number 2
_symmetry_cell_setting 'triclinic'
loop_
_space_group_symop_operation_xyz
x,y,z
-x,-y,-z
loop_
_atom_site_type_symbol
_atom_site_label
_atom_site_fract_x
_atom_site_fract_y
_atom_site_fract_z
Si Si1 0.094024 0.897393 0.760550
Si Si2 0.895676 0.295113 0.697641
Si Si3 0.328217 0.675667 0.853372
Si Si4 0.301087 0.249155 0.198486
Si Si5 0.313584 0.501220 0.226318
Si Si6 0.701314 0.696760 0.183070
Si Si7 0.299526 0.045393 0.814872
Si Si8 0.978641 0.380585 0.203069
O O1 0.121379 0.793788 0.691911
O O2 0.185411 0.063852 0.481026
O O3 0.182826 0.959029 0.814280
O O4 0.869054 0.756460 0.078450
O O5 0.104156 0.411338 0.489996
O O6 0.892689 0.341468 0.494722
O O7 0.786586 0.305863 0.931691
O O8 0.796968 0.105467 0.885429
O O9 0.489353 0.847852 0.501115
O O10 0.409406 0.637893 0.909587
O O11 0.195008 0.509177 0.960594
O O12 0.292881 0.352464 0.280824
O O13 0.524056 0.372993 0.874009
O O14 0.228495 0.246977 0.106130
O O15 0.500000 0.500000 0.500000
O O16 0.687344 0.817294 0.202086
O O17 0.000000 0.500000 0.000000
#
# Coordination Sequence:
#
# PCOD9015161 Si02
#       8
#     2   2   2   2   2   2   2   2
#     4  12  25  44  70 101 142 184 230 287 351 417
#     4  11  24  44  76  99 140 185 237 284 352 414
#     4  11  23  48  68  99 144 187 235 286 347 410
#     4  11  23  42  71 100 143 180 231 287 354 411
#     4  10  21  41  72 101 135 186 231 283 349 416
#     4  12  26  42  68 105 142 181 229 289 352 421
#     4  12  25  45  67 104 142 183 236 290 343 414
#     4  11  24  46  72 103 135 182 231 290 350 416
#
# _framework density 23.487103000000001
#
# number of rings (size 3 to 8) (size 9 to 14) (size 15 to 20)
#    0.000    0.750    1.250    7.875    3.500    0.000 
#    4.500    1.250    0.000    0.000    0.000    0.000 
#    0.000    0.000    0.000    0.000    0.000    0.000 
#
# Total GULP energy -89469.721434 kJ/mol
# GULP energy per Si atom -5591.857590 kJ/mol
# Density = 2.343365 g / cm^3
# Si number density = 23.487103 Si / 1000 Ang^3
#
#
#
# Elastic Constant Matrix: (Units=GPa)
#
#
# Indices 1 2 3 4 5 6 
#
# 1 56.4555 20.6751 8.3546 -0.4417 8.7522 4.9930
# 2 20.6751 126.4389 35.9260 -28.0861 -4.3097 -8.0547
# 3 8.3546 35.9260 100.9916 -10.5393 1.1393 -1.0220
# 4 -0.4417 -28.0861 -10.5393 31.6260 -3.2713 -2.9688
# 5 8.7522 -4.3097 1.1393 -3.2713 30.1213 -3.4875
# 6 4.9930 -8.0547 -1.0220 -2.9688 -3.4875 36.1001
#
#
#
# Elastic Compliance Matrix: (Units=1/GPa)
#
#
# Indices 1 2 3 4 5 6 
#
# 1 0.021448 -0.005326 -0.000463 -0.005951 -0.008254 -0.005455
# 2 -0.005326 0.012554 -0.002875 0.011115 0.005224 0.004875
# 3 -0.000463 -0.002875 0.011077 0.001046 -0.000610 -0.000237
# 4 -0.005951 0.011115 0.001046 0.043404 0.008892 0.007761
# 5 -0.008254 0.005224 -0.000610 0.008892 0.038110 0.006703
# 6 -0.005455 0.004875 -0.000237 0.007761 0.006703 0.030822
#
#
# Mechanical properties :
#
#
# Convention : Reuss Voigt Hill
#
# Bulk Modulus (GPa) = 36.03530 45.97750 41.00640
# Shear Modulus (GPa) = 27.17500 34.16484 30.66992
#
# Velocity S-wave (km/s) = 3.40519 3.81809 3.61753
# Velocity P-wave (km/s) = 5.55304 6.24942 5.91149
#
# Compressibility (1/GPa) = 0.02775057
#
# Stress axis : x y z
#
# Youngs Moduli (GPa) = 46.62515 79.65341 90.28118
#
# Poissons Ratio (x) = 0.42426 0.04176
# Poissons Ratio (y) = 0.24834 0.25957
# Poissons Ratio (z) = 0.02157 0.22901
#
# Static dielectric constant tensor:
#      x y z
#    x 1.946240 -0.014480 -0.006440 
#    y -0.014480 1.871800 0.034040 
#    z -0.006440 0.034040 1.944650 
# 
# From -- ./inp_files/306921.got.cif
#   From: 2010.05.17/outbox.cif.g08.bks.cpg/sg2_154_cif.got.tgz:306921.got - 2010.06.03 11:33:40.
