data_PCOD9015813
_publ_section_title
;
Structure prediction by ZEFSAII (Michael W. Deem and Ramdas Pophale) SiO2 
 PCOD9015813
Probable space group: P -1
;
_chemical_formula_sum "Si O2"
_cell_formula_units_Z 16
_cell_length_a 15.087722
_cell_length_b 14.975621
_cell_length_c 13.716380
_cell_angle_alpha 28.517804
_cell_angle_beta 28.483843
_cell_angle_gamma 27.917581
_cell_volume 615.584267
_symmetry_space_group_name_H-M "P -1"
_symmetry_group_IT_number 2
_symmetry_cell_setting 'triclinic'
loop_
_space_group_symop_operation_xyz
x,y,z
-x,-y,-z
loop_
_atom_site_type_symbol
_atom_site_label
_atom_site_fract_x
_atom_site_fract_y
_atom_site_fract_z
Si Si1 0.770400 0.018903 0.194860
Si Si2 0.434828 0.733489 0.670643
Si Si3 0.640399 0.641931 0.842426
Si Si4 0.099109 0.424529 0.604765
Si Si5 0.508210 0.361308 0.510336
Si Si6 0.207912 0.886685 0.342362
Si Si7 0.581651 0.763446 0.999459
Si Si8 0.955883 0.383449 0.316075
O O1 0.675750 0.050330 0.366355
O O2 0.817594 0.819012 0.273012
O O3 0.572269 0.229193 0.138189
O O4 0.000000 0.000000 0.000000
O O5 0.320499 0.594920 0.939836
O O6 0.680107 0.570998 0.620583
O O7 0.434655 0.771201 0.518822
O O8 0.591747 0.771987 0.865436
O O9 0.867688 0.583971 0.629077
O O10 0.041749 0.492186 0.708915
O O11 0.638960 0.252487 0.583167
O O12 0.553336 0.555640 0.249850
O O13 0.259223 0.450992 0.689775
O O14 0.364784 0.954133 0.071228
O O15 0.112241 0.800596 0.430029
O O16 0.000000 0.000000 0.500000
O O17 0.811437 0.717836 0.858605
#
# Coordination Sequence:
#
# PCOD9015813 Si02
#       8
#     2   2   2   2   2   2   2   2
#     4  12  24  40  66  96 132 167 216 261 317 382
#     4  10  21  42  65  91 127 172 212 263 321 366
#     4  10  22  43  64  93 131 167 208 267 316 378
#     4  10  22  43  64  95 128 165 219 261 314 384
#     4   9  20  38  63  86 119 166 205 252 306 367
#     4  11  23  38  59  95 128 157 207 257 308 381
#     4   9  19  39  64  85 120 162 204 247 316 366
#     4   9  19  40  63  86 119 161 205 253 309 370
#
# _framework density 25.991567
#
# number of rings (size 3 to 8) (size 9 to 14) (size 15 to 20)
#    0.000    2.000    1.250    3.000    0.000    4.000 
#   11.250    0.000    0.000    0.000    0.000    0.000 
#    0.000    0.000    0.000    0.000    0.000    0.000 
#
# Total GULP energy -89218.483304 kJ/mol
# GULP energy per Si atom -5576.155207 kJ/mol
# Density = 2.593241 g / cm^3
# Si number density = 25.991567 Si / 1000 Ang^3
#
#
#
# Elastic Constant Matrix: (Units=GPa)
#
#
# Indices 1 2 3 4 5 6 
#
# 1 120.4815 41.1074 46.7174 23.0337 -6.7045 9.5674
# 2 41.1074 113.9651 55.3593 46.3881 -3.4059 14.6956
# 3 46.7174 55.3593 142.9067 59.4175 -18.9410 -7.5705
# 4 23.0337 46.3881 59.4175 63.9386 -2.6086 -6.9476
# 5 -6.7045 -3.4059 -18.9410 -2.6086 44.7956 11.3988
# 6 9.5674 14.6956 -7.5705 -6.9476 11.3988 37.3431
#
#
#
# Elastic Compliance Matrix: (Units=1/GPa)
#
#
# Indices 1 2 3 4 5 6 
#
# 1 0.010268 -0.002065 -0.002524 -0.000103 0.000980 -0.002648
# 2 -0.002065 0.015320 -0.001309 -0.009969 0.001801 -0.008170
# 3 -0.002524 -0.001309 0.013139 -0.010106 0.004331 0.000623
# 4 -0.000103 -0.009969 -0.010106 0.033135 -0.005605 0.009776
# 5 0.000980 0.001801 0.004331 -0.005605 0.026453 -0.009199
# 6 -0.002648 -0.008170 0.000623 0.009776 -0.009199 0.035425
#
#
# Mechanical properties :
#
#
# Convention : Reuss Voigt Hill
#
# Bulk Modulus (GPa) = 37.13238 73.74686 55.43962
# Shear Modulus (GPa) = 32.35956 44.82675 38.59316
#
# Velocity S-wave (km/s) = 3.53229 4.15741 3.85753
# Velocity P-wave (km/s) = 5.56358 7.17499 6.42004
#
# Compressibility (1/GPa) = 0.02693067
#
# Stress axis : x y z
#
# Youngs Moduli (GPa) = 97.39116 65.27292 76.10925
#
# Poissons Ratio (x) = 0.13477 0.19213
# Poissons Ratio (y) = 0.20109 0.09963
# Poissons Ratio (z) = 0.24586 0.08545
#
# Static dielectric constant tensor:
#      x y z
#    x 2.207220 0.108100 0.143060 
#    y 0.108100 2.226580 0.019650 
#    z 0.143060 0.019650 2.253520 
# 
# From -- ./inp_files/533659.got.cif
#   From: 2010.05.17/outbox.cif.g08.bks.cpg/sg2_267_cif.got.tgz:533659.got - 2010.06.03 11:33:40.
