data_PCOD9015401
_publ_section_title
;
Structure prediction by ZEFSAII (Michael W. Deem and Ramdas Pophale) SiO2 
 PCOD9015401
Probable space group: P -1
;
_chemical_formula_sum "Si O2"
_cell_formula_units_Z 16
_cell_length_a 7.934703
_cell_length_b 9.085194
_cell_length_c 16.810504
_cell_angle_alpha 117.105820
_cell_angle_beta 90.485067
_cell_angle_gamma 46.743130
_cell_volume 694.053836
_symmetry_space_group_name_H-M "P -1"
_symmetry_group_IT_number 2
_symmetry_cell_setting 'triclinic'
loop_
_space_group_symop_operation_xyz
x,y,z
-x,-y,-z
loop_
_atom_site_type_symbol
_atom_site_label
_atom_site_fract_x
_atom_site_fract_y
_atom_site_fract_z
Si Si1 0.623521 0.786594 0.617241
Si Si2 0.211434 0.440043 0.155317
Si Si3 0.571817 0.580612 0.087607
Si Si4 0.058612 0.181838 0.462893
Si Si5 0.350751 0.078042 0.176114
Si Si6 0.906442 0.790071 0.089384
Si Si7 0.938670 0.896865 0.369705
Si Si8 0.735888 0.197783 0.099342
O O1 0.708181 0.884298 0.590403
O O2 0.665655 0.806090 0.713971
O O3 0.810123 0.490458 0.526571
O O4 0.328625 0.955286 0.638633
O O5 0.168530 0.295585 0.161678
O O6 0.509233 0.243305 0.078486
O O7 0.021310 0.643067 0.136172
O O8 0.167985 0.607359 0.266136
O O9 0.602655 0.473453 0.147666
O O10 0.356014 0.884177 0.153206
O O11 0.500000 0.500000 0.000000
O O12 0.865284 0.413228 0.023105
O O13 0.099079 0.115204 0.540175
O O14 0.005389 0.039696 0.392279
O O15 0.641986 0.891024 0.097700
O O16 0.823860 0.045940 0.144543
O O17 0.000000 0.000000 0.000000
#
# Coordination Sequence:
#
# PCOD9015401 Si02
#       8
#     2   2   2   2   2   2   2   2
#     4  11  22  43  66  97 133 171 222 271 331 400
#     4  11  21  40  66  93 130 172 214 266 325 389
#     4  11  22  41  63  90 127 166 215 271 322 379
#     4  10  24  41  69  95 136 171 212 280 333 395
#     4  11  24  40  63  91 130 169 215 268 322 391
#     4  10  21  42  62  87 122 172 207 263 323 382
#     4  11  22  42  69 100 130 173 220 269 334 398
#     4   9  21  39  62  89 126 163 214 268 315 378
#
# _framework density 23.052966000000001
#
# number of rings (size 3 to 8) (size 9 to 14) (size 15 to 20)
#    0.000    1.500    3.750    1.125    1.750    0.500 
#    6.750    0.000    5.500    0.000    0.000    0.000 
#    0.000    0.000    0.000    0.000    0.000    0.000 
#
# Total GULP energy -89315.094776 kJ/mol
# GULP energy per Si atom -5582.193423 kJ/mol
# Density = 2.300050 g / cm^3
# Si number density = 23.052966 Si / 1000 Ang^3
#
#
#
# Elastic Constant Matrix: (Units=GPa)
#
#
# Indices 1 2 3 4 5 6 
#
# 1 86.8441 42.0892 33.1832 3.1241 4.3232 15.2034
# 2 42.0892 205.0797 33.4315 -11.6513 14.1399 47.4077
# 3 33.1832 33.4315 48.6519 4.6125 9.5486 11.0963
# 4 3.1241 -11.6513 4.6125 32.1873 2.7592 5.1050
# 5 4.3232 14.1399 9.5486 2.7592 22.6371 8.7832
# 6 15.2034 47.4077 11.0963 5.1050 8.7832 48.2106
#
#
#
# Elastic Compliance Matrix: (Units=1/GPa)
#
#
# Indices 1 2 3 4 5 6 
#
# 1 0.016338 -0.001516 -0.010206 -0.000639 0.002897 -0.001773
# 2 -0.001516 0.007472 -0.002802 0.004384 -0.001221 -0.006466
# 3 -0.010206 -0.002802 0.031462 -0.003860 -0.009435 0.000860
# 4 -0.000639 0.004384 -0.003860 0.034515 -0.002720 -0.006380
# 5 0.002897 -0.001221 -0.009435 -0.002720 0.051253 -0.006591
# 6 -0.001773 -0.006466 0.000860 -0.006380 -0.006591 0.029339
#
#
# Mechanical properties :
#
#
# Convention : Reuss Voigt Hill
#
# Bulk Modulus (GPa) = 38.13022 61.99818 50.06420
# Shear Modulus (GPa) = 24.01911 36.06510 30.04210
#
# Velocity S-wave (km/s) = 3.23136 3.95960 3.61387
# Velocity P-wave (km/s) = 5.52254 6.91786 6.25920
#
# Compressibility (1/GPa) = 0.02622592
#
# Stress axis : x y z
#
# Youngs Moduli (GPa) = 61.20615 133.83219 31.78450
#
# Poissons Ratio (x) = 0.20284 0.32438
# Poissons Ratio (y) = 0.09277 0.08905
# Poissons Ratio (z) = 0.62465 0.37497
#
# Static dielectric constant tensor:
#      x y z
#    x 1.917790 0.051660 0.025250 
#    y 0.051660 1.914550 0.014490 
#    z 0.025250 0.014490 1.909700 
# 
# From -- ./inp_files/557374.got.cif
#   From: 2010.05.17/outbox.cif.g08.bks.cpg/sg2_279_cif.got.tgz:557374.got - 2010.06.03 11:33:40.
