data_PCOD9015113
_publ_section_title
;
Structure prediction by ZEFSAII (Michael W. Deem and Ramdas Pophale) SiO2 
 PCOD9015113
Probable space group: P -1
;
_chemical_formula_sum "Si O2"
_cell_formula_units_Z 12
_cell_length_a 6.508218
_cell_length_b 9.423796
_cell_length_c 17.448362
_cell_angle_alpha 138.443530
_cell_angle_beta 48.667010
_cell_angle_gamma 130.741635
_cell_volume 505.357398
_symmetry_space_group_name_H-M "P -1"
_symmetry_group_IT_number 2
_symmetry_cell_setting 'triclinic'
loop_
_space_group_symop_operation_xyz
x,y,z
-x,-y,-z
loop_
_atom_site_type_symbol
_atom_site_label
_atom_site_fract_x
_atom_site_fract_y
_atom_site_fract_z
Si Si1 0.230556 0.534703 0.771126
Si Si2 0.272585 0.018405 0.002200
Si Si3 0.931986 0.225532 0.582388
Si Si4 0.292620 0.190123 0.737525
Si Si5 0.756064 0.785430 0.645301
Si Si6 0.668882 0.936091 0.159281
O O1 0.151101 0.756586 0.900340
O O2 0.025799 0.391149 0.698039
O O3 0.228797 0.390526 0.788751
O O4 0.551879 0.616446 0.687917
O O5 0.599377 0.849325 0.053684
O O6 0.009112 0.080616 0.128622
O O7 0.500000 0.000000 0.000000
O O8 0.121077 0.318805 0.497880
O O9 0.595764 0.171200 0.625701
O O10 0.000000 0.000000 0.500000
O O11 0.337815 0.220817 0.830115
O O12 0.027444 0.966485 0.692606
O O13 0.545169 0.918497 0.716631
#
# Coordination Sequence:
#
# PCOD9015113 Si02
#       6
#     2   2   2   2   2   2
#     4  11  26  43  69 106 132 178 235 273 341 404
#     4  10  23  45  70 100 135 178 228 279 338 403
#     4  12  24  45  69  99 143 179 225 280 338 402
#     4  12  24  43  70 103 138 178 226 281 338 405
#     4  11  24  45  69 101 141 183 224 275 339 401
#     4  10  21  41  71  93 136 177 218 277 338 390
#
# _framework density 23.745570000000001
#
# number of rings (size 3 to 8) (size 9 to 14) (size 15 to 20)
#    0.000    1.000    3.333    3.000    0.000    8.000 
#    0.000    4.167    0.000    0.000    0.000    0.000 
#    0.000    0.000    0.000    0.000    0.000    0.000 
#
# Total GULP energy -67090.021679 kJ/mol
# GULP energy per Si atom -5590.835140 kJ/mol
# Density = 2.369152 g / cm^3
# Si number density = 23.745570 Si / 1000 Ang^3
#
#
#
# Elastic Constant Matrix: (Units=GPa)
#
#
# Indices 1 2 3 4 5 6 
#
# 1 160.9922 32.9620 43.3437 -11.0040 4.5230 0.7009
# 2 32.9620 81.3301 24.4648 -19.8258 31.7427 -10.4723
# 3 43.3437 24.4648 74.1932 -17.1459 6.5213 -7.3251
# 4 -11.0040 -19.8258 -17.1459 52.0712 -0.7298 11.5773
# 5 4.5230 31.7427 6.5213 -0.7298 34.1073 -16.3271
# 6 0.7009 -10.4723 -7.3251 11.5773 -16.3271 37.6001
#
#
#
# Elastic Compliance Matrix: (Units=1/GPa)
#
#
# Indices 1 2 3 4 5 6 
#
# 1 0.007805 -0.003136 -0.003947 -0.000688 0.002359 -0.000551
# 2 -0.003136 0.026492 -0.003026 0.009831 -0.027296 -0.008032
# 3 -0.003947 -0.003026 0.017680 0.003388 0.001026 0.002077
# 4 -0.000688 0.009831 0.003388 0.026132 -0.014348 -0.010866
# 5 0.002359 -0.027296 0.001026 -0.014348 0.066222 0.025727
# 6 -0.000551 -0.008032 0.002077 -0.010866 0.025727 0.039291
#
#
# Mechanical properties :
#
#
# Convention : Reuss Voigt Hill
#
# Bulk Modulus (GPa) = 31.48521 57.56181 44.52351
# Shear Modulus (GPa) = 23.31812 39.13871 31.22841
#
# Velocity S-wave (km/s) = 3.13709 4.06427 3.63040
# Velocity P-wave (km/s) = 5.13906 6.80574 6.03026
#
# Compressibility (1/GPa) = 0.03176095
#
# Stress axis : x y z
#
# Youngs Moduli (GPa) = 128.12114 37.74673 56.56253
#
# Poissons Ratio (x) = 0.11836 0.22323
# Poissons Ratio (y) = 0.40175 0.17114
# Poissons Ratio (z) = 0.50565 0.11421
#
# Static dielectric constant tensor:
#      x y z
#    x 1.905390 -0.002290 0.023270 
#    y -0.002290 1.950350 -0.039390 
#    z 0.023270 -0.039390 1.928960 
# 
# From -- ./inp_files/480834.got.cif
#   From: 2010.05.17/outbox.cif.g08.bks.cpg/sg2_241_cif.got.tgz:480834.got - 2010.06.03 11:33:40.
