data_PCOD9015219
_publ_section_title
;
Structure prediction by ZEFSAII (Michael W. Deem and Ramdas Pophale) SiO2 
 PCOD9015219
Probable space group: P -1
;
_chemical_formula_sum "Si O2"
_cell_formula_units_Z 15
_cell_length_a 16.771233
_cell_length_b 5.284459
_cell_length_c 12.648543
_cell_angle_alpha 74.097754
_cell_angle_beta 144.526965
_cell_angle_gamma 107.954205
_cell_volume 618.324615
_symmetry_space_group_name_H-M "P -1"
_symmetry_group_IT_number 2
_symmetry_cell_setting 'triclinic'
loop_
_space_group_symop_operation_xyz
x,y,z
-x,-y,-z
loop_
_atom_site_type_symbol
_atom_site_label
_atom_site_fract_x
_atom_site_fract_y
_atom_site_fract_z
Si Si1 0.849677 0.441149 0.906740
Si Si2 0.588742 0.253499 0.510869
Si Si3 0.500000 0.000000 0.000000
Si Si4 0.303783 0.574851 0.727760
Si Si5 0.781052 0.049804 0.567178
Si Si6 0.909770 0.886829 0.094774
Si Si7 0.925646 0.761771 0.374076
Si Si8 0.550427 0.661482 0.265769
O O1 0.707430 0.436851 0.686845
O O2 0.856426 0.640572 0.989889
O O3 0.000000 0.500000 0.000000
O O4 0.834197 0.137269 0.963918
O O5 0.676552 0.119567 0.534256
O O6 0.502309 0.452025 0.329857
O O7 0.500000 0.000000 0.500000
O O8 0.480854 0.905901 0.120736
O O9 0.640413 0.193012 0.159650
O O10 0.205142 0.698105 0.525469
O O11 0.227545 0.322593 0.734586
O O12 0.428589 0.482819 0.806426
O O13 0.929133 0.020863 0.774624
O O14 0.706135 0.794464 0.453163
O O15 0.914473 0.827658 0.231279
O O16 0.000000 0.500000 0.500000
O O17 0.000000 0.000000 0.500000
#
# Coordination Sequence:
#
# PCOD9015219 Si02
#       8
#     2   2   1   2   2   2   2   2
#     4  12  26  47  73 102 144 190 246 304 356 429
#     4  11  26  45  69 100 140 190 239 302 366 429
#     4  10  22  42  70  98 132 184 234 300 352 440
#     4  10  22  41  67  99 140 181 231 290 365 437
#     4  10  21  41  72  99 132 188 236 292 354 443
#     4  12  25  44  72 109 142 188 244 294 366 431
#     4  12  25  43  70 106 147 185 233 298 368 436
#     4  10  22  43  69 100 133 181 243 286 364 443
#
# _framework density 24.259101999999999
#
# number of rings (size 3 to 8) (size 9 to 14) (size 15 to 20)
#    0.000    1.067    2.667    3.200    5.600    1.600 
#    7.200    0.000    0.000    0.000    0.000    0.000 
#    0.000    0.000    0.000    0.000    0.000    0.000 
#
# Total GULP energy -83638.840797 kJ/mol
# GULP energy per Si atom -5575.922720 kJ/mol
# Density = 2.420389 g / cm^3
# Si number density = 24.259102 Si / 1000 Ang^3
#
#
#
# Elastic Constant Matrix: (Units=GPa)
#
#
# Indices 1 2 3 4 5 6 
#
# 1 75.5846 67.3264 53.2024 0.0741 -32.4348 18.5027
# 2 67.3264 126.4103 38.3332 9.7633 -28.0066 0.3311
# 3 53.2024 38.3332 109.8109 10.2078 -29.5366 0.6085
# 4 0.0741 9.7633 10.2078 53.4145 -2.1068 -7.5268
# 5 -32.4348 -28.0066 -29.5366 -2.1068 28.1778 -0.3764
# 6 18.5027 0.3311 0.6085 -7.5268 -0.3764 49.1188
#
#
#
# Elastic Compliance Matrix: (Units=1/GPa)
#
#
# Indices 1 2 3 4 5 6 
#
# 1 0.064246 -0.022018 -0.013566 0.004802 0.037902 -0.022858
# 2 -0.022018 0.017891 0.003610 -0.003007 -0.003901 0.007638
# 3 -0.013566 0.003610 0.015854 -0.002864 0.004437 0.004484
# 4 0.004802 -0.003007 -0.002864 0.020040 0.001052 0.001326
# 5 0.037902 -0.003901 0.004437 0.001052 0.079789 -0.013534
# 6 -0.022858 0.007638 0.004484 0.001326 -0.013534 0.028962
#
#
# Mechanical properties :
#
#
# Convention : Reuss Voigt Hill
#
# Bulk Modulus (GPa) = 29.37358 69.94776 49.66067
# Shear Modulus (GPa) = 16.55210 36.33848 26.44529
#
# Velocity S-wave (km/s) = 2.61493 3.87451 3.30528
# Velocity P-wave (km/s) = 4.60996 6.99371 5.92299
#
# Compressibility (1/GPa) = 0.03404420
#
# Stress axis : x y z
#
# Youngs Moduli (GPa) = 15.56508 55.89487 63.07734
#
# Poissons Ratio (x) = 1.23067 0.85568
# Poissons Ratio (y) = 0.34271 -0.22771
# Poissons Ratio (z) = 0.21115 -0.20178
#
# Static dielectric constant tensor:
#      x y z
#    x 1.958780 0.052240 -0.206480 
#    y 0.052240 1.950430 0.154440 
#    z -0.206480 0.154440 1.610690 
# 
# From -- ./inp_files/459094.got.cif
#   From: 2010.05.17/outbox.cif.g08.bks.cpg/sg2_230_cif.got.tgz:459094.got - 2010.06.03 11:33:40.
