data_PCOD9015672
_publ_section_title
;
Structure prediction by ZEFSAII (Michael W. Deem and Ramdas Pophale) SiO2 
 PCOD9015672
Probable space group: P -1
;
_chemical_formula_sum "Si O2"
_cell_formula_units_Z 14
_cell_length_a 16.203750
_cell_length_b 17.110061
_cell_length_c 10.736826
_cell_angle_alpha 148.417995
_cell_angle_beta 40.360200
_cell_angle_gamma 157.062514
_cell_volume 603.858622
_symmetry_space_group_name_H-M "P -1"
_symmetry_group_IT_number 2
_symmetry_cell_setting 'triclinic'
loop_
_space_group_symop_operation_xyz
x,y,z
-x,-y,-z
loop_
_atom_site_type_symbol
_atom_site_label
_atom_site_fract_x
_atom_site_fract_y
_atom_site_fract_z
Si Si1 0.848179 0.263986 0.714360
Si Si2 0.860059 0.858814 0.318031
Si Si3 0.784738 0.747161 0.971162
Si Si4 0.713508 0.867306 0.731774
Si Si5 0.509874 0.750245 0.255238
Si Si6 0.640622 0.367579 0.995478
Si Si7 0.746148 0.198018 0.019638
O O1 0.746786 0.332188 0.898584
O O2 0.838824 0.222992 0.816198
O O3 0.691493 0.010393 0.472898
O O4 0.098894 0.517689 0.738421
O O5 0.815375 0.838708 0.199271
O O6 0.712034 0.818647 0.522523
O O7 0.810331 0.643303 0.123136
O O8 0.114637 0.093081 0.363186
O O9 0.606359 0.677539 0.013064
O O10 0.694598 0.494102 0.757060
O O11 0.000000 0.000000 0.000000
O O12 0.762862 0.090902 0.963332
O O13 0.515588 0.688692 0.809431
O O14 0.465059 0.783711 0.219036
O O15 0.500000 0.000000 0.000000
#
# Coordination Sequence:
#
# PCOD9015672 Si02
#       7
#     2   2   2   2   2   2   2
#     4  11  23  41  62  93 131 174 214 268 327 382
#     4  10  22  38  63  94 128 169 217 269 321 383
#     4  10  21  42  64  93 128 166 219 271 320 385
#     4  11  21  39  62  92 127 171 219 266 324 375
#     4  10  23  40  64  95 130 170 214 264 326 389
#     4  11  21  40  63  93 135 169 212 265 321 395
#     4  11  23  41  63  89 130 171 220 270 319 384
#
# _framework density 23.184235000000001
#
# number of rings (size 3 to 8) (size 9 to 14) (size 15 to 20)
#    0.000    1.429    2.857    2.571    0.000    1.143 
#    0.000    3.571    0.000    0.000    0.000    0.000 
#    0.000    0.000    0.000    0.000    0.000    0.000 
#
# Total GULP energy -77996.067585 kJ/mol
# GULP energy per Si atom -5571.147685 kJ/mol
# Density = 2.313147 g / cm^3
# Si number density = 23.184235 Si / 1000 Ang^3
#
#
#
# Elastic Constant Matrix: (Units=GPa)
#
#
# Indices 1 2 3 4 5 6 
#
# 1 94.9249 33.9600 11.9860 3.5515 2.2289 -6.8532
# 2 33.9600 150.7172 36.5953 10.1584 12.5214 1.0918
# 3 11.9860 36.5953 69.9607 12.9811 19.6292 3.6774
# 4 3.5515 10.1584 12.9811 28.6147 6.4382 2.4574
# 5 2.2289 12.5214 19.6292 6.4382 37.2702 6.8436
# 6 -6.8532 1.0918 3.6774 2.4574 6.8436 25.5799
#
#
#
# Elastic Compliance Matrix: (Units=1/GPa)
#
#
# Indices 1 2 3 4 5 6 
#
# 1 0.011780 -0.002444 -0.000827 -0.000516 0.000013 0.003425
# 2 -0.002444 0.008144 -0.003518 -0.000847 -0.000541 -0.000271
# 3 -0.000827 -0.003518 0.019611 -0.005712 -0.008077 -0.000181
# 4 -0.000516 -0.000847 -0.005712 0.038760 -0.002966 -0.002211
# 5 0.000013 -0.000541 -0.008077 -0.002966 0.033136 -0.007392
# 6 0.003425 -0.000271 -0.000181 -0.002211 -0.007392 0.042239
#
#
# Mechanical properties :
#
#
# Convention : Reuss Voigt Hill
#
# Bulk Modulus (GPa) = 38.52751 53.40950 45.96851
# Shear Modulus (GPa) = 28.42495 33.83039 31.12767
#
# Velocity S-wave (km/s) = 3.50529 3.82409 3.66816
# Velocity P-wave (km/s) = 5.74777 6.52573 6.14907
#
# Compressibility (1/GPa) = 0.02595548
#
# Stress axis : x y z
#
# Youngs Moduli (GPa) = 84.88992 122.79088 50.99074
#
# Poissons Ratio (x) = 0.30016 0.04219
# Poissons Ratio (y) = 0.20751 0.17939
# Poissons Ratio (z) = 0.07024 0.43198
#
# Static dielectric constant tensor:
#      x y z
#    x 1.916480 0.056380 0.035000 
#    y 0.056380 1.955540 0.063770 
#    z 0.035000 0.063770 1.950780 
# 
# From -- ./inp_files/119213.got.cif
#   From: 2010.05.17/outbox.cif.g08.bks.cpg/sg2_60_cif.got.tgz:119213.got - 2010.06.03 11:33:40.
