data_PCOD9015361
_publ_section_title
;
Structure prediction by ZEFSAII (Michael W. Deem and Ramdas Pophale) SiO2 
 PCOD9015361
Probable space group: P -1
;
_chemical_formula_sum "Si O2"
_cell_formula_units_Z 14
_cell_length_a 15.045355
_cell_length_b 11.791323
_cell_length_c 8.463416
_cell_angle_alpha 75.104302
_cell_angle_beta 114.887530
_cell_angle_gamma 51.523059
_cell_volume 727.951464
_symmetry_space_group_name_H-M "P -1"
_symmetry_group_IT_number 2
_symmetry_cell_setting 'triclinic'
loop_
_space_group_symop_operation_xyz
x,y,z
-x,-y,-z
loop_
_atom_site_type_symbol
_atom_site_label
_atom_site_fract_x
_atom_site_fract_y
_atom_site_fract_z
Si Si1 0.364302 0.890474 0.259436
Si Si2 0.971647 0.899761 0.946785
Si Si3 0.185706 0.932708 0.583133
Si Si4 0.519042 0.950157 0.214980
Si Si5 0.499040 0.775882 0.759108
Si Si6 0.822287 0.333796 0.316392
Si Si7 0.289587 0.472449 0.489906
O O1 0.449635 0.808992 0.527358
O O2 0.510958 0.679260 0.336947
O O3 0.361747 0.024399 0.138277
O O4 0.177032 0.016943 0.090383
O O5 0.155357 0.649189 0.193769
O O6 0.902074 0.976191 0.689574
O O7 0.000000 0.000000 0.000000
O O8 0.361966 0.834457 0.739091
O O9 0.222107 0.759831 0.708649
O O10 0.031627 0.134885 0.509189
O O11 0.529449 0.059902 0.277812
O O12 0.682665 0.695572 0.440481
O O13 0.500000 0.000000 0.000000
O O14 0.695609 0.537260 0.036686
O O15 0.778891 0.416223 0.432597
#
# Coordination Sequence:
#
# PCOD9015361 Si02
#       7
#     2   2   2   2   2   2   2
#     4   9  23  39  62  90 118 160 202 245 301 352
#     4  11  21  42  62  87 126 157 201 248 297 363
#     4  10  24  39  59  93 119 163 202 246 301 356
#     4  10  21  42  61  90 123 154 208 244 299 361
#     4  11  20  42  63  86 123 162 198 250 298 358
#     4  11  21  40  60  89 127 155 204 250 297 359
#     4  10  22  39  61  93 118 158 201 248 302 354
#
# _framework density 19.232051999999999
#
# number of rings (size 3 to 8) (size 9 to 14) (size 15 to 20)
#    0.857    0.857    2.857    1.714    0.000    2.857 
#    5.143    2.857    0.000    0.000    0.000    0.000 
#    0.000    0.000    0.000    0.000    0.000    0.000 
#
# Total GULP energy -78088.685756 kJ/mol
# GULP energy per Si atom -5577.763268 kJ/mol
# Density = 1.918828 g / cm^3
# Si number density = 19.232052 Si / 1000 Ang^3
#
#
#
# Elastic Constant Matrix: (Units=GPa)
#
#
# Indices 1 2 3 4 5 6 
#
# 1 84.9485 28.2387 0.0868 -8.1045 3.2439 -0.2541
# 2 28.2387 144.7729 92.1162 -18.1481 -17.5722 -29.3571
# 3 0.0868 92.1162 206.7439 -15.1701 -54.4387 -48.1260
# 4 -8.1045 -18.1481 -15.1701 29.6596 2.9280 -7.3481
# 5 3.2439 -17.5722 -54.4387 2.9280 38.8564 8.7976
# 6 -0.2541 -29.3571 -48.1260 -7.3481 8.7976 59.2438
#
#
#
# Elastic Compliance Matrix: (Units=1/GPa)
#
#
# Indices 1 2 3 4 5 6 
#
# 1 0.013109 -0.003251 0.001423 0.002397 -0.000754 0.000010
# 2 -0.003251 0.011366 -0.004628 0.004576 -0.002034 0.002729
# 3 0.001423 -0.004628 0.011990 0.003904 0.012930 0.006017
# 4 0.002397 0.004576 0.003904 0.041541 0.001871 0.010324
# 5 -0.000754 -0.002034 0.012930 0.001871 0.042066 0.003478
# 6 0.000010 0.002729 0.006017 0.010324 0.003478 0.023884
#
#
# Mechanical properties :
#
#
# Convention : Reuss Voigt Hill
#
# Bulk Modulus (GPa) = 42.45769 75.26096 58.85932
# Shear Modulus (GPa) = 30.35494 46.62018 38.48756
#
# Velocity S-wave (km/s) = 3.97716 4.92884 4.47835
# Velocity P-wave (km/s) = 6.57380 8.46223 7.57708
#
# Compressibility (1/GPa) = 0.02355286
#
# Stress axis : x y z
#
# Youngs Moduli (GPa) = 76.28525 87.98161 83.40330
#
# Poissons Ratio (x) = 0.28604 -0.11866
# Poissons Ratio (y) = 0.24801 0.38595
# Poissons Ratio (z) = -0.10853 0.40714
#
# Static dielectric constant tensor:
#      x y z
#    x 1.673250 -0.031760 -0.019680 
#    y -0.031760 1.665450 -0.017380 
#    z -0.019680 -0.017380 1.641900 
# 
# From -- ./inp_files/305150.got.cif
#   From: 2010.05.17/outbox.cif.g08.bks.cpg/sg2_153_cif.got.tgz:305150.got - 2010.06.03 11:33:40.
