data_PCOD9015329
_publ_section_title
;
Structure prediction by ZEFSAII (Michael W. Deem and Ramdas Pophale) SiO2 
 PCOD9015329
Probable space group: P -1
;
_chemical_formula_sum "Si O2"
_cell_formula_units_Z 14
_cell_length_a 14.663842
_cell_length_b 13.073339
_cell_length_c 14.129374
_cell_angle_alpha 149.249443
_cell_angle_beta 28.835759
_cell_angle_gamma 151.202528
_cell_volume 578.179906
_symmetry_space_group_name_H-M "P -1"
_symmetry_group_IT_number 2
_symmetry_cell_setting 'triclinic'
loop_
_space_group_symop_operation_xyz
x,y,z
-x,-y,-z
loop_
_atom_site_type_symbol
_atom_site_label
_atom_site_fract_x
_atom_site_fract_y
_atom_site_fract_z
Si Si1 0.488096 0.909220 0.298072
Si Si2 0.187300 0.697489 0.226716
Si Si3 0.544429 0.697549 0.244938
Si Si4 0.438904 0.338284 0.219734
Si Si5 0.999621 0.805344 0.962700
Si Si6 0.173790 0.417051 0.666086
Si Si7 0.942287 0.180894 0.873189
O O1 0.353612 0.854455 0.280382
O O2 0.423585 0.689089 0.250191
O O3 0.461004 0.101002 0.530641
O O4 0.746464 0.016430 0.135069
O O5 0.023345 0.747607 0.358173
O O6 0.333801 0.660608 0.986001
O O7 0.032738 0.450493 0.220229
O O8 0.447566 0.471872 0.220209
O O9 0.802300 0.789239 0.068695
O O10 0.387165 0.453124 0.446752
O O11 0.254809 0.071138 0.171612
O O12 0.948064 0.835241 0.142302
O O13 0.111731 0.289201 0.720245
O O14 0.156653 0.648503 0.879605
#
# Coordination Sequence:
#
# PCOD9015329 Si02
#       7
#     2   2   2   2   2   2   2
#     4  11  22  44  63  93 130 167 212 270 309 382
#     4  10  23  39  67  95 126 168 220 250 328 379
#     4  10  24  40  64  93 126 169 217 254 329 376
#     4  11  22  41  64  96 127 168 216 262 311 387
#     4  10  21  42  60  92 129 164 209 265 313 378
#     4  10  23  43  65  96 134 166 211 269 312 382
#     4  10  21  42  67  93 133 169 209 265 320 372
#
# _framework density 24.213918
#
# number of rings (size 3 to 8) (size 9 to 14) (size 15 to 20)
#    0.000    1.714    1.429    2.571    2.000    2.857 
#    2.571   13.571    0.000    0.000    0.000    0.000 
#    0.000    0.000    0.000    0.000    0.000    0.000 
#
# Total GULP energy -78265.041351 kJ/mol
# GULP energy per Si atom -5590.360096 kJ/mol
# Density = 2.415881 g / cm^3
# Si number density = 24.213918 Si / 1000 Ang^3
#
#
#
# Elastic Constant Matrix: (Units=GPa)
#
#
# Indices 1 2 3 4 5 6 
#
# 1 73.3377 24.9709 1.1356 9.6445 7.6791 -2.6648
# 2 24.9709 100.3243 25.6187 0.0602 3.0665 -3.2398
# 3 1.1356 25.6187 79.9483 1.3766 2.0039 -4.2528
# 4 9.6445 0.0602 1.3766 17.1067 -2.9419 5.6614
# 5 7.6791 3.0665 2.0039 -2.9419 26.6413 -0.0581
# 6 -2.6648 -3.2398 -4.2528 5.6614 -0.0581 30.3539
#
#
#
# Elastic Compliance Matrix: (Units=1/GPa)
#
#
# Indices 1 2 3 4 5 6 
#
# 1 0.017502 -0.004495 0.001742 -0.012203 -0.005998 0.003565
# 2 -0.004495 0.012051 -0.003873 0.002961 0.000526 -0.000202
# 3 0.001742 -0.003873 0.013934 -0.003087 -0.001440 0.002265
# 4 -0.012203 0.002961 -0.003087 0.072383 0.011370 -0.014666
# 5 -0.005998 0.000526 -0.001440 0.011370 0.040562 -0.002715
# 6 0.003565 -0.000202 0.002265 -0.014666 -0.002715 0.036284
#
#
# Mechanical properties :
#
#
# Convention : Reuss Voigt Hill
#
# Bulk Modulus (GPa) = 33.07458 39.67341 36.37399
# Shear Modulus (GPa) = 23.14324 28.27940 25.71132
#
# Velocity S-wave (km/s) = 3.09493 3.42116 3.26212
# Velocity P-wave (km/s) = 5.14397 5.65914 5.40769
#
# Compressibility (1/GPa) = 0.03023470
#
# Stress axis : x y z
#
# Youngs Moduli (GPa) = 57.13788 82.98015 71.76663
#
# Poissons Ratio (x) = 0.37301 -0.12501
# Poissons Ratio (y) = 0.25685 0.27793
# Poissons Ratio (z) = -0.09953 0.32136
#
# Static dielectric constant tensor:
#      x y z
#    x 1.958510 -0.025980 0.032420 
#    y -0.025980 1.949860 0.021280 
#    z 0.032420 0.021280 1.939930 
# 
# From -- ./inp_files/534525.got.cif
#   From: 2010.05.17/outbox.cif.g08.bks.cpg/sg2_268_cif.got.tgz:534525.got - 2010.06.03 11:33:40.
