data_PCOD9015879
_publ_section_title
;
Structure prediction by ZEFSAII (Michael W. Deem and Ramdas Pophale) SiO2 
 PCOD9015879
Probable space group: P -1
;
_chemical_formula_sum "Si O2"
_cell_formula_units_Z 13
_cell_length_a 11.471730
_cell_length_b 8.725003
_cell_length_c 15.453897
_cell_angle_alpha 115.633448
_cell_angle_beta 50.200372
_cell_angle_gamma 149.176507
_cell_volume 581.369007
_symmetry_space_group_name_H-M "P -1"
_symmetry_group_IT_number 2
_symmetry_cell_setting 'triclinic'
loop_
_space_group_symop_operation_xyz
x,y,z
-x,-y,-z
loop_
_atom_site_type_symbol
_atom_site_label
_atom_site_fract_x
_atom_site_fract_y
_atom_site_fract_z
Si Si1 0.912777 0.428881 0.123925
Si Si2 0.000000 0.500000 0.500000
Si Si3 0.252508 0.377470 0.691386
Si Si4 0.131849 0.010615 0.517072
Si Si5 0.620379 0.279384 0.765715
Si Si6 0.674690 0.701939 0.177722
Si Si7 0.234032 0.418739 0.054173
O O1 0.939857 0.641549 0.201973
O O2 0.085667 0.449466 0.097583
O O3 0.588915 0.072380 0.201998
O O4 0.000000 0.500000 0.000000
O O5 0.906262 0.483027 0.638514
O O6 0.983545 0.287142 0.491444
O O7 0.095856 0.085254 0.640350
O O8 0.532259 0.690911 0.582747
O O9 0.362215 0.411077 0.738924
O O10 0.000000 0.000000 0.500000
O O11 0.482655 0.270166 0.756265
O O12 0.621069 0.389589 0.879781
O O13 0.602457 0.504929 0.086272
O O14 0.002291 0.059648 0.101066
#
# Coordination Sequence:
#
# PCOD9015879 Si02
#       7
#     2   1   2   2   2   2   2
#     4  11  23  43  66  96 138 173 221 279 337 408
#     4  12  24  46  68 100 136 174 234 278 334 406
#     4  11  23  45  67  99 136 176 224 280 343 401
#     4  11  26  46  70 100 137 181 230 283 336 412
#     4  11  24  42  65  99 131 178 229 276 335 405
#     4  10  21  42  65  95 135 171 226 281 338 404
#     4  10  22  40  66  96 131 179 223 276 341 403
#
# _framework density 22.361011000000001
#
# number of rings (size 3 to 8) (size 9 to 14) (size 15 to 20)
#    0.000    1.231    3.077    2.308    2.154    0.615 
#    5.538    3.846    0.000    0.000    0.000    0.000 
#    0.000    0.000    0.000    0.000    0.000    0.000 
#
# Total GULP energy -72398.223199 kJ/mol
# GULP energy per Si atom -5569.094092 kJ/mol
# Density = 2.231012 g / cm^3
# Si number density = 22.361011 Si / 1000 Ang^3
#
#
#
# Elastic Constant Matrix: (Units=GPa)
#
#
# Indices 1 2 3 4 5 6 
#
# 1 79.2907 30.4920 27.2885 10.9069 10.8286 -28.9175
# 2 30.4920 51.2240 27.4540 25.9716 -6.4614 -23.6505
# 3 27.2885 27.4540 126.0434 32.6025 5.4334 -17.6428
# 4 10.9069 25.9716 32.6025 40.3398 -7.0465 -4.4781
# 5 10.8286 -6.4614 5.4334 -7.0465 29.6592 4.8163
# 6 -28.9175 -23.6505 -17.6428 -4.4781 4.8163 32.6943
#
#
#
# Elastic Compliance Matrix: (Units=1/GPa)
#
#
# Indices 1 2 3 4 5 6 
#
# 1 0.023919 -0.005890 0.000098 -0.003102 -0.013784 0.018553
# 2 -0.005890 0.049079 0.001549 -0.027987 0.001513 0.027072
# 3 0.000098 0.001549 0.011463 -0.010479 -0.005384 0.006750
# 4 -0.003102 -0.027987 -0.010479 0.051793 0.013072 -0.023476
# 5 -0.013784 0.001513 -0.005384 0.013072 0.046260 -0.019026
# 6 0.018553 0.027072 0.006750 -0.023476 -0.019026 0.069810
#
#
# Mechanical properties :
#
#
# Convention : Reuss Voigt Hill
#
# Bulk Modulus (GPa) = 13.16248 47.44746 30.30497
# Shear Modulus (GPa) = 17.47419 31.96023 24.71721
#
# Velocity S-wave (km/s) = 2.79849 3.78469 3.32832
# Velocity P-wave (km/s) = 4.04242 6.35322 5.32469
#
# Compressibility (1/GPa) = 0.07597354
#
# Stress axis : x y z
#
# Youngs Moduli (GPa) = 41.80800 20.37528 87.23985
#
# Poissons Ratio (x) = 0.12002 -0.00856
# Poissons Ratio (y) = 0.24626 -0.13510
# Poissons Ratio (z) = -0.00410 -0.03155
#
# Static dielectric constant tensor:
#      x y z
#    x 1.791530 0.017670 -0.026150 
#    y 0.017670 1.841820 -0.031500 
#    z -0.026150 -0.031500 1.860200 
# 
# From -- ./inp_files/23676.got.cif
#   From: 2010.05.17/outbox.cif.g08.bks.cpg/sg2_12_cif.got.tgz:23676.got - 2010.06.03 11:33:40.
