data_PCOD9015295
_publ_section_title
;
Structure prediction by ZEFSAII (Michael W. Deem and Ramdas Pophale) SiO2 
 PCOD9015295
Probable space group: P -1
;
_chemical_formula_sum "Si O2"
_cell_formula_units_Z 14
_cell_length_a 7.810414
_cell_length_b 8.079696
_cell_length_c 12.649513
_cell_angle_alpha 62.471737
_cell_angle_beta 93.241857
_cell_angle_gamma 124.880781
_cell_volume 556.519800
_symmetry_space_group_name_H-M "P -1"
_symmetry_group_IT_number 2
_symmetry_cell_setting 'triclinic'
loop_
_space_group_symop_operation_xyz
x,y,z
-x,-y,-z
loop_
_atom_site_type_symbol
_atom_site_label
_atom_site_fract_x
_atom_site_fract_y
_atom_site_fract_z
Si Si1 0.474122 0.760437 0.582227
Si Si2 0.659649 0.399910 1.000000
Si Si3 0.302967 0.605934 0.394065
Si Si4 0.586634 0.632972 0.205137
Si Si5 0.943650 0.075107 0.582227
Si Si6 0.901618 0.180976 1.000000
Si Si7 0.208230 0.956755 0.205136
O O1 0.444534 0.682006 0.482968
O O2 0.327078 0.516806 0.716018
O O3 0.500000 0.000000 0.500000
O O4 0.689327 0.878655 0.621345
O O5 0.770776 0.280467 0.999999
O O6 0.446235 0.206504 0.118020
O O7 0.564255 0.442546 0.881979
O O8 0.852725 0.636083 1.000000
O O9 0.432211 0.592519 0.308986
O O10 0.258802 0.789510 0.308985
O O11 0.072497 0.352057 0.482969
O O12 0.769203 0.914244 0.116237
O O13 0.956904 0.051157 0.716018
O O14 0.000000 0.000000 0.500000
O O15 0.885441 0.146716 0.883764
#
# Coordination Sequence:
#
# PCOD9015295 Si02
#       7
#     2   2   2   2   2   2   2
#     4  12  28  47  72 110 152 207 257 315 385 458
#     4  10  21  41  76 115 154 204 250 320 389 457
#     4  12  24  45  74 113 152 200 252 320 382 464
#     4  11  22  44  72 112 158 191 256 314 378 463
#     4  12  28  47  72 110 152 207 257 315 385 458
#     4  10  21  41  76 116 154 204 249 318 394 455
#     4  11  22  44  72 112 158 191 256 314 378 463
#
# _framework density 25.156338999999999
#
# number of rings (size 3 to 8) (size 9 to 14) (size 15 to 20)
#    0.000    0.857    5.714    1.714    0.000    4.571 
#    0.000    2.857    0.000    5.143    0.000    4.000 
#    0.000    0.000    0.000    0.000    0.000    0.000 
#
# Total GULP energy -78186.433019 kJ/mol
# GULP energy per Si atom -5584.745216 kJ/mol
# Density = 2.509908 g / cm^3
# Si number density = 25.156339 Si / 1000 Ang^3
#
#
#
# Elastic Constant Matrix: (Units=GPa)
#
#
# Indices 1 2 3 4 5 6 
#
# 1 79.9583 55.1932 70.0442 -1.7575 -2.7640 -10.8568
# 2 55.1932 235.9699 123.5674 1.0261 -2.7431 14.6261
# 3 70.0442 123.5674 248.8079 -0.0189 -2.6922 5.5520
# 4 -1.7575 1.0261 -0.0189 49.7320 10.8376 -0.3186
# 5 -2.7640 -2.7431 -2.6922 10.8376 37.3814 -0.7749
# 6 -10.8568 14.6261 5.5520 -0.3186 -0.7749 42.8628
#
#
#
# Elastic Compliance Matrix: (Units=1/GPa)
#
#
# Indices 1 2 3 4 5 6 
#
# 1 0.018813 -0.002618 -0.004126 0.000568 0.000866 0.006213
# 2 -0.002618 0.006205 -0.002288 -0.000264 0.000122 -0.002484
# 3 -0.004126 -0.002288 0.006341 -0.000101 -0.000009 -0.001087
# 4 0.000568 -0.000264 -0.000101 0.021488 -0.006208 0.000295
# 5 0.000866 0.000122 -0.000009 -0.006208 0.028637 0.000650
# 6 0.006213 -0.002484 -0.001087 0.000295 0.000650 0.025906
#
#
# Mechanical properties :
#
#
# Convention : Reuss Voigt Hill
#
# Bulk Modulus (GPa) = 75.20472 118.03842 96.62157
# Shear Modulus (GPa) = 38.49579 47.05733 42.77656
#
# Velocity S-wave (km/s) = 3.91610 4.32973 4.12810
# Velocity P-wave (km/s) = 7.09983 8.48641 7.82390
#
# Compressibility (1/GPa) = 0.01329704
#
# Stress axis : x y z
#
# Youngs Moduli (GPa) = 53.15371 161.17017 157.70488
#
# Poissons Ratio (x) = 0.42187 0.65062
# Poissons Ratio (y) = 0.13913 0.36080
# Poissons Ratio (z) = 0.21929 0.36873
#
# Static dielectric constant tensor:
#      x y z
#    x 2.106030 -0.054990 0.008140 
#    y -0.054990 1.960210 0.003390 
#    z 0.008140 0.003390 1.821610 
# 
# From -- ./inp_files/381389.got.cif
#   From: 2010.05.17/outbox.cif.g08.bks.cpg/sg2_191_cif.got.tgz:381389.got - 2010.06.03 11:33:40.
