data_PCOD9015579
_publ_section_title
;
Structure prediction by ZEFSAII (Michael W. Deem and Ramdas Pophale) SiO2 
 PCOD9015579
Probable space group: P -1
;
_chemical_formula_sum "Si O2"
_cell_formula_units_Z 16
_cell_length_a 8.639033
_cell_length_b 8.110980
_cell_length_c 10.896215
_cell_angle_alpha 88.775049
_cell_angle_beta 108.764323
_cell_angle_gamma 98.303509
_cell_volume 715.093462
_symmetry_space_group_name_H-M "P -1"
_symmetry_group_IT_number 2
_symmetry_cell_setting 'triclinic'
loop_
_space_group_symop_operation_xyz
x,y,z
-x,-y,-z
loop_
_atom_site_type_symbol
_atom_site_label
_atom_site_fract_x
_atom_site_fract_y
_atom_site_fract_z
Si Si1 0.509272 0.470949 0.294365
Si Si2 0.687616 0.073759 0.016517
Si Si3 0.233362 0.225347 0.091504
Si Si4 0.926376 0.368045 0.084878
Si Si5 0.247757 0.029470 0.462393
Si Si6 0.416873 0.721408 0.453997
Si Si7 0.200188 0.373661 0.807263
Si Si8 0.887391 0.982550 0.304153
O O1 0.382681 0.326254 0.202604
O O2 0.412409 0.604017 0.336322
O O3 0.609590 0.392326 0.429425
O O4 0.633483 0.559027 0.223387
O O5 0.788811 0.044289 0.165477
O O6 0.746554 0.268655 0.005010
O O7 0.744317 0.965238 0.921756
O O8 0.500000 0.000000 0.000000
O O9 0.061960 0.244208 0.113026
O O10 0.235290 0.304898 0.953348
O O11 0.903087 0.474326 0.198420
O O12 0.000000 0.500000 0.000000
O O13 0.396426 0.180111 0.488234
O O14 0.210664 0.993615 0.596955
O O15 0.303318 0.865616 0.418864
O O16 0.075300 0.066638 0.364220
O O17 0.110839 0.214772 0.713501
#
# Coordination Sequence:
#
# PCOD9015579 Si02
#       8
#     2   2   2   2   2   2   2   2
#     4  11  22  41  64 100 133 175 217 282 333 398
#     4  11  24  43  70 104 133 177 220 271 342 411
#     4  10  23  40  66  97 136 172 217 272 331 409
#     4  10  23  42  63  99 136 170 217 269 335 395
#     4  10  22  46  62  95 126 182 226 278 325 394
#     4  10  24  41  66  95 132 170 233 275 335 379
#     4  10  21  42  63  97 134 172 218 268 342 403
#     4  10  23  41  70  91 133 174 227 271 329 400
#
# _framework density 22.374699
#
# number of rings (size 3 to 8) (size 9 to 14) (size 15 to 20)
#    0.000    1.750    1.250    1.500    7.000    3.000 
#    0.000    0.625    0.000    0.000    0.000    0.000 
#    0.000    0.000    0.000    0.000    0.000    0.000 
#
# Total GULP energy -89462.137229 kJ/mol
# GULP energy per Si atom -5591.383577 kJ/mol
# Density = 2.232377 g / cm^3
# Si number density = 22.374699 Si / 1000 Ang^3
#
#
#
# Elastic Constant Matrix: (Units=GPa)
#
#
# Indices 1 2 3 4 5 6 
#
# 1 74.6256 13.7324 19.9809 -4.5344 -13.1904 15.8844
# 2 13.7324 70.1773 6.9743 5.2411 -10.4554 10.5603
# 3 19.9809 6.9743 71.2813 0.5823 -14.1478 7.8171
# 4 -4.5344 5.2411 0.5823 21.1387 1.8009 -7.9621
# 5 -13.1904 -10.4554 -14.1478 1.8009 29.5719 14.5600
# 6 15.8844 10.5603 7.8171 -7.9621 14.5600 39.9572
#
#
#
# Elastic Compliance Matrix: (Units=1/GPa)
#
#
# Indices 1 2 3 4 5 6 
#
# 1 0.018899 0.000899 -0.000848 -0.002581 0.015217 -0.013644
# 2 0.000899 0.019160 0.002698 -0.011296 0.016075 -0.014057
# 3 -0.000848 0.002698 0.018204 -0.006665 0.014969 -0.010720
# 4 -0.002581 -0.011296 -0.006665 0.062039 -0.025367 0.026921
# 5 0.015217 0.016075 0.014969 -0.025367 0.077985 -0.046698
# 6 -0.013644 -0.014057 -0.010720 0.026921 -0.046698 0.058644
#
#
# Mechanical properties :
#
#
# Convention : Reuss Voigt Hill
#
# Bulk Modulus (GPa) = 16.19175 33.05103 24.62139
# Shear Modulus (GPa) = 18.51729 29.82665 24.17197
#
# Velocity S-wave (km/s) = 2.87992 3.65506 3.29040
# Velocity P-wave (km/s) = 4.27913 5.71107 5.04615
#
# Compressibility (1/GPa) = 0.06175986
#
# Stress axis : x y z
#
# Youngs Moduli (GPa) = 52.91345 52.19340 54.93414
#
# Poissons Ratio (x) = -0.04693 0.04658
# Poissons Ratio (y) = -0.04757 -0.14820
# Poissons Ratio (z) = 0.04487 -0.14081
#
# Static dielectric constant tensor:
#      x y z
#    x 1.819260 -0.029810 0.011600 
#    y -0.029810 1.958130 -0.050500 
#    z 0.011600 -0.050500 1.810850 
# 
# From -- ./inp_files/376128.got.cif
#   From: 2010.05.17/outbox.cif.g08.bks.cpg/sg2_189_cif.got.tgz:376128.got - 2010.06.03 11:33:40.
