data_PCOD9015608
_publ_section_title
;
Structure prediction by ZEFSAII (Michael W. Deem and Ramdas Pophale) SiO2 
 PCOD9015608
Probable space group: P -1
;
_chemical_formula_sum "Si O2"
_cell_formula_units_Z 14
_cell_length_a 8.264525
_cell_length_b 16.242845
_cell_length_c 10.478311
_cell_angle_alpha 144.984762
_cell_angle_beta 62.535492
_cell_angle_gamma 134.496402
_cell_volume 553.400709
_symmetry_space_group_name_H-M "P -1"
_symmetry_group_IT_number 2
_symmetry_cell_setting 'triclinic'
loop_
_space_group_symop_operation_xyz
x,y,z
-x,-y,-z
loop_
_atom_site_type_symbol
_atom_site_label
_atom_site_fract_x
_atom_site_fract_y
_atom_site_fract_z
Si Si1 0.134376 0.215959 0.828933
Si Si2 0.701356 0.065085 0.392941
Si Si3 0.625296 0.507148 0.673137
Si Si4 0.396358 0.147668 0.464056
Si Si5 0.438136 0.685088 0.872887
Si Si6 0.854975 0.790246 0.731767
Si Si7 0.906327 0.317300 0.875488
O O1 0.316385 0.190162 0.676408
O O2 0.101947 0.306541 0.836397
O O3 0.234910 0.350876 0.080821
O O4 0.865428 0.028462 0.714615
O O5 0.571589 0.108910 0.396910
O O6 0.975314 0.182609 0.403713
O O7 0.726540 0.143821 0.626045
O O8 0.597612 0.856359 0.132001
O O9 0.527743 0.313187 0.524447
O O10 0.416094 0.516015 0.725196
O O11 0.804011 0.631991 0.647756
O O12 0.591836 0.731606 0.749319
O O13 0.211209 0.671455 0.940033
O O14 0.000000 0.000000 0.000000
O O15 0.000000 0.500000 0.000000
#
# Coordination Sequence:
#
# PCOD9015608 Si02
#       7
#     2   2   2   2   2   2   2
#     4  11  24  37  60  97 132 155 204 271 317 362
#     4  11  21  41  65  87 121 170 210 248 312 380
#     4  10  21  42  64  86 129 165 208 256 314 369
#     4  11  23  36  62  95 126 163 207 259 320 366
#     4   9  20  40  63  88 117 168 206 250 306 376
#     4   8  20  39  69  84 119 171 214 245 311 376
#     4  12  23  37  65  95 124 159 213 261 311 370
#
# _framework density 25.298124999999999
#
# number of rings (size 3 to 8) (size 9 to 14) (size 15 to 20)
#    0.857    0.857    1.429    3.429    4.000    0.571 
#    0.000    1.429    9.429    0.000    0.000    0.000 
#    0.000    0.000    0.000    0.000    0.000    0.000 
#
# Total GULP energy -78108.065927 kJ/mol
# GULP energy per Si atom -5579.147566 kJ/mol
# Density = 2.524055 g / cm^3
# Si number density = 25.298125 Si / 1000 Ang^3
#
#
#
# Elastic Constant Matrix: (Units=GPa)
#
#
# Indices 1 2 3 4 5 6 
#
# 1 72.3307 4.8512 18.6359 -1.5081 -17.3716 -9.4058
# 2 4.8512 86.1886 31.3591 8.7076 -18.4500 -5.5650
# 3 18.6359 31.3591 67.8929 5.7940 -21.3593 -7.3787
# 4 -1.5081 8.7076 5.7940 46.5338 0.6173 -12.3961
# 5 -17.3716 -18.4500 -21.3593 0.6173 44.4527 -2.5336
# 6 -9.4058 -5.5650 -7.3787 -12.3961 -2.5336 39.5125
#
#
#
# Elastic Compliance Matrix: (Units=1/GPa)
#
#
# Indices 1 2 3 4 5 6 
#
# 1 0.016545 0.001558 -0.003074 0.001751 0.005868 0.004509
# 2 0.001558 0.014696 -0.005666 -0.001757 0.004073 0.001093
# 3 -0.003074 -0.005666 0.020581 -0.001049 0.006488 0.002401
# 4 0.001751 -0.001757 -0.001049 0.024003 -0.000456 0.007475
# 5 0.005868 0.004073 0.006488 -0.000456 0.029885 0.004955
# 6 0.004509 0.001093 0.002401 0.007475 0.004955 0.029647
#
#
# Mechanical properties :
#
#
# Convention : Reuss Voigt Hill
#
# Bulk Modulus (GPa) = 26.69653 37.34494 32.02074
# Shear Modulus (GPa) = 30.82461 37.53752 34.18107
#
# Velocity S-wave (km/s) = 3.49442 3.85620 3.67976
# Velocity P-wave (km/s) = 5.18237 5.88396 5.54428
#
# Compressibility (1/GPa) = 0.03745805
#
# Stress axis : x y z
#
# Youngs Moduli (GPa) = 60.44065 68.04552 48.58787
#
# Poissons Ratio (x) = -0.10599 0.14937
# Poissons Ratio (y) = -0.09414 0.27528
# Poissons Ratio (z) = 0.18581 0.38552
#
# Static dielectric constant tensor:
#      x y z
#    x 1.994680 0.079170 0.085750 
#    y 0.079170 2.064910 0.027380 
#    z 0.085750 0.027380 2.047720 
# 
# From -- ./inp_files/276998.got.cif
#   From: 2010.05.17/outbox.cif.g08.bks.cpg/sg2_139_cif.got.tgz:276998.got - 2010.06.03 11:33:40.
