data_PCOD9015379
_publ_section_title
;
Structure prediction by ZEFSAII (Michael W. Deem and Ramdas Pophale) SiO2 
 PCOD9015379
Probable space group: P -1
;
_chemical_formula_sum "Si O2"
_cell_formula_units_Z 16
_cell_length_a 27.417673
_cell_length_b 5.523555
_cell_length_c 11.580367
_cell_angle_alpha 122.484190
_cell_angle_beta 150.350369
_cell_angle_gamma 69.222597
_cell_volume 704.981027
_symmetry_space_group_name_H-M "P -1"
_symmetry_group_IT_number 2
_symmetry_cell_setting 'triclinic'
loop_
_space_group_symop_operation_xyz
x,y,z
-x,-y,-z
loop_
_atom_site_type_symbol
_atom_site_label
_atom_site_fract_x
_atom_site_fract_y
_atom_site_fract_z
Si Si1 0.050966 0.906250 0.733193
Si Si2 0.749696 0.126741 0.763470
Si Si3 0.578364 0.802613 0.206487
Si Si4 0.051990 0.647589 0.263316
Si Si5 0.526842 0.741658 0.818571
Si Si6 0.678981 0.728229 0.744327
Si Si7 0.260184 0.162212 0.845384
Si Si8 0.123242 0.546265 0.619682
O O1 0.094850 0.846921 0.683130
O O2 0.942591 0.678749 0.478533
O O3 0.031971 0.215480 0.810982
O O4 0.130682 0.830954 0.967576
O O5 0.697519 0.879397 0.498312
O O6 0.707361 0.953079 0.752585
O O7 0.728060 0.442844 0.767544
O O8 0.542630 0.029781 0.276662
O O9 0.500000 0.500000 0.000000
O O10 0.563999 0.815762 0.044907
O O11 0.084743 0.464597 0.389517
O O12 0.161381 0.900567 0.532735
O O13 0.000000 0.500000 0.000000
O O14 0.444455 0.423397 0.548833
O O15 0.629597 0.812718 0.976119
O O16 0.720259 0.876818 0.988906
O O17 0.231513 0.472633 0.839987
#
# Coordination Sequence:
#
# PCOD9015379 Si02
#       8
#     2   2   2   2   2   2   2   2
#     4  10  22  40  69  97 125 182 220 291 335 409
#     4  11  23  39  72  98 137 176 235 280 343 405
#     4  10  21  42  61  94 134 180 224 277 333 419
#     4  11  26  43  64  99 137 175 229 284 351 423
#     4  10  23  41  65  95 139 179 228 283 344 406
#     4  11  23  44  65 107 134 177 233 286 337 413
#     4  11  24  42  68  94 136 178 227 284 350 407
#     4  10  22  43  66  96 130 168 231 281 342 409
#
# _framework density 22.695646
#
# number of rings (size 3 to 8) (size 9 to 14) (size 15 to 20)
#    0.000    1.500    2.500    1.500    1.750    6.000 
#    0.000    1.875    0.000    0.000    0.000    0.000 
#    0.000    0.000    0.000    0.000    0.000    0.000 
#
# Total GULP energy -89103.027267 kJ/mol
# GULP energy per Si atom -5568.939204 kJ/mol
# Density = 2.264399 g / cm^3
# Si number density = 22.695646 Si / 1000 Ang^3
#
#
#
# Elastic Constant Matrix: (Units=GPa)
#
#
# Indices 1 2 3 4 5 6 
#
# 1 81.0581 27.3290 9.9858 -7.6580 -7.7962 0.1605
# 2 27.3290 50.6016 8.1132 -3.9998 -13.7814 15.9461
# 3 9.9858 8.1132 130.4613 -3.2183 -23.6789 -7.3726
# 4 -7.6580 -3.9998 -3.2183 35.5659 6.5828 -1.7755
# 5 -7.7962 -13.7814 -23.6789 6.5828 46.7244 -5.3491
# 6 0.1605 15.9461 -7.3726 -1.7755 -5.3491 22.1224
#
#
#
# Elastic Compliance Matrix: (Units=1/GPa)
#
#
# Indices 1 2 3 4 5 6 
#
# 1 0.016345 -0.011184 -0.000036 0.002671 -0.000035 0.008137
# 2 -0.011184 0.035169 -0.001875 -0.000753 0.004825 -0.024788
# 3 -0.000036 -0.001875 0.008924 0.000012 0.004584 0.005435
# 4 0.002671 -0.000753 0.000012 0.029389 -0.003683 0.001996
# 5 -0.000035 0.004825 0.004584 -0.003683 0.026128 0.004072
# 6 0.008137 -0.024788 0.005435 0.001996 0.004072 0.065967
#
#
# Mechanical properties :
#
#
# Convention : Reuss Voigt Hill
#
# Bulk Modulus (GPa) = 29.19886 39.21967 34.20927
# Shear Modulus (GPa) = 22.77604 35.32875 29.05240
#
# Velocity S-wave (km/s) = 3.17131 3.94970 3.58171
# Velocity P-wave (km/s) = 5.12864 6.17401 5.67544
#
# Compressibility (1/GPa) = 0.03424791
#
# Stress axis : x y z
#
# Youngs Moduli (GPa) = 61.18064 28.43387 112.05880
#
# Poissons Ratio (x) = 0.31802 0.00404
# Poissons Ratio (y) = 0.68427 0.21007
# Poissons Ratio (z) = 0.00221 0.05330
#
# Static dielectric constant tensor:
#      x y z
#    x 1.821770 -0.008190 -0.017390 
#    y -0.008190 1.987840 -0.060740 
#    z -0.017390 -0.060740 2.092540 
# 
# From -- ./inp_files/476056.got.cif
#   From: 2010.05.17/outbox.cif.g08.bks.cpg/sg2_239_cif.got.tgz:476056.got - 2010.06.03 11:33:40.
