data_PCOD9015500
_publ_section_title
;
Structure prediction by ZEFSAII (Michael W. Deem and Ramdas Pophale) SiO2 
 PCOD9015500
Probable space group: P -1
;
_chemical_formula_sum "Si O2"
_cell_formula_units_Z 16
_cell_length_a 11.869851
_cell_length_b 14.457776
_cell_length_c 9.411479
_cell_angle_alpha 112.115731
_cell_angle_beta 100.855395
_cell_angle_gamma 30.999873
_cell_volume 739.450373
_symmetry_space_group_name_H-M "P -1"
_symmetry_group_IT_number 2
_symmetry_cell_setting 'triclinic'
loop_
_space_group_symop_operation_xyz
x,y,z
-x,-y,-z
loop_
_atom_site_type_symbol
_atom_site_label
_atom_site_fract_x
_atom_site_fract_y
_atom_site_fract_z
Si Si1 0.658102 0.780437 0.422149
Si Si2 0.190072 0.370114 0.314016
Si Si3 0.091477 0.219601 0.173247
Si Si4 0.757650 0.176710 0.464995
Si Si5 0.376366 0.862346 0.840768
Si Si6 0.694056 0.246879 0.000344
Si Si7 0.567246 0.636700 0.247000
Si Si8 0.902855 0.189885 0.260458
O O1 0.713944 0.686883 0.535838
O O2 0.527369 0.787938 0.313809
O O3 0.928776 0.598389 0.346218
O O4 0.500000 0.000000 0.500000
O O5 0.209925 0.235481 0.233452
O O6 0.371444 0.287202 0.210652
O O7 0.837043 0.436498 0.195626
O O8 0.048338 0.181323 0.278544
O O9 0.218703 0.064124 0.990911
O O10 0.726788 0.107055 0.309529
O O11 0.562196 0.308456 0.612577
O O12 0.763749 0.269021 0.414504
O O13 0.000000 0.000000 0.500000
O O14 0.381286 0.772603 0.906857
O O15 0.512480 0.372031 0.907224
O O16 0.759617 0.291501 0.138381
O O17 0.919664 0.034620 0.852356
#
# Coordination Sequence:
#
# PCOD9015500 Si02
#       8
#     2   2   2   2   2   2   2   2
#     4  10  23  40  66  97 129 167 210 269 329 374
#     4  10  21  43  65  93 131 169 214 264 314 391
#     4  10  23  38  64  89 130 169 210 257 327 378
#     4  11  21  37  65  90 123 165 223 271 304 380
#     4  10  21  42  63  91 126 172 208 259 326 375
#     4   9  19  36  60  83 125 162 205 258 311 377
#     4  11  22  40  61  96 124 163 216 265 318 380
#     4   9  19  37  58  87 118 171 205 249 324 370
#
# _framework density 21.637692999999999
#
# number of rings (size 3 to 8) (size 9 to 14) (size 15 to 20)
#    0.000    2.000    2.500    1.125    3.500    1.000 
#    2.250    1.250    2.750    0.000    0.000    0.000 
#    0.000    0.000    0.000    0.000    0.000    0.000 
#
# Total GULP energy -89121.196945 kJ/mol
# GULP energy per Si atom -5570.074809 kJ/mol
# Density = 2.158844 g / cm^3
# Si number density = 21.637693 Si / 1000 Ang^3
#
#
#
# Elastic Constant Matrix: (Units=GPa)
#
#
# Indices 1 2 3 4 5 6 
#
# 1 119.0908 27.1063 29.3640 10.8167 -14.2088 -20.3620
# 2 27.1063 95.8913 26.3377 1.0210 -6.5383 -12.3781
# 3 29.3640 26.3377 66.2824 -1.9766 -15.3348 -12.6940
# 4 10.8167 1.0210 -1.9766 37.1244 -12.7581 2.0171
# 5 -14.2088 -6.5383 -15.3348 -12.7581 35.6088 9.5913
# 6 -20.3620 -12.3781 -12.6940 2.0171 9.5913 30.2407
#
#
#
# Elastic Compliance Matrix: (Units=1/GPa)
#
#
# Indices 1 2 3 4 5 6 
#
# 1 0.010799 -0.001393 -0.003309 -0.003657 -0.000195 0.005618
# 2 -0.001393 0.012202 -0.003950 -0.000627 -0.000983 0.002752
# 3 -0.003309 -0.003950 0.020476 0.004803 0.007982 0.001898
# 4 -0.003657 -0.000627 0.004803 0.033710 0.014615 -0.007587
# 5 -0.000195 -0.000983 0.007982 0.014615 0.039365 -0.010643
# 6 0.005618 0.002752 0.001898 -0.007587 -0.010643 0.042656
#
#
# Mechanical properties :
#
#
# Convention : Reuss Voigt Hill
#
# Bulk Modulus (GPa) = 38.20786 49.65340 43.93063
# Shear Modulus (GPa) = 26.99241 33.82521 30.40881
#
# Velocity S-wave (km/s) = 3.53579 3.95809 3.75288
# Velocity P-wave (km/s) = 5.86220 6.62466 6.25506
#
# Compressibility (1/GPa) = 0.02617262
#
# Stress axis : x y z
#
# Youngs Moduli (GPa) = 92.59831 81.95239 48.83772
#
# Poissons Ratio (x) = 0.11416 0.16160
# Poissons Ratio (y) = 0.12899 0.19293
# Poissons Ratio (z) = 0.30640 0.32375
#
# Static dielectric constant tensor:
#      x y z
#    x 1.836890 0.029270 0.068020 
#    y 0.029270 1.877450 -0.007650 
#    z 0.068020 -0.007650 1.891230 
# 
# From -- ./inp_files/273753.got.cif
#   From: 2010.05.17/outbox.cif.g08.bks.cpg/sg2_137_cif.got.tgz:273753.got - 2010.06.03 11:33:40.
