data_PCOD9015814
_publ_section_title
;
Structure prediction by ZEFSAII (Michael W. Deem and Ramdas Pophale) SiO2 
 PCOD9015814
Probable space group: P -1
;
_chemical_formula_sum "Si O2"
_cell_formula_units_Z 16
_cell_length_a 13.967643
_cell_length_b 11.040682
_cell_length_c 28.310773
_cell_angle_alpha 27.364730
_cell_angle_beta 159.490759
_cell_angle_gamma 149.440467
_cell_volume 691.364220
_symmetry_space_group_name_H-M "P -1"
_symmetry_group_IT_number 2
_symmetry_cell_setting 'triclinic'
loop_
_space_group_symop_operation_xyz
x,y,z
-x,-y,-z
loop_
_atom_site_type_symbol
_atom_site_label
_atom_site_fract_x
_atom_site_fract_y
_atom_site_fract_z
Si Si1 0.452407 0.005096 0.605439
Si Si2 0.291834 0.533085 0.096040
Si Si3 0.026612 0.615225 0.321437
Si Si4 0.395089 0.724237 0.229913
Si Si5 0.941720 0.616003 0.482859
Si Si6 0.376820 0.008003 0.033997
Si Si7 0.600129 0.115817 0.269206
Si Si8 0.810042 0.476522 0.058799
O O1 0.584362 0.737391 0.748298
O O2 0.445116 0.024472 0.652103
O O3 0.136108 0.909675 0.475239
O O4 0.657064 0.257277 0.590007
O O5 0.456581 0.793162 0.108582
O O6 0.247984 0.582097 0.003566
O O7 0.000000 0.500000 0.000000
O O8 0.882197 0.338513 0.325073
O O9 0.985331 0.550264 0.380234
O O10 0.841069 0.832398 0.145665
O O11 0.613859 0.599304 0.343941
O O12 0.134868 0.537158 0.197725
O O13 0.254191 0.883529 0.069730
O O14 0.578490 0.904796 0.290649
O O15 0.000000 0.500000 0.500000
O O16 0.647177 0.220646 0.098855
O O17 0.346631 0.277285 0.088026
#
# Coordination Sequence:
#
# PCOD9015814 Si02
#       8
#     2   2   2   2   2   2   2   2
#     4  10  21  42  65  91 127 173 208 259 317 377
#     4  11  18  36  63  91 123 158 209 265 313 363
#     4  10  22  43  68  91 125 170 213 264 315 371
#     4  12  24  42  63  94 133 170 207 266 316 370
#     4  11  27  44  61  93 134 168 209 257 320 385
#     4  11  22  38  65  97 124 163 219 259 316 376
#     4   9  22  41  65  95 128 161 216 267 316 370
#     4  10  22  36  61  94 125 163 206 266 322 365
#
# _framework density 23.142648999999999
#
# number of rings (size 3 to 8) (size 9 to 14) (size 15 to 20)
#    0.000    1.500    2.500    3.000    0.000    7.500 
#    0.000    1.250    0.000    0.000    0.000    0.000 
#    0.000    0.000    0.000    0.000    0.000    0.000 
#
# Total GULP energy -89493.899774 kJ/mol
# GULP energy per Si atom -5593.368736 kJ/mol
# Density = 2.308998 g / cm^3
# Si number density = 23.142649 Si / 1000 Ang^3
#
#
#
# Elastic Constant Matrix: (Units=GPa)
#
#
# Indices 1 2 3 4 5 6 
#
# 1 57.5574 30.4982 1.8820 -0.9821 -1.5164 2.1725
# 2 30.4982 102.2087 12.7904 25.7835 -2.4431 23.8990
# 3 1.8820 12.7904 71.0923 18.0168 -0.0206 9.8938
# 4 -0.9821 25.7835 18.0168 25.7093 7.2852 9.1368
# 5 -1.5164 -2.4431 -0.0206 7.2852 34.1687 12.7951
# 6 2.1725 23.8990 9.8938 9.1368 12.7951 43.0950
#
#
#
# Elastic Compliance Matrix: (Units=1/GPa)
#
#
# Indices 1 2 3 4 5 6 
#
# 1 0.023301 -0.011069 -0.002618 0.013606 -0.004122 0.003904
# 2 -0.011069 0.021088 0.003838 -0.023494 0.009747 -0.009931
# 3 -0.002618 0.003838 0.018284 -0.016772 0.005325 -0.004219
# 4 0.013606 -0.023494 -0.016772 0.078415 -0.019851 0.005462
# 5 -0.004122 0.009747 0.005325 -0.019851 0.039203 -0.013851
# 6 0.003904 -0.009931 -0.004219 0.005462 -0.013851 0.032438
#
#
# Mechanical properties :
#
#
# Convention : Reuss Voigt Hill
#
# Bulk Modulus (GPa) = 23.26922 35.68884 29.47903
# Shear Modulus (GPa) = 20.26321 32.97380 26.61851
#
# Velocity S-wave (km/s) = 2.96223 3.77876 3.39513
# Velocity P-wave (km/s) = 4.66650 5.87311 5.30423
#
# Compressibility (1/GPa) = 0.04297523
#
# Stress axis : x y z
#
# Youngs Moduli (GPa) = 42.91679 47.41994 54.69198
#
# Poissons Ratio (x) = 0.52488 0.14319
# Poissons Ratio (y) = 0.47504 -0.20990
# Poissons Ratio (z) = 0.11236 -0.18199
#
# Static dielectric constant tensor:
#      x y z
#    x 1.807890 0.009860 0.016250 
#    y 0.009860 1.903940 0.016640 
#    z 0.016250 0.016640 1.944430 
# 
# From -- ./inp_files/623516.got.cif
#   From: 2010.05.17/outbox.cif.g08.bks.cpg/sg2_312_cif.got.tgz:623516.got - 2010.06.03 11:33:40.
