data_PCOD9015629
_publ_section_title
;
Structure prediction by ZEFSAII (Michael W. Deem and Ramdas Pophale) SiO2 
 PCOD9015629
Probable space group: P -1
;
_chemical_formula_sum "Si O2"
_cell_formula_units_Z 15
_cell_length_a 18.560802
_cell_length_b 6.215664
_cell_length_c 16.694052
_cell_angle_alpha 94.325844
_cell_angle_beta 158.511389
_cell_angle_gamma 91.517879
_cell_volume 678.412446
_symmetry_space_group_name_H-M "P -1"
_symmetry_group_IT_number 2
_symmetry_cell_setting 'triclinic'
loop_
_space_group_symop_operation_xyz
x,y,z
-x,-y,-z
loop_
_atom_site_type_symbol
_atom_site_label
_atom_site_fract_x
_atom_site_fract_y
_atom_site_fract_z
Si Si1 0.661140 0.737519 0.159684
Si Si2 0.000000 0.500000 0.500000
Si Si3 0.615805 0.118743 0.411040
Si Si4 0.977457 0.477981 0.320917
Si Si5 0.199380 0.265957 0.987992
Si Si6 0.658227 0.148648 0.270060
Si Si7 0.032663 0.525460 0.128331
Si Si8 0.860245 0.804011 0.649174
O O1 0.873498 0.690481 0.364744
O O2 0.680817 0.913340 0.257097
O O3 0.500000 0.500000 0.000000
O O4 0.559165 0.834180 0.983444
O O5 0.140260 0.648910 0.729354
O O6 0.682801 0.181110 0.390666
O O7 0.773089 0.270755 0.640421
O O8 0.643959 0.865869 0.437848
O O9 0.404321 0.185308 0.201753
O O10 0.158607 0.643762 0.568918
O O11 0.097751 0.349429 0.384266
O O12 0.847573 0.604325 0.136159
O O13 0.160506 0.421072 0.025231
O O14 0.021267 0.038697 0.805700
O O15 0.080761 0.311036 0.213805
O O16 0.000000 0.500000 0.000000
#
# Coordination Sequence:
#
# PCOD9015629 Si02
#       8
#     2   1   2   2   2   2   2   2
#     4  11  25  40  58  86 123 162 214 266 315 370
#     4  12  24  38  62  86 122 168 212 264 316 366
#     4  11  22  40  67  91 126 171 209 259 314 377
#     4  11  22  42  61  89 127 166 218 262 318 371
#     4  10  23  40  64  97 124 165 216 258 308 381
#     4  11  22  43  61  85 127 166 212 266 317 367
#     4  10  23  44  68  96 133 165 199 259 318 379
#     4  10  21  42  64  90 125 167 205 261 311 380
#
# _framework density 22.110443
#
# number of rings (size 3 to 8) (size 9 to 14) (size 15 to 20)
#    0.000    1.333    5.333    1.600    0.000    6.400 
#    0.000    1.333    0.000    0.000    0.000    0.000 
#    0.000    0.000    0.000    0.000    0.000    0.000 
#
# Total GULP energy -83551.554782 kJ/mol
# GULP energy per Si atom -5570.103652 kJ/mol
# Density = 2.206012 g / cm^3
# Si number density = 22.110443 Si / 1000 Ang^3
#
#
#
# Elastic Constant Matrix: (Units=GPa)
#
#
# Indices 1 2 3 4 5 6 
#
# 1 107.0049 45.1753 70.8586 -22.4279 -34.9010 -26.1332
# 2 45.1753 118.8634 76.7994 -38.8483 -2.6830 -22.3025
# 3 70.8586 76.7994 118.0886 -43.3271 -5.8377 -34.7008
# 4 -22.4279 -38.8483 -43.3271 60.2019 -10.2268 10.6175
# 5 -34.9010 -2.6830 -5.8377 -10.2268 41.3735 0.6177
# 6 -26.1332 -22.3025 -34.7008 10.6175 0.6177 30.0497
#
#
#
# Elastic Compliance Matrix: (Units=1/GPa)
#
#
# Indices 1 2 3 4 5 6 
#
# 1 0.026705 0.000670 -0.011097 0.004574 0.022003 0.008839
# 2 0.000670 0.015111 -0.008568 0.003974 0.001312 0.000473
# 3 -0.011097 -0.008568 0.026428 0.006362 -0.004799 0.012360
# 4 0.004574 0.003974 0.006362 0.026596 0.011519 0.004640
# 5 0.022003 0.001312 -0.004799 0.011519 0.044843 0.009575
# 6 0.008839 0.000473 0.012360 0.004640 0.009575 0.053753
#
#
# Mechanical properties :
#
#
# Convention : Reuss Voigt Hill
#
# Bulk Modulus (GPa) = 33.05199 81.06927 57.06063
# Shear Modulus (GPa) = 20.70308 36.39993 28.55151
#
# Velocity S-wave (km/s) = 3.06330 4.06184 3.59738
# Velocity P-wave (km/s) = 5.24336 7.66441 6.56643
#
# Compressibility (1/GPa) = 0.03025536
#
# Stress axis : x y z
#
# Youngs Moduli (GPa) = 37.44681 66.17512 37.83881
#
# Poissons Ratio (x) = -0.04436 0.41988
# Poissons Ratio (y) = -0.02510 0.32420
# Poissons Ratio (z) = 0.41553 0.56699
#
# Static dielectric constant tensor:
#      x y z
#    x 7.502520 0.742790 1.325470 
#    y 0.742790 1.990920 0.181680 
#    z 1.325470 0.181680 2.133210 
# 
# From -- ./inp_files/44841.got.cif
#   From: 2010.05.17/outbox.cif.g08.bks.cpg/sg2_23_cif.got.tgz:44841.got - 2010.06.03 11:33:40.
