data_PCOD9015330
_publ_section_title
;
Structure prediction by ZEFSAII (Michael W. Deem and Ramdas Pophale) SiO2 
 PCOD9015330
Probable space group: P -1
;
_chemical_formula_sum "Si O2"
_cell_formula_units_Z 14
_cell_length_a 18.025098
_cell_length_b 9.327214
_cell_length_c 6.488054
_cell_angle_alpha 52.890636
_cell_angle_beta 129.412743
_cell_angle_gamma 126.754974
_cell_volume 629.692533
_symmetry_space_group_name_H-M "P -1"
_symmetry_group_IT_number 2
_symmetry_cell_setting 'triclinic'
loop_
_space_group_symop_operation_xyz
x,y,z
-x,-y,-z
loop_
_atom_site_type_symbol
_atom_site_label
_atom_site_fract_x
_atom_site_fract_y
_atom_site_fract_z
Si Si1 0.109617 0.196713 0.212477
Si Si2 0.570288 0.154202 0.147986
Si Si3 0.785394 0.445454 0.207859
Si Si4 0.898598 0.171104 0.727400
Si Si5 0.273198 0.369539 0.680274
Si Si6 0.679803 0.905893 0.685665
Si Si7 0.424774 0.353988 0.650722
O O1 0.172963 0.235392 0.500270
O O2 0.091136 0.981314 0.290481
O O3 0.176342 0.358438 0.025250
O O4 0.999987 0.223814 0.997734
O O5 0.673021 0.291652 0.092568
O O6 0.608393 0.032268 0.485114
O O7 0.499172 0.273409 0.984679
O O8 0.500000 0.000000 0.000000
O O9 0.871029 0.346846 0.433198
O O10 0.764368 0.492729 0.364775
O O11 0.795735 0.050980 0.769968
O O12 0.359438 0.447559 0.590840
O O13 0.323444 0.257326 0.019221
O O14 0.650973 0.812468 0.486577
O O15 0.500000 0.500000 0.500000
#
# Coordination Sequence:
#
# PCOD9015330 Si02
#       7
#     2   2   2   2   2   2   2
#     4  11  23  44  68  96 131 178 217 268 333 384
#     4   9  21  40  65  91 128 172 213 267 325 381
#     4  11  23  44  66  98 135 167 223 273 323 394
#     4  10  22  45  68  93 135 175 217 269 326 397
#     4  12  23  39  67  96 131 172 214 276 330 379
#     4  10  21  42  60  92 133 162 217 271 316 391
#     4  11  22  40  65  90 128 173 214 268 329 383
#
# _framework density 22.233073999999998
#
# number of rings (size 3 to 8) (size 9 to 14) (size 15 to 20)
#    0.000    1.429    2.857    2.143    0.000    4.000 
#    5.143    7.143    0.000    0.000    0.000    0.000 
#    0.000    0.000    0.000    0.000    0.000    0.000 
#
# Total GULP energy -78157.675602 kJ/mol
# GULP energy per Si atom -5582.691114 kJ/mol
# Density = 2.218247 g / cm^3
# Si number density = 22.233074 Si / 1000 Ang^3
#
#
#
# Elastic Constant Matrix: (Units=GPa)
#
#
# Indices 1 2 3 4 5 6 
#
# 1 77.0888 30.0387 44.3703 8.7519 27.2555 0.4773
# 2 30.0387 65.5899 34.7065 0.3321 10.3158 -8.0306
# 3 44.3703 34.7065 116.1822 0.6945 34.2533 -14.9038
# 4 8.7519 0.3321 0.6945 33.6842 2.0446 13.9442
# 5 27.2555 10.3158 34.2533 2.0446 41.6724 -1.7502
# 6 0.4773 -8.0306 -14.9038 13.9442 -1.7502 26.0413
#
#
#
# Elastic Compliance Matrix: (Units=1/GPa)
#
#
# Indices 1 2 3 4 5 6 
#
# 1 0.021507 -0.006742 -0.003932 -0.003438 -0.009144 -0.003497
# 2 -0.006742 0.020464 -0.003691 -0.000505 0.002603 0.004767
# 3 -0.003932 -0.003691 0.014615 -0.001988 -0.008102 0.007818
# 4 -0.003438 -0.000505 -0.001988 0.039878 0.001106 -0.022509
# 5 -0.009144 0.002603 -0.008102 0.001106 0.035860 -0.001848
# 6 -0.003497 0.004767 0.007818 -0.022509 -0.001848 0.056338
#
#
# Mechanical properties :
#
#
# Convention : Reuss Voigt Hill
#
# Bulk Modulus (GPa) = 35.89893 53.01019 44.45456
# Shear Modulus (GPa) = 22.05783 30.26259 26.16021
#
# Velocity S-wave (km/s) = 3.15321 3.69338 3.43393
# Velocity P-wave (km/s) = 5.42574 6.48713 5.98003
#
# Compressibility (1/GPa) = 0.02785599
#
# Stress axis : x y z
#
# Youngs Moduli (GPa) = 46.49627 48.86652 68.42433
#
# Poissons Ratio (x) = 0.32945 0.26904
# Poissons Ratio (y) = 0.31347 0.25256
# Poissons Ratio (z) = 0.18282 0.18037
#
# Static dielectric constant tensor:
#      x y z
#    x 1.824050 0.004130 0.021630 
#    y 0.004130 1.870430 -0.019270 
#    z 0.021630 -0.019270 1.857270 
# 
# From -- ./inp_files/46431.got.cif
#   From: 2010.05.17/outbox.cif.g08.bks.cpg/sg2_24_cif.got.tgz:46431.got - 2010.06.03 11:33:40.
