data_PCOD9015444
_publ_section_title
;
Structure prediction by ZEFSAII (Michael W. Deem and Ramdas Pophale) SiO2 
 PCOD9015444
Probable space group: P -1
;
_chemical_formula_sum "Si O2"
_cell_formula_units_Z 12
_cell_length_a 6.610388
_cell_length_b 16.979139
_cell_length_c 7.949322
_cell_angle_alpha 36.877759
_cell_angle_beta 66.257426
_cell_angle_gamma 64.596193
_cell_volume 480.739253
_symmetry_space_group_name_H-M "P -1"
_symmetry_group_IT_number 2
_symmetry_cell_setting 'triclinic'
loop_
_space_group_symop_operation_xyz
x,y,z
-x,-y,-z
loop_
_atom_site_type_symbol
_atom_site_label
_atom_site_fract_x
_atom_site_fract_y
_atom_site_fract_z
Si Si1 0.189233 0.483376 0.222417
Si Si2 0.761857 0.471602 0.492451
Si Si3 0.461188 0.721528 0.724613
Si Si4 0.172908 0.822796 0.129863
Si Si5 0.601152 0.850701 0.784122
Si Si6 0.052224 0.893342 0.424056
O O1 0.212826 0.461983 0.451152
O O2 0.313499 0.348604 0.324677
O O3 0.922548 0.520484 0.217484
O O4 0.308441 0.608999 0.940008
O O5 0.500000 0.500000 0.500000
O O6 0.846138 0.312239 0.728379
O O7 0.531448 0.752121 0.835471
O O8 0.301367 0.856307 0.481526
O O9 0.077281 0.825730 0.345761
O O10 0.441162 0.830309 0.029570
O O11 0.039911 0.951061 0.854224
O O12 0.869154 0.844633 0.691166
O O13 0.500000 0.000000 0.500000
#
# Coordination Sequence:
#
# PCOD9015444 Si02
#       6
#     2   2   2   2   2   2
#     4  10  24  39  63  96 128 164 217 261 309 397
#     4  11  22  41  63  92 127 172 210 263 321 375
#     4  11  22  43  64  95 131 166 212 265 324 379
#     4  10  21  42  62  94 129 161 224 261 306 397
#     4  10  22  41  63  94 130 164 216 264 311 387
#     4  10  23  41  66  92 128 173 206 268 329 367
#
# _framework density 24.961556999999999
#
# number of rings (size 3 to 8) (size 9 to 14) (size 15 to 20)
#    0.000    1.667    1.667    2.000    2.333    2.667 
#    0.000   17.500    0.000    0.000    0.000    0.000 
#    0.000    0.000    0.000    0.000    0.000    0.000 
#
# Total GULP energy -67062.370364 kJ/mol
# GULP energy per Si atom -5588.530864 kJ/mol
# Density = 2.490474 g / cm^3
# Si number density = 24.961557 Si / 1000 Ang^3
#
#
#
# Elastic Constant Matrix: (Units=GPa)
#
#
# Indices 1 2 3 4 5 6 
#
# 1 87.6783 43.1315 20.8733 -3.0102 -3.1057 -30.5685
# 2 43.1315 159.7125 32.4208 -3.4366 -7.4597 -24.3321
# 3 20.8733 32.4208 53.1147 -0.2340 -15.7827 -19.4819
# 4 -3.0102 -3.4366 -0.2340 34.3384 -9.8751 -8.9054
# 5 -3.1057 -7.4597 -15.7827 -9.8751 31.1150 -4.5481
# 6 -30.5685 -24.3321 -19.4819 -8.9054 -4.5481 34.4159
#
#
#
# Elastic Compliance Matrix: (Units=1/GPa)
#
#
# Indices 1 2 3 4 5 6 
#
# 1 0.020320 -0.002190 0.005609 0.011116 0.011393 0.024057
# 2 -0.002190 0.007894 -0.002504 0.001710 0.001362 0.002841
# 3 0.005609 -0.002504 0.040524 0.018727 0.031600 0.035174
# 4 0.011116 0.001710 0.018727 0.049827 0.032514 0.038872
# 5 0.011393 0.001362 0.031600 0.032514 0.066703 0.046198
# 6 0.024057 0.002841 0.035174 0.038872 0.046198 0.088507
#
#
# Mechanical properties :
#
#
# Convention : Reuss Voigt Hill
#
# Bulk Modulus (GPa) = 14.17023 54.81741 34.49382
# Shear Modulus (GPa) = 16.92239 33.57921 25.25080
#
# Velocity S-wave (km/s) = 2.60655 3.67173 3.18400
# Velocity P-wave (km/s) = 3.84030 6.32328 5.23124
#
# Compressibility (1/GPa) = 0.07057050
#
# Stress axis : x y z
#
# Youngs Moduli (GPa) = 49.21347 126.67699 24.67643
#
# Poissons Ratio (x) = 0.27739 -0.13842
# Poissons Ratio (y) = 0.10777 0.06178
# Poissons Ratio (z) = -0.27606 0.31714
#
# Static dielectric constant tensor:
#      x y z
#    x 2.082860 -0.075830 -0.068090 
#    y -0.075830 1.941940 0.029550 
#    z -0.068090 0.029550 2.038530 
# 
# From -- ./inp_files/18881.got.cif
#   From: 2010.05.17/outbox.cif.g08.bks.cpg/sg2_10_cif.got.tgz:18881.got - 2010.06.03 11:33:40.
