data_PCOD9015116
_publ_section_title
;
Structure prediction by ZEFSAII (Michael W. Deem and Ramdas Pophale) SiO2 
 PCOD9015116
Probable space group: P -1
;
_chemical_formula_sum "Si O2"
_cell_formula_units_Z 12
_cell_length_a 9.228202
_cell_length_b 9.099113
_cell_length_c 12.283038
_cell_angle_alpha 71.471098
_cell_angle_beta 38.428599
_cell_angle_gamma 53.034104
_cell_volume 487.179032
_symmetry_space_group_name_H-M "P -1"
_symmetry_group_IT_number 2
_symmetry_cell_setting 'triclinic'
loop_
_space_group_symop_operation_xyz
x,y,z
-x,-y,-z
loop_
_atom_site_type_symbol
_atom_site_label
_atom_site_fract_x
_atom_site_fract_y
_atom_site_fract_z
Si Si1 0.480667 0.023141 0.376887
Si Si2 0.851588 0.300097 0.641712
Si Si3 0.992924 0.604478 0.087086
Si Si4 0.813694 0.174162 0.152740
Si Si5 0.658014 0.085382 0.938220
Si Si6 0.105970 0.418194 0.294775
O O1 0.521809 0.192519 0.315843
O O2 0.171715 0.095342 0.500446
O O3 0.500000 0.000000 0.500000
O O4 0.716407 0.826384 0.220599
O O5 0.669866 0.225700 0.813325
O O6 0.867988 0.428754 0.693410
O O7 0.882779 0.384954 0.489998
O O8 0.015931 0.493786 0.206830
O O9 0.000000 0.500000 0.000000
O O10 0.238831 0.635491 0.909014
O O11 0.022535 0.083519 0.158637
O O12 0.000000 0.000000 0.000000
O O13 0.433392 0.222040 0.133803
O O14 0.500000 0.000000 0.000000
#
# Coordination Sequence:
#
# PCOD9015116 Si02
#       6
#     2   2   2   2   2   2
#     4  11  20  43  71  99 131 179 243 282 331 418
#     4  11  24  44  72 102 133 183 238 290 337 420
#     4  11  23  42  68 101 139 180 228 289 354 411
#     4  10  21  41  71  94 130 185 236 273 336 422
#     4  12  25  44  68 101 145 181 222 292 364 414
#     4  11  24  42  68 103 138 178 235 287 348 412
#
# _framework density 24.631602999999998
#
# number of rings (size 3 to 8) (size 9 to 14) (size 15 to 20)
#    0.000    1.000    3.333    4.500    0.000    3.333 
#    0.000    2.500    0.000    0.000    0.000    0.000 
#    0.000    0.000    0.000    0.000    0.000    0.000 
#
# Total GULP energy -66950.739093 kJ/mol
# GULP energy per Si atom -5579.228258 kJ/mol
# Density = 2.457554 g / cm^3
# Si number density = 24.631603 Si / 1000 Ang^3
#
#
#
# Elastic Constant Matrix: (Units=GPa)
#
#
# Indices 1 2 3 4 5 6 
#
# 1 111.3822 70.1695 43.0321 -27.2008 25.8543 7.2452
# 2 70.1695 135.0102 64.3287 -37.8353 21.4408 4.1091
# 3 43.0321 64.3287 133.2101 -38.8563 16.0283 19.7805
# 4 -27.2008 -37.8353 -38.8563 65.1011 -8.3703 -4.6588
# 5 25.8543 21.4408 16.0283 -8.3703 41.2647 -8.0322
# 6 7.2452 4.1091 19.7805 -4.6588 -8.0322 42.9784
#
#
#
# Elastic Compliance Matrix: (Units=1/GPa)
#
#
# Indices 1 2 3 4 5 6 
#
# 1 0.014971 -0.006148 -0.000238 0.001521 -0.006339 -0.002846
# 2 -0.006148 0.013258 -0.003726 0.002947 -0.000665 0.001679
# 3 -0.000238 -0.003726 0.011592 0.003964 -0.002585 -0.004992
# 4 0.001521 0.002947 0.003964 0.020063 0.000009 -0.000186
# 5 -0.006339 -0.000665 -0.002585 0.000009 0.031142 0.008143
# 6 -0.002846 0.001679 -0.004992 -0.000186 0.008143 0.027386
#
#
# Mechanical properties :
#
#
# Convention : Reuss Voigt Hill
#
# Bulk Modulus (GPa) = 51.02951 81.62921 66.32936
# Shear Modulus (GPa) = 34.44277 43.34031 38.89154
#
# Velocity S-wave (km/s) = 3.74346 4.19924 3.97788
# Velocity P-wave (km/s) = 6.28067 7.53150 6.93434
#
# Compressibility (1/GPa) = 0.01959650
#
# Stress axis : x y z
#
# Youngs Moduli (GPa) = 66.79434 75.42686 86.26763
#
# Poissons Ratio (x) = 0.46372 0.02056
# Poissons Ratio (y) = 0.41065 0.32143
# Poissons Ratio (z) = 0.01592 0.28104
#
# Static dielectric constant tensor:
#      x y z
#    x 1.991710 -0.148070 -0.055880 
#    y -0.148070 2.157690 -0.089990 
#    z -0.055880 -0.089990 2.075660 
# 
# From -- ./inp_files/296272.got.cif
#   From: 2010.05.17/outbox.cif.g08.bks.cpg/sg2_149_cif.got.tgz:296272.got - 2010.06.03 11:33:40.
