data_PCOD9015661
_publ_section_title
;
Structure prediction by ZEFSAII (Michael W. Deem and Ramdas Pophale) SiO2 
 PCOD9015661
Probable space group: P -1
;
_chemical_formula_sum "Si O2"
_cell_formula_units_Z 16
_cell_length_a 14.202070
_cell_length_b 9.533180
_cell_length_c 11.635604
_cell_angle_alpha 122.276664
_cell_angle_beta 35.444035
_cell_angle_gamma 138.464317
_cell_volume 593.877792
_symmetry_space_group_name_H-M "P -1"
_symmetry_group_IT_number 2
_symmetry_cell_setting 'triclinic'
loop_
_space_group_symop_operation_xyz
x,y,z
-x,-y,-z
loop_
_atom_site_type_symbol
_atom_site_label
_atom_site_fract_x
_atom_site_fract_y
_atom_site_fract_z
Si Si1 0.416013 0.647878 0.889037
Si Si2 0.696119 0.798965 0.206814
Si Si3 0.093132 0.275498 0.685756
Si Si4 0.533800 0.274381 0.395824
Si Si5 0.014422 0.538020 0.303828
Si Si6 0.153989 0.794785 0.879728
Si Si7 0.631412 0.358685 0.726499
Si Si8 0.743854 0.806260 0.815952
O O1 0.299766 0.393447 0.899181
O O2 0.449389 0.717701 0.754117
O O3 0.642771 0.769197 0.775111
O O4 0.264758 0.672332 0.123368
O O5 0.683446 0.839395 0.370473
O O6 0.475047 0.704315 0.321608
O O7 0.851018 0.020975 0.082320
O O8 0.036370 0.314941 0.635240
O O9 0.326455 0.478447 0.584537
O O10 0.980269 0.024324 0.689739
O O11 0.963004 0.287770 0.919343
O O12 0.627217 0.160587 0.298385
O O13 0.955446 0.382373 0.187810
O O14 0.845181 0.394422 0.510264
O O15 0.712376 0.594243 0.786816
O O16 0.424050 0.198054 0.941060
#
# Coordination Sequence:
#
# PCOD9015661 Si02
#       8
#     2   2   2   2   2   2   2   2
#     4  11  24  42  62  96 142 162 204 276 338 360
#     4  11  22  38  68  97 129 168 217 269 317 377
#     4  11  20  39  70  92 126 170 222 254 316 389
#     4  11  21  41  67  99 127 169 215 274 313 381
#     4  11  22  40  65  94 129 170 213 269 316 385
#     4  11  20  38  69  97 122 169 224 258 315 384
#     4  10  21  42  64  92 126 175 223 254 310 397
#     4  10  24  41  66  93 129 173 212 267 318 384
#
# _framework density 26.941569000000001
#
# number of rings (size 3 to 8) (size 9 to 14) (size 15 to 20)
#    0.000    1.250    6.250    1.500    0.000    2.000 
#    0.000    0.000    2.750    0.000    0.000    0.000 
#    0.000    0.000    0.000    0.000    0.000    0.000 
#
# Total GULP energy -89475.430597 kJ/mol
# GULP energy per Si atom -5592.214412 kJ/mol
# Density = 2.688025 g / cm^3
# Si number density = 26.941569 Si / 1000 Ang^3
#
#
#
# Elastic Constant Matrix: (Units=GPa)
#
#
# Indices 1 2 3 4 5 6 
#
# 1 84.2769 9.0727 20.2805 -3.0152 1.0007 -7.8007
# 2 9.0727 82.9119 3.7198 -9.0149 5.4981 -3.0147
# 3 20.2805 3.7198 135.2617 -11.4210 3.8523 -5.8887
# 4 -3.0152 -9.0149 -11.4210 29.1078 -5.2866 3.6420
# 5 1.0007 5.4981 3.8523 -5.2866 36.7209 0.2090
# 6 -7.8007 -3.0147 -5.8887 3.6420 0.2090 30.6187
#
#
#
# Elastic Compliance Matrix: (Units=1/GPa)
#
#
# Indices 1 2 3 4 5 6 
#
# 1 0.012673 -0.001217 -0.001754 -0.000103 -0.000010 0.002784
# 2 -0.001217 0.012684 0.000198 0.003559 -0.001378 0.000563
# 3 -0.001754 0.000198 0.007934 0.002822 -0.000412 0.000766
# 4 -0.000103 0.003559 0.002822 0.037857 0.004645 -0.003668
# 5 -0.000010 -0.001378 -0.000412 0.004645 0.028156 -0.000962
# 6 0.002784 0.000563 0.000766 -0.003668 -0.000962 0.034014
#
#
# Mechanical properties :
#
#
# Convention : Reuss Voigt Hill
#
# Bulk Modulus (GPa) = 36.04307 40.95515 38.49911
# Shear Modulus (GPa) = 33.75805 37.24799 35.50302
#
# Velocity S-wave (km/s) = 3.54363 3.72230 3.63406
# Velocity P-wave (km/s) = 5.49093 5.80590 5.65061
#
# Compressibility (1/GPa) = 0.02774458
#
# Stress axis : x y z
#
# Youngs Moduli (GPa) = 78.90881 78.83862 126.04066
#
# Poissons Ratio (x) = 0.09597 0.22105
# Poissons Ratio (y) = 0.09606 -0.02495
# Poissons Ratio (z) = 0.13839 -0.01561
#
# Static dielectric constant tensor:
#      x y z
#    x 2.172160 0.002110 -0.044510 
#    y 0.002110 2.113070 0.017730 
#    z -0.044510 0.017730 2.118750 
# 
# From -- ./inp_files/447775.got.cif
#   From: 2010.05.17/outbox.cif.g08.bks.cpg/sg2_224_cif.got.tgz:447775.got - 2010.06.03 11:33:40.
