data_PCOD9015484
_publ_section_title
;
Structure prediction by ZEFSAII (Michael W. Deem and Ramdas Pophale) SiO2 
 PCOD9015484
Probable space group: P -1
;
_chemical_formula_sum "Si O2"
_cell_formula_units_Z 16
_cell_length_a 17.318293
_cell_length_b 7.233373
_cell_length_c 5.069683
_cell_angle_alpha 78.804356
_cell_angle_beta 100.764080
_cell_angle_gamma 96.648629
_cell_volume 609.943125
_symmetry_space_group_name_H-M "P -1"
_symmetry_group_IT_number 2
_symmetry_cell_setting 'triclinic'
loop_
_space_group_symop_operation_xyz
x,y,z
-x,-y,-z
loop_
_atom_site_type_symbol
_atom_site_label
_atom_site_fract_x
_atom_site_fract_y
_atom_site_fract_z
Si Si1 0.929583 0.476349 0.748402
Si Si2 0.714291 0.138544 0.120506
Si Si3 0.782159 0.680110 0.568925
Si Si4 0.580616 0.847296 0.309959
Si Si5 0.337901 0.645469 0.478160
Si Si6 0.502850 0.763837 0.781478
Si Si7 0.007972 0.169177 0.667481
Si Si8 0.832412 0.904621 0.023727
O O1 0.843676 0.532698 0.757908
O O2 0.954038 0.642668 0.509122
O O3 0.931498 0.261021 0.707070
O O4 0.000000 0.500000 0.000000
O O5 0.712612 0.270459 0.338851
O O6 0.662594 0.945047 0.224373
O O7 0.798937 0.088708 0.080180
O O8 0.669959 0.230893 0.823858
O O9 0.698765 0.563752 0.542643
O O10 0.804891 0.747705 0.270658
O O11 0.793206 0.852178 0.733845
O O12 0.574297 0.767153 0.621227
O O13 0.535105 0.715928 0.100159
O O14 0.528624 0.028742 0.258743
O O15 0.426428 0.656334 0.634272
O O16 0.073533 0.108282 0.932219
O O17 0.000000 0.000000 0.500000
#
# Coordination Sequence:
#
# PCOD9015484 Si02
#       8
#     2   2   2   2   2   2   2   2
#     4  10  21  42  63  89 123 161 207 251 309 365
#     4  11  22  36  59  91 119 150 206 249 297 356
#     4  11  24  42  62  83 125 164 193 244 308 361
#     4   9  16  29  52  81 116 149 183 254 298 337
#     4  11  22  36  60  91 115 155 204 251 291 357
#     4   9  16  29  52  82 114 146 195 241 300 345
#     4  10  23  40  65  92 121 162 207 256 304 364
#     4  11  24  43  59  87 124 162 194 240 313 366
#
# _framework density 26.231956
#
# number of rings (size 3 to 8) (size 9 to 14) (size 15 to 20)
#    0.000    1.750    1.250    5.250    1.750    1.500 
#    0.000    0.000    0.000    4.500    0.000    0.000 
#    0.000    0.000    0.000    0.000    0.000    0.000 
#
# Total GULP energy -89572.111335 kJ/mol
# GULP energy per Si atom -5598.256958 kJ/mol
# Density = 2.617225 g / cm^3
# Si number density = 26.231956 Si / 1000 Ang^3
#
#
#
# Elastic Constant Matrix: (Units=GPa)
#
#
# Indices 1 2 3 4 5 6 
#
# 1 80.0044 24.1339 8.7722 7.3269 -21.1100 -14.4960
# 2 24.1339 110.6686 25.7528 2.4000 1.3931 -16.1334
# 3 8.7722 25.7528 99.8031 12.7409 -1.9126 2.5382
# 4 7.3269 2.4000 12.7409 41.8548 0.0884 5.6090
# 5 -21.1100 1.3931 -1.9126 0.0884 29.6325 9.3797
# 6 -14.4960 -16.1334 2.5382 5.6090 9.3797 41.0832
#
#
#
# Elastic Compliance Matrix: (Units=1/GPa)
#
#
# Indices 1 2 3 4 5 6 
#
# 1 0.017418 -0.003496 -0.000060 -0.003194 0.011780 0.002523
# 2 -0.003496 0.011130 -0.002794 0.000256 -0.004561 0.004316
# 3 -0.000060 -0.002794 0.011200 -0.003012 0.001362 -0.001710
# 4 -0.003194 0.000256 -0.003012 0.025904 -0.001265 -0.004088
# 5 0.011780 -0.004561 0.001362 -0.001265 0.044914 -0.007800
# 6 0.002523 0.004316 -0.001710 -0.004088 -0.007800 0.029371
#
#
# Mechanical properties :
#
#
# Convention : Reuss Voigt Hill
#
# Bulk Modulus (GPa) = 36.97060 45.31044 41.14052
# Shear Modulus (GPa) = 30.93047 37.96858 34.44952
#
# Velocity S-wave (km/s) = 3.43755 3.80862 3.62783
# Velocity P-wave (km/s) = 5.46626 6.05403 5.76764
#
# Compressibility (1/GPa) = 0.02704852
#
# Stress axis : x y z
#
# Youngs Moduli (GPa) = 57.41082 89.84991 89.28422
#
# Poissons Ratio (x) = 0.31409 0.00533
# Poissons Ratio (y) = 0.20069 0.24950
# Poissons Ratio (z) = 0.00343 0.25108
#
# Static dielectric constant tensor:
#      x y z
#    x 2.255490 -0.032920 -0.062260 
#    y -0.032920 2.074800 -0.057440 
#    z -0.062260 -0.057440 2.076550 
# 
# From -- ./inp_files/12975.got.cif
#   From: 2010.05.17/outbox.cif.g08.bks.cpg/sg2_7_cif.got.tgz:12975.got - 2010.06.03 11:33:40.
