data_PCOD9015617
_publ_section_title
;
Structure prediction by ZEFSAII (Michael W. Deem and Ramdas Pophale) SiO2 
 PCOD9015617
Probable space group: P -1
;
_chemical_formula_sum "Si O2"
_cell_formula_units_Z 16
_cell_length_a 15.289184
_cell_length_b 9.004928
_cell_length_c 9.424829
_cell_angle_alpha 112.963379
_cell_angle_beta 142.755282
_cell_angle_gamma 57.409948
_cell_volume 659.774151
_symmetry_space_group_name_H-M "P -1"
_symmetry_group_IT_number 2
_symmetry_cell_setting 'triclinic'
loop_
_space_group_symop_operation_xyz
x,y,z
-x,-y,-z
loop_
_atom_site_type_symbol
_atom_site_label
_atom_site_fract_x
_atom_site_fract_y
_atom_site_fract_z
Si Si1 0.549543 0.150604 0.454090
Si Si2 0.295070 0.807831 0.056958
Si Si3 0.676850 0.372136 0.508382
Si Si4 0.723439 0.869975 0.352872
Si Si5 0.210500 0.355895 0.093834
Si Si6 0.981296 0.829471 0.078296
Si Si7 0.565388 0.219820 0.082681
Si Si8 0.932543 0.333607 0.176564
O O1 0.579337 0.170354 0.664220
O O2 0.593961 0.299072 0.491640
O O3 0.370120 0.187493 0.196623
O O4 0.668400 0.966616 0.471509
O O5 0.359107 0.792334 0.977207
O O6 0.226258 0.664861 0.958181
O O7 0.138364 0.983473 0.952519
O O8 0.716439 0.528428 0.679078
O O9 0.578840 0.382652 0.245141
O O10 0.851471 0.222067 0.649855
O O11 0.909655 0.745275 0.553587
O O12 0.663834 0.036114 0.228593
O O13 0.612856 0.765749 0.146468
O O14 0.097893 0.300972 0.024225
O O15 0.114898 0.473611 0.882543
O O16 0.023496 0.795717 0.954111
#
# Coordination Sequence:
#
# PCOD9015617 Si02
#       8
#     2   2   2   2   2   2   2   2
#     4  11  21  39  71  96 126 165 221 275 309 378
#     4  12  22  38  69 103 126 164 226 268 316 377
#     4  10  21  42  64  88 130 175 206 255 332 382
#     4  10  22  43  67  94 132 171 217 265 323 377
#     4  11  24  40  68 100 130 165 217 273 327 372
#     4  11  22  39  67 100 129 163 218 276 321 371
#     4  10  24  40  63  97 133 174 211 263 322 393
#     4  11  22  40  67 100 126 165 215 277 319 375
#
# _framework density 24.250723000000001
#
# number of rings (size 3 to 8) (size 9 to 14) (size 15 to 20)
#    0.000    1.250    3.750    4.500    1.750    3.000 
#    0.000    0.625    0.000   15.000    0.000    0.000 
#    0.000    0.000    0.000    0.000    0.000    0.000 
#
# Total GULP energy -89570.042472 kJ/mol
# GULP energy per Si atom -5598.127655 kJ/mol
# Density = 2.419553 g / cm^3
# Si number density = 24.250723 Si / 1000 Ang^3
#
#
#
# Elastic Constant Matrix: (Units=GPa)
#
#
# Indices 1 2 3 4 5 6 
#
# 1 105.6558 21.6769 39.6567 2.2915 0.1958 21.5818
# 2 21.6769 44.5848 23.1534 -4.4368 0.5136 6.2976
# 3 39.6567 23.1534 130.6124 -0.1789 13.4684 0.1531
# 4 2.2915 -4.4368 -0.1789 42.0194 -8.9897 16.3118
# 5 0.1958 0.5136 13.4684 -8.9897 39.2772 -4.6585
# 6 21.5818 6.2976 0.1531 16.3118 -4.6585 31.4812
#
#
#
# Elastic Compliance Matrix: (Units=1/GPa)
#
#
# Indices 1 2 3 4 5 6 
#
# 1 0.013403 -0.002939 -0.003605 0.002986 0.000702 -0.010026
# 2 -0.002939 0.027439 -0.004128 0.005810 0.001664 -0.006218
# 3 -0.003605 -0.004128 0.009824 -0.002490 -0.003388 0.004038
# 4 0.002986 0.005810 -0.002490 0.033076 0.006027 -0.019443
# 5 0.000702 0.001664 -0.003388 0.006027 0.028002 0.000223
# 6 -0.010026 -0.006218 0.004038 -0.019443 0.000223 0.049970
#
#
# Mechanical properties :
#
#
# Convention : Reuss Voigt Hill
#
# Bulk Modulus (GPa) = 34.10459 49.98079 42.04269
# Shear Modulus (GPa) = 25.92944 35.64662 30.78803
#
# Velocity S-wave (km/s) = 3.27345 3.83811 3.56697
# Velocity P-wave (km/s) = 5.32739 6.34793 5.85992
#
# Compressibility (1/GPa) = 0.02932156
#
# Stress axis : x y z
#
# Youngs Moduli (GPa) = 74.61256 36.44418 101.79468
#
# Poissons Ratio (x) = 0.10711 0.36695
# Poissons Ratio (y) = 0.21929 0.42021
# Poissons Ratio (z) = 0.26897 0.15044
#
# Static dielectric constant tensor:
#      x y z
#    x 1.876070 -0.027800 -0.011790 
#    y -0.027800 2.042480 -0.028060 
#    z -0.011790 -0.028060 1.946640 
# 
# From -- ./inp_files/205157.got.cif
#   From: 2010.05.17/outbox.cif.g08.bks.cpg/sg2_103_cif.got.tgz:205157.got - 2010.06.03 11:33:40.
