data_PCOD9015613
_publ_section_title
;
Structure prediction by ZEFSAII (Michael W. Deem and Ramdas Pophale) SiO2 
 PCOD9015613
Probable space group: P -1
;
_chemical_formula_sum "Si O2"
_cell_formula_units_Z 16
_cell_length_a 10.023762
_cell_length_b 9.412059
_cell_length_c 10.909838
_cell_angle_alpha 73.806909
_cell_angle_beta 138.998024
_cell_angle_gamma 94.429448
_cell_volume 633.839746
_symmetry_space_group_name_H-M "P -1"
_symmetry_group_IT_number 2
_symmetry_cell_setting 'triclinic'
loop_
_space_group_symop_operation_xyz
x,y,z
-x,-y,-z
loop_
_atom_site_type_symbol
_atom_site_label
_atom_site_fract_x
_atom_site_fract_y
_atom_site_fract_z
Si Si1 0.262298 0.388775 0.978650
Si Si2 0.779816 0.093545 0.997807
Si Si3 0.823758 0.158187 0.660708
Si Si4 0.206283 0.525495 0.324669
Si Si5 0.531273 0.917132 0.725202
Si Si6 0.778449 0.979253 0.300517
Si Si7 0.587668 0.435331 0.776015
Si Si8 0.895734 0.673236 0.358422
O O1 0.029671 0.486018 0.814928
O O2 0.274664 0.342750 0.857627
O O3 0.287063 0.230959 0.104907
O O4 0.428465 0.472326 0.131743
O O5 0.732246 0.032375 0.115251
O O6 0.730013 0.271919 0.934636
O O7 0.009975 0.994883 0.157170
O O8 0.639577 0.055296 0.797122
O O9 0.786143 0.296051 0.697446
O O10 0.619001 0.106401 0.483234
O O11 0.934265 0.243675 0.609617
O O12 0.367221 0.441386 0.557472
O O13 0.292183 0.480475 0.260414
O O14 0.385362 0.927566 0.741913
O O15 0.792577 0.798011 0.355331
O O16 0.000000 0.000000 0.500000
O O17 0.000000 0.500000 0.500000
#
# Coordination Sequence:
#
# PCOD9015613 Si02
#       8
#     2   2   2   2   2   2   2   2
#     4  11  23  42  66  90 128 174 207 256 326 381
#     4  11  24  41  63 100 121 165 216 261 310 381
#     4  10  21  42  64  87 133 165 202 264 316 374
#     4  10  22  46  65  93 129 162 212 272 321 377
#     4  12  21  41  66  87 130 178 202 252 323 376
#     4  11  22  41  62  88 134 172 203 259 313 369
#     4  11  25  41  71  95 122 164 217 271 322 371
#     4  10  22  39  62  95 126 166 214 261 304 373
#
# _framework density 25.242972999999999
#
# number of rings (size 3 to 8) (size 9 to 14) (size 15 to 20)
#    0.000    1.250    7.500    0.750    1.750    3.500 
#    0.000    1.875    0.000    0.000    0.000    0.000 
#    0.000    0.000    0.000    0.000    0.000    0.000 
#
# Total GULP energy -89454.473223 kJ/mol
# GULP energy per Si atom -5590.904576 kJ/mol
# Density = 2.518552 g / cm^3
# Si number density = 25.242973 Si / 1000 Ang^3
#
#
#
# Elastic Constant Matrix: (Units=GPa)
#
#
# Indices 1 2 3 4 5 6 
#
# 1 51.1266 3.5291 9.3805 3.7494 3.7483 -1.9965
# 2 3.5291 135.0680 46.6332 -0.1911 -23.7502 -7.0200
# 3 9.3805 46.6332 129.9518 5.8900 1.5389 0.4102
# 4 3.7494 -0.1911 5.8900 52.1877 -13.4554 -4.5615
# 5 3.7483 -23.7502 1.5389 -13.4554 20.9692 -0.5430
# 6 -1.9965 -7.0200 0.4102 -4.5615 -0.5430 36.2338
#
#
#
# Elastic Compliance Matrix: (Units=1/GPa)
#
#
# Indices 1 2 3 4 5 6 
#
# 1 0.020612 -0.001648 -0.000654 -0.003361 -0.007652 0.000286
# 2 -0.001648 0.012644 -0.004919 0.005877 0.018836 0.003437
# 3 -0.000654 -0.004919 0.009765 -0.003378 -0.008381 -0.001650
# 4 -0.003361 0.005877 -0.003378 0.026581 0.024683 0.004708
# 5 -0.007652 0.018836 -0.008381 0.024683 0.087046 0.007735
# 6 0.000286 0.003437 -0.001650 0.004708 0.007735 0.029007
#
#
# Mechanical properties :
#
#
# Convention : Reuss Voigt Hill
#
# Bulk Modulus (GPa) = 34.99112 48.35911 41.67512
# Shear Modulus (GPa) = 23.85229 38.98505 31.41867
#
# Velocity S-wave (km/s) = 3.07727 3.93414 3.53179
# Velocity P-wave (km/s) = 5.14956 6.31155 5.75993
#
# Compressibility (1/GPa) = 0.02857868
#
# Stress axis : x y z
#
# Youngs Moduli (GPa) = 48.51594 79.08872 102.40640
#
# Poissons Ratio (x) = 0.13034 0.06701
# Poissons Ratio (y) = 0.07996 0.50370
# Poissons Ratio (z) = 0.03175 0.38901
#
# Static dielectric constant tensor:
#      x y z
#    x 2.111390 0.007550 -0.020290 
#    y 0.007550 1.920170 -0.005120 
#    z -0.020290 -0.005120 1.980770 
# 
# From -- ./inp_files/527485.got.cif
#   From: 2010.05.17/outbox.cif.g08.bks.cpg/sg2_264_cif.got.tgz:527485.got - 2010.06.03 11:33:40.
