data_PCOD9015712
_publ_section_title
;
Structure prediction by ZEFSAII (Michael W. Deem and Ramdas Pophale) SiO2 
 PCOD9015712
Probable space group: P -1
;
_chemical_formula_sum "Si O2"
_cell_formula_units_Z 16
_cell_length_a 19.372783
_cell_length_b 22.493784
_cell_length_c 5.459466
_cell_angle_alpha 87.205100
_cell_angle_beta 98.084156
_cell_angle_gamma 162.525660
_cell_volume 677.487803
_symmetry_space_group_name_H-M "P -1"
_symmetry_group_IT_number 2
_symmetry_cell_setting 'triclinic'
loop_
_space_group_symop_operation_xyz
x,y,z
-x,-y,-z
loop_
_atom_site_type_symbol
_atom_site_label
_atom_site_fract_x
_atom_site_fract_y
_atom_site_fract_z
Si Si1 0.611133 0.656583 0.504926
Si Si2 0.844229 0.000567 0.703388
Si Si3 0.368036 0.953682 0.484542
Si Si4 0.898580 0.204552 0.233636
Si Si5 0.843157 0.925104 0.212983
Si Si6 0.452156 0.139478 0.234831
Si Si7 0.231437 0.406423 0.718602
Si Si8 0.170974 0.477562 0.929422
O O1 0.500000 0.500000 0.500000
O O2 0.437899 0.556226 0.601891
O O3 0.884199 0.877599 0.700578
O O4 0.654191 0.718507 0.239474
O O5 0.838250 0.963111 0.445560
O O6 0.107018 0.247312 0.809763
O O7 0.631065 0.875301 0.628585
O O8 0.808849 0.932504 0.943779
O O9 0.315230 0.929550 0.741341
O O10 0.095243 0.729245 0.280735
O O11 0.500000 0.000000 0.500000
O O12 0.509518 0.125072 0.402729
O O13 0.012346 0.254385 0.477591
O O14 0.109029 0.419105 0.194203
O O15 0.788552 0.073451 0.995787
O O16 0.653208 0.327939 0.113979
O O17 0.280169 0.502687 0.897917
#
# Coordination Sequence:
#
# PCOD9015712 Si02
#       8
#     2   2   2   2   2   2   2   2
#     4  11  25  46  67  97 137 182 229 287 353 420
#     4  12  23  46  72  96 141 177 237 289 348 404
#     4  10  23  44  66  94 139 174 216 277 340 410
#     4  10  21  42  64  96 132 171 226 270 341 399
#     4  11  28  47  66 103 135 184 232 295 350 415
#     4  11  23  39  67  98 131 176 223 283 336 405
#     4  11  22  43  67  97 134 180 225 288 344 410
#     4  10  23  40  64 100 127 174 229 273 340 411
#
# _framework density 23.61666
#
# number of rings (size 3 to 8) (size 9 to 14) (size 15 to 20)
#    0.000    1.250    5.000    1.500    1.750    7.000 
#    4.500    1.250    0.000    0.000    0.000    0.000 
#    0.000    0.000    0.000    0.000    0.000    0.000 
#
# Total GULP energy -89521.313337 kJ/mol
# GULP energy per Si atom -5595.082084 kJ/mol
# Density = 2.356291 g / cm^3
# Si number density = 23.616660 Si / 1000 Ang^3
#
#
#
# Elastic Constant Matrix: (Units=GPa)
#
#
# Indices 1 2 3 4 5 6 
#
# 1 166.6133 50.9305 50.8543 -25.0432 2.1266 6.8396
# 2 50.9305 155.1352 38.7325 -51.6110 14.6744 -17.4027
# 3 50.8543 38.7325 86.6337 -37.7103 1.5097 -5.7339
# 4 -25.0432 -51.6110 -37.7103 50.8793 -6.7999 10.8700
# 5 2.1266 14.6744 1.5097 -6.7999 30.7258 -8.9481
# 6 6.8396 -17.4027 -5.7339 10.8700 -8.9481 36.8635
#
#
#
# Elastic Compliance Matrix: (Units=1/GPa)
#
#
# Indices 1 2 3 4 5 6 
#
# 1 0.007958 -0.002113 -0.004266 -0.000800 -0.000381 -0.002994
# 2 -0.002113 0.010550 0.000859 0.009544 -0.002194 0.002160
# 3 -0.004266 0.000859 0.019476 0.013315 0.002111 0.000813
# 4 -0.000800 0.009544 0.013315 0.040096 0.002402 -0.004515
# 5 -0.000381 -0.002194 0.002111 0.002402 0.036216 0.007446
# 6 -0.002994 0.002160 0.000813 -0.004515 0.007446 0.031968
#
#
# Mechanical properties :
#
#
# Convention : Reuss Voigt Hill
#
# Bulk Modulus (GPa) = 37.11522 76.60187 56.85855
# Shear Modulus (GPa) = 30.06886 41.55138 35.81012
#
# Velocity S-wave (km/s) = 3.57207 4.19908 3.89820
# Velocity P-wave (km/s) = 5.72387 7.48436 6.66252
#
# Compressibility (1/GPa) = 0.02694312
#
# Stress axis : x y z
#
# Youngs Moduli (GPa) = 125.66668 94.78541 51.34578
#
# Poissons Ratio (x) = 0.20032 0.21904
# Poissons Ratio (y) = 0.26558 -0.04412
# Poissons Ratio (z) = 0.53610 -0.08144
#
# Static dielectric constant tensor:
#      x y z
#    x 1.887180 -0.036200 -0.019780 
#    y -0.036200 1.947510 0.005400 
#    z -0.019780 0.005400 1.980450 
# 
# From -- ./inp_files/48037.got.cif
#   From: 2010.05.17/outbox.cif.g08.bks.cpg/sg2_25_cif.got.tgz:48037.got - 2010.06.03 11:33:40.
