data_PCOD9015328
_publ_section_title
;
Structure prediction by ZEFSAII (Michael W. Deem and Ramdas Pophale) SiO2 
 PCOD9015328
Probable space group: P -1
;
_chemical_formula_sum "Si O2"
_cell_formula_units_Z 12
_cell_length_a 6.918945
_cell_length_b 11.466414
_cell_length_c 14.432234
_cell_angle_alpha 53.954772
_cell_angle_beta 93.757629
_cell_angle_gamma 54.414329
_cell_volume 590.475615
_symmetry_space_group_name_H-M "P -1"
_symmetry_group_IT_number 2
_symmetry_cell_setting 'triclinic'
loop_
_space_group_symop_operation_xyz
x,y,z
-x,-y,-z
loop_
_atom_site_type_symbol
_atom_site_label
_atom_site_fract_x
_atom_site_fract_y
_atom_site_fract_z
Si Si1 0.713916 0.495483 0.704134
Si Si2 0.081847 0.789470 0.620915
Si Si3 0.177550 0.280374 0.987429
Si Si4 0.824228 0.707906 0.518103
Si Si5 0.771220 0.785958 0.269668
Si Si6 0.212928 0.580581 0.912458
O O1 0.428927 0.572786 0.696449
O O2 0.610690 0.704572 0.553981
O O3 0.937019 0.299425 0.725335
O O4 0.936355 0.410099 0.835943
O O5 0.073042 0.754269 0.744412
O O6 0.872921 0.803648 0.548505
O O7 0.000000 0.000000 0.500000
O O8 0.012576 0.320592 0.056350
O O9 0.468177 0.013574 0.106129
O O10 0.282636 0.384180 0.961258
O O11 0.741045 0.817847 0.364179
O O12 0.133971 0.435354 0.641391
O O13 0.500000 0.500000 0.000000
#
# Coordination Sequence:
#
# PCOD9015328 Si02
#       6
#     2   2   2   2   2   2
#     4  10  21  42  60  91 122 157 208 251 298 367
#     4  12  26  39  64  92 125 164 201 254 309 358
#     4  11  22  41  68  84 129 162 200 258 302 360
#     4   9  22  43  58  91 129 152 215 246 293 376
#     4   9  21  42  66  88 120 169 198 253 311 347
#     4  11  24  41  57  95 125 159 212 245 297 373
#
# _framework density 20.322602
#
# number of rings (size 3 to 8) (size 9 to 14) (size 15 to 20)
#    1.000    0.667    3.333    0.500    4.667    1.333 
#    3.000    1.667    0.000    0.000    0.000    0.000 
#    0.000    0.000    0.000    0.000    0.000    0.000 
#
# Total GULP energy -66925.455460 kJ/mol
# GULP energy per Si atom -5577.121288 kJ/mol
# Density = 2.027635 g / cm^3
# Si number density = 20.322602 Si / 1000 Ang^3
#
#
#
# Elastic Constant Matrix: (Units=GPa)
#
#
# Indices 1 2 3 4 5 6 
#
# 1 55.8195 1.9135 11.2732 5.6826 -7.8208 -5.7019
# 2 1.9135 29.0090 32.2676 14.8572 -3.1458 -6.9437
# 3 11.2732 32.2676 93.6227 23.2713 -18.9016 -6.2968
# 4 5.6826 14.8572 23.2713 44.4742 -7.3091 -2.9574
# 5 -7.8208 -3.1458 -18.9016 -7.3091 21.2257 4.1648
# 6 -5.7019 -6.9437 -6.2968 -2.9574 4.1648 31.0221
#
#
#
# Elastic Compliance Matrix: (Units=1/GPa)
#
#
# Indices 1 2 3 4 5 6 
#
# 1 0.019304 0.002546 -0.001644 -0.001446 0.004943 0.002983
# 2 0.002546 0.067237 -0.022765 -0.012729 -0.016077 0.011842
# 3 -0.001644 -0.022765 0.022033 -0.001327 0.015807 -0.003174
# 4 -0.001446 -0.012729 -0.001327 0.028590 0.006546 -0.001538
# 5 0.004943 -0.016077 0.015807 0.006546 0.064352 -0.007497
# 6 0.002983 0.011842 -0.003174 -0.001538 -0.007497 0.035650
#
#
# Mechanical properties :
#
#
# Convention : Reuss Voigt Hill
#
# Bulk Modulus (GPa) = 15.42085 29.92885 22.67485
# Shear Modulus (GPa) = 16.52845 28.21087 22.36966
#
# Velocity S-wave (km/s) = 2.85494 3.72983 3.32132
# Velocity P-wave (km/s) = 4.29792 5.77128 5.08821
#
# Compressibility (1/GPa) = 0.06484728
#
# Stress axis : x y z
#
# Youngs Moduli (GPa) = 51.80255 14.87269 45.38663
#
# Poissons Ratio (x) = -0.03786 0.07461
# Poissons Ratio (y) = -0.13188 1.03325
# Poissons Ratio (z) = 0.08515 0.33858
#
# Static dielectric constant tensor:
#      x y z
#    x 1.695360 -0.033780 -0.006080 
#    y -0.033780 1.752300 -0.013100 
#    z -0.006080 -0.013100 1.718890 
# 
# From -- ./inp_files/91353.got.cif
#   From: 2010.05.17/outbox.cif.g08.bks.cpg/sg2_46_cif.got.tgz:91353.got - 2010.06.03 11:33:40.
