data_PCOD9015345
_publ_section_title
;
Structure prediction by ZEFSAII (Michael W. Deem and Ramdas Pophale) SiO2 
 PCOD9015345
Probable space group: P -1
;
_chemical_formula_sum "Si O2"
_cell_formula_units_Z 16
_cell_length_a 22.948218
_cell_length_b 21.833406
_cell_length_c 5.380602
_cell_angle_alpha 71.609364
_cell_angle_beta 63.623678
_cell_angle_gamma 19.064094
_cell_volume 736.956148
_symmetry_space_group_name_H-M "P -1"
_symmetry_group_IT_number 2
_symmetry_cell_setting 'triclinic'
loop_
_space_group_symop_operation_xyz
x,y,z
-x,-y,-z
loop_
_atom_site_type_symbol
_atom_site_label
_atom_site_fract_x
_atom_site_fract_y
_atom_site_fract_z
Si Si1 0.317266 0.948651 0.205499
Si Si2 0.359057 0.060735 0.926920
Si Si3 0.056334 0.998342 0.675624
Si Si4 0.779730 0.738358 0.564452
Si Si5 0.086085 0.742427 0.634839
Si Si6 0.555424 0.410596 0.757169
Si Si7 0.549692 0.627640 0.904094
Si Si8 0.814248 0.013073 0.207572
O O1 0.280778 0.963653 0.541368
O O2 0.107591 0.117216 0.272432
O O3 0.508726 0.727000 0.029994
O O4 0.341428 0.000381 0.039826
O O5 0.243769 0.198681 0.727835
O O6 0.595237 0.860265 0.732076
O O7 0.270074 0.172596 0.209947
O O8 0.203827 0.827277 0.415038
O O9 0.188684 0.927923 0.661757
O O10 0.913340 0.184889 0.567262
O O11 0.000000 0.000000 0.000000
O O12 0.000000 0.500000 0.500000
O O13 0.281176 0.524883 0.432000
O O14 0.037147 0.793332 0.954730
O O15 0.500000 0.500000 0.500000
O O16 0.500000 0.500000 0.000000
O O17 0.433341 0.458400 0.898748
O O18 0.334132 0.822607 0.929531
#
# Coordination Sequence:
#
# PCOD9015345 Si02
#       8
#     2   2   2   2   2   2   2   2
#     4  10  23  43  65  92 136 172 224 277 339 401
#     4  10  23  42  73 104 147 191 229 288 340 397
#     4  11  23  41  60  86 122 163 216 279 349 411
#     4  10  22  44  71 109 149 186 234 281 336 410
#     4  10  23  40  62  87 123 168 217 279 341 406
#     4  12  25  40  63  91 120 164 219 278 345 413
#     4  11  23  42  62  90 125 168 220 281 340 406
#     4  10  21  42  61  85 129 163 215 282 334 403
#
# _framework density 21.710927000000002
#
# number of rings (size 3 to 8) (size 9 to 14) (size 15 to 20)
#    0.000    1.500    3.750    1.875    5.250    3.500 
#    2.250    0.000    0.000    0.000    0.000    0.000 
#    0.000    0.000    0.000    0.000    0.000    0.000 
#
# Total GULP energy -89268.893696 kJ/mol
# GULP energy per Si atom -5579.305856 kJ/mol
# Density = 2.166151 g / cm^3
# Si number density = 21.710927 Si / 1000 Ang^3
#
#
#
# Elastic Constant Matrix: (Units=GPa)
#
#
# Indices 1 2 3 4 5 6 
#
# 1 105.6241 57.1398 71.2552 -10.3370 -12.6937 27.8128
# 2 57.1398 116.8253 79.0007 11.2224 -4.8425 18.0698
# 3 71.2552 79.0007 158.0385 4.7768 10.2028 33.3163
# 4 -10.3370 11.2224 4.7768 55.6076 7.9083 1.4665
# 5 -12.6937 -4.8425 10.2028 7.9083 35.9802 -8.1271
# 6 27.8128 18.0698 33.3163 1.4665 -8.1271 32.2533
#
#
#
# Elastic Compliance Matrix: (Units=1/GPa)
#
#
# Indices 1 2 3 4 5 6 
#
# 1 0.018032 -0.004798 -0.004649 0.004269 0.004487 -0.007123
# 2 -0.004798 0.015144 -0.006191 -0.004026 0.003700 0.003164
# 3 -0.004649 -0.006191 0.013995 0.000657 -0.008663 -0.009192
# 4 0.004269 -0.004026 0.000657 0.020302 -0.004632 -0.004195
# 5 0.004487 0.003700 -0.008663 -0.004632 0.036132 0.012321
# 6 -0.007123 0.003164 -0.009192 -0.004195 0.012321 0.048165
#
#
# Mechanical properties :
#
#
# Convention : Reuss Voigt Hill
#
# Bulk Modulus (GPa) = 62.91074 88.36436 75.63755
# Shear Modulus (GPa) = 26.54708 36.30771 31.42739
#
# Velocity S-wave (km/s) = 3.50058 4.09384 3.80878
# Velocity P-wave (km/s) = 6.73633 7.94574 7.36590
#
# Compressibility (1/GPa) = 0.01589554
#
# Stress axis : x y z
#
# Youngs Moduli (GPa) = 55.45708 66.03275 71.45164
#
# Poissons Ratio (x) = 0.31685 0.33215
# Poissons Ratio (y) = 0.26611 0.44235
# Poissons Ratio (z) = 0.25780 0.40880
#
# Static dielectric constant tensor:
#      x y z
#    x 1.817620 -0.050260 0.064250 
#    y -0.050260 1.887620 -0.017710 
#    z 0.064250 -0.017710 1.890420 
# 
# From -- ./inp_files/125004.got.cif
#   From: 2010.05.17/outbox.cif.g08.bks.cpg/sg2_63_cif.got.tgz:125004.got - 2010.06.03 11:33:40.
