data_PCOD9015385
_publ_section_title
;
Structure prediction by ZEFSAII (Michael W. Deem and Ramdas Pophale) SiO2 
 PCOD9015385
Probable space group: P -1
;
_chemical_formula_sum "Si O2"
_cell_formula_units_Z 14
_cell_length_a 8.027328
_cell_length_b 9.410339
_cell_length_c 13.145969
_cell_angle_alpha 118.194506
_cell_angle_beta 128.271408
_cell_angle_gamma 46.062871
_cell_volume 559.806279
_symmetry_space_group_name_H-M "P -1"
_symmetry_group_IT_number 2
_symmetry_cell_setting 'triclinic'
loop_
_space_group_symop_operation_xyz
x,y,z
-x,-y,-z
loop_
_atom_site_type_symbol
_atom_site_label
_atom_site_fract_x
_atom_site_fract_y
_atom_site_fract_z
Si Si1 0.794646 0.577736 0.542620
Si Si2 0.680677 0.075358 0.616009
Si Si3 0.207499 0.107057 0.208218
Si Si4 0.552411 0.106610 0.185864
Si Si5 0.770547 0.424205 0.018011
Si Si6 0.862637 0.195344 0.445736
Si Si7 0.897930 0.710856 0.092770
O O1 0.497005 0.711022 0.431341
O O2 0.825009 0.715026 0.676279
O O3 0.000000 0.500000 0.500000
O O4 0.844107 0.381674 0.544591
O O5 0.945570 0.895480 0.607666
O O6 0.500000 0.000000 0.500000
O O7 0.732168 0.063698 0.750878
O O8 0.451610 0.020882 0.198711
O O9 0.963976 0.217599 0.079378
O O10 0.340768 0.212819 0.052884
O O11 0.594815 0.247649 0.315365
O O12 0.821093 0.913524 0.182068
O O13 0.842454 0.380879 0.908857
O O14 0.500000 0.500000 0.000000
O O15 0.867621 0.571306 0.110590
O O16 0.000000 0.000000 0.500000
#
# Coordination Sequence:
#
# PCOD9015385 Si02
#       7
#     2   2   2   2   2   2   2
#     4  11  23  42  65  95 141 182 221 286 346 406
#     4  10  21  42  61  95 136 173 230 280 331 416
#     4  10  22  41  68  96 138 182 224 286 352 404
#     4  10  23  44  65  90 139 177 225 287 347 406
#     4  10  22  42  72 103 132 175 239 283 351 423
#     4  12  25  40  68 102 134 180 235 276 346 423
#     4   9  22  47  65  96 138 178 224 297 346 399
#
# _framework density 25.008654
#
# number of rings (size 3 to 8) (size 9 to 14) (size 15 to 20)
#    0.000    1.714    2.857    1.714    4.000    2.286 
#   10.286    2.143    0.000    0.000    0.000    0.000 
#    0.000    0.000    0.000    0.000    0.000    0.000 
#
# Total GULP energy -78055.052324 kJ/mol
# GULP energy per Si atom -5575.360880 kJ/mol
# Density = 2.495173 g / cm^3
# Si number density = 25.008654 Si / 1000 Ang^3
#
#
#
# Elastic Constant Matrix: (Units=GPa)
#
#
# Indices 1 2 3 4 5 6 
#
# 1 130.4627 18.9848 -1.1286 -7.6161 0.5396 -10.4579
# 2 18.9848 120.6123 12.9140 4.1774 -4.1889 16.1002
# 3 -1.1286 12.9140 46.7027 1.7625 -5.1361 15.3707
# 4 -7.6161 4.1774 1.7625 34.5927 11.5788 -8.4274
# 5 0.5396 -4.1889 -5.1361 11.5788 26.0188 0.7898
# 6 -10.4579 16.1002 15.3707 -8.4274 0.7898 46.7382
#
#
#
# Elastic Compliance Matrix: (Units=1/GPa)
#
#
# Indices 1 2 3 4 5 6 
#
# 1 0.008460 -0.001936 -0.000853 0.003838 -0.002472 0.003574
# 2 -0.001936 0.009466 -0.000832 -0.003573 0.003115 -0.004117
# 3 -0.000853 -0.000832 0.025988 -0.006544 0.008222 -0.009770
# 4 0.003838 -0.003573 -0.006544 0.040150 -0.020173 0.011822
# 5 -0.002472 0.003115 0.008222 -0.020173 0.049854 -0.008810
# 6 0.003574 -0.004117 -0.009770 0.011822 -0.008810 0.029107
#
#
# Mechanical properties :
#
#
# Convention : Reuss Voigt Hill
#
# Bulk Modulus (GPa) = 27.26883 39.92423 33.59653
# Shear Modulus (GPa) = 27.39831 39.27046 33.33438
#
# Velocity S-wave (km/s) = 3.31350 3.96697 3.65487
# Velocity P-wave (km/s) = 5.05633 6.08122 5.59231
#
# Compressibility (1/GPa) = 0.03667190
#
# Stress axis : x y z
#
# Youngs Moduli (GPa) = 118.20023 105.63659 38.47914
#
# Poissons Ratio (x) = 0.20454 0.03283
# Poissons Ratio (y) = 0.22886 0.03201
# Poissons Ratio (z) = 0.10086 0.08788
#
# Static dielectric constant tensor:
#      x y z
#    x 2.106240 0.034970 0.041170 
#    y 0.034970 1.991620 0.003730 
#    z 0.041170 0.003730 1.987730 
# 
# From -- ./inp_files/493490.got.cif
#   From: 2010.05.17/outbox.cif.g08.bks.cpg/sg2_247_cif.got.tgz:493490.got - 2010.06.03 11:33:40.
