data_PCOD9015398
_publ_section_title
;
Structure prediction by ZEFSAII (Michael W. Deem and Ramdas Pophale) SiO2 
 PCOD9015398
Probable space group: P -1
;
_chemical_formula_sum "Si O2"
_cell_formula_units_Z 16
_cell_length_a 23.021946
_cell_length_b 20.778820
_cell_length_c 5.376540
_cell_angle_alpha 78.296321
_cell_angle_beta 109.081143
_cell_angle_gamma 161.165407
_cell_volume 735.296518
_symmetry_space_group_name_H-M "P -1"
_symmetry_group_IT_number 2
_symmetry_cell_setting 'triclinic'
loop_
_space_group_symop_operation_xyz
x,y,z
-x,-y,-z
loop_
_atom_site_type_symbol
_atom_site_label
_atom_site_fract_x
_atom_site_fract_y
_atom_site_fract_z
Si Si1 0.483540 0.538501 0.227543
Si Si2 0.227357 0.709540 0.101309
Si Si3 0.920536 0.742858 0.427979
Si Si4 0.080323 0.114330 0.775038
Si Si5 0.609602 0.189551 0.250355
Si Si6 0.288903 0.116942 0.972612
Si Si7 0.376576 0.643056 0.956282
Si Si8 0.440447 0.613820 0.455479
O O1 0.500000 0.500000 0.500000
O O2 0.658238 0.756775 0.160236
O O3 0.396581 0.513656 0.272124
O O4 0.318911 0.350233 0.944462
O O5 0.293347 0.732158 0.411799
O O6 0.387920 0.932533 0.141981
O O7 0.265301 0.712270 0.886608
O O8 0.000000 0.500000 0.000000
O O9 0.987531 0.879145 0.296676
O O10 0.719970 0.562415 0.423282
O O11 0.837462 0.601696 0.244917
O O12 0.077701 0.883176 0.748409
O O13 0.000000 0.000000 0.500000
O O14 0.000000 0.000000 0.000000
O O15 0.599801 0.257509 0.149192
O O16 0.443847 0.218440 0.015864
O O17 0.339029 0.169135 0.294394
O O18 0.399197 0.644637 0.272963
#
# Coordination Sequence:
#
# PCOD9015398 Si02
#       8
#     2   2   2   2   2   2   2   2
#     4  11  23  41  60  87 123 163 218 282 351 417
#     4  10  22  44  72 110 151 188 235 283 339 413
#     4  11  23  42  62  90 126 169 222 283 347 407
#     4  12  25  40  63  91 121 166 220 281 352 419
#     4  10  23  42  73 105 148 194 230 292 341 401
#     4  10  23  40  62  87 123 168 218 284 338 416
#     4  10  23  43  65  92 137 174 228 278 344 404
#     4  10  21  42  62  86 130 168 217 291 337 409
#
# _framework density 21.759930000000001
#
# number of rings (size 3 to 8) (size 9 to 14) (size 15 to 20)
#    0.000    1.500    3.750    1.875    5.250    3.500 
#    0.000    0.000    0.000    0.000    0.000    0.000 
#    0.000    0.000    0.000    0.000    0.000    0.000 
#
# Total GULP energy -89271.244342 kJ/mol
# GULP energy per Si atom -5579.452771 kJ/mol
# Density = 2.171040 g / cm^3
# Si number density = 21.759930 Si / 1000 Ang^3
#
#
#
# Elastic Constant Matrix: (Units=GPa)
#
#
# Indices 1 2 3 4 5 6 
#
# 1 102.0548 58.8428 43.8467 -7.7975 20.2482 -25.8821
# 2 58.8428 89.6870 61.6646 -3.4286 20.1792 -14.7466
# 3 43.8467 61.6646 166.4396 8.8533 12.7978 -20.6012
# 4 -7.7975 -3.4286 8.8533 48.8090 4.6429 12.9792
# 5 20.2482 20.1792 12.7978 4.6429 28.2955 -9.5926
# 6 -25.8821 -14.7466 -20.6012 12.9792 -9.5926 44.1519
#
#
#
# Elastic Compliance Matrix: (Units=1/GPa)
#
#
# Indices 1 2 3 4 5 6 
#
# 1 0.017818 -0.009722 -0.000098 0.000947 -0.003885 0.006030
# 2 -0.009722 0.023023 -0.005897 0.002847 -0.008425 -0.003428
# 3 -0.000098 -0.005897 0.008642 -0.003078 0.002006 0.003346
# 4 0.000947 0.002847 -0.003078 0.024584 -0.008395 -0.008981
# 5 -0.003885 -0.008425 0.002006 -0.008395 0.047528 0.008639
# 6 0.006030 -0.003428 0.003346 -0.008981 0.008639 0.031118
#
#
# Mechanical properties :
#
#
# Convention : Reuss Voigt Hill
#
# Bulk Modulus (GPa) = 55.39573 76.32107 65.85840
# Shear Modulus (GPa) = 26.29323 37.17309 31.73316
#
# Velocity S-wave (km/s) = 3.47988 4.13768 3.82295
# Velocity P-wave (km/s) = 6.45438 7.61429 7.05820
#
# Compressibility (1/GPa) = 0.01805193
#
# Stress axis : x y z
#
# Youngs Moduli (GPa) = 56.12208 43.43448 115.70989
#
# Poissons Ratio (x) = 0.42225 0.01129
# Poissons Ratio (y) = 0.54559 0.68232
# Poissons Ratio (z) = 0.00548 0.25612
#
# Static dielectric constant tensor:
#      x y z
#    x 1.801450 0.053740 -0.041420 
#    y 0.053740 1.889500 -0.026940 
#    z -0.041420 -0.026940 1.908930 
# 
# From -- ./inp_files/125017.got.cif
#   From: 2010.05.17/outbox.cif.g08.bks.cpg/sg2_63_cif.got.tgz:125017.got - 2010.06.03 11:33:40.
