data_PCOD9015995
_publ_section_title
;
Structure prediction by ZEFSAII (Michael W. Deem and Ramdas Pophale) SiO2 
 PCOD9015995
Probable space group: P -1
;
_chemical_formula_sum "Si O2"
_cell_formula_units_Z 14
_cell_length_a 15.161102
_cell_length_b 6.880827
_cell_length_c 15.216133
_cell_angle_alpha 137.897306
_cell_angle_beta 39.964253
_cell_angle_gamma 119.466992
_cell_volume 672.646786
_symmetry_space_group_name_H-M "P -1"
_symmetry_group_IT_number 2
_symmetry_cell_setting 'triclinic'
loop_
_space_group_symop_operation_xyz
x,y,z
-x,-y,-z
loop_
_atom_site_type_symbol
_atom_site_label
_atom_site_fract_x
_atom_site_fract_y
_atom_site_fract_z
Si Si1 0.001515 0.784845 0.694319
Si Si2 0.507194 0.355005 0.349157
Si Si3 0.907491 0.183002 0.557253
Si Si4 0.980720 0.230978 0.014342
Si Si5 0.762031 0.624710 0.226113
Si Si6 0.679622 0.310516 0.545326
Si Si7 0.413930 0.737609 0.210244
O O1 0.017017 0.893530 0.619994
O O2 0.160668 0.647088 0.553731
O O3 0.910755 0.530435 0.683127
O O4 0.955216 0.045288 0.884966
O O5 0.500000 0.500000 0.500000
O O6 0.652898 0.416332 0.219485
O O7 0.390814 0.524863 0.429981
O O8 0.489859 0.018386 0.254484
O O9 0.745754 0.152195 0.664054
O O10 0.000000 0.000000 0.500000
O O11 0.122940 0.350473 0.927557
O O12 0.850546 0.497778 0.202587
O O13 0.000000 0.000000 0.000000
O O14 0.686182 0.958587 0.412081
O O15 0.602153 0.395638 0.725043
O O16 0.500000 0.500000 0.000000
#
# Coordination Sequence:
#
# PCOD9015995 Si02
#       7
#     2   2   2   2   2   2   2
#     4   9  21  39  64  90 124 165 218 266 323 385
#     4  12  25  41  71  95 130 180 221 266 335 397
#     4  10  21  42  66  89 123 172 221 266 324 389
#     4  10  23  40  64  96 134 166 213 283 330 383
#     4  10  23  39  62 101 126 170 223 261 328 396
#     4  10  22  44  67  94 135 168 226 274 320 405
#     4  11  26  44  65  99 136 173 223 274 339 395
#
# _framework density 20.813300999999999
#
# number of rings (size 3 to 8) (size 9 to 14) (size 15 to 20)
#    0.000    1.714    1.429    1.286    6.000    5.143 
#    2.571    0.000    0.000    0.000    0.000    0.000 
#    0.000    0.000    0.000    0.000    0.000    0.000 
#
# Total GULP energy -78234.142735 kJ/mol
# GULP energy per Si atom -5588.153053 kJ/mol
# Density = 2.076593 g / cm^3
# Si number density = 20.813301 Si / 1000 Ang^3
#
#
#
# Elastic Constant Matrix: (Units=GPa)
#
#
# Indices 1 2 3 4 5 6 
#
# 1 99.5789 40.0658 18.4043 -3.4602 5.8458 -12.4499
# 2 40.0658 85.4663 17.6437 2.2783 3.9203 5.6090
# 3 18.4043 17.6437 59.2828 6.9666 20.2818 -8.2611
# 4 -3.4602 2.2783 6.9666 18.3537 9.1211 -5.9161
# 5 5.8458 3.9203 20.2818 9.1211 28.5419 6.2556
# 6 -12.4499 5.6090 -8.2611 -5.9161 6.2556 65.8345
#
#
#
# Elastic Compliance Matrix: (Units=1/GPa)
#
#
# Indices 1 2 3 4 5 6 
#
# 1 0.013925 -0.006554 -0.001163 0.007394 -0.004393 0.004128
# 2 -0.006554 0.015839 -0.004252 -0.005255 0.004755 -0.004046
# 3 -0.001163 -0.004252 0.025552 0.001807 -0.019079 0.005324
# 4 0.007394 -0.005255 0.001807 0.073427 -0.028026 0.011334
# 5 -0.004393 0.004755 -0.019079 -0.028026 0.060402 -0.011888
# 6 0.004128 -0.004046 0.005324 0.011334 -0.011888 0.019131
#
#
# Mechanical properties :
#
#
# Convention : Reuss Voigt Hill
#
# Bulk Modulus (GPa) = 31.87123 44.06172 37.96647
# Shear Modulus (GPa) = 20.60380 33.76030 27.18205
#
# Velocity S-wave (km/s) = 3.14974 4.03184 3.61777
# Velocity P-wave (km/s) = 5.34546 6.54907 5.97763
#
# Compressibility (1/GPa) = 0.03137626
#
# Stress axis : x y z
#
# Youngs Moduli (GPa) = 71.81134 63.13720 39.13633
#
# Poissons Ratio (x) = 0.41383 0.04552
# Poissons Ratio (y) = 0.47068 0.16641
# Poissons Ratio (z) = 0.08353 0.26846
#
# Static dielectric constant tensor:
#      x y z
#    x 1.753220 0.004980 -0.005340 
#    y 0.004980 1.751220 -0.004640 
#    z -0.005340 -0.004640 1.791160 
# 
# From -- ./inp_files/526043.got.cif
#   From: 2010.05.17/outbox.cif.g08.bks.cpg/sg2_264_cif.got.tgz:526043.got - 2010.06.03 11:33:40.
