data_PCOD9015657
_publ_section_title
;
Structure prediction by ZEFSAII (Michael W. Deem and Ramdas Pophale) SiO2 
 PCOD9015657
Probable space group: P -1
;
_chemical_formula_sum "Si O2"
_cell_formula_units_Z 16
_cell_length_a 11.299030
_cell_length_b 8.476160
_cell_length_c 7.765108
_cell_angle_alpha 124.691598
_cell_angle_beta 95.189835
_cell_angle_gamma 90.298884
_cell_volume 607.508144
_symmetry_space_group_name_H-M "P -1"
_symmetry_group_IT_number 2
_symmetry_cell_setting 'triclinic'
loop_
_space_group_symop_operation_xyz
x,y,z
-x,-y,-z
loop_
_atom_site_type_symbol
_atom_site_label
_atom_site_fract_x
_atom_site_fract_y
_atom_site_fract_z
Si Si1 0.784849 0.526379 0.968093
Si Si2 0.182986 0.021342 0.251769
Si Si3 0.555262 0.228136 0.353469
Si Si4 0.996232 0.481640 0.228645
Si Si5 0.665278 0.296457 0.061145
Si Si6 0.311398 0.401443 0.468342
Si Si7 0.044140 0.828964 0.671983
Si Si8 0.732985 0.956295 0.327617
O O1 0.671173 0.382500 0.920628
O O2 0.894689 0.454799 0.054434
O O3 0.745861 0.738658 0.134995
O O4 0.864290 0.531204 0.809099
O O5 0.210346 0.237523 0.321857
O O6 0.040413 0.996143 0.205968
O O7 0.227503 0.015690 0.451207
O O8 0.256134 0.883325 0.060740
O O9 0.561486 0.229743 0.143851
O O10 0.426200 0.276371 0.427115
O O11 0.641309 0.419296 0.532530
O O12 0.606182 0.040646 0.324461
O O13 0.992367 0.702341 0.426250
O O14 0.960599 0.326910 0.274721
O O15 0.716053 0.484711 0.291101
O O16 0.174569 0.911788 0.692676
#
# Coordination Sequence:
#
# PCOD9015657 Si02
#       8
#     2   2   2   2   2   2   2   2
#     4  11  22  39  58  88 126 168 205 255 300 366
#     4  12  24  39  66  94 128 163 203 261 309 363
#     4   9  22  43  69  87 122 167 205 259 307 370
#     4  10  23  37  58  80 127 175 200 250 302 361
#     4  10  21  42  64  92 120 165 206 252 314 364
#     4   9  21  47  66  88 124 163 208 256 312 364
#     4  11  24  39  56  94 125 165 207 248 306 375
#     4  12  23  38  63  93 127 165 206 257 307 364
#
# _framework density 26.337094
#
# number of rings (size 3 to 8) (size 9 to 14) (size 15 to 20)
#    0.750    0.750    2.500    1.875    8.750    1.500 
#    0.000    0.625    0.000    0.000    0.000    0.000 
#    0.000    0.000    0.000    0.000    0.000    0.000 
#
# Total GULP energy -89391.977101 kJ/mol
# GULP energy per Si atom -5586.998569 kJ/mol
# Density = 2.627715 g / cm^3
# Si number density = 26.337094 Si / 1000 Ang^3
#
#
#
# Elastic Constant Matrix: (Units=GPa)
#
#
# Indices 1 2 3 4 5 6 
#
# 1 84.5764 23.7402 30.1583 -4.2076 -35.1085 -19.4855
# 2 23.7402 124.2658 29.8928 -5.2669 -9.5601 -11.1598
# 3 30.1583 29.8928 73.3675 15.0323 -35.3817 -6.2186
# 4 -4.2076 -5.2669 15.0323 42.5539 -9.9578 -11.4724
# 5 -35.1085 -9.5601 -35.3817 -9.9578 43.5730 12.9308
# 6 -19.4855 -11.1598 -6.2186 -11.4724 12.9308 40.8596
#
#
#
# Elastic Compliance Matrix: (Units=1/GPa)
#
#
# Indices 1 2 3 4 5 6 
#
# 1 0.021067 -0.001462 -0.001946 0.007917 0.014843 0.006877
# 2 -0.001462 0.009785 -0.005568 0.002998 -0.003810 0.003176
# 3 -0.001946 -0.005568 0.027068 -0.007691 0.019399 -0.006628
# 4 0.007917 0.002998 -0.007691 0.031379 0.004781 0.010721
# 5 0.014843 -0.003810 0.019399 0.004781 0.052812 -0.006381
# 6 0.006877 0.003176 -0.006628 0.010721 -0.006381 0.032642
#
#
# Mechanical properties :
#
#
# Convention : Reuss Voigt Hill
#
# Bulk Modulus (GPa) = 25.01942 49.97692 37.49817
# Shear Modulus (GPa) = 24.26855 38.62520 31.44688
#
# Velocity S-wave (km/s) = 3.03885 3.83374 3.45920
# Velocity P-wave (km/s) = 4.67259 6.21400 5.49759
#
# Compressibility (1/GPa) = 0.03996896
#
# Stress axis : x y z
#
# Youngs Moduli (GPa) = 47.46726 102.19516 36.94403
#
# Poissons Ratio (x) = 0.14938 0.07188
# Poissons Ratio (y) = 0.06938 0.20572
# Poissons Ratio (z) = 0.09235 0.56906
#
# Static dielectric constant tensor:
#      x y z
#    x 2.043180 0.054160 0.010800 
#    y 0.054160 2.066540 -0.075450 
#    z 0.010800 -0.075450 2.131330 
# 
# From -- ./inp_files/241015.got.cif
#   From: 2010.05.17/outbox.cif.g08.bks.cpg/sg2_121_cif.got.tgz:241015.got - 2010.06.03 11:33:40.
