data_PCOD9015245
_publ_section_title
;
Structure prediction by ZEFSAII (Michael W. Deem and Ramdas Pophale) SiO2 
 PCOD9015245
Probable space group: P -1
;
_chemical_formula_sum "Si O2"
_cell_formula_units_Z 13
_cell_length_a 12.548477
_cell_length_b 9.245037
_cell_length_c 11.724479
_cell_angle_alpha 81.979633
_cell_angle_beta 60.018887
_cell_angle_gamma 131.942479
_cell_volume 594.252076
_symmetry_space_group_name_H-M "P -1"
_symmetry_group_IT_number 2
_symmetry_cell_setting 'triclinic'
loop_
_space_group_symop_operation_xyz
x,y,z
-x,-y,-z
loop_
_atom_site_type_symbol
_atom_site_label
_atom_site_fract_x
_atom_site_fract_y
_atom_site_fract_z
Si Si1 0.816583 0.420964 0.947743
Si Si2 0.804624 0.123049 0.124348
Si Si3 0.575599 0.795032 0.713886
Si Si4 0.000000 0.000000 0.500000
Si Si5 0.173942 0.291979 0.813044
Si Si6 0.086339 0.590622 0.573898
Si Si7 0.287863 0.471249 0.486849
O O1 0.068723 0.730104 0.836674
O O2 0.872259 0.418252 0.793310
O O3 0.732663 0.203814 0.099142
O O4 0.618488 0.345659 0.073209
O O5 0.575188 0.784257 0.287265
O O6 0.019505 0.282560 0.912616
O O7 0.418247 0.563059 0.722923
O O8 0.715740 0.079409 0.560049
O O9 0.773436 0.886104 0.644136
O O10 0.166187 0.273424 0.465318
O O11 0.220729 0.312703 0.653654
O O12 0.000000 0.000000 0.000000
O O13 0.189257 0.535614 0.550418
O O14 0.000000 0.500000 0.500000
#
# Coordination Sequence:
#
# PCOD9015245 Si02
#       7
#     2   2   2   1   2   2   2
#     4  10  22  41  73 111 138 176 239 302 354 419
#     4  10  21  41  73 108 138 178 235 299 359 412
#     4  11  25  47  74 106 144 186 244 293 361 422
#     4  12  28  48  66 106 146 202 234 280 368 438
#     4  11  25  46  73 109 143 190 237 295 363 424
#     4  12  24  45  73 109 144 189 237 295 361 425
#     4  12  25  47  74 102 149 189 239 297 354 431
#
# _framework density 21.876239000000002
#
# number of rings (size 3 to 8) (size 9 to 14) (size 15 to 20)
#    0.000    0.923    4.615    1.846    0.000    6.769 
#    2.769    2.308    0.000    0.000    0.000    0.000 
#    0.000    0.000    0.000    0.000    0.000    0.000 
#
# Total GULP energy -72446.701615 kJ/mol
# GULP energy per Si atom -5572.823201 kJ/mol
# Density = 2.182645 g / cm^3
# Si number density = 21.876239 Si / 1000 Ang^3
#
#
#
# Elastic Constant Matrix: (Units=GPa)
#
#
# Indices 1 2 3 4 5 6 
#
# 1 97.1283 37.2881 59.9301 1.5594 -31.8037 2.3904
# 2 37.2881 128.9885 62.9450 -17.4972 7.1102 -6.0454
# 3 59.9301 62.9450 106.6607 -0.3756 -11.4606 13.0057
# 4 1.5594 -17.4972 -0.3756 47.9187 -13.4137 -6.9954
# 5 -31.8037 7.1102 -11.4606 -13.4137 34.3920 4.6055
# 6 2.3904 -6.0454 13.0057 -6.9954 4.6055 21.5867
#
#
#
# Elastic Compliance Matrix: (Units=1/GPa)
#
#
# Indices 1 2 3 4 5 6 
#
# 1 0.024371 -0.003319 -0.009188 0.003819 0.021854 -0.001518
# 2 -0.003319 0.015538 -0.010085 0.005138 -0.009581 0.014504
# 3 -0.009188 -0.010085 0.022767 -0.005368 0.001434 -0.017569
# 4 0.003819 0.005138 -0.005368 0.026886 0.009708 0.010892
# 5 0.021854 -0.009581 0.001434 0.009708 0.057553 -0.015100
# 6 -0.001518 0.014504 -0.017569 0.010892 -0.015100 0.067891
#
#
# Mechanical properties :
#
#
# Convention : Reuss Voigt Hill
#
# Bulk Modulus (GPa) = 57.16778 72.56708 64.86743
# Shear Modulus (GPa) = 18.79558 32.28712 25.54135
#
# Velocity S-wave (km/s) = 2.93435 3.84591 3.42063
# Velocity P-wave (km/s) = 6.13756 7.27771 6.73182
#
# Compressibility (1/GPa) = 0.01749237
#
# Stress axis : x y z
#
# Youngs Moduli (GPa) = 41.03234 64.35747 43.92378
#
# Poissons Ratio (x) = 0.21363 0.40357
# Poissons Ratio (y) = 0.13620 0.44295
# Poissons Ratio (z) = 0.37700 0.64902
#
# Static dielectric constant tensor:
#      x y z
#    x 1.862610 -0.066160 -0.020080 
#    y -0.066160 1.789180 0.016730 
#    z -0.020080 0.016730 1.801670 
# 
# From -- ./inp_files/94072.got.cif
#   From: 2010.05.17/outbox.cif.g08.bks.cpg/sg2_48_cif.got.tgz:94072.got - 2010.06.03 11:33:40.
