data_PCOD9015649
_publ_section_title
;
Structure prediction by ZEFSAII (Michael W. Deem and Ramdas Pophale) SiO2 
 PCOD9015649
Probable space group: P -1
;
_chemical_formula_sum "Si O2"
_cell_formula_units_Z 10
_cell_length_a 6.464802
_cell_length_b 10.760992
_cell_length_c 8.459113
_cell_angle_alpha 133.942723
_cell_angle_beta 72.094167
_cell_angle_gamma 102.839754
_cell_volume 403.168396
_symmetry_space_group_name_H-M "P -1"
_symmetry_group_IT_number 2
_symmetry_cell_setting 'triclinic'
loop_
_space_group_symop_operation_xyz
x,y,z
-x,-y,-z
loop_
_atom_site_type_symbol
_atom_site_label
_atom_site_fract_x
_atom_site_fract_y
_atom_site_fract_z
Si Si1 0.450056 0.796819 0.173874
Si Si2 0.303935 0.860527 0.931172
Si Si3 0.100041 0.283243 0.128302
Si Si4 0.478022 0.794223 0.501774
Si Si5 0.259784 0.423588 0.539265
O O1 0.369882 0.737164 0.311930
O O2 0.450666 0.006090 0.358003
O O3 0.346426 0.756247 0.992446
O O4 0.692967 0.725776 0.040000
O O5 0.320455 0.785963 0.682698
O O6 0.046747 0.886396 0.024945
O O7 0.500000 0.000000 0.000000
O O8 0.191013 0.299616 0.299624
O O9 0.938287 0.443726 0.283305
O O10 0.683529 0.682892 0.410738
O O11 0.500000 0.500000 0.500000
#
# Coordination Sequence:
#
# PCOD9015649 Si02
#       5
#     2   2   2   2   2
#     4  10  22  42  62  98 123 165 217 261 312 376
#     4  10  21  42  64  91 131 164 205 269 312 366
#     4  11  22  40  68  94 123 170 221 246 321 385
#     4  10  21  42  65  88 136 163 202 274 316 360
#     4  11  22  42  65  94 129 170 209 261 316 378
#
# _framework density 24.803532000000001
#
# number of rings (size 3 to 8) (size 9 to 14) (size 15 to 20)
#    0.000    1.600    4.000    0.000    0.000    4.000 
#    3.600    9.000    0.000    0.000    0.000    0.000 
#    0.000    0.000    0.000    0.000    0.000    0.000 
#
# Total GULP energy -55690.431591 kJ/mol
# GULP energy per Si atom -5569.043159 kJ/mol
# Density = 2.474708 g / cm^3
# Si number density = 24.803532 Si / 1000 Ang^3
#
#
#
# Elastic Constant Matrix: (Units=GPa)
#
#
# Indices 1 2 3 4 5 6 
#
# 1 112.7972 30.6229 45.7174 -10.6508 19.7818 -5.9139
# 2 30.6229 69.7895 64.4820 -18.9886 5.6385 -39.0468
# 3 45.7174 64.4820 73.2700 -25.8016 15.3289 -24.9894
# 4 -10.6508 -18.9886 -25.8016 57.7014 -25.9769 11.0288
# 5 19.7818 5.6385 15.3289 -25.9769 38.1014 7.9843
# 6 -5.9139 -39.0468 -24.9894 11.0288 7.9843 53.1573
#
#
#
# Elastic Compliance Matrix: (Units=1/GPa)
#
#
# Indices 1 2 3 4 5 6 
#
# 1 0.013989 0.013905 -0.020186 -0.005208 -0.005631 0.004207
# 2 0.013905 0.178711 -0.149894 -0.018040 0.000504 0.066021
# 3 -0.020186 -0.149894 0.151154 0.021252 -0.004215 -0.045069
# 4 -0.005208 -0.018040 0.021252 0.032401 0.021814 -0.013839
# 5 -0.005631 0.000504 -0.004215 0.021814 0.048611 -0.014065
# 6 0.004207 0.066021 -0.045069 -0.013839 -0.014065 0.051573
#
#
# Mechanical properties :
#
#
# Convention : Reuss Voigt Hill
#
# Bulk Modulus (GPa) = 31.74324 59.72235 45.73279
# Shear Modulus (GPa) = 6.25556 37.46099 21.85827
#
# Velocity S-wave (km/s) = 1.58982 3.89049 2.97182
# Velocity P-wave (km/s) = 4.02439 6.65670 5.50033
#
# Compressibility (1/GPa) = 0.03150277
#
# Stress axis : x y z
#
# Youngs Moduli (GPa) = 71.48703 5.59563 6.61579
#
# Poissons Ratio (x) = -0.07781 0.13355
# Poissons Ratio (y) = -0.99402 0.99166
# Poissons Ratio (z) = 1.44307 0.83875
#
# Static dielectric constant tensor:
#      x y z
#    x 1.946810 -0.024180 0.044540 
#    y -0.024180 2.046550 0.137210 
#    z 0.044540 0.137210 2.105730 
# 
# From -- ./inp_files/18731.got.cif
#   From: 2010.05.17/outbox.cif.g08.bks.cpg/sg2_10_cif.got.tgz:18731.got - 2010.06.03 11:33:40.
