data_PCOD9015417
_publ_section_title
;
Structure prediction by ZEFSAII (Michael W. Deem and Ramdas Pophale) SiO2 
 PCOD9015417
Probable space group: P -1
;
_chemical_formula_sum "Si O2"
_cell_formula_units_Z 16
_cell_length_a 6.525981
_cell_length_b 16.936655
_cell_length_c 9.657832
_cell_angle_alpha 55.956912
_cell_angle_beta 57.317968
_cell_angle_gamma 76.257646
_cell_volume 741.267943
_symmetry_space_group_name_H-M "P -1"
_symmetry_group_IT_number 2
_symmetry_cell_setting 'triclinic'
loop_
_space_group_symop_operation_xyz
x,y,z
-x,-y,-z
loop_
_atom_site_type_symbol
_atom_site_label
_atom_site_fract_x
_atom_site_fract_y
_atom_site_fract_z
Si Si1 0.603220 0.225575 0.123696
Si Si2 0.229544 0.454802 0.661607
Si Si3 0.167550 0.247359 0.817736
Si Si4 0.407995 0.123541 0.043807
Si Si5 0.101416 0.962453 0.146585
Si Si6 0.285302 0.203578 0.518083
Si Si7 0.390200 0.426457 0.927548
Si Si8 0.187585 0.418494 0.307904
O O1 0.441808 0.145516 0.171581
O O2 0.526925 0.211121 0.326873
O O3 0.531893 0.331291 0.999166
O O4 0.885176 0.216116 0.990184
O O5 0.500000 0.500000 0.500000
O O6 0.175555 0.360311 0.683930
O O7 0.223494 0.421430 0.857196
O O8 0.053135 0.534100 0.611709
O O9 0.286210 0.199518 0.688792
O O10 0.339653 0.221886 0.904945
O O11 0.201150 0.045538 0.135110
O O12 0.664468 0.093252 0.923438
O O13 0.895583 0.888835 0.362640
O O14 0.000000 0.000000 0.000000
O O15 0.174255 0.304710 0.436825
O O16 0.584928 0.520322 0.761609
O O17 0.229885 0.438242 0.110035
#
# Coordination Sequence:
#
# PCOD9015417 Si02
#       8
#     2   2   2   2   2   2   2   2
#     4  11  23  45  69  99 137 182 223 274 338 395
#     4  12  25  36  64  99 130 183 227 263 332 401
#     4  12  24  45  68  97 144 174 219 286 330 396
#     4  11  23  44  74  97 132 179 217 274 350 392
#     4  11  23  46  75 100 133 176 220 284 346 395
#     4  11  25  44  70 100 134 178 228 276 334 401
#     4  10  21  42  62  90 137 180 218 269 329 385
#     4  10  23  41  62  95 137 174 219 276 320 395
#
# _framework density 21.584634999999999
#
# number of rings (size 3 to 8) (size 9 to 14) (size 15 to 20)
#    0.000    1.000    5.000    1.125    3.500    1.500 
#    4.500    2.500    0.000    0.000    0.000    0.000 
#    0.000    0.000    0.000    0.000    0.000    0.000 
#
# Total GULP energy -89337.093221 kJ/mol
# GULP energy per Si atom -5583.568326 kJ/mol
# Density = 2.153551 g / cm^3
# Si number density = 21.584635 Si / 1000 Ang^3
#
#
#
# Elastic Constant Matrix: (Units=GPa)
#
#
# Indices 1 2 3 4 5 6 
#
# 1 59.9185 17.2809 28.8639 5.4901 1.0888 -3.3043
# 2 17.2809 83.0613 26.6466 2.5607 -6.4765 4.3392
# 3 28.8639 26.6466 94.7954 3.2169 -6.0948 14.2295
# 4 5.4901 2.5607 3.2169 41.7571 11.3553 5.9297
# 5 1.0888 -6.4765 -6.0948 11.3553 20.2662 -1.7677
# 6 -3.3043 4.3392 14.2295 5.9297 -1.7677 34.7046
#
#
#
# Elastic Compliance Matrix: (Units=1/GPa)
#
#
# Indices 1 2 3 4 5 6 
#
# 1 0.021160 -0.002682 -0.006553 -0.002259 -0.002236 0.005309
# 2 -0.002682 0.013880 -0.002680 -0.001476 0.004565 -0.000407
# 3 -0.006553 -0.002680 0.014423 -0.000157 0.003397 -0.006003
# 4 -0.002259 -0.001476 -0.000157 0.030025 -0.017744 -0.006000
# 5 -0.002236 0.004565 0.003397 -0.017744 0.062237 0.004025
# 6 0.005309 -0.000407 -0.006003 -0.006000 0.004025 0.033062
#
#
# Mechanical properties :
#
#
# Convention : Reuss Voigt Hill
#
# Bulk Modulus (GPa) = 39.01439 42.59534 40.80487
# Shear Modulus (GPa) = 24.13581 30.34450 27.24015
#
# Velocity S-wave (km/s) = 3.34757 3.75352 3.55634
# Velocity P-wave (km/s) = 5.74943 6.20984 5.98407
#
# Compressibility (1/GPa) = 0.02563157
#
# Stress axis : x y z
#
# Youngs Moduli (GPa) = 47.25904 72.04687 69.33609
#
# Poissons Ratio (x) = 0.19324 0.45436
# Poissons Ratio (y) = 0.12676 0.18583
# Poissons Ratio (z) = 0.30969 0.19310
#
# Static dielectric constant tensor:
#      x y z
#    x 1.548180 -0.057870 -0.016080 
#    y -0.057870 1.767870 -0.013500 
#    z -0.016080 -0.013500 1.800760 
# 
# From -- ./inp_files/38647.got.cif
#   From: 2010.05.17/outbox.cif.g08.bks.cpg/sg2_20_cif.got.tgz:38647.got - 2010.06.03 11:33:40.
