data_PCOD9015229
_publ_section_title
;
Structure prediction by ZEFSAII (Michael W. Deem and Ramdas Pophale) SiO2 
 PCOD9015229
Probable space group: P -1
;
_chemical_formula_sum "Si O2"
_cell_formula_units_Z 16
_cell_length_a 8.936432
_cell_length_b 9.058166
_cell_length_c 10.655948
_cell_angle_alpha 90.537515
_cell_angle_beta 124.492452
_cell_angle_gamma 102.028007
_cell_volume 686.588816
_symmetry_space_group_name_H-M "P -1"
_symmetry_group_IT_number 2
_symmetry_cell_setting 'triclinic'
loop_
_space_group_symop_operation_xyz
x,y,z
-x,-y,-z
loop_
_atom_site_type_symbol
_atom_site_label
_atom_site_fract_x
_atom_site_fract_y
_atom_site_fract_z
Si Si1 0.914711 0.326879 0.999721
Si Si2 0.945262 0.154667 0.462040
Si Si3 0.594587 0.311475 0.509523
Si Si4 0.469180 0.844592 0.779391
Si Si5 0.006918 0.562505 0.362873
Si Si6 0.375298 0.622144 0.950004
Si Si7 0.743554 0.072807 0.735020
Si Si8 0.178957 0.234855 0.333484
O O1 0.707795 0.322546 0.961092
O O2 0.057638 0.280092 0.164468
O O3 0.895464 0.211476 0.872756
O O4 0.000000 0.500000 0.000000
O O5 0.983360 0.259353 0.604686
O O6 0.066559 0.240912 0.406021
O O7 0.728998 0.115414 0.319956
O O8 0.000000 0.000000 0.500000
O O9 0.558174 0.284818 0.342994
O O10 0.623202 0.158040 0.590077
O O11 0.395039 0.329300 0.459254
O O12 0.798074 0.429671 0.615964
O O13 0.482190 0.768023 0.918530
O O14 0.628617 0.982224 0.799300
O O15 0.821745 0.467443 0.207890
O O16 0.000000 0.500000 0.500000
O O17 0.500000 0.500000 0.000000
O O18 0.809615 0.939922 0.692402
#
# Coordination Sequence:
#
# PCOD9015229 Si02
#       8
#     2   2   2   2   2   2   2   2
#     4  12  28  47  66 102 146 183 236 281 341 423
#     4  11  21  38  70 106 136 170 230 292 342 409
#     4  10  21  41  73 101 133 173 231 285 340 406
#     4  10  21  44  68  98 139 174 237 288 335 413
#     4  11  21  44  70  97 135 182 231 284 345 400
#     4  12  27  47  70  98 142 188 231 289 346 407
#     4  11  24  44  72 102 138 190 228 278 353 412
#     4  11  22  44  70 104 140 181 225 285 349 407
#
# _framework density 23.303612999999999
#
# number of rings (size 3 to 8) (size 9 to 14) (size 15 to 20)
#    0.000    1.000    3.750    4.875    3.500    2.500 
#    4.500    4.375    0.000    0.000    0.000    0.000 
#    0.000    0.000    0.000    0.000    0.000    0.000 
#
# Total GULP energy -89433.287601 kJ/mol
# GULP energy per Si atom -5589.580475 kJ/mol
# Density = 2.325057 g / cm^3
# Si number density = 23.303613 Si / 1000 Ang^3
#
#
#
# Elastic Constant Matrix: (Units=GPa)
#
#
# Indices 1 2 3 4 5 6 
#
# 1 101.4983 39.4561 25.3753 -8.7350 7.3035 -8.4751
# 2 39.4561 98.9961 7.2271 1.2650 0.0978 -6.7404
# 3 25.3753 7.2271 47.2328 9.4136 0.3576 -7.3600
# 4 -8.7350 1.2650 9.4136 43.4020 1.0067 1.6852
# 5 7.3035 0.0978 0.3576 1.0067 34.8448 -3.4694
# 6 -8.4751 -6.7404 -7.3600 1.6852 -3.4694 52.0725
#
#
#
# Elastic Compliance Matrix: (Units=1/GPa)
#
#
# Indices 1 2 3 4 5 6 
#
# 1 0.014532 -0.005259 -0.007916 0.004858 -0.003070 0.000204
# 2 -0.005259 0.012184 0.001478 -0.001804 0.001212 0.001069
# 3 -0.007916 0.001478 0.027206 -0.007702 0.001909 0.003125
# 4 0.004858 -0.001804 -0.007702 0.025842 -0.001829 -0.001490
# 5 -0.003070 0.001212 0.001909 -0.001829 0.029567 0.001956
# 6 0.000204 0.001069 0.003125 -0.001490 0.001956 0.019996
#
#
# Mechanical properties :
#
#
# Convention : Reuss Voigt Hill
#
# Bulk Modulus (GPa) = 32.75633 43.53822 38.14728
# Shear Modulus (GPa) = 30.69458 37.77510 34.23484
#
# Velocity S-wave (km/s) = 3.63321 4.03053 3.83701
# Velocity P-wave (km/s) = 5.62913 6.35483 6.00295
#
# Compressibility (1/GPa) = 0.03052845
#
# Stress axis : x y z
#
# Youngs Moduli (GPa) = 68.81495 82.07324 36.75698
#
# Poissons Ratio (x) = 0.43163 0.29095
# Poissons Ratio (y) = 0.36190 -0.05433
# Poissons Ratio (z) = 0.54471 -0.12131
#
# Static dielectric constant tensor:
#      x y z
#    x 1.472030 -0.126280 0.128000 
#    y -0.126280 1.938520 0.051080 
#    z 0.128000 0.051080 1.856060 
# 
# From -- ./inp_files/379321.got.cif
#   From: 2010.05.17/outbox.cif.g08.bks.cpg/sg2_190_cif.got.tgz:379321.got - 2010.06.03 11:33:40.
