data_PCOD9015233
_publ_section_title
;
Structure prediction by ZEFSAII (Michael W. Deem and Ramdas Pophale) SiO2 
 PCOD9015233
Probable space group: P -1
;
_chemical_formula_sum "Si O2"
_cell_formula_units_Z 12
_cell_length_a 9.177079
_cell_length_b 17.541688
_cell_length_c 6.942019
_cell_angle_alpha 135.716240
_cell_angle_beta 126.026429
_cell_angle_gamma 36.358085
_cell_volume 462.389287
_symmetry_space_group_name_H-M "P -1"
_symmetry_group_IT_number 2
_symmetry_cell_setting 'triclinic'
loop_
_space_group_symop_operation_xyz
x,y,z
-x,-y,-z
loop_
_atom_site_type_symbol
_atom_site_label
_atom_site_fract_x
_atom_site_fract_y
_atom_site_fract_z
Si Si1 0.154607 0.823970 0.763225
Si Si2 0.318244 0.114341 0.444083
Si Si3 0.960325 0.410852 0.175920
Si Si4 0.399690 0.332626 0.899744
Si Si5 0.316770 0.082732 0.881737
Si Si6 0.197784 0.760342 0.239147
O O1 0.216909 0.775298 0.504408
O O2 0.960999 0.813694 0.661655
O O3 0.416730 0.712221 0.868744
O O4 0.000000 0.000000 0.000000
O O5 0.316068 0.244403 0.699149
O O6 0.387591 0.067338 0.163448
O O7 0.365676 0.044013 0.591827
O O8 0.831566 0.499839 0.039089
O O9 0.000000 0.500000 0.500000
O O10 0.223188 0.244315 0.068702
O O11 0.798344 0.371889 0.047106
O O12 0.590863 0.263139 0.745213
O O13 0.089673 0.094314 0.760262
#
# Coordination Sequence:
#
# PCOD9015233 Si02
#       6
#     2   2   2   2   2   2
#     4  12  26  47  76 110 154 190 246 313 367 439
#     4  12  23  47  69 110 148 186 250 302 358 444
#     4  10  24  46  72 112 146 194 251 305 365 446
#     4  12  26  47  80 104 153 199 241 309 375 432
#     4  10  21  41  73 103 142 186 244 298 363 432
#     4  10  25  48  72 111 147 190 255 295 373 445
#
# _framework density 25.952158000000001
#
# number of rings (size 3 to 8) (size 9 to 14) (size 15 to 20)
#    1.000    0.000    3.333    2.500    2.333    6.000 
#    3.000    3.333    0.000    0.000    0.000    0.000 
#    0.000    0.000    0.000    0.000    0.000    0.000 
#
# Total GULP energy -67024.260743 kJ/mol
# GULP energy per Si atom -5585.355062 kJ/mol
# Density = 2.589309 g / cm^3
# Si number density = 25.952158 Si / 1000 Ang^3
#
#
#
# Elastic Constant Matrix: (Units=GPa)
#
#
# Indices 1 2 3 4 5 6 
#
# 1 159.0497 17.8419 47.0379 -5.5825 13.5467 1.8929
# 2 17.8419 177.6644 49.5633 -31.2134 22.7230 -9.9919
# 3 47.0379 49.5633 124.4809 -36.4915 3.0610 -23.5194
# 4 -5.5825 -31.2134 -36.4915 60.7993 -0.0932 2.9535
# 5 13.5467 22.7230 3.0610 -0.0932 59.6020 0.5087
# 6 1.8929 -9.9919 -23.5194 2.9535 0.5087 24.3774
#
#
#
# Elastic Compliance Matrix: (Units=1/GPa)
#
#
# Indices 1 2 3 4 5 6 
#
# 1 0.007633 0.000068 -0.004149 -0.001545 -0.001513 -0.004349
# 2 0.000068 0.006939 -0.001870 0.002403 -0.002568 0.000797
# 3 -0.004149 -0.001870 0.014808 0.006917 0.000796 0.012988
# 4 -0.001545 0.002403 0.006917 0.021437 -0.000931 0.005201
# 5 -0.001513 -0.002568 0.000796 -0.000931 0.018062 -0.000432
# 6 -0.004349 0.000797 0.012988 0.005201 -0.000432 0.053595
#
#
# Mechanical properties :
#
#
# Convention : Reuss Voigt Hill
#
# Bulk Modulus (GPa) = 57.21582 76.67570 66.94576
# Shear Modulus (GPa) = 35.66271 52.07255 43.86763
#
# Velocity S-wave (km/s) = 3.71100 4.48424 4.11582
# Velocity P-wave (km/s) = 6.36055 7.51135 6.95977
#
# Compressibility (1/GPa) = 0.01747768
#
# Stress axis : x y z
#
# Youngs Moduli (GPa) = 131.00777 144.11263 67.53179
#
# Poissons Ratio (x) = -0.00985 0.28019
# Poissons Ratio (y) = -0.00896 0.12631
# Poissons Ratio (z) = 0.54356 0.26956
#
# Static dielectric constant tensor:
#      x y z
#    x 2.058360 0.097280 -0.251930 
#    y 0.097280 2.104440 -0.144470 
#    z -0.251930 -0.144470 2.274320 
# 
# From -- ./inp_files/46081.got.cif
#   From: 2010.05.17/outbox.cif.g08.bks.cpg/sg2_24_cif.got.tgz:46081.got - 2010.06.03 11:33:40.
