data_PCOD9015001
_publ_section_title
;
Structure prediction by ZEFSAII (Michael W. Deem and Ramdas Pophale) SiO2 
 PCOD9015001
Probable space group: P -1
;
_chemical_formula_sum "Si O2"
_cell_formula_units_Z 14
_cell_length_a 26.729705
_cell_length_b 5.180740
_cell_length_c 13.094395
_cell_angle_alpha 45.392457
_cell_angle_beta 28.205936
_cell_angle_gamma 46.254189
_cell_volume 595.787478
_symmetry_space_group_name_H-M "P -1"
_symmetry_group_IT_number 2
_symmetry_cell_setting 'triclinic'
loop_
_space_group_symop_operation_xyz
x,y,z
-x,-y,-z
loop_
_atom_site_type_symbol
_atom_site_label
_atom_site_fract_x
_atom_site_fract_y
_atom_site_fract_z
Si Si1 0.033486 0.061640 0.536584
Si Si2 0.112177 0.301159 0.801368
Si Si3 0.562961 0.834144 0.299176
Si Si4 0.779130 0.058925 0.484487
Si Si5 0.251519 0.188145 0.173327
Si Si6 0.831027 0.059216 0.010896
Si Si7 0.348740 0.398856 0.583941
O O1 0.161246 0.967599 0.356308
O O2 0.000000 0.500000 0.500000
O O3 0.000000 0.000000 0.500000
O O4 0.951509 0.885711 0.800209
O O5 0.186143 0.595011 0.616223
O O6 0.126098 0.171688 0.694798
O O7 0.150716 0.924013 0.904988
O O8 0.000000 0.500000 0.000000
O O9 0.500000 0.500000 0.500000
O O10 0.647719 0.671535 0.281298
O O11 0.471276 0.194046 0.391400
O O12 0.629108 0.926952 0.057109
O O13 0.685458 0.219618 0.524693
O O14 0.749901 0.825808 0.697666
O O15 0.211001 0.591733 0.083176
O O16 0.740936 0.821377 0.228473
#
# Coordination Sequence:
#
# PCOD9015001 Si02
#       7
#     2   2   2   2   2   2   2
#     4  10  22  37  61  96 132 168 216 274 334 392
#     4  11  24  44  68  99 140 188 227 276 342 422
#     4  11  22  42  72  97 131 179 247 285 340 417
#     4  11  26  43  66 101 143 176 225 291 353 407
#     4  11  23  42  69 101 140 179 232 290 348 408
#     4  10  21  41  70  95 133 181 229 275 336 423
#     4  10  23  42  70  99 133 184 236 288 345 413
#
# _framework density 23.498314000000001
#
# number of rings (size 3 to 8) (size 9 to 14) (size 15 to 20)
#    0.000    1.429    1.429    3.000    2.000    9.714 
#    0.000    0.714    0.000    0.000    0.000    0.000 
#    0.000    0.000    0.000    0.000    0.000    0.000 
#
# Total GULP energy -78071.348663 kJ/mol
# GULP energy per Si atom -5576.524904 kJ/mol
# Density = 2.344483 g / cm^3
# Si number density = 23.498314 Si / 1000 Ang^3
#
#
#
# Elastic Constant Matrix: (Units=GPa)
#
#
# Indices 1 2 3 4 5 6 
#
# 1 112.0329 27.0823 68.7512 -5.7516 38.4524 -3.5758
# 2 27.0823 90.9605 31.0965 6.4649 20.8631 -20.0566
# 3 68.7512 31.0965 158.6682 17.7573 43.1908 -21.5278
# 4 -5.7516 6.4649 17.7573 28.7109 -5.9518 11.2533
# 5 38.4524 20.8631 43.1908 -5.9518 58.6283 -2.0992
# 6 -3.5758 -20.0566 -21.5278 11.2533 -2.0992 32.6621
#
#
#
# Elastic Compliance Matrix: (Units=1/GPa)
#
#
# Indices 1 2 3 4 5 6 
#
# 1 0.016733 -0.005514 -0.009381 0.015312 -0.001015 -0.013078
# 2 -0.005514 0.018416 0.005998 -0.018798 -0.008527 0.020587
# 3 -0.009381 0.005998 0.018223 -0.025770 -0.011205 0.022825
# 4 0.015312 -0.018798 -0.025770 0.083978 0.022210 -0.054358
# 5 -0.001015 -0.008527 -0.011205 0.022210 0.030606 -0.018418
# 6 -0.013078 0.020587 0.022825 -0.054358 -0.018418 0.074415
#
#
# Mechanical properties :
#
#
# Convention : Reuss Voigt Hill
#
# Bulk Modulus (GPa) = 28.10801 68.39131 48.24966
# Shear Modulus (GPa) = 18.38059 39.64905 29.01482
#
# Velocity S-wave (km/s) = 2.79983 4.11215 3.51773
# Velocity P-wave (km/s) = 4.73706 7.19127 6.08909
#
# Compressibility (1/GPa) = 0.03557705
#
# Stress axis : x y z
#
# Youngs Moduli (GPa) = 59.76187 54.30054 54.87570
#
# Poissons Ratio (x) = 0.29941 0.51482
# Poissons Ratio (y) = 0.32952 -0.32914
# Poissons Ratio (z) = 0.56066 -0.32569
#
# Static dielectric constant tensor:
#      x y z
#    x 1.925270 -0.145610 0.059690 
#    y -0.145610 1.944870 0.096970 
#    z 0.059690 0.096970 1.880390 
# 
# From -- ./inp_files/70932.got.cif
#   From: 2010.05.17/outbox.cif.g08.bks.cpg/sg2_36_cif.got.tgz:70932.got - 2010.06.03 11:33:40.
