data_PCOD9015132
_publ_section_title
;
Structure prediction by ZEFSAII (Michael W. Deem and Ramdas Pophale) SiO2 
 PCOD9015132
Probable space group: P -1
;
_chemical_formula_sum "Si O2"
_cell_formula_units_Z 14
_cell_length_a 8.868608
_cell_length_b 7.501335
_cell_length_c 10.193109
_cell_angle_alpha 110.441867
_cell_angle_beta 86.936195
_cell_angle_gamma 119.185998
_cell_volume 549.047846
_symmetry_space_group_name_H-M "P -1"
_symmetry_group_IT_number 2
_symmetry_cell_setting 'triclinic'
loop_
_space_group_symop_operation_xyz
x,y,z
-x,-y,-z
loop_
_atom_site_type_symbol
_atom_site_label
_atom_site_fract_x
_atom_site_fract_y
_atom_site_fract_z
Si Si1 0.977633 0.801828 0.628061
Si Si2 0.237180 0.641774 0.588363
Si Si3 0.182187 0.186368 0.098514
Si Si4 0.351161 0.884553 0.360915
Si Si5 0.448713 0.682895 0.831530
Si Si6 0.196266 0.595564 0.058892
Si Si7 0.662156 0.810986 0.367693
O O1 0.089660 0.696108 0.654563
O O2 0.854964 0.623744 0.480311
O O3 0.855907 0.805156 0.745460
O O4 0.134115 0.039748 0.640375
O O5 0.278836 0.727673 0.456485
O O6 0.391927 0.738532 0.710709
O O7 0.356406 0.170841 0.084499
O O8 0.221748 0.408444 0.080295
O O9 0.000000 0.000000 0.000000
O O10 0.236149 0.777765 0.213230
O O11 0.531439 0.883823 0.325497
O O12 0.349539 0.103506 0.463988
O O13 0.414670 0.437852 0.736446
O O14 0.319469 0.672743 0.947123
O O15 0.000000 0.500000 0.000000
#
# Coordination Sequence:
#
# PCOD9015132 Si02
#       7
#     2   2   2   2   2   2   2
#     4  10  21  41  71  97 141 183 232 278 351 415
#     4  10  22  44  73  99 137 186 232 286 350 417
#     4  12  26  47  68 102 145 184 231 298 354 413
#     4  10  22  46  71 101 141 188 225 288 352 419
#     4  12  26  45  75 105 140 184 240 294 350 414
#     4  12  26  48  73 103 142 190 232 287 359 427
#     4  10  22  41  74 102 140 178 239 284 351 403
#
# _framework density 25.498688999999999
#
# number of rings (size 3 to 8) (size 9 to 14) (size 15 to 20)
#    0.000    1.143    2.857    2.143    6.000    2.857 
#   10.286    1.429    0.000    0.000    0.000    0.000 
#    0.000    0.000    0.000    0.000    0.000    0.000 
#
# Total GULP energy -78345.305514 kJ/mol
# GULP energy per Si atom -5596.093251 kJ/mol
# Density = 2.544065 g / cm^3
# Si number density = 25.498689 Si / 1000 Ang^3
#
#
#
# Elastic Constant Matrix: (Units=GPa)
#
#
# Indices 1 2 3 4 5 6 
#
# 1 144.5225 30.1550 59.5233 -19.4825 15.8480 28.2473
# 2 30.1550 90.1287 29.4921 -6.4356 -5.9613 -0.9963
# 3 59.5233 29.4921 140.0862 4.6831 16.6545 8.1845
# 4 -19.4825 -6.4356 4.6831 47.9132 13.6213 -6.2654
# 5 15.8480 -5.9613 16.6545 13.6213 52.6529 3.7932
# 6 28.2473 -0.9963 8.1845 -6.2654 3.7932 48.3006
#
#
#
# Elastic Compliance Matrix: (Units=1/GPa)
#
#
# Indices 1 2 3 4 5 6 
#
# 1 0.010855 -0.002390 -0.003591 0.004731 -0.003271 -0.004918
# 2 -0.002390 0.012811 -0.002114 0.000467 0.002582 0.001878
# 3 -0.003591 -0.002114 0.009351 -0.002168 -0.001578 0.000315
# 4 0.004731 0.000467 -0.002168 0.025352 -0.007350 0.001476
# 5 -0.003271 0.002582 -0.001578 -0.007350 0.022706 -0.000503
# 6 -0.004918 0.001878 0.000315 0.001476 -0.000503 0.023796
#
#
# Mechanical properties :
#
#
# Convention : Reuss Voigt Hill
#
# Bulk Modulus (GPa) = 59.42579 68.11979 63.77279
# Shear Modulus (GPa) = 39.47251 46.81114 43.14182
#
# Velocity S-wave (km/s) = 3.93876 4.28930 4.11776
# Velocity P-wave (km/s) = 6.63635 7.16267 6.90453
#
# Compressibility (1/GPa) = 0.01682771
#
# Stress axis : x y z
#
# Youngs Moduli (GPa) = 92.12638 78.05500 106.93937
#
# Poissons Ratio (x) = 0.18652 0.38402
# Poissons Ratio (y) = 0.22015 0.22609
# Poissons Ratio (z) = 0.33082 0.16502
#
# Static dielectric constant tensor:
#      x y z
#    x 2.021540 0.030890 0.042340 
#    y 0.030890 2.178740 0.049650 
#    z 0.042340 0.049650 1.976830 
# 
# From -- ./inp_files/380319.got.cif
#   From: 2010.05.17/outbox.cif.g08.bks.cpg/sg2_191_cif.got.tgz:380319.got - 2010.06.03 11:33:40.
