data_PCOD9015793
_publ_section_title
;
Structure prediction by ZEFSAII (Michael W. Deem and Ramdas Pophale) SiO2 
 PCOD9015793
Probable space group: P -1
;
_chemical_formula_sum "Si O2"
_cell_formula_units_Z 16
_cell_length_a 16.022559
_cell_length_b 8.986191
_cell_length_c 8.961710
_cell_angle_alpha 117.402673
_cell_angle_beta 53.353849
_cell_angle_gamma 75.795885
_cell_volume 628.031172
_symmetry_space_group_name_H-M "P -1"
_symmetry_group_IT_number 2
_symmetry_cell_setting 'triclinic'
loop_
_space_group_symop_operation_xyz
x,y,z
-x,-y,-z
loop_
_atom_site_type_symbol
_atom_site_label
_atom_site_fract_x
_atom_site_fract_y
_atom_site_fract_z
Si Si1 0.858223 0.291386 0.758381
Si Si2 0.946912 0.637626 0.383941
Si Si3 0.274774 0.128850 0.537661
Si Si4 0.776278 0.565235 0.681296
Si Si5 0.687443 0.153582 0.373057
Si Si6 0.469590 0.346160 0.158835
Si Si7 0.281269 0.828001 0.972334
Si Si8 0.484486 0.921776 0.635428
O O1 0.815363 0.373515 0.669372
O O2 0.901119 0.430535 0.827230
O O3 0.734081 0.331270 0.998968
O O4 0.000000 0.000000 0.500000
O O5 0.924075 0.493161 0.434781
O O6 0.867471 0.697046 0.338930
O O7 0.840764 0.896215 0.705011
O O8 0.235275 0.072113 0.704489
O O9 0.362184 0.201069 0.503501
O O10 0.404599 0.867677 0.190012
O O11 0.670737 0.617665 0.686155
O O12 0.661233 0.828593 0.008472
O O13 0.610075 0.383851 0.663526
O O14 0.764097 0.146122 0.141422
O O15 0.562736 0.200539 0.432783
O O16 0.559716 0.275371 0.184108
O O17 0.500000 0.000000 0.500000
#
# Coordination Sequence:
#
# PCOD9015793 Si02
#       8
#     2   2   2   2   2   2   2   2
#     4  10  24  41  65  92 120 166 223 266 302 358
#     4  10  21  42  65  89 120 171 220 255 297 373
#     4   9  21  36  63  91 131 163 210 251 310 375
#     4  11  22  40  68  94 124 163 214 260 310 376
#     4  11  20  37  58  96 135 165 193 254 325 381
#     4  10  23  34  63  99 128 160 205 253 322 379
#     4  10  22  38  61  95 130 162 206 255 317 377
#     4   9  20  35  60  97 130 164 191 252 327 375
#
# _framework density 25.476441999999999
#
# number of rings (size 3 to 8) (size 9 to 14) (size 15 to 20)
#    0.000    2.000    1.250    1.125   12.250    1.500 
#    0.000    0.625    0.000    3.750    0.000    0.000 
#    0.000    0.000    0.000    0.000    0.000    0.000 
#
# Total GULP energy -89307.119142 kJ/mol
# GULP energy per Si atom -5581.694946 kJ/mol
# Density = 2.541846 g / cm^3
# Si number density = 25.476442 Si / 1000 Ang^3
#
#
#
# Elastic Constant Matrix: (Units=GPa)
#
#
# Indices 1 2 3 4 5 6 
#
# 1 146.5998 39.3152 12.6240 -20.6744 7.3780 -2.3109
# 2 39.3152 146.6097 20.0614 -34.8810 3.5233 -14.5334
# 3 12.6240 20.0614 46.7342 5.9204 7.3869 -1.0346
# 4 -20.6744 -34.8810 5.9204 41.7929 -0.7363 8.5507
# 5 7.3780 3.5233 7.3869 -0.7363 19.6479 6.5874
# 6 -2.3109 -14.5334 -1.0346 8.5507 6.5874 43.7583
#
#
#
# Elastic Compliance Matrix: (Units=1/GPa)
#
#
# Indices 1 2 3 4 5 6 
#
# 1 0.007807 -0.001062 -0.001785 0.003267 -0.001832 -0.000345
# 2 -0.001062 0.009856 -0.004990 0.008113 0.000320 0.001466
# 3 -0.001785 -0.004990 0.026783 -0.009455 -0.009587 0.002173
# 4 0.003267 0.008113 -0.009455 0.034682 0.003748 -0.004698
# 5 -0.001832 0.000320 -0.009587 0.003748 0.058545 -0.009763
# 6 -0.000345 0.001466 0.002173 -0.004698 -0.009763 0.025761
#
#
# Mechanical properties :
#
#
# Convention : Reuss Voigt Hill
#
# Bulk Modulus (GPa) = 34.75554 53.77164 44.26359
# Shear Modulus (GPa) = 26.49717 38.90268 32.69992
#
# Velocity S-wave (km/s) = 3.22850 3.91193 3.58653
# Velocity P-wave (km/s) = 5.25067 6.44643 5.87903
#
# Compressibility (1/GPa) = 0.02877239
#
# Stress axis : x y z
#
# Youngs Moduli (GPa) = 128.08445 101.45591 37.33703
#
# Poissons Ratio (x) = 0.10779 0.06664
# Poissons Ratio (y) = 0.13608 0.18631
# Poissons Ratio (z) = 0.22860 0.50627
#
# Static dielectric constant tensor:
#      x y z
#    x 2.020590 0.056330 -0.021180 
#    y 0.056330 2.016360 0.035380 
#    z -0.021180 0.035380 2.063190 
# 
# From -- ./inp_files/299453.got.cif
#   From: 2010.05.17/outbox.cif.g08.bks.cpg/sg2_150_cif.got.tgz:299453.got - 2010.06.03 11:33:40.
