data_PCOD9015153
_publ_section_title
;
Structure prediction by ZEFSAII (Michael W. Deem and Ramdas Pophale) SiO2 
 PCOD9015153
Probable space group: P -1
;
_chemical_formula_sum "Si O2"
_cell_formula_units_Z 11
_cell_length_a 9.616140
_cell_length_b 10.019023
_cell_length_c 12.679270
_cell_angle_alpha 33.203044
_cell_angle_beta 135.178984
_cell_angle_gamma 134.097396
_cell_volume 454.649364
_symmetry_space_group_name_H-M "P -1"
_symmetry_group_IT_number 2
_symmetry_cell_setting 'triclinic'
loop_
_space_group_symop_operation_xyz
x,y,z
-x,-y,-z
loop_
_atom_site_type_symbol
_atom_site_label
_atom_site_fract_x
_atom_site_fract_y
_atom_site_fract_z
Si Si1 0.453406 0.461917 0.877901
Si Si2 0.598456 0.753151 0.319884
Si Si3 0.912599 0.505157 0.066232
Si Si4 0.000000 0.000000 0.500000
Si Si5 0.219983 0.908808 0.083977
Si Si6 0.219882 0.580654 0.510420
O O1 0.376912 0.669390 0.633405
O O2 0.500000 0.500000 0.000000
O O3 0.671742 0.452706 0.957236
O O4 0.274564 0.202754 0.944904
O O5 0.500000 0.500000 0.500000
O O6 0.404485 0.869664 0.134232
O O7 0.700566 0.650350 0.343905
O O8 0.780317 0.935644 0.362324
O O9 0.987066 0.296390 0.311221
O O10 0.013352 0.772582 0.001070
O O11 0.000000 0.500000 0.000000
O O12 0.225452 0.769843 0.291283
O O13 0.000000 0.500000 0.500000
#
# Coordination Sequence:
#
# PCOD9015153 Si02
#       6
#     2   2   2   1   2   2
#     4  12  29  47  68 103 140 182 234 285 345 410
#     4  10  21  41  72 100 133 178 227 273 340 411
#     4  12  27  42  74 109 135 178 234 284 340 412
#     4  12  22  42  72 102 144 172 226 282 348 402
#     4  11  25  49  71  99 141 182 229 287 342 409
#     4  11  25  45  72 100 139 185 224 282 350 402
#
# _framework density 24.194469000000002
#
# number of rings (size 3 to 8) (size 9 to 14) (size 15 to 20)
#    0.000    0.727    5.455    2.182    5.091    5.091 
#    0.000    0.000    0.000    0.000    0.000    0.000 
#    0.000    0.000    0.000    0.000    0.000    0.000 
#
# Total GULP energy -61276.796483 kJ/mol
# GULP energy per Si atom -5570.617862 kJ/mol
# Density = 2.413940 g / cm^3
# Si number density = 24.194469 Si / 1000 Ang^3
#
#
#
# Elastic Constant Matrix: (Units=GPa)
#
#
# Indices 1 2 3 4 5 6 
#
# 1 157.8316 3.2050 36.7103 13.1722 -8.4072 0.9545
# 2 3.2050 139.4699 23.0779 3.3551 -19.6156 5.6987
# 3 36.7103 23.0779 82.7735 24.4354 -8.3583 9.5544
# 4 13.1722 3.3551 24.4354 38.3879 0.2006 3.6148
# 5 -8.4072 -19.6156 -8.3583 0.2006 43.1937 16.2990
# 6 0.9545 5.6987 9.5544 3.6148 16.2990 29.6953
#
#
#
# Elastic Compliance Matrix: (Units=1/GPa)
#
#
# Indices 1 2 3 4 5 6 
#
# 1 0.007134 0.000478 -0.003061 -0.000567 0.000933 0.000221
# 2 0.000478 0.008289 -0.001743 0.000556 0.004966 -0.003839
# 3 -0.003061 -0.001743 0.018035 -0.009664 0.004704 -0.006775
# 4 -0.000567 0.000556 -0.009664 0.032343 -0.001932 0.000144
# 5 0.000933 0.004966 0.004704 -0.001932 0.034508 -0.021202
# 6 0.000221 -0.003839 -0.006775 0.000144 -0.021202 0.048205
#
#
# Mechanical properties :
#
#
# Convention : Reuss Voigt Hill
#
# Bulk Modulus (GPa) = 40.31253 56.22903 48.27078
# Shear Modulus (GPa) = 30.22346 43.39416 36.80881
#
# Velocity S-wave (km/s) = 3.53822 4.23964 3.90471
# Velocity P-wave (km/s) = 5.77841 6.87437 6.35008
#
# Compressibility (1/GPa) = 0.02480618
#
# Stress axis : x y z
#
# Youngs Moduli (GPa) = 140.17732 120.63631 55.44896
#
# Poissons Ratio (x) = -0.05771 0.16974
# Poissons Ratio (y) = -0.06706 0.09664
# Poissons Ratio (z) = 0.42912 0.21026
#
# Static dielectric constant tensor:
#      x y z
#    x 1.879790 -0.063290 -0.035530 
#    y -0.063290 1.931120 -0.029010 
#    z -0.035530 -0.029010 1.999550 
# 
# From -- ./inp_files/153224.got.cif
#   From: 2010.05.17/outbox.cif.g08.bks.cpg/sg2_77_cif.got.tgz:153224.got - 2010.06.03 11:33:40.
