data_PCOD9015756
_publ_section_title
;
Structure prediction by ZEFSAII (Michael W. Deem and Ramdas Pophale) SiO2 
 PCOD9015756
Probable space group: P -1
;
_chemical_formula_sum "Si O2"
_cell_formula_units_Z 16
_cell_length_a 9.467044
_cell_length_b 13.301606
_cell_length_c 12.309884
_cell_angle_alpha 137.531856
_cell_angle_beta 133.852660
_cell_angle_gamma 69.586911
_cell_volume 711.600627
_symmetry_space_group_name_H-M "P -1"
_symmetry_group_IT_number 2
_symmetry_cell_setting 'triclinic'
loop_
_space_group_symop_operation_xyz
x,y,z
-x,-y,-z
loop_
_atom_site_type_symbol
_atom_site_label
_atom_site_fract_x
_atom_site_fract_y
_atom_site_fract_z
Si Si1 0.988201 0.427967 0.055538
Si Si2 0.377082 0.010530 0.770986
Si Si3 0.489624 0.363919 0.052227
Si Si4 0.364382 0.865079 0.434707
Si Si5 0.752743 0.978033 0.054431
Si Si6 0.412035 0.374200 0.260778
Si Si7 0.799508 0.570481 0.227209
Si Si8 0.778525 0.889020 0.583245
O O1 0.996351 0.544602 0.253494
O O2 0.174427 0.359750 0.104526
O O3 0.774168 0.282099 0.825640
O O4 0.000000 0.500000 0.000000
O O5 0.304867 0.873844 0.534923
O O6 0.619774 0.051183 0.965235
O O7 0.374181 0.176283 0.852858
O O8 0.245213 0.965622 0.774619
O O9 0.521790 0.418781 0.238009
O O10 0.698134 0.426278 0.141671
O O11 0.342934 0.434226 0.958990
O O12 0.598966 0.861807 0.555634
O O13 0.315650 0.014652 0.475584
O O14 0.603867 0.797124 0.841522
O O15 0.989972 0.009627 0.174367
O O16 0.500000 0.500000 0.500000
O O17 0.800850 0.728734 0.417197
#
# Coordination Sequence:
#
# PCOD9015756 Si02
#       8
#     2   2   2   2   2   2   2   2
#     4  12  26  42  69 104 129 173 236 278 334 405
#     4  10  23  41  70  95 134 175 226 274 331 396
#     4  10  21  42  65 100 132 178 221 275 339 395
#     4  11  24  42  68  97 131 173 230 274 326 398
#     4  10  24  43  65  99 137 177 222 272 336 401
#     4  11  25  44  67  97 140 179 223 279 337 401
#     4  11  23  40  69  97 139 170 221 284 337 391
#     4  11  24  42  66  99 135 177 216 276 336 395
#
# _framework density 22.484521999999998
#
# number of rings (size 3 to 8) (size 9 to 14) (size 15 to 20)
#    0.000    1.250    3.750    1.500    5.250    3.000 
#    0.000    2.500    0.000    0.000    0.000    0.000 
#    0.000    0.000    0.000    0.000    0.000    0.000 
#
# Total GULP energy -89303.140622 kJ/mol
# GULP energy per Si atom -5581.446289 kJ/mol
# Density = 2.243335 g / cm^3
# Si number density = 22.484522 Si / 1000 Ang^3
#
#
#
# Elastic Constant Matrix: (Units=GPa)
#
#
# Indices 1 2 3 4 5 6 
#
# 1 74.5344 7.4123 10.7467 7.1873 -5.6409 -5.0562
# 2 7.4123 32.7063 -5.8484 6.1652 -5.4693 -4.1653
# 3 10.7467 -5.8484 60.7015 7.1798 -18.4899 8.5735
# 4 7.1873 6.1652 7.1798 21.5581 -10.7241 -3.0460
# 5 -5.6409 -5.4693 -18.4899 -10.7241 40.8957 -2.8139
# 6 -5.0562 -4.1653 8.5735 -3.0460 -2.8139 24.5858
#
#
#
# Elastic Compliance Matrix: (Units=1/GPa)
#
#
# Indices 1 2 3 4 5 6 
#
# 1 0.014616 -0.002999 -0.003096 -0.002659 -0.000261 0.003218
# 2 -0.002999 0.035063 0.006015 -0.008119 0.005059 0.002799
# 3 -0.003096 0.006015 0.021700 -0.004644 0.008504 -0.006787
# 4 -0.002659 -0.008119 -0.004644 0.058467 0.012355 0.008355
# 5 -0.000261 0.005059 0.008504 0.012355 0.032389 0.003076
# 6 0.003218 0.002799 -0.006787 0.008355 0.003076 0.045564
#
#
# Mechanical properties :
#
#
# Convention : Reuss Voigt Hill
#
# Bulk Modulus (GPa) = 14.04099 21.39592 17.71846
# Shear Modulus (GPa) = 21.57974 27.78336 24.68155
#
# Velocity S-wave (km/s) = 3.10136 3.51902 3.31677
# Velocity P-wave (km/s) = 4.36839 5.10371 4.75030
#
# Compressibility (1/GPa) = 0.07122006
#
# Stress axis : x y z
#
# Youngs Moduli (GPa) = 68.41712 28.51998 46.08335
#
# Poissons Ratio (x) = 0.08552 0.14267
# Poissons Ratio (y) = 0.20515 -0.27719
# Poissons Ratio (z) = 0.21182 -0.17155
#
# Static dielectric constant tensor:
#      x y z
#    x 1.871090 0.021620 0.006820 
#    y 0.021620 1.927920 0.032420 
#    z 0.006820 0.032420 1.829630 
# 
# From -- ./inp_files/399870.got.cif
#   From: 2010.05.17/outbox.cif.g08.bks.cpg/sg2_200_cif.got.tgz:399870.got - 2010.06.03 11:33:40.
