data_PCOD9015939
_publ_section_title
;
Structure prediction by ZEFSAII (Michael W. Deem and Ramdas Pophale) SiO2 
 PCOD9015939
Probable space group: P -1
;
_chemical_formula_sum "Si O2"
_cell_formula_units_Z 14
_cell_length_a 10.213113
_cell_length_b 13.646312
_cell_length_c 5.370520
_cell_angle_alpha 91.012537
_cell_angle_beta 114.873367
_cell_angle_gamma 57.374061
_cell_volume 550.081896
_symmetry_space_group_name_H-M "P -1"
_symmetry_group_IT_number 2
_symmetry_cell_setting 'triclinic'
loop_
_space_group_symop_operation_xyz
x,y,z
-x,-y,-z
loop_
_atom_site_type_symbol
_atom_site_label
_atom_site_fract_x
_atom_site_fract_y
_atom_site_fract_z
Si Si1 0.577328 0.262619 0.848690
Si Si2 0.765167 0.666986 0.246413
Si Si3 0.207888 0.968633 0.282379
Si Si4 0.041107 0.848295 0.286173
Si Si5 0.300176 0.600060 0.251842
Si Si6 0.238135 0.409544 0.254890
Si Si7 0.686691 0.919838 0.287762
O O1 0.706079 0.122329 0.886115
O O2 0.218559 0.526368 0.133882
O O3 0.673734 0.328713 0.939133
O O4 0.434136 0.300156 0.946574
O O5 0.846529 0.572981 0.537139
O O6 0.735008 0.786463 0.340806
O O7 0.828191 0.638851 0.011040
O O8 0.555183 0.684980 0.497375
O O9 0.151504 0.904403 0.425056
O O10 0.335955 0.000325 0.491295
O O11 0.038848 0.094577 0.048756
O O12 0.177047 0.704770 0.358714
O O13 0.868254 0.891273 0.308873
O O14 0.500000 0.500000 0.500000
O O15 0.500000 0.000000 0.000000
#
# Coordination Sequence:
#
# PCOD9015939 Si02
#       7
#     2   2   2   2   2   2   2
#     4   8  18  35  62  94 131 167 226 276 340 404
#     4  10  22  37  62  97 131 174 227 277 337 411
#     4  10  21  42  65  99 136 174 228 290 344 414
#     4  10  23  41  67 100 136 175 232 288 349 410
#     4   9  18  42  67  94 129 183 233 289 341 407
#     4   9  20  39  61  96 129 173 230 280 332 404
#     4  12  25  39  68  99 141 187 222 281 350 426
#
# _framework density 25.450755999999998
#
# number of rings (size 3 to 8) (size 9 to 14) (size 15 to 20)
#    0.857    1.429    0.000    2.143    2.000    1.714 
#    2.571    7.143    0.000    0.000    0.000    0.000 
#    0.000    0.000    0.000    0.000    0.000    0.000 
#
# Total GULP energy -78092.043465 kJ/mol
# GULP energy per Si atom -5578.003105 kJ/mol
# Density = 2.539283 g / cm^3
# Si number density = 25.450756 Si / 1000 Ang^3
#
#
#
# Elastic Constant Matrix: (Units=GPa)
#
#
# Indices 1 2 3 4 5 6 
#
# 1 95.9308 20.0634 6.4238 0.9234 -2.3057 -0.9850
# 2 20.0634 106.3075 31.6671 -6.0394 7.2404 14.5330
# 3 6.4238 31.6671 81.5468 11.5908 9.5195 0.6109
# 4 0.9234 -6.0394 11.5908 26.3399 -8.5399 11.3170
# 5 -2.3057 7.2404 9.5195 -8.5399 27.2801 -0.4936
# 6 -0.9850 14.5330 0.6109 11.3170 -0.4936 51.5990
#
#
#
# Elastic Compliance Matrix: (Units=1/GPa)
#
#
# Indices 1 2 3 4 5 6 
#
# 1 0.010970 -0.002383 0.000056 -0.001035 0.001236 0.001119
# 2 -0.002383 0.012798 -0.006044 0.008326 0.001020 -0.005395
# 3 0.000056 -0.006044 0.017572 -0.013884 -0.008789 0.004457
# 4 -0.001035 0.008326 -0.013884 0.059207 0.020811 -0.014987
# 5 0.001236 0.001020 -0.008789 0.020811 0.045995 -0.004284
# 6 0.001119 -0.005395 0.004457 -0.014987 -0.004284 0.024114
#
#
# Mechanical properties :
#
#
# Convention : Reuss Voigt Hill
#
# Bulk Modulus (GPa) = 40.65596 44.45487 42.55542
# Shear Modulus (GPa) = 25.56267 36.08586 30.82426
#
# Velocity S-wave (km/s) = 3.17266 3.76955 3.48391
# Velocity P-wave (km/s) = 5.42495 6.03746 5.73938
#
# Compressibility (1/GPa) = 0.02459664
#
# Stress axis : x y z
#
# Youngs Moduli (GPa) = 91.15782 78.13747 56.90952
#
# Poissons Ratio (x) = 0.18619 -0.00317
# Poissons Ratio (y) = 0.21722 0.34398
# Poissons Ratio (z) = -0.00507 0.47228
#
# Static dielectric constant tensor:
#      x y z
#    x 2.120830 -0.070760 -0.007780 
#    y -0.070760 2.129550 0.023020 
#    z -0.007780 0.023020 2.001100 
# 
# From -- ./inp_files/76328.got.cif
#   From: 2010.05.17/outbox.cif.g08.bks.cpg/sg2_39_cif.got.tgz:76328.got - 2010.06.03 11:33:40.
