data_PCOD9015325
_publ_section_title
;
Structure prediction by ZEFSAII (Michael W. Deem and Ramdas Pophale) SiO2 
 PCOD9015325
Probable space group: P -1
;
_chemical_formula_sum "Si O2"
_cell_formula_units_Z 16
_cell_length_a 14.073915
_cell_length_b 11.932080
_cell_length_c 15.290500
_cell_angle_alpha 28.695008
_cell_angle_beta 136.043163
_cell_angle_gamma 116.985060
_cell_volume 723.986931
_symmetry_space_group_name_H-M "P -1"
_symmetry_group_IT_number 2
_symmetry_cell_setting 'triclinic'
loop_
_space_group_symop_operation_xyz
x,y,z
-x,-y,-z
loop_
_atom_site_type_symbol
_atom_site_label
_atom_site_fract_x
_atom_site_fract_y
_atom_site_fract_z
Si Si1 0.585930 0.764485 0.791628
Si Si2 0.686868 0.594335 0.616981
Si Si3 0.028715 0.151005 0.076666
Si Si4 0.811992 0.887475 0.971179
Si Si5 0.109564 0.821575 0.616268
Si Si6 0.962787 0.719988 0.424457
Si Si7 0.256683 0.086805 0.418626
Si Si8 0.360581 0.875808 0.134202
O O1 0.677833 0.847775 0.863456
O O2 0.500000 0.000000 0.500000
O O3 0.428027 0.806731 0.705842
O O4 0.720866 0.460806 0.056568
O O5 0.713398 0.703737 0.650845
O O6 0.533893 0.831889 0.298533
O O7 0.632966 0.373171 0.743537
O O8 0.855500 0.428777 0.789509
O O9 0.090948 0.084794 0.063722
O O10 0.157293 0.184299 0.195749
O O11 0.018144 0.900052 0.283023
O O12 0.718895 0.112137 0.831164
O O13 0.932766 0.605947 0.295535
O O14 0.006070 0.751441 0.531183
O O15 0.152787 0.015560 0.459954
O O16 0.000000 0.000000 0.500000
O O17 0.773751 0.852965 0.190769
#
# Coordination Sequence:
#
# PCOD9015325 Si02
#       8
#     2   2   2   2   2   2   2   2
#     4  11  22  38  63 100 128 167 216 260 334 389
#     4  10  22  37  63  90 129 169 211 263 323 376
#     4  10  22  39  65  98 124 163 215 272 327 384
#     4  11  21  40  67  90 127 166 220 265 317 391
#     4  10  24  42  66  97 133 165 212 277 330 390
#     4   9  22  40  62  92 125 165 215 260 330 380
#     4  11  21  40  65  95 131 166 209 269 325 389
#     4  10  21  42  60  90 126 173 213 261 316 385
#
# _framework density 22.099845999999999
#
# number of rings (size 3 to 8) (size 9 to 14) (size 15 to 20)
#    0.000    1.750    2.500    1.125    3.500    5.000 
#    0.000    0.625    0.000    3.000    0.000    0.000 
#    0.000    0.000    0.000    0.000    0.000    0.000 
#
# Total GULP energy -89336.498723 kJ/mol
# GULP energy per Si atom -5583.531170 kJ/mol
# Density = 2.204955 g / cm^3
# Si number density = 22.099846 Si / 1000 Ang^3
#
#
#
# Elastic Constant Matrix: (Units=GPa)
#
#
# Indices 1 2 3 4 5 6 
#
# 1 100.8504 20.1682 40.0695 4.4386 24.1039 -20.1687
# 2 20.1682 137.6259 50.6604 9.0390 23.2067 -5.0014
# 3 40.0695 50.6604 120.6857 23.3977 30.0922 -9.5020
# 4 4.4386 9.0390 23.3977 39.6622 5.3678 13.8749
# 5 24.1039 23.2067 30.0922 5.3678 41.1738 -0.9510
# 6 -20.1687 -5.0014 -9.5020 13.8749 -0.9510 26.1239
#
#
#
# Elastic Compliance Matrix: (Units=1/GPa)
#
#
# Indices 1 2 3 4 5 6 
#
# 1 0.014940 0.000289 -0.001404 -0.004609 -0.006976 0.013273
# 2 0.000289 0.008859 -0.002981 -0.000183 -0.002941 0.000825
# 3 -0.001404 -0.002981 0.014087 -0.009513 -0.006362 0.008290
# 4 -0.004609 -0.000183 -0.009513 0.040890 0.003762 -0.028634
# 5 -0.006976 -0.002941 -0.006362 0.003762 0.033979 -0.009023
# 6 0.013273 0.000825 0.008290 -0.028634 -0.009023 0.066579
#
#
# Mechanical properties :
#
#
# Convention : Reuss Voigt Hill
#
# Bulk Modulus (GPa) = 33.67692 64.55091 49.11391
# Shear Modulus (GPa) = 25.32623 37.94292 31.63458
#
# Velocity S-wave (km/s) = 3.38892 4.14803 3.78754
# Velocity P-wave (km/s) = 5.53034 7.22590 6.43422
#
# Compressibility (1/GPa) = 0.02969393
#
# Stress axis : x y z
#
# Youngs Moduli (GPa) = 66.93386 112.88089 70.98990
#
# Poissons Ratio (x) = -0.03258 0.09964
# Poissons Ratio (y) = -0.01932 0.21161
# Poissons Ratio (z) = 0.09395 0.33648
#
# Static dielectric constant tensor:
#      x y z
#    x 1.857620 -0.005230 0.012460 
#    y -0.005230 1.848250 0.010690 
#    z 0.012460 0.010690 1.871720 
# 
# From -- ./inp_files/531521.got.cif
#   From: 2010.05.17/outbox.cif.g08.bks.cpg/sg2_266_cif.got.tgz:531521.got - 2010.06.03 11:33:40.
