data_PCOD9015754
_publ_section_title
;
Structure prediction by ZEFSAII (Michael W. Deem and Ramdas Pophale) SiO2 
 PCOD9015754
Probable space group: P -1
;
_chemical_formula_sum "Si O2"
_cell_formula_units_Z 15
_cell_length_a 23.615224
_cell_length_b 6.926092
_cell_length_c 11.891558
_cell_angle_alpha 115.300819
_cell_angle_beta 153.596337
_cell_angle_gamma 50.641246
_cell_volume 610.240972
_symmetry_space_group_name_H-M "P -1"
_symmetry_group_IT_number 2
_symmetry_cell_setting 'triclinic'
loop_
_space_group_symop_operation_xyz
x,y,z
-x,-y,-z
loop_
_atom_site_type_symbol
_atom_site_label
_atom_site_fract_x
_atom_site_fract_y
_atom_site_fract_z
Si Si1 0.596538 0.843093 0.017455
Si Si2 0.719833 0.995050 0.085361
Si Si3 0.129384 0.620098 0.461644
Si Si4 0.000000 0.000000 0.500000
Si Si5 0.836698 0.164967 0.624802
Si Si6 0.029157 0.628647 0.931553
Si Si7 0.442342 0.581147 0.622664
Si Si8 0.665384 0.702797 0.746438
O O1 0.644186 0.002383 0.072206
O O2 0.761311 0.550934 0.278402
O O3 0.498114 0.767069 0.752509
O O4 0.500000 0.000000 0.000000
O O5 0.887469 0.946632 0.358970
O O6 0.735917 0.746903 0.991261
O O7 0.589939 0.285488 0.863237
O O8 0.972357 0.890446 0.306284
O O9 0.223665 0.674605 0.558334
O O10 0.083121 0.455688 0.272801
O O11 0.695951 0.268852 0.489535
O O12 0.956604 0.219529 0.904607
O O13 0.946988 0.840469 0.733823
O O14 0.210582 0.383024 0.156491
O O15 0.370650 0.513470 0.376277
O O16 0.500000 0.000000 0.500000
#
# Coordination Sequence:
#
# PCOD9015754 Si02
#       8
#     2   2   2   1   2   2   2   2
#     4  12  27  41  68 100 134 176 223 266 337 394
#     4  11  24  46  66  96 134 175 223 276 323 400
#     4  12  25  41  64  97 133 177 216 274 325 392
#     4  12  26  42  66  96 132 182 218 264 342 386
#     4  10  23  41  70  94 133 168 223 274 326 394
#     4  10  21  42  65 100 126 173 221 272 332 386
#     4  10  22  44  66  98 130 171 221 274 332 384
#     4   9  20  42  70  92 131 170 220 272 326 388
#
# _framework density 24.580455000000001
#
# number of rings (size 3 to 8) (size 9 to 14) (size 15 to 20)
#    0.000    1.333    2.667    2.000    3.733    3.200 
#    0.000    8.000    0.000    0.000    0.000    0.000 
#    0.000    0.000    0.000    0.000    0.000    0.000 
#
# Total GULP energy -83575.195329 kJ/mol
# GULP energy per Si atom -5571.679689 kJ/mol
# Density = 2.452451 g / cm^3
# Si number density = 24.580455 Si / 1000 Ang^3
#
#
#
# Elastic Constant Matrix: (Units=GPa)
#
#
# Indices 1 2 3 4 5 6 
#
# 1 85.1640 35.5874 14.0461 20.4067 25.5461 14.6986
# 2 35.5874 87.6049 41.2869 31.1465 17.1669 6.8312
# 3 14.0461 41.2869 75.9259 35.7670 18.9471 13.4097
# 4 20.4067 31.1465 35.7670 52.2823 7.4754 7.1703
# 5 25.5461 17.1669 18.9471 7.4754 27.6159 8.4459
# 6 14.6986 6.8312 13.4097 7.1703 8.4459 32.2806
#
#
#
# Elastic Compliance Matrix: (Units=1/GPa)
#
#
# Indices 1 2 3 4 5 6 
#
# 1 0.020636 -0.005865 0.007792 -0.006675 -0.017339 -0.005373
# 2 -0.005865 0.018694 -0.007502 -0.003995 -0.000867 0.002945
# 3 0.007792 -0.007502 0.027566 -0.014346 -0.015703 -0.006116
# 4 -0.006675 -0.003995 -0.014346 0.032532 0.009668 0.000089
# 5 -0.017339 -0.000867 -0.015703 0.009668 0.062107 -0.003795
# 6 -0.005373 0.002945 -0.006116 0.000089 -0.003795 0.036315
#
#
# Mechanical properties :
#
#
# Convention : Reuss Voigt Hill
#
# Bulk Modulus (GPa) = 17.93884 47.83726 32.88805
# Shear Modulus (GPa) = 21.97012 32.95405 27.46209
#
# Velocity S-wave (km/s) = 2.99290 3.66548 3.34613
# Velocity P-wave (km/s) = 4.38829 6.11703 5.32331
#
# Compressibility (1/GPa) = 0.05574495
#
# Stress axis : x y z
#
# Youngs Moduli (GPa) = 48.46002 53.49408 36.27682
#
# Poissons Ratio (x) = 0.31375 -0.28267
# Poissons Ratio (y) = 0.28422 0.27215
# Poissons Ratio (z) = -0.37760 0.40131
#
# Static dielectric constant tensor:
#      x y z
#    x 2.090930 -0.124890 -0.015800 
#    y -0.124890 2.103920 -0.036810 
#    z -0.015800 -0.036810 2.011860 
# 
# From -- ./inp_files/67188.got.cif
#   From: 2010.05.17/outbox.cif.g08.bks.cpg/sg2_34_cif.got.tgz:67188.got - 2010.06.03 11:33:40.
