data_PCOD9015887
_publ_section_title
;
Structure prediction by ZEFSAII (Michael W. Deem and Ramdas Pophale) SiO2 
 PCOD9015887
Probable space group: P -1
;
_chemical_formula_sum "Si O2"
_cell_formula_units_Z 16
_cell_length_a 12.915630
_cell_length_b 9.871970
_cell_length_c 14.998099
_cell_angle_alpha 75.480005
_cell_angle_beta 150.849907
_cell_angle_gamma 120.450882
_cell_volume 714.241898
_symmetry_space_group_name_H-M "P -1"
_symmetry_group_IT_number 2
_symmetry_cell_setting 'triclinic'
loop_
_space_group_symop_operation_xyz
x,y,z
-x,-y,-z
loop_
_atom_site_type_symbol
_atom_site_label
_atom_site_fract_x
_atom_site_fract_y
_atom_site_fract_z
Si Si1 0.019115 0.484108 0.197561
Si Si2 0.343842 0.416149 0.043117
Si Si3 0.667300 0.198146 0.131246
Si Si4 0.812991 0.035981 0.402818
Si Si5 0.246916 0.281086 0.804130
Si Si6 0.090975 0.029750 0.960982
Si Si7 0.273494 0.790945 0.117412
Si Si8 0.512729 0.853168 0.485220
O O1 0.837104 0.551260 0.042593
O O2 0.887457 0.341432 0.202529
O O3 0.317424 0.658364 0.415328
O O4 0.979283 0.386252 0.090181
O O5 0.238291 0.374614 0.868178
O O6 0.295057 0.239797 0.066144
O O7 0.640248 0.592995 0.219088
O O8 0.794391 0.177707 0.316786
O O9 0.452645 0.235274 0.981213
O O10 0.500000 0.000000 0.000000
O O11 0.951566 0.111408 0.589475
O O12 0.518697 0.856381 0.224416
O O13 0.000000 0.000000 0.500000
O O14 0.823841 0.938198 0.715120
O O15 0.223159 0.935873 0.054166
O O16 0.000000 0.000000 0.000000
O O17 0.379974 0.803413 0.294906
O O18 0.500000 0.000000 0.500000
#
# Coordination Sequence:
#
# PCOD9015887 Si02
#       8
#     2   2   2   2   2   2   2   2
#     4  11  24  44  71 102 141 188 234 290 348 420
#     4  10  21  42  65  95 141 180 229 289 344 409
#     4  11  21  42  64 100 147 175 228 294 347 412
#     4  12  23  40  70 104 141 187 229 281 358 425
#     4  10  22  39  65  96 134 187 229 279 348 417
#     4  12  25  44  72 100 140 183 232 295 355 408
#     4  12  26  45  74 103 143 186 234 292 360 414
#     4  12  25  48  74 101 138 187 240 292 350 421
#
# _framework density 22.401374000000001
#
# number of rings (size 3 to 8) (size 9 to 14) (size 15 to 20)
#    0.000    0.750    5.000    2.625    0.000    2.500 
#    0.000    7.500    0.000    0.000    0.000    0.000 
#    0.000    0.000    0.000    0.000    0.000    0.000 
#
# Total GULP energy -89385.108610 kJ/mol
# GULP energy per Si atom -5586.569288 kJ/mol
# Density = 2.235039 g / cm^3
# Si number density = 22.401374 Si / 1000 Ang^3
#
#
#
# Elastic Constant Matrix: (Units=GPa)
#
#
# Indices 1 2 3 4 5 6 
#
# 1 66.2710 28.1217 8.5192 -5.2821 -7.1671 0.6562
# 2 28.1217 131.2300 26.0339 0.8827 3.4517 -1.2457
# 3 8.5192 26.0339 85.2028 -3.4854 -5.9732 5.3383
# 4 -5.2821 0.8827 -3.4854 31.8909 -1.5865 -0.1881
# 5 -7.1671 3.4517 -5.9732 -1.5865 29.5712 2.0001
# 6 0.6562 -1.2457 5.3383 -0.1881 2.0001 41.2433
#
#
#
# Elastic Compliance Matrix: (Units=1/GPa)
#
#
# Indices 1 2 3 4 5 6 
#
# 1 0.017551 -0.003909 -0.000044 0.003251 0.004917 -0.000615
# 2 -0.003909 0.009075 -0.002674 -0.001319 -0.002672 0.000806
# 3 -0.000044 -0.002674 0.012964 0.001628 0.003136 -0.001903
# 4 0.003251 -0.001319 0.001628 0.032258 0.003022 -0.000302
# 5 0.004917 -0.002672 0.003136 0.003022 0.036272 -0.002310
# 6 -0.000615 0.000806 -0.001903 -0.000302 -0.002310 0.024637
#
#
# Mechanical properties :
#
#
# Convention : Reuss Voigt Hill
#
# Bulk Modulus (GPa) = 37.97151 45.33925 41.65538
# Shear Modulus (GPa) = 32.30153 35.20970 33.75562
#
# Velocity S-wave (km/s) = 3.80141 3.96885 3.88603
# Velocity P-wave (km/s) = 6.02121 6.42540 6.22659
#
# Compressibility (1/GPa) = 0.02633553
#
# Stress axis : x y z
#
# Youngs Moduli (GPa) = 56.97621 110.19009 77.13786
#
# Poissons Ratio (x) = 0.43078 0.00340
# Poissons Ratio (y) = 0.22274 0.20626
# Poissons Ratio (z) = 0.00251 0.29463
#
# Static dielectric constant tensor:
#      x y z
#    x 1.895720 0.064760 -0.032840 
#    y 0.064760 1.888780 0.015990 
#    z -0.032840 0.015990 1.869290 
# 
# From -- ./inp_files/515574.got.cif
#   From: 2010.05.17/outbox.cif.g08.bks.cpg/sg2_258_cif.got.tgz:515574.got - 2010.06.03 11:33:40.
