data_PCOD9015419
_publ_section_title
;
Structure prediction by ZEFSAII (Michael W. Deem and Ramdas Pophale) SiO2 
 PCOD9015419
Probable space group: P -1
;
_chemical_formula_sum "Si O2"
_cell_formula_units_Z 16
_cell_length_a 5.356778
_cell_length_b 8.498440
_cell_length_c 23.379349
_cell_angle_alpha 135.356437
_cell_angle_beta 81.997998
_cell_angle_gamma 96.251186
_cell_volume 740.540559
_symmetry_space_group_name_H-M "P -1"
_symmetry_group_IT_number 2
_symmetry_cell_setting 'triclinic'
loop_
_space_group_symop_operation_xyz
x,y,z
-x,-y,-z
loop_
_atom_site_type_symbol
_atom_site_label
_atom_site_fract_x
_atom_site_fract_y
_atom_site_fract_z
Si Si1 0.489531 0.281001 0.272110
Si Si2 0.464755 0.597363 0.884933
Si Si3 0.834057 0.804899 0.850781
Si Si4 0.881419 0.274138 0.970954
Si Si5 0.806923 0.576259 0.255173
Si Si6 0.500696 0.699258 0.596563
Si Si7 0.989275 0.978616 0.672873
Si Si8 0.658414 0.182807 0.835817
O O1 0.265113 0.252382 0.224993
O O2 0.688892 0.443821 0.277844
O O3 0.440398 0.382269 0.361765
O O4 0.548604 0.018811 0.216036
O O5 0.599540 0.805197 0.902292
O O6 0.389107 0.432827 0.792798
O O7 0.609698 0.431328 0.879621
O O8 0.233924 0.674521 0.950918
O O9 0.974192 0.588730 0.812751
O O10 0.005995 0.028648 0.907645
O O11 0.686516 0.208294 0.909607
O O12 0.000000 0.500000 0.000000
O O13 0.911030 0.824122 0.320499
O O14 0.500000 0.500000 0.500000
O O15 0.741193 0.865326 0.623188
O O16 0.226400 0.816811 0.633747
O O17 0.887086 0.088289 0.764464
#
# Coordination Sequence:
#
# PCOD9015419 Si02
#       8
#     2   2   2   2   2   2   2   2
#     4   9  23  38  67  92 125 166 216 264 319 395
#     4  11  22  41  58  86 130 170 224 275 338 376
#     4  10  23  41  59  87 126 171 222 266 334 385
#     4  11  24  36  58  88 124 172 224 286 334 377
#     4  11  22  39  66  93 123 174 222 268 318 392
#     4  11  25  46  73 105 136 167 208 267 331 395
#     4  11  23  43  72  97 134 175 219 261 324 400
#     4  10  21  42  62  91 122 176 222 274 323 392
#
# _framework density 21.605840000000001
#
# number of rings (size 3 to 8) (size 9 to 14) (size 15 to 20)
#    0.000    1.500    1.250    3.375    8.750    0.500 
#    2.250    1.250    0.000    0.000    0.000    0.000 
#    0.000    0.000    0.000    0.000    0.000    0.000 
#
# Total GULP energy -89128.880816 kJ/mol
# GULP energy per Si atom -5570.555051 kJ/mol
# Density = 2.155666 g / cm^3
# Si number density = 21.605840 Si / 1000 Ang^3
#
#
#
# Elastic Constant Matrix: (Units=GPa)
#
#
# Indices 1 2 3 4 5 6 
#
# 1 53.9253 10.7657 17.1666 9.3616 -1.8145 10.4381
# 2 10.7657 103.3827 31.2266 -2.3810 8.3405 25.2464
# 3 17.1666 31.2266 94.2825 -7.6388 7.4244 12.7679
# 4 9.3616 -2.3810 -7.6388 22.5321 -0.7665 0.6213
# 5 -1.8145 8.3405 7.4244 -0.7665 26.0492 8.9256
# 6 10.4381 25.2464 12.7679 0.6213 8.9256 40.2337
#
#
#
# Elastic Compliance Matrix: (Units=1/GPa)
#
#
# Indices 1 2 3 4 5 6 
#
# 1 0.023133 -0.000372 -0.004634 -0.010928 0.004485 -0.005124
# 2 -0.000372 0.012285 -0.003009 0.000581 -0.000866 -0.006474
# 3 -0.004634 -0.003009 0.013231 0.006015 -0.002751 -0.000591
# 4 -0.010928 0.000581 0.006015 0.050981 -0.001173 0.000034
# 5 0.004485 -0.000866 -0.002751 -0.001173 0.042896 -0.009245
# 6 -0.005124 -0.006474 -0.000591 0.000034 -0.009245 0.032485
#
#
# Mechanical properties :
#
#
# Convention : Reuss Voigt Hill
#
# Bulk Modulus (GPa) = 30.65573 41.10093 35.87833
# Shear Modulus (GPa) = 24.76325 30.59177 27.67751
#
# Velocity S-wave (km/s) = 3.38914 3.76693 3.58302
# Velocity P-wave (km/s) = 5.43456 6.16312 5.81027
#
# Compressibility (1/GPa) = 0.03262032
#
# Stress axis : x y z
#
# Youngs Moduli (GPa) = 43.22784 81.40261 75.58183
#
# Poissons Ratio (x) = 0.03025 0.35021
# Poissons Ratio (y) = 0.01606 0.22743
# Poissons Ratio (z) = 0.20030 0.24494
#
# Static dielectric constant tensor:
#      x y z
#    x 1.956820 0.035400 -0.050100 
#    y 0.035400 1.836340 0.032310 
#    z -0.050100 0.032310 1.793340 
# 
# From -- ./inp_files/52476.got.cif
#   From: 2010.05.17/outbox.cif.g08.bks.cpg/sg2_27_cif.got.tgz:52476.got - 2010.06.03 11:33:40.
