data_PCOD9015917
_publ_section_title
;
Structure prediction by ZEFSAII (Michael W. Deem and Ramdas Pophale) SiO2 
 PCOD9015917
Probable space group: P -1
;
_chemical_formula_sum "Si O2"
_cell_formula_units_Z 14
_cell_length_a 5.373122
_cell_length_b 13.561901
_cell_length_c 8.888445
_cell_angle_alpha 102.277341
_cell_angle_beta 102.148112
_cell_angle_gamma 58.910883
_cell_volume 538.047411
_symmetry_space_group_name_H-M "P -1"
_symmetry_group_IT_number 2
_symmetry_cell_setting 'triclinic'
loop_
_space_group_symop_operation_xyz
x,y,z
-x,-y,-z
loop_
_atom_site_type_symbol
_atom_site_label
_atom_site_fract_x
_atom_site_fract_y
_atom_site_fract_z
Si Si1 0.734031 0.768004 0.316868
Si Si2 0.734210 0.936505 0.140444
Si Si3 0.855666 0.182299 0.090351
Si Si4 0.659892 0.876429 0.644760
Si Si5 0.334976 0.331674 0.274821
Si Si6 0.753158 0.436676 0.132643
Si Si7 0.431566 0.629993 0.379158
O O1 0.696542 0.833279 0.175294
O O2 0.654356 0.868870 0.463824
O O3 0.546426 0.704988 0.317465
O O4 0.083870 0.682951 0.343091
O O5 0.646847 0.032574 0.289931
O O6 0.038827 0.888878 0.074045
O O7 0.500000 0.000000 0.000000
O O8 0.547000 0.237728 0.151075
O O9 0.850447 0.302220 0.087478
O O10 0.090825 0.111482 0.229502
O O11 0.759756 0.743519 0.657655
O O12 0.482934 0.368743 0.436003
O O13 0.066424 0.432056 0.180606
O O14 0.601194 0.503173 0.287616
O O15 0.500000 0.500000 0.000000
#
# Coordination Sequence:
#
# PCOD9015917 Si02
#       7
#     2   2   2   2   2   2   2
#     4  11  23  47  71 108 138 184 245 296 346 430
#     4  10  22  44  67 100 142 188 230 289 365 419
#     4  10  21  42  65  97 144 178 242 283 353 420
#     4   9  20  42  68  98 138 179 239 293 349 412
#     4  10  22  43  71 103 138 188 239 298 346 427
#     4  11  25  44  65 103 143 191 231 293 360 426
#     4  11  25  46  76 103 143 186 244 296 353 417
#
# _framework density 26.020009999999999
#
# number of rings (size 3 to 8) (size 9 to 14) (size 15 to 20)
#    0.000    1.714    1.429    1.714    2.000    1.714 
#   23.143    2.143    0.000    0.000    0.000    0.000 
#    0.000    0.000    0.000    0.000    0.000    0.000 
#
# Total GULP energy -78159.451874 kJ/mol
# GULP energy per Si atom -5582.817991 kJ/mol
# Density = 2.596079 g / cm^3
# Si number density = 26.020010 Si / 1000 Ang^3
#
#
#
# Elastic Constant Matrix: (Units=GPa)
#
#
# Indices 1 2 3 4 5 6 
#
# 1 108.0242 38.0891 45.3583 -7.3024 -18.9191 -9.7905
# 2 38.0891 79.1627 66.8512 28.2692 0.3450 -16.8955
# 3 45.3583 66.8512 144.4909 2.0281 -17.3061 -6.7688
# 4 -7.3024 28.2692 2.0281 56.4834 -8.9990 -17.8595
# 5 -18.9191 0.3450 -17.3061 -8.9990 34.4218 5.5646
# 6 -9.7905 -16.8955 -6.7688 -17.8595 5.5646 27.1884
#
#
#
# Elastic Compliance Matrix: (Units=1/GPa)
#
#
# Indices 1 2 3 4 5 6 
#
# 1 0.016479 -0.014214 0.002984 0.012272 0.013397 0.003163
# 2 -0.014214 0.047724 -0.020086 -0.026936 -0.026610 0.007290
# 3 0.002984 -0.020086 0.016616 0.011138 0.013548 -0.002727
# 4 0.012272 -0.026936 0.011138 0.039555 0.020993 0.012139
# 5 0.013397 -0.026610 0.013548 0.020993 0.049746 -0.004730
# 6 0.003163 0.007290 -0.002727 0.012139 -0.004730 0.050713
#
#
# Mechanical properties :
#
#
# Convention : Reuss Voigt Hill
#
# Bulk Modulus (GPa) = 54.98572 70.25277 62.61925
# Shear Modulus (GPa) = 17.26952 35.71068 26.49010
#
# Velocity S-wave (km/s) = 2.57904 3.70865 3.19418
# Velocity P-wave (km/s) = 5.48147 6.73773 6.14180
#
# Compressibility (1/GPa) = 0.01818654
#
# Stress axis : x y z
#
# Youngs Moduli (GPa) = 60.68463 20.95363 60.18351
#
# Poissons Ratio (x) = 0.29784 -0.17959
# Poissons Ratio (y) = 0.86258 1.20885
# Poissons Ratio (z) = -0.18108 0.42087
#
# Static dielectric constant tensor:
#      x y z
#    x 2.227590 0.033620 0.071770 
#    y 0.033620 2.056820 -0.033540 
#    z 0.071770 -0.033540 2.078780 
# 
# From -- ./inp_files/137840.got.cif
#   From: 2010.05.17/outbox.cif.g08.bks.cpg/sg2_69_cif.got.tgz:137840.got - 2010.06.03 11:33:40.
