data_PCOD9015343
_publ_section_title
;
Structure prediction by ZEFSAII (Michael W. Deem and Ramdas Pophale) SiO2 
 PCOD9015343
Probable space group: P -1
;
_chemical_formula_sum "Si O2"
_cell_formula_units_Z 16
_cell_length_a 13.834605
_cell_length_b 12.767303
_cell_length_c 13.058699
_cell_angle_alpha 135.145955
_cell_angle_beta 150.285243
_cell_angle_gamma 35.752233
_cell_volume 667.956845
_symmetry_space_group_name_H-M "P -1"
_symmetry_group_IT_number 2
_symmetry_cell_setting 'triclinic'
loop_
_space_group_symop_operation_xyz
x,y,z
-x,-y,-z
loop_
_atom_site_type_symbol
_atom_site_label
_atom_site_fract_x
_atom_site_fract_y
_atom_site_fract_z
Si Si1 0.679102 0.766813 0.577233
Si Si2 0.396198 0.313210 0.262939
Si Si3 0.257053 0.834606 0.339798
Si Si4 0.534725 0.864268 0.285011
Si Si5 0.331299 0.931375 0.827588
Si Si6 0.991499 0.412591 0.539017
Si Si7 0.046699 0.707465 0.206182
Si Si8 0.774592 0.200230 0.154736
O O1 0.448342 0.762707 0.377821
O O2 0.659224 0.828280 0.484554
O O3 0.907578 0.565394 0.653433
O O4 0.651220 0.920804 0.731983
O O5 0.582818 0.183066 0.428762
O O6 0.555927 0.244340 0.260840
O O7 0.262777 0.519740 0.317755
O O8 0.176430 0.298701 0.031226
O O9 0.147221 0.730802 0.209029
O O10 0.037498 0.033316 0.254050
O O11 0.749579 0.767863 0.335340
O O12 0.395902 0.770947 0.074806
O O13 0.316213 0.865957 0.881590
O O14 0.068142 0.115395 0.705541
O O15 0.500000 0.000000 0.000000
O O16 0.805593 0.358021 0.321363
O O17 0.000000 0.500000 0.500000
#
# Coordination Sequence:
#
# PCOD9015343 Si02
#       8
#     2   2   2   2   2   2   2   2
#     4  10  23  43  68  94 132 173 216 270 348 375
#     4  10  21  42  61  83 136 162 212 271 320 379
#     4  11  23  39  63  97 125 170 217 271 320 398
#     4  10  23  48  65  94 135 171 218 282 319 405
#     4   9  21  39  62  92 123 171 214 266 319 384
#     4  10  23  46  65  98 132 169 223 277 324 394
#     4   9  21  39  59  90 121 167 214 262 321 386
#     4  11  24  42  71  98 133 175 226 266 337 389
#
# _framework density 23.953644000000001
#
# number of rings (size 3 to 8) (size 9 to 14) (size 15 to 20)
#    0.000    2.000    1.250    0.375    7.000    4.500 
#   11.250    0.000    0.000    0.000    0.000    0.000 
#    0.000    0.000    0.000    0.000    0.000    0.000 
#
# Total GULP energy -89155.791704 kJ/mol
# GULP energy per Si atom -5572.236981 kJ/mol
# Density = 2.389912 g / cm^3
# Si number density = 23.953644 Si / 1000 Ang^3
#
#
#
# Elastic Constant Matrix: (Units=GPa)
#
#
# Indices 1 2 3 4 5 6 
#
# 1 73.2567 19.3917 -0.0121 0.8452 25.5848 -14.9772
# 2 19.3917 139.6106 36.9878 12.0889 10.1555 -42.8153
# 3 -0.0121 36.9878 94.5432 -2.5093 18.6337 -8.3088
# 4 0.8452 12.0889 -2.5093 24.0917 1.4425 0.8458
# 5 25.5848 10.1555 18.6337 1.4425 29.9171 -1.1956
# 6 -14.9772 -42.8153 -8.3088 0.8458 -1.1956 28.2000
#
#
#
# Elastic Compliance Matrix: (Units=1/GPa)
#
#
# Indices 1 2 3 4 5 6 
#
# 1 0.025518 0.002225 0.005662 -0.000518 -0.025379 0.017539
# 2 0.002225 0.016914 -0.003864 -0.009652 -0.003739 0.025855
# 3 0.005662 -0.003864 0.014816 0.004028 -0.012920 0.000838
# 4 -0.000518 -0.009652 0.004028 0.047425 -0.001685 -0.015236
# 5 -0.025379 -0.003739 -0.012920 -0.001685 0.063719 -0.020211
# 6 0.017539 0.025855 0.000838 -0.015236 -0.020211 0.083878
#
#
# Mechanical properties :
#
#
# Convention : Reuss Voigt Hill
#
# Bulk Modulus (GPa) = 15.31491 46.68281 30.99886
# Shear Modulus (GPa) = 18.79783 33.17795 25.98789
#
# Velocity S-wave (km/s) = 2.80439 3.72572 3.29739
# Velocity P-wave (km/s) = 4.11018 6.16758 5.24083
#
# Compressibility (1/GPa) = 0.06529586
#
# Stress axis : x y z
#
# Youngs Moduli (GPa) = 39.18819 59.12206 67.49249
#
# Poissons Ratio (x) = -0.13156 -0.38216
# Poissons Ratio (y) = -0.08721 0.26079
# Poissons Ratio (z) = -0.22190 0.22844
#
# Static dielectric constant tensor:
#      x y z
#    x 2.185550 0.242250 0.046800 
#    y 0.242250 2.251250 0.076840 
#    z 0.046800 0.076840 1.928330 
# 
# From -- ./inp_files/534467.got.cif
#   From: 2010.05.17/outbox.cif.g08.bks.cpg/sg2_268_cif.got.tgz:534467.got - 2010.06.03 11:33:40.
