data_PCOD9015722
_publ_section_title
;
Structure prediction by ZEFSAII (Michael W. Deem and Ramdas Pophale) SiO2 
 PCOD9015722
Probable space group: P -1
;
_chemical_formula_sum "Si O2"
_cell_formula_units_Z 16
_cell_length_a 13.595877
_cell_length_b 11.799681
_cell_length_c 9.356690
_cell_angle_alpha 144.749489
_cell_angle_beta 88.271726
_cell_angle_gamma 107.213842
_cell_volume 764.207852
_symmetry_space_group_name_H-M "P -1"
_symmetry_group_IT_number 2
_symmetry_cell_setting 'triclinic'
loop_
_space_group_symop_operation_xyz
x,y,z
-x,-y,-z
loop_
_atom_site_type_symbol
_atom_site_label
_atom_site_fract_x
_atom_site_fract_y
_atom_site_fract_z
Si Si1 0.693888 0.069506 0.684539
Si Si2 0.899194 0.586590 0.492241
Si Si3 0.026968 0.339634 0.125232
Si Si4 0.490546 0.290379 0.364395
Si Si5 0.674132 0.182191 0.109613
Si Si6 0.474916 0.675615 0.263533
Si Si7 0.846928 0.858633 0.543860
Si Si8 0.213687 0.521739 0.075823
O O1 0.783400 0.264532 0.783461
O O2 0.576034 0.913131 0.455326
O O3 0.744663 0.913919 0.582421
O O4 0.669117 0.186079 0.941212
O O5 0.961868 0.710929 0.760847
O O6 0.799033 0.355769 0.317534
O O7 0.850801 0.721601 0.542016
O O8 0.971393 0.504967 0.307369
O O9 0.143424 0.460440 0.160730
O O10 0.950637 0.105614 0.809262
O O11 0.500000 0.500000 0.500000
O O12 0.588568 0.246600 0.254243
O O13 0.506040 0.325015 0.568186
O O14 0.372488 0.075492 0.116015
O O15 0.345769 0.606409 0.175731
O O16 0.500000 0.500000 0.000000
O O17 0.839024 0.697028 0.247393
#
# Coordination Sequence:
#
# PCOD9015722 Si02
#       8
#     2   2   2   2   2   2   2   2
#     4  11  24  43  73  96 135 182 226 271 340 404
#     4  11  24  45  71  95 139 177 226 280 336 404
#     4  11  26  45  67 105 133 177 228 281 342 391
#     4  10  24  40  68  99 134 171 225 276 324 403
#     4  10  21  42  64  97 126 179 220 266 335 387
#     4  11  24  45  67 104 134 179 222 271 344 401
#     4  12  23  44  71 100 129 183 227 274 337 399
#     4  12  25  45  68  98 142 175 225 284 329 409
#
# _framework density 20.936713000000001
#
# number of rings (size 3 to 8) (size 9 to 14) (size 15 to 20)
#    0.000    1.000    3.750    1.875    5.250    3.000 
#    4.500    0.000    0.000    0.000    0.000    0.000 
#    0.000    0.000    0.000    0.000    0.000    0.000 
#
# Total GULP energy -89325.306947 kJ/mol
# GULP energy per Si atom -5582.831684 kJ/mol
# Density = 2.088906 g / cm^3
# Si number density = 20.936713 Si / 1000 Ang^3
#
#
#
# Elastic Constant Matrix: (Units=GPa)
#
#
# Indices 1 2 3 4 5 6 
#
# 1 107.4571 42.4621 39.3042 9.2238 -3.6174 -1.3684
# 2 42.4621 83.2815 37.5749 10.4083 -17.6391 2.7820
# 3 39.3042 37.5749 119.5969 6.5566 0.9401 3.1684
# 4 9.2238 10.4083 6.5566 27.9081 6.3499 1.6837
# 5 -3.6174 -17.6391 0.9401 6.3499 33.5747 4.1864
# 6 -1.3684 2.7820 3.1684 1.6837 4.1864 38.8097
#
#
#
# Elastic Compliance Matrix: (Units=1/GPa)
#
#
# Indices 1 2 3 4 5 6 
#
# 1 0.012380 -0.005440 -0.002311 -0.001282 -0.001369 0.001218
# 2 -0.005440 0.020142 -0.004174 -0.007275 0.011769 -0.002249
# 3 -0.002311 -0.004174 0.010435 0.000525 -0.002789 -0.000356
# 4 -0.001282 -0.007275 0.000525 0.041541 -0.011820 -0.000094
# 5 -0.001369 0.011769 -0.002789 -0.011820 0.038672 -0.004323
# 6 0.001218 -0.002249 -0.000356 -0.000094 -0.004323 0.026470
#
#
# Mechanical properties :
#
#
# Convention : Reuss Voigt Hill
#
# Bulk Modulus (GPa) = 52.33840 61.00199 56.67019
# Shear Modulus (GPa) = 27.79950 32.79144 30.29547
#
# Velocity S-wave (km/s) = 3.64783 3.96184 3.80807
# Velocity P-wave (km/s) = 6.54178 7.08010 6.81626
#
# Compressibility (1/GPa) = 0.01910643
#
# Stress axis : x y z
#
# Youngs Moduli (GPa) = 80.77276 49.64856 95.83261
#
# Poissons Ratio (x) = 0.27010 0.22144
# Poissons Ratio (y) = 0.43942 0.40003
# Poissons Ratio (z) = 0.18664 0.20725
#
# Static dielectric constant tensor:
#      x y z
#    x 1.757650 -0.017690 0.025660 
#    y -0.017690 1.756510 0.017480 
#    z 0.025660 0.017480 1.772490 
# 
# From -- ./inp_files/308774.got.cif
#   From: 2010.05.17/outbox.cif.g08.bks.cpg/sg2_155_cif.got.tgz:308774.got - 2010.06.03 11:33:40.
