data_PCOD9015429
_publ_section_title
;
Structure prediction by ZEFSAII (Michael W. Deem and Ramdas Pophale) SiO2 
 PCOD9015429
Probable space group: P -1
;
_chemical_formula_sum "Si O2"
_cell_formula_units_Z 16
_cell_length_a 9.840686
_cell_length_b 19.434716
_cell_length_c 7.819835
_cell_angle_alpha 37.820374
_cell_angle_beta 58.233961
_cell_angle_gamma 58.710369
_cell_volume 764.163890
_symmetry_space_group_name_H-M "P -1"
_symmetry_group_IT_number 2
_symmetry_cell_setting 'triclinic'
loop_
_space_group_symop_operation_xyz
x,y,z
-x,-y,-z
loop_
_atom_site_type_symbol
_atom_site_label
_atom_site_fract_x
_atom_site_fract_y
_atom_site_fract_z
Si Si1 0.172835 0.217108 0.271095
Si Si2 0.470872 0.381091 0.319566
Si Si3 0.318506 0.828797 0.267815
Si Si4 0.900758 0.802851 0.265225
Si Si5 0.887208 0.624827 0.320573
Si Si6 0.540794 0.122222 0.264671
Si Si7 0.469946 0.157305 0.602062
Si Si8 0.992069 0.976914 0.349000
O O1 0.085564 0.243713 0.459657
O O2 0.366367 0.209692 0.183038
O O3 0.100686 0.306165 0.997418
O O4 0.148382 0.091161 0.474752
O O5 0.623538 0.306746 0.467373
O O6 0.300746 0.389761 0.513607
O O7 0.450598 0.295165 0.347390
O O8 0.500000 0.500000 0.000000
O O9 0.150809 0.888485 0.346436
O O10 0.338950 0.852214 0.010641
O O11 0.456042 0.877480 0.192596
O O12 0.924438 0.706217 0.292507
O O13 0.709708 0.866816 0.252094
O O14 0.004056 0.900845 0.978152
O O15 0.000000 0.500000 0.500000
O O16 0.586187 0.120751 0.436923
O O17 0.500000 0.000000 0.500000
O O18 0.000000 0.000000 0.500000
#
# Coordination Sequence:
#
# PCOD9015429 Si02
#       8
#     2   2   2   2   2   2   2   2
#     4  11  23  42  61  95 129 159 213 259 308 382
#     4   9  20  40  63  86 120 157 209 260 296 362
#     4  10  22  40  60  88 124 157 209 247 311 364
#     4  10  21  42  62  92 127 163 206 259 308 373
#     4  11  23  41  67  89 123 171 209 257 318 364
#     4  11  21  37  66  90 119 164 204 249 309 372
#     4   8  20  37  63  86 117 156 207 250 301 358
#     4  12  25  38  63  94 134 168 197 257 325 372
#
# _framework density 20.937916999999999
#
# number of rings (size 3 to 8) (size 9 to 14) (size 15 to 20)
#    0.750    1.000    2.500    1.875    3.500    1.500 
#    0.000    0.625    0.000    0.000    0.000    0.000 
#    0.000    0.000    0.000    0.000    0.000    0.000 
#
# Total GULP energy -89287.891754 kJ/mol
# GULP energy per Si atom -5580.493235 kJ/mol
# Density = 2.089026 g / cm^3
# Si number density = 20.937917 Si / 1000 Ang^3
#
#
#
# Elastic Constant Matrix: (Units=GPa)
#
#
# Indices 1 2 3 4 5 6 
#
# 1 73.7532 27.6117 34.4301 6.8357 4.5565 1.3826
# 2 27.6117 111.9648 61.0436 8.8726 24.9060 -7.2141
# 3 34.4301 61.0436 152.3233 -1.9255 15.3358 1.7635
# 4 6.8357 8.8726 -1.9255 37.6427 3.3231 8.7357
# 5 4.5565 24.9060 15.3358 3.3231 29.9276 5.6891
# 6 1.3826 -7.2141 1.7635 8.7357 5.6891 26.2667
#
#
#
# Elastic Compliance Matrix: (Units=1/GPa)
#
#
# Indices 1 2 3 4 5 6 
#
# 1 0.015968 -0.002711 -0.002708 -0.002315 0.001658 -0.000992
# 2 -0.002711 0.015549 -0.004636 -0.004417 -0.011304 0.008642
# 3 -0.002708 -0.004636 0.009120 0.002669 -0.000207 -0.002586
# 4 -0.002315 -0.004417 0.002669 0.030777 0.001492 -0.011830
# 5 0.001658 -0.011304 -0.000207 0.001492 0.045063 -0.013434
# 6 -0.000992 0.008642 -0.002586 -0.011830 -0.013434 0.047514
#
#
# Mechanical properties :
#
#
# Convention : Reuss Voigt Hill
#
# Bulk Modulus (GPa) = 48.71654 64.91246 56.81450
# Shear Modulus (GPa) = 26.18569 33.09779 29.64174
#
# Velocity S-wave (km/s) = 3.54027 3.98019 3.76666
# Velocity P-wave (km/s) = 6.32685 7.22442 6.79048
#
# Compressibility (1/GPa) = 0.02052691
#
# Stress axis : x y z
#
# Youngs Moduli (GPa) = 62.62331 64.31277 109.65426
#
# Poissons Ratio (x) = 0.17436 0.29691
# Poissons Ratio (y) = 0.16978 0.50839
# Poissons Ratio (z) = 0.16956 0.29817
#
# Static dielectric constant tensor:
#      x y z
#    x 1.849740 -0.010140 0.014710 
#    y -0.010140 1.777600 0.045710 
#    z 0.014710 0.045710 1.764790 
# 
# From -- ./inp_files/282610.got.cif
#   From: 2010.05.17/outbox.cif.g08.bks.cpg/sg2_142_cif.got.tgz:282610.got - 2010.06.03 11:33:40.
