data_PCOD9015017
_publ_section_title
;
Structure prediction by ZEFSAII (Michael W. Deem and Ramdas Pophale) SiO2 
 PCOD9015017
Probable space group: P -1
;
_chemical_formula_sum "Si O2"
_cell_formula_units_Z 14
_cell_length_a 7.702634
_cell_length_b 12.563566
_cell_length_c 12.651083
_cell_angle_alpha 37.964747
_cell_angle_beta 121.957917
_cell_angle_gamma 112.975690
_cell_volume 638.145226
_symmetry_space_group_name_H-M "P -1"
_symmetry_group_IT_number 2
_symmetry_cell_setting 'triclinic'
loop_
_space_group_symop_operation_xyz
x,y,z
-x,-y,-z
loop_
_atom_site_type_symbol
_atom_site_label
_atom_site_fract_x
_atom_site_fract_y
_atom_site_fract_z
Si Si1 0.319697 0.881005 0.566462
Si Si2 0.847430 0.650768 0.287551
Si Si3 0.787331 0.411738 0.108362
Si Si4 0.602360 0.490843 0.758982
Si Si5 0.203542 0.174427 0.460929
Si Si6 0.021505 0.691834 0.078660
Si Si7 0.932087 0.918777 0.282411
O O1 0.360191 0.693645 0.779971
O O2 0.162313 0.855875 0.440365
O O3 0.500000 0.000000 0.500000
O O4 0.212939 0.007202 0.521576
O O5 0.620574 0.580625 0.265867
O O6 0.854368 0.812327 0.242414
O O7 0.000000 0.500000 0.500000
O O8 0.931996 0.697820 0.162759
O O9 0.001523 0.295298 0.272576
O O10 0.855092 0.593931 0.032359
O O11 0.699610 0.427035 0.951599
O O12 0.611247 0.698900 0.596809
O O13 0.761831 0.418485 0.777019
O O14 0.196147 0.117971 0.624673
O O15 0.059489 0.880248 0.898819
#
# Coordination Sequence:
#
# PCOD9015017 Si02
#       7
#     2   2   2   2   2   2   2
#     4  11  23  37  67 102 132 167 215 275 335 391
#     4  12  28  45  66  97 137 178 228 271 325 403
#     4  10  21  42  68  99 130 170 221 276 333 385
#     4  11  24  43  72  99 130 183 219 270 341 387
#     4  10  21  41  70  96 133 171 216 277 331 393
#     4  11  24  46  71  97 137 171 225 280 326 392
#     4  11  24  46  65  95 138 175 217 275 329 392
#
# _framework density 21.938579000000001
#
# number of rings (size 3 to 8) (size 9 to 14) (size 15 to 20)
#    0.000    1.143    0.000    9.000    6.000    3.429 
#    0.000    0.000    0.000    0.000    0.000    0.000 
#    0.000    0.000    0.000    0.000    0.000    0.000 
#
# Total GULP energy -78368.516620 kJ/mol
# GULP energy per Si atom -5597.751187 kJ/mol
# Density = 2.188865 g / cm^3
# Si number density = 21.938579 Si / 1000 Ang^3
#
#
#
# Elastic Constant Matrix: (Units=GPa)
#
#
# Indices 1 2 3 4 5 6 
#
# 1 99.3178 52.7244 42.1964 13.0306 -19.2412 14.2392
# 2 52.7244 176.2169 70.3114 -3.8320 -10.4808 13.8197
# 3 42.1964 70.3114 87.9903 -17.7965 -24.9844 23.3140
# 4 13.0306 -3.8320 -17.7965 41.2223 1.2497 -9.7939
# 5 -19.2412 -10.4808 -24.9844 1.2497 26.8583 -12.6047
# 6 14.2392 13.8197 23.3140 -9.7939 -12.6047 27.4897
#
#
#
# Elastic Compliance Matrix: (Units=1/GPa)
#
#
# Indices 1 2 3 4 5 6 
#
# 1 0.016086 -0.002278 -0.005468 -0.008665 0.004212 -0.003705
# 2 -0.002278 0.009296 -0.008374 -0.001754 -0.005495 0.000464
# 3 -0.005468 -0.008374 0.029415 0.011708 0.016804 -0.006029
# 4 -0.008665 -0.001754 0.011708 0.034311 0.007644 0.011170
# 5 0.004212 -0.005495 0.016804 0.007644 0.061472 0.017239
# 6 -0.003705 0.000464 -0.006029 0.011170 0.017239 0.055060
#
#
# Mechanical properties :
#
#
# Convention : Reuss Voigt Hill
#
# Bulk Modulus (GPa) = 44.33360 77.10992 60.72176
# Shear Modulus (GPa) = 20.37487 32.33359 26.35423
#
# Velocity S-wave (km/s) = 3.05080 3.84321 3.46970
# Velocity P-wave (km/s) = 5.71505 7.41067 6.61739
#
# Compressibility (1/GPa) = 0.02255625
#
# Stress axis : x y z
#
# Youngs Moduli (GPa) = 62.16762 107.56884 33.99588
#
# Poissons Ratio (x) = 0.24507 0.18590
# Poissons Ratio (y) = 0.14164 0.28468
# Poissons Ratio (z) = 0.33995 0.90077
#
# Static dielectric constant tensor:
#      x y z
#    x 1.912500 -0.016300 -0.008120 
#    y -0.016300 1.772820 -0.022540 
#    z -0.008120 -0.022540 1.795050 
# 
# From -- ./inp_files/238531.got.cif
#   From: 2010.05.17/outbox.cif.g08.bks.cpg/sg2_120_cif.got.tgz:238531.got - 2010.06.03 11:33:40.
