data_PCOD9015677
_publ_section_title
;
Structure prediction by ZEFSAII (Michael W. Deem and Ramdas Pophale) SiO2 
 PCOD9015677
Probable space group: P -1
;
_chemical_formula_sum "Si O2"
_cell_formula_units_Z 13
_cell_length_a 9.862911
_cell_length_b 9.090562
_cell_length_c 11.058461
_cell_angle_alpha 130.665019
_cell_angle_beta 55.884626
_cell_angle_gamma 131.865024
_cell_volume 545.984556
_symmetry_space_group_name_H-M "P -1"
_symmetry_group_IT_number 2
_symmetry_cell_setting 'triclinic'
loop_
_space_group_symop_operation_xyz
x,y,z
-x,-y,-z
loop_
_atom_site_type_symbol
_atom_site_label
_atom_site_fract_x
_atom_site_fract_y
_atom_site_fract_z
Si Si1 0.928980 0.912852 0.239497
Si Si2 0.888346 0.559674 0.907163
Si Si3 0.159393 0.375800 0.651178
Si Si4 0.236525 0.344105 0.223065
Si Si5 0.485939 0.212081 0.580722
Si Si6 0.429420 0.739942 0.909271
Si Si7 0.500000 0.500000 0.500000
O O1 0.940828 0.834229 0.326085
O O2 0.707085 0.816080 0.278834
O O3 0.001747 0.776426 0.048305
O O4 0.043199 0.164624 0.281300
O O5 0.796287 0.635168 0.890696
O O6 0.025200 0.473747 0.741717
O O7 0.741549 0.376639 0.973846
O O8 0.349338 0.574362 0.738534
O O9 0.284297 0.349783 0.474591
O O10 0.325062 0.591555 0.357129
O O11 0.397907 0.279477 0.133280
O O12 0.472290 0.279948 0.486355
O O13 0.500000 0.000000 0.500000
O O14 0.500000 0.000000 0.000000
#
# Coordination Sequence:
#
# PCOD9015677 Si02
#       7
#     2   2   2   2   2   2   1
#     4  10  22  43  66  97 136 171 220 283 335 407
#     4  11  22  39  66 103 136 166 220 283 345 402
#     4  10  21  42  64  93 134 178 221 278 334 404
#     4  12  23  42  67 102 135 173 224 282 341 404
#     4  11  26  47  68  95 140 181 232 285 328 404
#     4  11  21  38  67  97 135 175 219 275 345 408
#     4  10  22  48  68  88 136 186 226 276 340 392
#
# _framework density 23.810199000000001
#
# number of rings (size 3 to 8) (size 9 to 14) (size 15 to 20)
#    0.000    1.231    4.615    4.615    2.154    1.846 
#    2.769    1.538    0.000    0.000    0.000    0.000 
#    0.000    0.000    0.000    0.000    0.000    0.000 
#
# Total GULP energy -72426.074748 kJ/mol
# GULP energy per Si atom -5571.236519 kJ/mol
# Density = 2.375601 g / cm^3
# Si number density = 23.810199 Si / 1000 Ang^3
#
#
#
# Elastic Constant Matrix: (Units=GPa)
#
#
# Indices 1 2 3 4 5 6 
#
# 1 94.8237 46.5701 26.2834 -8.2405 -6.5763 -21.5902
# 2 46.5701 194.0674 45.7550 26.0730 4.8119 -11.1121
# 3 26.2834 45.7550 38.0224 -2.6560 -6.0751 -12.3282
# 4 -8.2405 26.0730 -2.6560 34.2835 -1.0399 -13.2847
# 5 -6.5763 4.8119 -6.0751 -1.0399 35.0578 7.0127
# 6 -21.5902 -11.1121 -12.3282 -13.2847 7.0127 43.3172
#
#
#
# Elastic Compliance Matrix: (Units=1/GPa)
#
#
# Indices 1 2 3 4 5 6 
#
# 1 0.016568 -0.004538 -0.001782 0.011109 0.001811 0.009701
# 2 -0.004538 0.010994 -0.013845 -0.013292 -0.003784 -0.006846
# 3 -0.001782 -0.013845 0.051836 0.020258 0.008107 0.015214
# 4 0.011109 -0.013292 0.020258 0.052698 0.004310 0.023357
# 5 0.001811 -0.003784 0.008107 0.004310 0.031215 -0.001493
# 6 0.009701 -0.006846 0.015214 0.023357 -0.001493 0.037899
#
#
# Mechanical properties :
#
#
# Convention : Reuss Voigt Hill
#
# Bulk Modulus (GPa) = 25.59611 62.68116 44.13864
# Shear Modulus (GPa) = 19.64157 36.41870 28.03013
#
# Velocity S-wave (km/s) = 2.87526 3.91518 3.43480
# Velocity P-wave (km/s) = 4.66865 6.84256 5.85734
#
# Compressibility (1/GPa) = 0.03906843
#
# Stress axis : x y z
#
# Youngs Moduli (GPa) = 60.35721 90.96126 19.29154
#
# Poissons Ratio (x) = 0.41276 0.03437
# Poissons Ratio (y) = 0.27389 0.26710
# Poissons Ratio (z) = 0.10753 1.25940
#
# Static dielectric constant tensor:
#      x y z
#    x 1.887010 -0.103730 0.324800 
#    y -0.103730 1.757150 0.313470 
#    z 0.324800 0.313470 1.308110 
# 
# From -- ./inp_files/160348.got.cif
#   From: 2010.05.17/outbox.cif.g08.bks.cpg/sg2_81_cif.got.tgz:160348.got - 2010.06.03 11:33:40.
