data_PCOD9015860
_publ_section_title
;
Structure prediction by ZEFSAII (Michael W. Deem and Ramdas Pophale) SiO2 
 PCOD9015860
Probable space group: P -1
;
_chemical_formula_sum "Si O2"
_cell_formula_units_Z 12
_cell_length_a 6.859799
_cell_length_b 9.810583
_cell_length_c 11.728837
_cell_angle_alpha 78.725078
_cell_angle_beta 43.583574
_cell_angle_gamma 99.230491
_cell_volume 477.463325
_symmetry_space_group_name_H-M "P -1"
_symmetry_group_IT_number 2
_symmetry_cell_setting 'triclinic'
loop_
_space_group_symop_operation_xyz
x,y,z
-x,-y,-z
loop_
_atom_site_type_symbol
_atom_site_label
_atom_site_fract_x
_atom_site_fract_y
_atom_site_fract_z
Si Si1 0.354896 0.698185 0.406613
Si Si2 0.506761 0.163849 0.439644
Si Si3 0.365193 0.014120 0.929635
Si Si4 0.602719 0.496226 0.769525
Si Si5 0.139622 0.200514 0.124711
Si Si6 0.556787 0.787791 0.779353
O O1 0.528287 0.758003 0.443494
O O2 0.424418 0.843532 0.268023
O O3 0.458093 0.581182 0.316842
O O4 0.978608 0.602962 0.602293
O O5 0.310043 0.155045 0.412868
O O6 0.867500 0.254324 0.227442
O O7 0.500000 0.000000 0.500000
O O8 0.324124 0.859066 0.908100
O O9 0.096265 0.063773 0.076981
O O10 0.500000 0.000000 0.000000
O O11 0.530888 0.652531 0.067902
O O12 0.436805 0.604265 0.850349
O O13 0.178023 0.155134 0.244113
#
# Coordination Sequence:
#
# PCOD9015860 Si02
#       6
#     2   2   2   2   2   2
#     4  10  21  42  65  94 131 163 215 259 317 374
#     4  12  25  40  67  97 130 163 213 268 312 376
#     4   9  20  39  65  93 122 169 214 255 309 378
#     4  10  22  42  69  90 129 175 204 265 313 377
#     4  10  23  44  64  91 133 168 211 258 318 376
#     4  11  22  39  67  93 124 170 212 255 319 370
#
# _framework density 25.132821
#
# number of rings (size 3 to 8) (size 9 to 14) (size 15 to 20)
#    0.000    1.667    3.333    0.500    0.000    6.000 
#    0.000    0.000    0.000    0.000    0.000    0.000 
#    0.000    0.000    0.000    0.000    0.000    0.000 
#
# Total GULP energy -67018.115379 kJ/mol
# GULP energy per Si atom -5584.842948 kJ/mol
# Density = 2.507562 g / cm^3
# Si number density = 25.132821 Si / 1000 Ang^3
#
#
#
# Elastic Constant Matrix: (Units=GPa)
#
#
# Indices 1 2 3 4 5 6 
#
# 1 78.4710 29.0869 46.3503 7.1042 25.4510 2.1071
# 2 29.0869 174.8200 67.2243 53.9555 15.0140 2.9885
# 3 46.3503 67.2243 122.5505 9.5330 26.4273 23.6945
# 4 7.1042 53.9555 9.5330 66.1700 12.0228 0.4572
# 5 25.4510 15.0140 26.4273 12.0228 48.2732 14.2121
# 6 2.1071 2.9885 23.6945 0.4572 14.2121 26.4282
#
#
#
# Elastic Compliance Matrix: (Units=1/GPa)
#
#
# Indices 1 2 3 4 5 6 
#
# 1 0.019966 0.000053 -0.007552 0.000573 -0.009590 0.010320
# 2 0.000053 0.010235 -0.005964 -0.007668 0.000823 0.003876
# 3 -0.007552 -0.005964 0.016697 0.003385 -0.000117 -0.013689
# 4 0.000573 -0.007668 0.003385 0.021771 -0.005263 0.000240
# 5 -0.009590 0.000823 -0.000117 -0.005263 0.031645 -0.016150
# 6 0.010320 0.003876 -0.013689 0.000240 -0.016150 0.057531
#
#
# Mechanical properties :
#
#
# Convention : Reuss Voigt Hill
#
# Bulk Modulus (GPa) = 50.07750 73.46272 61.77011
# Shear Modulus (GPa) = 26.11942 43.71963 34.91953
#
# Velocity S-wave (km/s) = 3.22725 4.17531 3.73151
# Velocity P-wave (km/s) = 5.81852 7.24828 6.57239
#
# Compressibility (1/GPa) = 0.01996905
#
# Stress axis : x y z
#
# Youngs Moduli (GPa) = 50.08431 97.70751 59.89272
#
# Poissons Ratio (x) = -0.00513 0.45233
# Poissons Ratio (y) = -0.00263 0.35722
# Poissons Ratio (z) = 0.37825 0.58277
#
# Static dielectric constant tensor:
#      x y z
#    x 2.019390 0.007700 -0.028210 
#    y 0.007700 1.973100 -0.014380 
#    z -0.028210 -0.014380 2.073750 
# 
# From -- ./inp_files/149586.got.cif
#   From: 2010.05.17/outbox.cif.g08.bks.cpg/sg2_75_cif.got.tgz:149586.got - 2010.06.03 11:33:40.
