data_PCOD9015889
_publ_section_title
;
Structure prediction by ZEFSAII (Michael W. Deem and Ramdas Pophale) SiO2 
 PCOD9015889
Probable space group: P -1
;
_chemical_formula_sum "Si O2"
_cell_formula_units_Z 15
_cell_length_a 7.612448
_cell_length_b 8.344234
_cell_length_c 18.079388
_cell_angle_alpha 59.800196
_cell_angle_beta 114.666326
_cell_angle_gamma 141.975134
_cell_volume 610.927289
_symmetry_space_group_name_H-M "P -1"
_symmetry_group_IT_number 2
_symmetry_cell_setting 'triclinic'
loop_
_space_group_symop_operation_xyz
x,y,z
-x,-y,-z
loop_
_atom_site_type_symbol
_atom_site_label
_atom_site_fract_x
_atom_site_fract_y
_atom_site_fract_z
Si Si1 0.308777 0.588928 0.437482
Si Si2 0.931313 0.728281 0.757731
Si Si3 0.134653 0.903415 0.070303
Si Si4 0.432369 0.634414 0.694344
Si Si5 0.204321 0.250423 0.606668
Si Si6 0.914003 0.358131 0.749469
Si Si7 0.785941 0.331510 0.070131
Si Si8 0.500000 0.000000 0.500000
O O1 0.074869 0.304602 0.510579
O O2 0.496990 0.591712 0.416695
O O3 0.189298 0.658899 0.345730
O O4 0.468704 0.803977 0.481339
O O5 0.679282 0.674833 0.757272
O O6 0.824175 0.466096 0.760298
O O7 0.148672 0.809260 0.839054
O O8 0.059815 0.951740 0.664995
O O9 0.451729 0.105553 0.045195
O O10 0.180288 0.895016 0.167712
O O11 0.899871 0.584226 0.080232
O O12 0.000000 0.000000 0.000000
O O13 0.248411 0.376578 0.664404
O O14 0.250313 0.582635 0.741974
O O15 0.530757 0.871688 0.604947
O O16 0.000000 0.500000 0.000000
#
# Coordination Sequence:
#
# PCOD9015889 Si02
#       8
#     2   2   2   2   2   2   2   1
#     4  10  21  42  65  95 143 179 241 297 362 431
#     4  11  25  44  70  99 145 182 248 294 375 426
#     4  11  26  50  78 112 152 190 250 307 383 449
#     4  11  25  41  65 104 136 189 245 299 360 442
#     4  10  22  41  66  95 134 187 234 296 357 430
#     4  11  25  44  71 100 145 187 243 304 372 437
#     4  11  26  48  80 110 151 194 244 310 379 454
#     4  10  24  40  62 102 140 190 248 294 370 430
#
# _framework density 24.552841000000001
#
# number of rings (size 3 to 8) (size 9 to 14) (size 15 to 20)
#    0.000    1.333    1.333    2.400    7.467    3.733 
#    0.000    0.000    0.000    0.000    0.000    0.000 
#    0.000    0.000    0.000    0.000    0.000    0.000 
#
# Total GULP energy -83616.355287 kJ/mol
# GULP energy per Si atom -5574.423686 kJ/mol
# Density = 2.449696 g / cm^3
# Si number density = 24.552841 Si / 1000 Ang^3
#
#
#
# Elastic Constant Matrix: (Units=GPa)
#
#
# Indices 1 2 3 4 5 6 
#
# 1 95.5003 12.9945 43.9673 -1.1434 16.1882 2.8469
# 2 12.9945 61.4272 23.1393 -7.2708 11.6922 -1.7597
# 3 43.9673 23.1393 171.4793 -16.9021 24.2467 1.4556
# 4 -1.1434 -7.2708 -16.9021 27.1680 -1.2511 2.8265
# 5 16.1882 11.6922 24.2467 -1.2511 43.4045 -5.6717
# 6 2.8469 -1.7597 1.4556 2.8265 -5.6717 32.7728
#
#
#
# Elastic Compliance Matrix: (Units=1/GPa)
#
#
# Indices 1 2 3 4 5 6 
#
# 1 0.012431 -0.001248 -0.002730 -0.001500 -0.003003 -0.001416
# 2 -0.001248 0.018157 -0.001244 0.003848 -0.003596 0.000184
# 3 -0.002730 -0.001244 0.007528 0.004210 -0.002864 -0.001023
# 4 -0.001500 0.003848 0.004210 0.040683 -0.002144 -0.003730
# 5 -0.003003 -0.003596 -0.002864 -0.002144 0.027334 0.005110
# 6 -0.001416 0.000184 -0.001023 -0.003730 0.005110 0.031898
#
#
# Mechanical properties :
#
#
# Convention : Reuss Voigt Hill
#
# Bulk Modulus (GPa) = 36.13675 54.28988 45.21332
# Shear Modulus (GPa) = 31.70587 37.22279 34.46433
#
# Velocity S-wave (km/s) = 3.59741 3.89784 3.75064
# Velocity P-wave (km/s) = 5.65730 6.51284 6.10008
#
# Compressibility (1/GPa) = 0.02767266
#
# Stress axis : x y z
#
# Youngs Moduli (GPa) = 80.44249 55.07459 132.83439
#
# Poissons Ratio (x) = 0.06872 0.36266
# Poissons Ratio (y) = 0.10037 0.16525
# Poissons Ratio (z) = 0.21962 0.06851
#
# Static dielectric constant tensor:
#      x y z
#    x 1.901450 0.008210 0.005230 
#    y 0.008210 1.919920 0.003560 
#    z 0.005230 0.003560 2.042690 
# 
# From -- ./inp_files/555998.got.cif
#   From: 2010.05.17/outbox.cif.g08.bks.cpg/sg2_278_cif.got.tgz:555998.got - 2010.06.03 11:33:40.
