data_PCOD9015966
_publ_section_title
;
Structure prediction by ZEFSAII (Michael W. Deem and Ramdas Pophale) SiO2 
 PCOD9015966
Probable space group: P -1
;
_chemical_formula_sum "Si O2"
_cell_formula_units_Z 14
_cell_length_a 14.096058
_cell_length_b 9.272668
_cell_length_c 8.408391
_cell_angle_alpha 119.091211
_cell_angle_beta 54.537172
_cell_angle_gamma 83.291072
_cell_volume 647.829426
_symmetry_space_group_name_H-M "P -1"
_symmetry_group_IT_number 2
_symmetry_cell_setting 'triclinic'
loop_
_space_group_symop_operation_xyz
x,y,z
-x,-y,-z
loop_
_atom_site_type_symbol
_atom_site_label
_atom_site_fract_x
_atom_site_fract_y
_atom_site_fract_z
Si Si1 0.887297 0.086107 0.518199
Si Si2 0.066018 0.288619 0.917437
Si Si3 0.380379 0.079330 0.523041
Si Si4 0.621774 0.630625 0.562310
Si Si5 0.638923 0.391278 0.146268
Si Si6 0.574028 0.314617 0.709312
Si Si7 0.831257 0.333943 0.409050
O O1 0.901273 0.222634 0.447685
O O2 0.899126 0.894497 0.328879
O O3 0.746108 0.242517 0.833303
O O4 0.000000 0.000000 0.500000
O O5 0.216155 0.222701 0.813639
O O6 0.000000 0.500000 0.000000
O O7 0.957420 0.294266 0.152316
O O8 0.390059 0.192245 0.425066
O O9 0.500000 0.000000 0.500000
O O10 0.403002 0.875536 0.333244
O O11 0.701259 0.433158 0.262392
O O12 0.469142 0.669986 0.746638
O O13 0.710314 0.565419 0.604781
O O14 0.537587 0.609259 0.283404
O O15 0.722489 0.262229 0.467132
O O16 0.500000 0.500000 0.000000
#
# Coordination Sequence:
#
# PCOD9015966 Si02
#       7
#     2   2   2   2   2   2   2
#     4  12  26  43  73 102 134 188 243 289 344 429
#     4  12  26  48  70 101 149 185 236 293 356 418
#     4  12  24  41  71 106 136 181 236 291 343 416
#     4  10  22  40  71 100 139 185 229 289 360 418
#     4  10  21  42  66 101 140 178 236 285 348 425
#     4  11  21  42  71  98 136 179 228 293 348 412
#     4  11  23  44  71  96 137 191 231 281 359 424
#
# _framework density 21.610627000000001
#
# number of rings (size 3 to 8) (size 9 to 14) (size 15 to 20)
#    0.000    0.857    5.714    1.286    0.000    1.143 
#    2.571    2.857    0.000    0.000    0.000    0.000 
#    0.000    0.000    0.000    0.000    0.000    0.000 
#
# Total GULP energy -77951.117643 kJ/mol
# GULP energy per Si atom -5567.936974 kJ/mol
# Density = 2.156144 g / cm^3
# Si number density = 21.610627 Si / 1000 Ang^3
#
#
#
# Elastic Constant Matrix: (Units=GPa)
#
#
# Indices 1 2 3 4 5 6 
#
# 1 108.4979 57.6085 28.5613 0.6106 -28.2541 -33.8449
# 2 57.6085 232.1522 80.1197 -4.3307 -9.1880 -12.7011
# 3 28.5613 80.1197 110.3396 -13.5201 -18.6175 6.5450
# 4 0.6106 -4.3307 -13.5201 22.5652 -4.1482 -3.0026
# 5 -28.2541 -9.1880 -18.6175 -4.1482 31.6389 1.5705
# 6 -33.8449 -12.7011 6.5450 -3.0026 1.5705 35.5424
#
#
#
# Elastic Compliance Matrix: (Units=1/GPa)
#
#
# Indices 1 2 3 4 5 6 
#
# 1 0.021730 -0.003230 -0.000993 0.003970 0.017446 0.019285
# 2 -0.003230 0.006633 -0.004996 -0.002382 -0.004220 0.000200
# 3 -0.000993 -0.004996 0.015843 0.009424 0.008480 -0.005227
# 4 0.003970 -0.002382 0.009424 0.052834 0.015078 0.004991
# 5 0.017446 -0.004220 0.008480 0.015078 0.052307 0.012506
# 6 0.019285 0.000200 -0.005227 0.004991 0.012506 0.047403
#
#
# Mechanical properties :
#
#
# Convention : Reuss Voigt Hill
#
# Bulk Modulus (GPa) = 38.80834 87.06316 62.93575
# Shear Modulus (GPa) = 22.34378 36.92932 29.63655
#
# Velocity S-wave (km/s) = 3.21896 4.13831 3.70724
# Velocity P-wave (km/s) = 5.64026 7.95040 6.89280
#
# Compressibility (1/GPa) = 0.02576766
#
# Stress axis : x y z
#
# Youngs Moduli (GPa) = 46.01979 150.77008 63.11834
#
# Poissons Ratio (x) = 0.48696 0.06270
# Poissons Ratio (y) = 0.14863 0.31533
# Poissons Ratio (z) = 0.04571 0.75322
#
# Static dielectric constant tensor:
#      x y z
#    x 1.966450 -0.072810 -0.022580 
#    y -0.072810 1.832700 -0.005700 
#    z -0.022580 -0.005700 1.827690 
# 
# From -- ./inp_files/296331.got.cif
#   From: 2010.05.17/outbox.cif.g08.bks.cpg/sg2_149_cif.got.tgz:296331.got - 2010.06.03 11:33:40.
