data_PCOD9015043
_publ_section_title
;
Structure prediction by ZEFSAII (Michael W. Deem and Ramdas Pophale) SiO2 
 PCOD9015043
Probable space group: P -1
;
_chemical_formula_sum "Si O2"
_cell_formula_units_Z 12
_cell_length_a 5.399294
_cell_length_b 11.369193
_cell_length_c 10.919044
_cell_angle_alpha 120.668689
_cell_angle_beta 61.771429
_cell_angle_gamma 115.171479
_cell_volume 492.743788
_symmetry_space_group_name_H-M "P -1"
_symmetry_group_IT_number 2
_symmetry_cell_setting 'triclinic'
loop_
_space_group_symop_operation_xyz
x,y,z
-x,-y,-z
loop_
_atom_site_type_symbol
_atom_site_label
_atom_site_fract_x
_atom_site_fract_y
_atom_site_fract_z
Si Si1 0.222557 0.612928 0.236502
Si Si2 0.693934 0.410856 0.339928
Si Si3 0.386198 0.110793 0.247788
Si Si4 0.313147 0.108756 0.980551
Si Si5 0.824486 0.085143 0.499490
Si Si6 0.602959 0.415052 0.071626
O O1 0.198434 0.764877 0.363947
O O2 0.517880 0.562698 0.150753
O O3 0.021271 0.500927 0.316047
O O4 0.166310 0.598527 0.095203
O O5 0.500000 0.500000 0.500000
O O6 0.596573 0.251825 0.328188
O O7 0.651646 0.406093 0.200059
O O8 0.428692 0.120958 0.098245
O O9 0.053586 0.110501 0.347671
O O10 0.482406 0.969390 0.186930
O O11 0.346783 0.271388 0.023401
O O12 0.000000 0.000000 0.000000
O O13 0.500000 0.000000 0.500000
O O14 0.000000 0.000000 0.500000
#
# Coordination Sequence:
#
# PCOD9015043 Si02
#       6
#     2   2   2   2   2   2
#     4  11  24  45  69 100 140 186 240 297 360 433
#     4  11  22  43  67  99 139 180 238 297 363 420
#     4  10  23  42  67 104 136 188 241 295 361 430
#     4  10  21  41  70  98 140 183 237 301 355 432
#     4  12  29  48  73 107 147 194 240 300 365 434
#     4  10  24  42  66 101 133 192 238 298 354 436
#
# _framework density 24.353425000000001
#
# number of rings (size 3 to 8) (size 9 to 14) (size 15 to 20)
#    0.000    1.333    1.667    2.500    7.000    0.667 
#    6.000    0.000    0.000    0.000    0.000    0.000 
#    0.000    0.000    0.000    0.000    0.000    0.000 
#
# Total GULP energy -66953.753746 kJ/mol
# GULP energy per Si atom -5579.479479 kJ/mol
# Density = 2.429800 g / cm^3
# Si number density = 24.353425 Si / 1000 Ang^3
#
#
#
# Elastic Constant Matrix: (Units=GPa)
#
#
# Indices 1 2 3 4 5 6 
#
# 1 64.1095 28.5092 25.6501 15.4460 -23.7636 6.2369
# 2 28.5092 118.7839 51.5702 20.0343 -23.2816 3.1695
# 3 25.6501 51.5702 178.6010 21.6329 -39.7158 6.4959
# 4 15.4460 20.0343 21.6329 50.1184 -5.2247 -10.4956
# 5 -23.7636 -23.2816 -39.7158 -5.2247 32.6759 -4.1644
# 6 6.2369 3.1695 6.4959 -10.4956 -4.1644 35.9545
#
#
#
# Elastic Compliance Matrix: (Units=1/GPa)
#
#
# Indices 1 2 3 4 5 6 
#
# 1 0.023891 -0.002067 0.001768 -0.006476 0.016472 -0.004264
# 2 -0.002067 0.010835 -0.001658 -0.002735 0.003679 -0.000669
# 3 0.001768 -0.001658 0.008352 -0.002767 0.009640 -0.001361
# 4 -0.006476 -0.002735 -0.002767 0.025571 -0.004815 0.008771
# 5 0.016472 0.003679 0.009640 -0.004815 0.056174 0.000177
# 6 -0.004264 -0.000669 -0.001361 0.008771 0.000177 0.031438
#
#
# Mechanical properties :
#
#
# Convention : Reuss Voigt Hill
#
# Bulk Modulus (GPa) = 25.53372 63.66147 44.59759
# Shear Modulus (GPa) = 28.86331 40.80075 34.83203
#
# Velocity S-wave (km/s) = 3.44639 4.09756 3.78600
# Velocity P-wave (km/s) = 5.13266 6.97023 6.12079
#
# Compressibility (1/GPa) = 0.03916390
#
# Stress axis : x y z
#
# Youngs Moduli (GPa) = 41.85705 92.29552 119.72716
#
# Poissons Ratio (x) = 0.19079 -0.21169
# Poissons Ratio (y) = 0.08653 0.19850
# Poissons Ratio (z) = -0.07401 0.15302
#
# Static dielectric constant tensor:
#      x y z
#    x 2.095570 0.028080 0.105590 
#    y 0.028080 2.096180 -0.065230 
#    z 0.105590 -0.065230 1.987380 
# 
# From -- ./inp_files/26238.got.cif
#   From: 2010.05.17/outbox.cif.g08.bks.cpg/sg2_14_cif.got.tgz:26238.got - 2010.06.03 11:33:40.
