data_PCOD9015927
_publ_section_title
;
Structure prediction by ZEFSAII (Michael W. Deem and Ramdas Pophale) SiO2 
 PCOD9015927
Probable space group: P -1
;
_chemical_formula_sum "Si O2"
_cell_formula_units_Z 14
_cell_length_a 11.320076
_cell_length_b 20.377225
_cell_length_c 8.420970
_cell_angle_alpha 32.651945
_cell_angle_beta 65.793666
_cell_angle_gamma 45.137758
_cell_volume 651.321641
_symmetry_space_group_name_H-M "P -1"
_symmetry_group_IT_number 2
_symmetry_cell_setting 'triclinic'
loop_
_space_group_symop_operation_xyz
x,y,z
-x,-y,-z
loop_
_atom_site_type_symbol
_atom_site_label
_atom_site_fract_x
_atom_site_fract_y
_atom_site_fract_z
Si Si1 0.688796 0.345478 0.313951
Si Si2 0.668297 0.296452 0.769793
Si Si3 0.802262 0.703258 0.877963
Si Si4 0.421473 0.938298 0.264841
Si Si5 0.597294 0.074018 0.326710
Si Si6 0.060774 0.019253 0.260408
Si Si7 0.212036 0.449381 0.124250
O O1 0.644847 0.300545 0.587220
O O2 0.843135 0.160684 0.513789
O O3 0.500000 0.500000 0.000000
O O4 0.774829 0.415415 0.181518
O O5 0.500000 0.500000 0.500000
O O6 0.656466 0.171711 0.106071
O O7 0.875609 0.197928 0.909408
O O8 0.619529 0.777914 0.920781
O O9 0.801937 0.622486 0.882001
O O10 0.737255 0.890279 0.525279
O O11 0.021084 0.551310 0.121050
O O12 0.415117 0.964519 0.405546
O O13 0.582906 0.728264 0.561779
O O14 0.217459 0.018718 0.179429
O O15 0.500000 0.000000 0.000000
O O16 0.000000 0.000000 0.500000
#
# Coordination Sequence:
#
# PCOD9015927 Si02
#       7
#     2   2   2   2   2   2   2
#     4  12  25  45  72 105 142 187 241 299 356 432
#     4  12  25  43  73 105 144 189 242 296 364 429
#     4   9  20  38  69  93 138 179 229 287 346 424
#     4  11  24  42  67  99 143 187 236 293 355 427
#     4  10  21  42  66 101 140 184 236 289 358 423
#     4  12  25  46  73 104 147 194 237 300 361 427
#     4  10  21  42  65  98 136 181 233 289 353 419
#
# _framework density 21.494757
#
# number of rings (size 3 to 8) (size 9 to 14) (size 15 to 20)
#    0.000    1.143    2.857    3.857    0.000    8.000 
#    0.000    0.714    0.000    0.000    0.000    0.000 
#    0.000    0.000    0.000    0.000    0.000    0.000 
#
# Total GULP energy -78042.601135 kJ/mol
# GULP energy per Si atom -5574.471510 kJ/mol
# Density = 2.144583 g / cm^3
# Si number density = 21.494757 Si / 1000 Ang^3
#
#
#
# Elastic Constant Matrix: (Units=GPa)
#
#
# Indices 1 2 3 4 5 6 
#
# 1 121.1562 44.4254 57.4242 -17.0248 1.6209 -28.1346
# 2 44.4254 127.2604 59.3356 -17.0729 0.3873 3.7824
# 3 57.4242 59.3356 77.1138 -10.1516 0.3283 4.2676
# 4 -17.0248 -17.0729 -10.1516 54.3141 -5.5361 -0.3623
# 5 1.6209 0.3873 0.3283 -5.5361 53.0133 -13.3413
# 6 -28.1346 3.7824 4.2676 -0.3623 -13.3413 39.4896
#
#
#
# Elastic Compliance Matrix: (Units=1/GPa)
#
#
# Indices 1 2 3 4 5 6 
#
# 1 0.020170 0.000284 -0.015696 0.004034 0.004312 0.017533
# 2 0.000284 0.012509 -0.009547 0.002261 0.000229 0.000134
# 3 -0.015696 -0.009547 0.032547 -0.002313 -0.003681 -0.015050
# 4 0.004034 0.002261 -0.002313 0.020291 0.003030 0.004117
# 5 0.004312 0.000229 -0.003681 0.003030 0.021797 0.010840
# 6 0.017533 0.000134 -0.015050 0.004117 0.010840 0.043128
#
#
# Mechanical properties :
#
#
# Convention : Reuss Voigt Hill
#
# Bulk Modulus (GPa) = 65.33104 71.98898 68.66001
# Shear Modulus (GPa) = 24.33556 40.31973 32.32764
#
# Velocity S-wave (km/s) = 3.36841 4.33574 3.88232
# Velocity P-wave (km/s) = 6.75190 7.65696 7.21863
#
# Compressibility (1/GPa) = 0.01530666
#
# Stress axis : x y z
#
# Youngs Moduli (GPa) = 49.57963 79.94360 30.72525
#
# Poissons Ratio (x) = -0.02273 0.48226
# Poissons Ratio (y) = -0.01410 0.29335
# Poissons Ratio (z) = 0.77820 0.76326
#
# Static dielectric constant tensor:
#      x y z
#    x 1.828950 -0.039170 0.008830 
#    y -0.039170 1.764730 0.020640 
#    z 0.008830 0.020640 1.783810 
# 
# From -- ./inp_files/282622.got.cif
#   From: 2010.05.17/outbox.cif.g08.bks.cpg/sg2_142_cif.got.tgz:282622.got - 2010.06.03 11:33:40.
