data_PCOD9015914
_publ_section_title
;
Structure prediction by ZEFSAII (Michael W. Deem and Ramdas Pophale) SiO2 
 PCOD9015914
Probable space group: P -1
;
_chemical_formula_sum "Si O2"
_cell_formula_units_Z 14
_cell_length_a 14.701218
_cell_length_b 23.255666
_cell_length_c 4.964081
_cell_angle_alpha 94.306214
_cell_angle_beta 95.495793
_cell_angle_gamma 156.860201
_cell_volume 603.371159
_symmetry_space_group_name_H-M "P -1"
_symmetry_group_IT_number 2
_symmetry_cell_setting 'triclinic'
loop_
_space_group_symop_operation_xyz
x,y,z
-x,-y,-z
loop_
_atom_site_type_symbol
_atom_site_label
_atom_site_fract_x
_atom_site_fract_y
_atom_site_fract_z
Si Si1 0.791673 0.539697 0.115531
Si Si2 0.800684 0.424475 0.278636
Si Si3 0.726690 0.728014 0.907914
Si Si4 0.878115 0.115210 0.140307
Si Si5 0.246985 0.888425 0.375117
Si Si6 0.518682 0.283242 0.652831
Si Si7 0.026025 0.942616 0.601355
O O1 0.900921 0.549554 0.319270
O O2 0.014115 0.711777 0.144295
O O3 0.571503 0.442783 0.184160
O O4 0.639740 0.417100 0.792789
O O5 0.560400 0.288396 0.364218
O O6 0.000000 0.500000 0.500000
O O7 0.697869 0.349884 0.925780
O O8 0.875243 0.828048 0.262906
O O9 0.832290 0.836959 0.759157
O O10 0.832715 0.730025 0.820362
O O11 0.837463 0.137964 0.367393
O O12 0.805784 0.011623 0.215339
O O13 0.726657 0.044520 0.807785
O O14 0.500000 0.000000 0.500000
O O15 0.233228 0.110829 0.623453
#
# Coordination Sequence:
#
# PCOD9015914 Si02
#       7
#     2   2   2   2   2   2   2
#     4  10  28  41  68 101 133 169 225 268 335 384
#     4  10  23  43  60  96 131 178 221 261 324 381
#     4  10  22  42  66 101 134 171 216 269 328 392
#     4  10  23  45  66  99 126 180 216 268 332 377
#     4  12  26  46  68  95 133 173 224 276 321 390
#     4  10  23  40  64  97 131 171 215 268 324 386
#     4  10  21  42  65  97 133 169 215 259 328 398
#
# _framework density 23.202964999999999
#
# number of rings (size 3 to 8) (size 9 to 14) (size 15 to 20)
#    1.714    0.000    1.429    1.714    4.000    4.571 
#    0.000    0.000    0.000    0.000    0.000    0.000 
#    0.000    0.000    0.000    0.000    0.000    0.000 
#
# Total GULP energy -78115.481447 kJ/mol
# GULP energy per Si atom -5579.677246 kJ/mol
# Density = 2.315015 g / cm^3
# Si number density = 23.202965 Si / 1000 Ang^3
#
#
#
# Elastic Constant Matrix: (Units=GPa)
#
#
# Indices 1 2 3 4 5 6 
#
# 1 97.9620 16.2103 27.7448 4.0102 11.0333 21.6209
# 2 16.2103 83.5777 25.8675 3.8791 -7.0033 7.2792
# 3 27.7448 25.8675 82.5334 -26.1588 1.1877 7.0137
# 4 4.0102 3.8791 -26.1588 40.8394 -0.1082 2.0895
# 5 11.0333 -7.0033 1.1877 -0.1082 32.1334 -3.2856
# 6 21.6209 7.2792 7.0137 2.0895 -3.2856 15.9323
#
#
#
# Elastic Compliance Matrix: (Units=1/GPa)
#
#
# Indices 1 2 3 4 5 6 
#
# 1 0.017905 -0.000451 -0.004974 -0.003739 -0.008442 -0.023154
# 2 -0.000451 0.014557 -0.005853 -0.004970 0.003309 -0.002128
# 3 -0.004974 -0.005853 0.020202 0.014055 -0.000410 -0.001397
# 4 -0.003739 -0.004970 0.014055 0.034504 -0.000559 -0.003483
# 5 -0.008442 0.003309 -0.000410 -0.000559 0.036567 0.017739
# 6 -0.023154 -0.002128 -0.001397 -0.003483 0.017739 0.099888
#
#
# Mechanical properties :
#
#
# Convention : Reuss Voigt Hill
#
# Bulk Modulus (GPa) = 33.21201 44.85759 39.03480
# Shear Modulus (GPa) = 19.51476 30.73106 25.12291
#
# Velocity S-wave (km/s) = 2.90323 3.64324 3.29408
# Velocity P-wave (km/s) = 5.05797 6.08870 5.59711
#
# Compressibility (1/GPa) = 0.03010959
#
# Stress axis : x y z
#
# Youngs Moduli (GPa) = 55.84900 68.69479 49.50013
#
# Poissons Ratio (x) = 0.03096 0.24621
# Poissons Ratio (y) = 0.02517 0.28972
# Poissons Ratio (z) = 0.27779 0.40206
#
# Static dielectric constant tensor:
#      x y z
#    x 1.929390 -0.011280 0.056210 
#    y -0.011280 1.848560 -0.024110 
#    z 0.056210 -0.024110 1.880520 
# 
# From -- ./inp_files/113127.got.cif
#   From: 2010.05.17/outbox.cif.g08.bks.cpg/sg2_57_cif.got.tgz:113127.got - 2010.06.03 11:33:40.
