data_PCOD9015344
_publ_section_title
;
Structure prediction by ZEFSAII (Michael W. Deem and Ramdas Pophale) SiO2 
 PCOD9015344
Probable space group: P -1
;
_chemical_formula_sum "Si O2"
_cell_formula_units_Z 16
_cell_length_a 11.828867
_cell_length_b 20.157407
_cell_length_c 19.958274
_cell_angle_alpha 20.832119
_cell_angle_beta 155.236652
_cell_angle_gamma 153.300148
_cell_volume 676.241211
_symmetry_space_group_name_H-M "P -1"
_symmetry_group_IT_number 2
_symmetry_cell_setting 'triclinic'
loop_
_space_group_symop_operation_xyz
x,y,z
-x,-y,-z
loop_
_atom_site_type_symbol
_atom_site_label
_atom_site_fract_x
_atom_site_fract_y
_atom_site_fract_z
Si Si1 0.857914 0.651980 0.748164
Si Si2 0.006391 0.298558 0.662200
Si Si3 0.223604 0.646102 0.186202
Si Si4 0.672273 0.088620 0.877271
Si Si5 0.961084 0.088787 0.275985
Si Si6 0.339842 0.350866 0.680381
Si Si7 0.231406 0.147132 0.042240
Si Si8 0.177534 0.758421 0.680974
O O1 0.560374 0.524273 0.677396
O O2 0.853750 0.796819 0.670393
O O3 0.064173 0.741975 0.712437
O O4 0.000000 0.500000 0.000000
O O5 0.044924 0.347558 0.557361
O O6 0.000000 0.500000 0.500000
O O7 0.259560 0.248822 0.888609
O O8 0.784492 0.082673 0.753892
O O9 0.262845 0.770596 0.156709
O O10 0.522898 0.627485 0.338495
O O11 0.002217 0.433491 0.272501
O O12 0.116335 0.761103 0.959491
O O13 0.336557 0.046406 0.723493
O O14 0.933969 0.162652 0.897086
O O15 0.676881 0.871264 0.101816
O O16 0.108522 0.956251 0.437430
O O17 0.499140 0.236748 0.147840
#
# Coordination Sequence:
#
# PCOD9015344 Si02
#       8
#     2   2   2   2   2   2   2   2
#     4  11  18  34  59  88 120 151 191 250 302 351
#     4  10  22  37  61  86 123 164 191 233 304 370
#     4  10  22  40  63  84 118 159 205 255 289 336
#     4  10  21  42  61  84 120 164 204 245 292 347
#     4  11  22  37  63  89 115 159 201 247 300 348
#     4   9  18  34  60  88 114 148 200 245 293 341
#     4  10  24  39  57  89 128 154 193 244 297 361
#     4  11  24  37  58  93 123 151 199 248 299 358
#
# _framework density 23.660197
#
# number of rings (size 3 to 8) (size 9 to 14) (size 15 to 20)
#    0.000    1.750    3.750    2.625    5.250    3.000 
#    0.000    3.125    0.000    0.000    0.000    0.000 
#    0.000    0.000    0.000    0.000    0.000    0.000 
#
# Total GULP energy -89226.082147 kJ/mol
# GULP energy per Si atom -5576.630134 kJ/mol
# Density = 2.360635 g / cm^3
# Si number density = 23.660197 Si / 1000 Ang^3
#
#
#
# Elastic Constant Matrix: (Units=GPa)
#
#
# Indices 1 2 3 4 5 6 
#
# 1 112.4490 32.9424 14.7632 -15.0855 9.2028 -16.7988
# 2 32.9424 107.8989 36.3544 -13.4927 11.7330 -19.4591
# 3 14.7632 36.3544 80.1823 -19.3553 -0.4314 -4.6323
# 4 -15.0855 -13.4927 -19.3553 36.8281 -5.9662 12.3211
# 5 9.2028 11.7330 -0.4314 -5.9662 30.0592 -6.3574
# 6 -16.7988 -19.4591 -4.6323 12.3211 -6.3574 36.2790
#
#
#
# Elastic Compliance Matrix: (Units=1/GPa)
#
#
# Indices 1 2 3 4 5 6 
#
# 1 0.010363 -0.002193 -0.000231 0.002235 -0.001326 0.002601
# 2 -0.002193 0.012932 -0.005510 -0.001331 -0.003656 0.005029
# 3 -0.000231 -0.005510 0.016868 0.008364 0.003459 -0.003143
# 4 0.002235 -0.001331 0.008364 0.036136 0.005012 -0.010005
# 5 -0.001326 -0.003656 0.003459 0.005012 0.036694 0.002595
# 6 0.002601 0.005029 -0.003143 -0.010005 0.002595 0.034917
#
#
# Mechanical properties :
#
#
# Convention : Reuss Voigt Hill
#
# Bulk Modulus (GPa) = 41.16127 52.07225 46.61676
# Shear Modulus (GPa) = 29.09065 35.06461 32.07763
#
# Velocity S-wave (km/s) = 3.51025 3.85386 3.68606
# Velocity P-wave (km/s) = 5.81926 6.46987 6.15317
#
# Compressibility (1/GPa) = 0.02429468
#
# Stress axis : x y z
#
# Youngs Moduli (GPa) = 96.50015 77.32738 59.28283
#
# Poissons Ratio (x) = 0.16960 0.01369
# Poissons Ratio (y) = 0.21165 0.32665
# Poissons Ratio (z) = 0.02229 0.42607
#
# Static dielectric constant tensor:
#      x y z
#    x 1.994250 0.033990 -0.037160 
#    y 0.033990 1.900190 0.002400 
#    z -0.037160 0.002400 2.026640 
# 
# From -- ./inp_files/596232.got.cif
#   From: 2010.05.17/outbox.cif.g08.bks.cpg/sg2_299_cif.got.tgz:596232.got - 2010.06.03 11:33:40.
