data_PCOD9015327
_publ_section_title
;
Structure prediction by ZEFSAII (Michael W. Deem and Ramdas Pophale) SiO2 
 PCOD9015327
Probable space group: P -1
;
_chemical_formula_sum "Si O2"
_cell_formula_units_Z 14
_cell_length_a 16.579842
_cell_length_b 7.017961
_cell_length_c 19.090004
_cell_angle_alpha 91.978863
_cell_angle_beta 158.421894
_cell_angle_gamma 76.101952
_cell_volume 672.983312
_symmetry_space_group_name_H-M "P -1"
_symmetry_group_IT_number 2
_symmetry_cell_setting 'triclinic'
loop_
_space_group_symop_operation_xyz
x,y,z
-x,-y,-z
loop_
_atom_site_type_symbol
_atom_site_label
_atom_site_fract_x
_atom_site_fract_y
_atom_site_fract_z
Si Si1 0.056703 0.837287 0.382170
Si Si2 0.710097 0.980103 0.522608
Si Si3 0.096566 0.239891 0.064285
Si Si4 0.499654 0.016654 0.887406
Si Si5 0.410480 0.757008 0.915215
Si Si6 0.069713 0.931526 0.940287
Si Si7 0.319778 0.318490 0.611466
O O1 0.165390 0.591147 0.500443
O O2 0.276523 0.850103 0.518982
O O3 0.895046 0.051253 0.307995
O O4 0.817700 0.895160 0.136211
O O5 0.800920 0.749750 0.549382
O O6 0.900449 0.941702 0.738943
O O7 0.415937 0.086076 0.314688
O O8 0.993392 0.171168 0.045997
O O9 0.000000 0.500000 0.000000
O O10 0.001720 0.177858 0.916442
O O11 0.455812 0.822985 0.875935
O O12 0.348159 0.171262 0.700503
O O13 0.429176 0.186624 0.899454
O O14 0.500000 0.500000 0.000000
O O15 0.379690 0.777152 0.169389
#
# Coordination Sequence:
#
# PCOD9015327 Si02
#       7
#     2   2   2   2   2   2   2
#     4  10  22  39  63  93 123 163 213 257 312 375
#     4  11  23  39  63  93 122 172 207 252 321 362
#     4  10  22  38  63  92 124 167 207 250 315 365
#     4   9  21  41  61  89 127 160 205 268 305 370
#     4   9  20  40  66  88 125 167 204 260 320 366
#     4  10  21  42  60  90 132 157 209 264 295 375
#     4  11  23  41  63  92 128 164 212 258 313 372
#
# _framework density 20.802894999999999
#
# number of rings (size 3 to 8) (size 9 to 14) (size 15 to 20)
#    0.857    1.143    1.429    1.286    2.000    3.429 
#    2.571    1.429    0.000    0.000    0.000    0.000 
#    0.000    0.000    0.000    0.000    0.000    0.000 
#
# Total GULP energy -78103.012183 kJ/mol
# GULP energy per Si atom -5578.786584 kJ/mol
# Density = 2.075555 g / cm^3
# Si number density = 20.802895 Si / 1000 Ang^3
#
#
#
# Elastic Constant Matrix: (Units=GPa)
#
#
# Indices 1 2 3 4 5 6 
#
# 1 102.7298 48.6225 34.5916 -1.7959 -0.5933 12.2984
# 2 48.6225 153.6328 45.4263 -19.0538 -9.5221 12.6397
# 3 34.5916 45.4263 52.3045 6.3422 -12.3279 -8.9396
# 4 -1.7959 -19.0538 6.3422 37.7480 -2.0171 -4.1828
# 5 -0.5933 -9.5221 -12.3279 -2.0171 17.9388 -1.7227
# 6 12.2984 12.6397 -8.9396 -4.1828 -1.7227 23.2665
#
#
#
# Elastic Compliance Matrix: (Units=1/GPa)
#
#
# Indices 1 2 3 4 5 6 
#
# 1 0.017801 0.000794 -0.018890 0.001730 -0.013485 -0.017786
# 2 0.000794 0.012382 -0.015194 0.007290 -0.004174 -0.011982
# 3 -0.018890 -0.015194 0.062275 -0.012335 0.036818 0.042675
# 4 0.001730 0.007290 -0.012335 0.031810 -0.001357 -0.003995
# 5 -0.013485 -0.004174 0.036818 -0.001357 0.081047 0.029299
# 6 -0.017786 -0.011982 0.042675 -0.003995 0.029299 0.076739
#
#
# Mechanical properties :
#
#
# Convention : Reuss Voigt Hill
#
# Bulk Modulus (GPa) = 38.64437 62.88309 50.76373
# Shear Modulus (GPa) = 13.99542 27.79242 20.89392
#
# Velocity S-wave (km/s) = 2.59658 3.65908 3.17263
# Velocity P-wave (km/s) = 5.25418 6.93870 6.15435
#
# Compressibility (1/GPa) = 0.02587699
#
# Stress axis : x y z
#
# Youngs Moduli (GPa) = 56.17676 80.76539 16.05784
#
# Poissons Ratio (x) = -0.06410 0.30333
# Poissons Ratio (y) = -0.04459 0.24398
# Poissons Ratio (z) = 1.06118 1.22714
#
# Static dielectric constant tensor:
#      x y z
#    x 1.761430 -0.008370 0.012530 
#    y -0.008370 1.758890 0.035250 
#    z 0.012530 0.035250 1.743420 
# 
# From -- ./inp_files/598846.got.cif
#   From: 2010.05.17/outbox.cif.g08.bks.cpg/sg2_300_cif.got.tgz:598846.got - 2010.06.03 11:33:40.
