data_PCOD9015648
_publ_section_title
;
Structure prediction by ZEFSAII (Michael W. Deem and Ramdas Pophale) SiO2 
 PCOD9015648
Probable space group: P -1
;
_chemical_formula_sum "Si O2"
_cell_formula_units_Z 16
_cell_length_a 12.400456
_cell_length_b 17.155750
_cell_length_c 15.097849
_cell_angle_alpha 27.026634
_cell_angle_beta 134.517293
_cell_angle_gamma 150.230316
_cell_volume 686.654596
_symmetry_space_group_name_H-M "P -1"
_symmetry_group_IT_number 2
_symmetry_cell_setting 'triclinic'
loop_
_space_group_symop_operation_xyz
x,y,z
-x,-y,-z
loop_
_atom_site_type_symbol
_atom_site_label
_atom_site_fract_x
_atom_site_fract_y
_atom_site_fract_z
Si Si1 0.792627 0.999093 0.012874
Si Si2 0.604924 0.018966 0.341002
Si Si3 0.908157 0.095067 0.304118
Si Si4 0.461957 0.536027 0.538318
Si Si5 0.828697 0.664580 0.962297
Si Si6 0.215173 0.613672 0.400093
Si Si7 0.396563 0.182952 0.283474
Si Si8 0.222319 0.934772 0.249909
O O1 0.728032 0.145034 0.842227
O O2 0.887857 0.074388 0.891197
O O3 0.599018 0.688096 0.216533
O O4 0.966154 0.112442 0.078361
O O5 0.819298 0.161203 0.256509
O O6 0.394368 0.731733 0.464383
O O7 0.659563 0.005799 0.484790
O O8 0.473816 0.087595 0.207348
O O9 0.683622 0.831029 0.394063
O O10 0.000000 0.000000 0.500000
O O11 0.073238 0.300939 0.112108
O O12 0.500000 0.500000 0.500000
O O13 0.261312 0.504081 0.466862
O O14 0.666948 0.693702 0.829676
O O15 0.661777 0.394970 0.192366
O O16 0.950888 0.368482 0.521791
O O17 0.260236 0.061211 0.235840
#
# Coordination Sequence:
#
# PCOD9015648 Si02
#       8
#     2   2   2   2   2   2   2   2
#     4  11  23  43  67  98 133 169 223 272 336 395
#     4  10  21  42  64  91 130 177 213 271 335 394
#     4  11  23  42  66  89 136 177 216 273 338 392
#     4  11  24  42  67  97 129 175 226 266 328 401
#     4  11  23  40  62  98 130 176 221 273 333 397
#     4  10  23  42  70  96 136 172 212 282 333 389
#     4  11  23  37  66  94 132 173 228 270 327 396
#     4  11  23  40  67 100 132 170 221 278 334 391
#
# _framework density 23.301380999999999
#
# number of rings (size 3 to 8) (size 9 to 14) (size 15 to 20)
#    0.000    1.250    2.500    4.125    1.750    3.500 
#    2.250    0.625    0.000    0.000    0.000    0.000 
#    0.000    0.000    0.000    0.000    0.000    0.000 
#
# Total GULP energy -89234.779432 kJ/mol
# GULP energy per Si atom -5577.173714 kJ/mol
# Density = 2.324835 g / cm^3
# Si number density = 23.301381 Si / 1000 Ang^3
#
#
#
# Elastic Constant Matrix: (Units=GPa)
#
#
# Indices 1 2 3 4 5 6 
#
# 1 174.9322 19.0270 51.6825 3.1260 -23.3085 11.0007
# 2 19.0270 37.9943 7.3836 1.7627 -21.6890 2.9956
# 3 51.6825 7.3836 88.6098 -1.0393 -9.5731 6.8202
# 4 3.1260 1.7627 -1.0393 33.9628 -0.8042 1.9065
# 5 -23.3085 -21.6890 -9.5731 -0.8042 35.1466 -2.6009
# 6 11.0007 2.9956 6.8202 1.9065 -2.6009 29.7152
#
#
#
# Elastic Compliance Matrix: (Units=1/GPa)
#
#
# Indices 1 2 3 4 5 6 
#
# 1 0.007486 -0.001069 -0.003832 -0.000594 0.003139 -0.001471
# 2 -0.001069 0.040994 -0.000054 -0.001368 0.024432 -0.001498
# 3 -0.003832 -0.000054 0.013783 0.000898 0.001074 -0.001703
# 4 -0.000594 -0.001368 0.000898 0.029687 -0.000447 -0.001792
# 5 0.003139 0.024432 0.001074 -0.000447 0.045906 0.000175
# 6 -0.001471 -0.001498 -0.001703 -0.001792 0.000175 0.034870
#
#
# Mechanical properties :
#
#
# Convention : Reuss Voigt Hill
#
# Bulk Modulus (GPa) = 19.10088 50.85805 34.97946
# Shear Modulus (GPa) = 24.98927 34.66114 29.82520
#
# Velocity S-wave (km/s) = 3.27836 3.86101 3.58156
# Velocity P-wave (km/s) = 4.74819 6.46144 5.66990
#
# Compressibility (1/GPa) = 0.05235361
#
# Stress axis : x y z
#
# Youngs Moduli (GPa) = 133.57786 24.39390 72.55525
#
# Poissons Ratio (x) = 0.02608 0.27803
# Poissons Ratio (y) = 0.14279 0.00389
# Poissons Ratio (z) = 0.51187 0.00131
#
# Static dielectric constant tensor:
#      x y z
#    x 1.943210 0.069670 -0.002380 
#    y 0.069670 2.024900 0.001280 
#    z -0.002380 0.001280 1.918830 
# 
# From -- ./inp_files/514934.got.cif
#   From: 2010.05.17/outbox.cif.g08.bks.cpg/sg2_258_cif.got.tgz:514934.got - 2010.06.03 11:33:40.
