data_PCOD9015691
_publ_section_title
;
Structure prediction by ZEFSAII (Michael W. Deem and Ramdas Pophale) SiO2 
 PCOD9015691
Probable space group: P -1
;
_chemical_formula_sum "Si O2"
_cell_formula_units_Z 14
_cell_length_a 10.949826
_cell_length_b 22.488683
_cell_length_c 9.650154
_cell_angle_alpha 137.616549
_cell_angle_beta 30.221675
_cell_angle_gamma 148.854478
_cell_volume 618.643128
_symmetry_space_group_name_H-M "P -1"
_symmetry_group_IT_number 2
_symmetry_cell_setting 'triclinic'
loop_
_space_group_symop_operation_xyz
x,y,z
-x,-y,-z
loop_
_atom_site_type_symbol
_atom_site_label
_atom_site_fract_x
_atom_site_fract_y
_atom_site_fract_z
Si Si1 0.173231 0.483018 0.476208
Si Si2 0.604334 0.706102 0.276070
Si Si3 0.886747 0.702860 0.485229
Si Si4 0.901939 0.150063 0.736947
Si Si5 0.415636 0.090816 0.322113
Si Si6 0.717223 0.497356 0.131894
Si Si7 0.079895 0.760340 0.698542
O O1 0.326487 0.575194 0.361828
O O2 0.464078 0.500218 0.300020
O O3 0.949454 0.349919 0.421975
O O4 0.968133 0.501303 0.803199
O O5 0.584900 0.804728 0.491898
O O6 0.872313 0.746519 0.198533
O O7 0.749867 0.723595 0.013366
O O8 0.902312 0.608499 0.241421
O O9 0.518572 0.620635 0.752283
O O10 0.996746 0.795380 0.418872
O O11 0.091049 0.763967 0.528710
O O12 0.887746 0.040656 0.577328
O O13 0.561030 0.097460 0.042527
O O14 0.652332 0.127580 0.284286
#
# Coordination Sequence:
#
# PCOD9015691 Si02
#       7
#     2   2   2   2   2   2   2
#     4  11  23  42  69  98 132 176 217 268 327 392
#     4  11  22  41  64  94 128 171 216 269 324 390
#     4  10  21  42  64  94 134 167 217 267 331 385
#     4  10  21  44  66  93 119 173 223 271 316 386
#     4  10  23  41  67  90 129 166 224 269 322 384
#     4  10  23  41  67 100 133 170 222 267 322 397
#     4  10  25  39  60  97 135 166 207 273 331 392
#
# _framework density 22.630171000000001
#
# number of rings (size 3 to 8) (size 9 to 14) (size 15 to 20)
#    0.000    1.714    1.429    1.714    6.000    6.286 
#    5.143    0.714    0.000    0.000    0.000    0.000 
#    0.000    0.000    0.000    0.000    0.000    0.000 
#
# Total GULP energy -78166.363881 kJ/mol
# GULP energy per Si atom -5583.311706 kJ/mol
# Density = 2.257866 g / cm^3
# Si number density = 22.630171 Si / 1000 Ang^3
#
#
#
# Elastic Constant Matrix: (Units=GPa)
#
#
# Indices 1 2 3 4 5 6 
#
# 1 82.4049 41.5779 25.9064 -6.9818 17.1849 -3.9686
# 2 41.5779 111.5311 15.5331 -7.7925 19.6982 -8.5201
# 3 25.9064 15.5331 88.0542 13.5273 -4.1432 -5.1330
# 4 -6.9818 -7.7925 13.5273 33.5828 -0.1872 9.7297
# 5 17.1849 19.6982 -4.1432 -0.1872 35.2418 -1.0307
# 6 -3.9686 -8.5201 -5.1330 9.7297 -1.0307 48.3083
#
#
#
# Elastic Compliance Matrix: (Units=1/GPa)
#
#
# Indices 1 2 3 4 5 6 
#
# 1 0.018014 -0.004393 -0.005738 0.005325 -0.007008 -0.001126
# 2 -0.004393 0.011805 -0.001246 0.001986 -0.004560 0.001091
# 3 -0.005738 -0.001246 0.014935 -0.008242 0.005285 0.002668
# 4 0.005325 0.001986 -0.008242 0.036843 -0.004702 -0.007609
# 5 -0.007008 -0.004560 0.005285 -0.004702 0.034964 0.000875
# 6 -0.001126 0.001091 0.002668 -0.007609 0.000875 0.022635
#
#
# Mechanical properties :
#
#
# Convention : Reuss Voigt Hill
#
# Bulk Modulus (GPa) = 45.45550 49.78055 47.61802
# Shear Modulus (GPa) = 29.53635 36.69142 33.11388
#
# Velocity S-wave (km/s) = 3.61664 4.03097 3.82941
# Velocity P-wave (km/s) = 6.12943 6.61136 6.37495
#
# Compressibility (1/GPa) = 0.02199954
#
# Stress axis : x y z
#
# Youngs Moduli (GPa) = 55.51274 84.71173 66.95621
#
# Poissons Ratio (x) = 0.37210 0.38422
# Poissons Ratio (y) = 0.24384 0.08344
# Poissons Ratio (z) = 0.31856 0.10557
#
# Static dielectric constant tensor:
#      x y z
#    x 2.000430 0.040530 -0.091430 
#    y 0.040530 1.839510 -0.003820 
#    z -0.091430 -0.003820 1.871530 
# 
# From -- ./inp_files/229629.got.cif
#   From: 2010.05.17/outbox.cif.g08.bks.cpg/sg2_115_cif.got.tgz:229629.got - 2010.06.03 11:33:40.
