data_PCOD9015044
_publ_section_title
;
Structure prediction by ZEFSAII (Michael W. Deem and Ramdas Pophale) SiO2 
 PCOD9015044
Probable space group: P -1
;
_chemical_formula_sum "Si O2"
_cell_formula_units_Z 16
_cell_length_a 10.546840
_cell_length_b 12.250294
_cell_length_c 6.642751
_cell_angle_alpha 55.122305
_cell_angle_beta 83.234609
_cell_angle_gamma 107.219076
_cell_volume 625.775392
_symmetry_space_group_name_H-M "P -1"
_symmetry_group_IT_number 2
_symmetry_cell_setting 'triclinic'
loop_
_space_group_symop_operation_xyz
x,y,z
-x,-y,-z
loop_
_atom_site_type_symbol
_atom_site_label
_atom_site_fract_x
_atom_site_fract_y
_atom_site_fract_z
Si Si1 0.385747 0.561798 0.004558
Si Si2 0.883955 0.166862 0.453817
Si Si3 0.275973 0.898368 0.791651
Si Si4 0.502797 0.200055 0.570692
Si Si5 0.796136 0.319176 0.632979
Si Si6 0.283955 0.329691 0.577293
Si Si7 0.065161 0.049480 0.719144
Si Si8 0.859085 0.604954 0.100495
O O1 0.338464 0.497818 0.305244
O O2 0.500000 0.500000 0.000000
O O3 0.461251 0.731241 0.736227
O O4 0.255613 0.486795 0.951481
O O5 0.730010 0.116099 0.432458
O O6 0.877983 0.236232 0.595505
O O7 0.935718 0.041337 0.615752
O O8 0.999911 0.290534 0.156856
O O9 0.410368 0.024276 0.745005
O O10 0.157026 0.960763 0.761752
O O11 0.227605 0.740242 0.073323
O O12 0.640947 0.254766 0.625557
O O13 0.405796 0.273268 0.611691
O O14 0.878623 0.489432 0.369165
O O15 0.175287 0.223175 0.540962
O O16 0.208641 0.315483 0.821650
O O17 0.000000 0.000000 0.000000
#
# Coordination Sequence:
#
# PCOD9015044 Si02
#       8
#     2   2   2   2   2   2   2   2
#     4   9  19  39  62  94 131 163 214 271 319 373
#     4  12  25  43  68  99 134 173 221 269 333 391
#     4  11  24  43  67  98 130 179 221 267 333 389
#     4   9  22  43  68  94 133 175 221 274 324 387
#     4  11  25  44  64  96 142 176 216 268 324 403
#     4  10  21  41  70  99 127 169 220 282 322 376
#     4  11  21  43  68  97 132 168 218 280 326 387
#     4  11  24  41  69 100 130 175 220 266 332 390
#
# _framework density 25.568277999999999
#
# number of rings (size 3 to 8) (size 9 to 14) (size 15 to 20)
#    0.000    1.500    2.500    1.875    0.000    7.500 
#    0.000    3.750    0.000    0.000    0.000    0.000 
#    0.000    0.000    0.000    0.000    0.000    0.000 
#
# Total GULP energy -89482.095493 kJ/mol
# GULP energy per Si atom -5592.630968 kJ/mol
# Density = 2.551008 g / cm^3
# Si number density = 25.568278 Si / 1000 Ang^3
#
#
#
# Elastic Constant Matrix: (Units=GPa)
#
#
# Indices 1 2 3 4 5 6 
#
# 1 94.9908 -2.1901 15.1618 -1.5255 15.6219 0.9896
# 2 -2.1901 43.5141 -3.6928 -9.4292 0.6250 0.9652
# 3 15.1618 -3.6928 96.3859 -14.5201 27.5462 4.8718
# 4 -1.5255 -9.4292 -14.5201 40.4870 -9.2337 -2.2185
# 5 15.6219 0.6250 27.5462 -9.2337 27.5316 3.4074
# 6 0.9896 0.9652 4.8718 -2.2185 3.4074 37.9845
#
#
#
# Elastic Compliance Matrix: (Units=1/GPa)
#
#
# Indices 1 2 3 4 5 6 
#
# 1 0.011672 0.000461 0.000024 -0.001035 -0.007035 0.000252
# 2 0.000461 0.024559 0.002036 0.006284 -0.000691 -0.000468
# 3 0.000024 0.002036 0.014868 0.002584 -0.014000 -0.000552
# 4 -0.001035 0.006284 0.002584 0.028778 0.007443 0.000549
# 5 -0.007035 -0.000691 -0.014000 0.007443 0.057167 -0.002697
# 6 0.000252 -0.000468 -0.000552 0.000549 -0.002697 0.026677
#
#
# Mechanical properties :
#
#
# Convention : Reuss Voigt Hill
#
# Bulk Modulus (GPa) = 17.81286 28.16095 22.98690
# Shear Modulus (GPa) = 28.18601 36.24141 32.21371
#
# Velocity S-wave (km/s) = 3.32382 3.76897 3.55337
# Velocity P-wave (km/s) = 4.65964 5.47523 5.08382
#
# Compressibility (1/GPa) = 0.05613922
#
# Stress axis : x y z
#
# Youngs Moduli (GPa) = 85.67553 40.71811 67.26063
#
# Poissons Ratio (x) = -0.01875 -0.00158
# Poissons Ratio (y) = -0.03946 -0.13695
# Poissons Ratio (z) = -0.00202 -0.08291
#
# Static dielectric constant tensor:
#      x y z
#    x 2.015790 0.007420 -0.037900 
#    y 0.007420 2.170280 0.010050 
#    z -0.037900 0.010050 2.010130 
# 
# From -- ./inp_files/76997.got.cif
#   From: 2010.05.17/outbox.cif.g08.bks.cpg/sg2_39_cif.got.tgz:76997.got - 2010.06.03 11:33:40.
