data_PCOD9015710
_publ_section_title
;
Structure prediction by ZEFSAII (Michael W. Deem and Ramdas Pophale) SiO2 
 PCOD9015710
Probable space group: P -1
;
_chemical_formula_sum "Si O2"
_cell_formula_units_Z 14
_cell_length_a 9.161826
_cell_length_b 16.512213
_cell_length_c 19.768630
_cell_angle_alpha 160.881686
_cell_angle_beta 36.653602
_cell_angle_gamma 134.088882
_cell_volume 554.319647
_symmetry_space_group_name_H-M "P -1"
_symmetry_group_IT_number 2
_symmetry_cell_setting 'triclinic'
loop_
_space_group_symop_operation_xyz
x,y,z
-x,-y,-z
loop_
_atom_site_type_symbol
_atom_site_label
_atom_site_fract_x
_atom_site_fract_y
_atom_site_fract_z
Si Si1 0.403053 0.392241 0.548657
Si Si2 0.732672 0.075775 0.899086
Si Si3 0.458608 0.368107 0.111010
Si Si4 0.859439 0.525311 0.427781
Si Si5 0.756238 0.852410 0.243667
Si Si6 0.293342 0.671868 0.158316
Si Si7 0.576819 0.865168 0.521749
O O1 0.684997 0.353227 0.380770
O O2 0.195225 0.420904 0.589366
O O3 0.421204 0.192921 0.445510
O O4 0.323785 0.674343 0.835870
O O5 0.019972 0.032874 0.729469
O O6 0.741018 0.817603 0.731605
O O7 0.545939 0.145762 0.959628
O O8 0.572589 0.320985 0.957034
O O9 0.567221 0.598072 0.279847
O O10 0.153334 0.435086 0.268993
O O11 0.859744 0.536178 0.961471
O O12 0.500000 0.000000 0.500000
O O13 0.679120 0.934623 0.259451
O O14 0.500000 0.500000 0.000000
O O15 0.217546 0.979512 0.449836
#
# Coordination Sequence:
#
# PCOD9015710 Si02
#       7
#     2   2   2   2   2   2   2
#     4  10  25  44  66 100 129 172 223 269 335 393
#     4  11  24  43  68 100 129 175 225 265 327 403
#     4  11  23  42  67  97 133 173 221 272 323 393
#     4  11  23  46  67  95 139 169 214 283 328 387
#     4  11  21  43  67  96 135 175 214 277 325 379
#     4  10  22  37  64  94 128 174 215 262 334 378
#     4  10  21  42  64  96 131 166 223 270 320 394
#
# _framework density 25.256186
#
# number of rings (size 3 to 8) (size 9 to 14) (size 15 to 20)
#    0.000    1.429    2.857    1.286    4.000    2.857 
#    2.571    5.000    0.000    0.000    0.000    0.000 
#    0.000    0.000    0.000    0.000    0.000    0.000 
#
# Total GULP energy -78200.495242 kJ/mol
# GULP energy per Si atom -5585.749660 kJ/mol
# Density = 2.519870 g / cm^3
# Si number density = 25.256186 Si / 1000 Ang^3
#
#
#
# Elastic Constant Matrix: (Units=GPa)
#
#
# Indices 1 2 3 4 5 6 
#
# 1 150.9589 39.2555 31.4284 -8.2031 -18.3530 16.9014
# 2 39.2555 117.8526 40.7567 26.2055 -16.3230 18.0981
# 3 31.4284 40.7567 55.2484 9.6899 -9.1586 4.2329
# 4 -8.2031 26.2055 9.6899 42.5919 2.6827 -2.2287
# 5 -18.3530 -16.3230 -9.1586 2.6827 40.6075 0.4098
# 6 16.9014 18.0981 4.2329 -2.2287 0.4098 36.9008
#
#
#
# Elastic Compliance Matrix: (Units=1/GPa)
#
#
# Indices 1 2 3 4 5 6 
#
# 1 0.008527 -0.001577 -0.003684 0.003179 0.002204 -0.002542
# 2 -0.001577 0.015067 -0.007539 -0.008460 0.004266 -0.006361
# 3 -0.003684 -0.007539 0.026151 -0.001985 0.001311 0.002251
# 4 0.003179 -0.008460 -0.001985 0.030280 -0.004461 0.004799
# 5 0.002204 0.004266 0.001311 -0.004461 0.027966 -0.003832
# 6 -0.002542 -0.006361 0.002251 0.004799 -0.003832 0.031458
#
#
# Mechanical properties :
#
#
# Convention : Reuss Voigt Hill
#
# Bulk Modulus (GPa) = 41.42059 60.77123 51.09591
# Shear Modulus (GPa) = 28.88556 38.19466 33.54011
#
# Velocity S-wave (km/s) = 3.38554 3.89303 3.64812
# Velocity P-wave (km/s) = 5.63190 6.65746 6.16604
#
# Compressibility (1/GPa) = 0.02414258
#
# Stress axis : x y z
#
# Youngs Moduli (GPa) = 117.27630 66.37188 38.24013
#
# Poissons Ratio (x) = 0.10469 0.14089
# Poissons Ratio (y) = 0.18498 0.28829
# Poissons Ratio (z) = 0.43209 0.50038
#
# Static dielectric constant tensor:
#      x y z
#    x 2.032580 0.063270 0.048240 
#    y 0.063270 2.027430 0.045680 
#    z 0.048240 0.045680 2.071140 
# 
# From -- ./inp_files/591010.got.cif
#   From: 2010.05.17/outbox.cif.g08.bks.cpg/sg2_296_cif.got.tgz:591010.got - 2010.06.03 11:33:40.
