data_PCOD9015236
_publ_section_title
;
Structure prediction by ZEFSAII (Michael W. Deem and Ramdas Pophale) SiO2 
 PCOD9015236
Probable space group: P -1
;
_chemical_formula_sum "Si O2"
_cell_formula_units_Z 14
_cell_length_a 15.617431
_cell_length_b 9.255921
_cell_length_c 9.546101
_cell_angle_alpha 118.996479
_cell_angle_beta 45.259272
_cell_angle_gamma 144.867352
_cell_volume 549.926730
_symmetry_space_group_name_H-M "P -1"
_symmetry_group_IT_number 2
_symmetry_cell_setting 'triclinic'
loop_
_space_group_symop_operation_xyz
x,y,z
-x,-y,-z
loop_
_atom_site_type_symbol
_atom_site_label
_atom_site_fract_x
_atom_site_fract_y
_atom_site_fract_z
Si Si1 0.612848 0.790845 0.408667
Si Si2 0.277862 0.502749 0.235808
Si Si3 0.954471 0.221271 0.694480
Si Si4 0.675802 0.912791 0.081092
Si Si5 0.757524 0.382311 0.216566
Si Si6 0.209880 0.788478 0.371880
Si Si7 0.810941 0.695094 0.069251
O O1 0.419042 0.688711 0.568831
O O2 0.640361 0.621452 0.300871
O O3 0.711600 0.924436 0.207873
O O4 0.728148 0.998990 0.498253
O O5 0.098417 0.299865 0.450742
O O6 0.322080 0.743826 0.264557
O O7 0.465917 0.638194 0.156355
O O8 0.237755 0.392186 0.076021
O O9 0.092994 0.461025 0.754989
O O10 0.800781 0.157109 0.747736
O O11 0.825777 0.983738 0.838847
O O12 0.700336 0.135333 0.139356
O O13 0.831166 0.551239 0.071378
O O14 0.000000 0.500000 0.500000
O O15 0.000000 0.000000 0.000000
#
# Coordination Sequence:
#
# PCOD9015236 Si02
#       7
#     2   2   2   2   2   2   2
#     4  12  25  48  75 107 151 195 241 303 370 440
#     4  11  24  47  72 110 149 187 249 309 358 437
#     4  11  24  41  70 111 143 187 240 303 357 428
#     4  12  24  45  81 111 144 191 249 308 366 424
#     4  12  25  48  75 110 149 191 249 302 368 437
#     4  10  21  41  73 104 143 187 242 303 355 422
#     4  12  28  49  72 105 152 200 241 295 378 445
#
# _framework density 25.457937000000001
#
# number of rings (size 3 to 8) (size 9 to 14) (size 15 to 20)
#    0.000    0.571    2.857    6.429    2.000    2.857 
#    2.571    3.571    0.000    0.000    0.000    0.000 
#    0.000    0.000    0.000    0.000    0.000    0.000 
#
# Total GULP energy -78346.733057 kJ/mol
# GULP energy per Si atom -5596.195218 kJ/mol
# Density = 2.539999 g / cm^3
# Si number density = 25.457937 Si / 1000 Ang^3
#
#
#
# Elastic Constant Matrix: (Units=GPa)
#
#
# Indices 1 2 3 4 5 6 
#
# 1 115.6925 29.0614 36.7861 15.1779 8.9445 8.5482
# 2 29.0614 58.9892 26.9360 19.5887 -2.2513 27.5558
# 3 36.7861 26.9360 140.9579 14.8201 5.9347 20.3262
# 4 15.1779 19.5887 14.8201 43.5815 8.2220 -1.7903
# 5 8.9445 -2.2513 5.9347 8.2220 48.9235 7.9335
# 6 8.5482 27.5558 20.3262 -1.7903 7.9335 54.6984
#
#
#
# Elastic Compliance Matrix: (Units=1/GPa)
#
#
# Indices 1 2 3 4 5 6 
#
# 1 0.010652 -0.005394 -0.001945 -0.000107 -0.002283 0.002103
# 2 -0.005394 0.033505 -0.001277 -0.014961 0.007988 -0.017210
# 3 -0.001945 -0.001277 0.008340 -0.001660 -0.000080 -0.002195
# 4 -0.000107 -0.014961 -0.001660 0.032118 -0.007538 0.010315
# 5 -0.002283 0.007988 -0.000080 -0.007538 0.023689 -0.007320
# 6 0.002103 -0.017210 -0.002195 0.010315 -0.007320 0.028838
#
#
# Mechanical properties :
#
#
# Convention : Reuss Voigt Hill
#
# Bulk Modulus (GPa) = 28.35551 55.68961 42.02256
# Shear Modulus (GPa) = 30.09740 44.29776 37.19758
#
# Velocity S-wave (km/s) = 3.44210 4.17590 3.82663
# Velocity P-wave (km/s) = 5.19228 6.72112 6.00555
#
# Compressibility (1/GPa) = 0.03526652
#
# Stress axis : x y z
#
# Youngs Moduli (GPa) = 93.87860 29.84666 119.89986
#
# Poissons Ratio (x) = 0.16098 0.23322
# Poissons Ratio (y) = 0.50634 0.15306
# Poissons Ratio (z) = 0.18260 0.03810
#
# Static dielectric constant tensor:
#      x y z
#    x 2.090490 -0.081400 -0.052360 
#    y -0.081400 1.995130 -0.052930 
#    z -0.052360 -0.052930 2.028640 
# 
# From -- ./inp_files/333588.got.cif
#   From: 2010.05.17/outbox.cif.g08.bks.cpg/sg2_167_cif.got.tgz:333588.got - 2010.06.03 11:33:40.
