data_PCOD9015812
_publ_section_title
;
Structure prediction by ZEFSAII (Michael W. Deem and Ramdas Pophale) SiO2 
 PCOD9015812
Probable space group: P -1
;
_chemical_formula_sum "Si O2"
_cell_formula_units_Z 16
_cell_length_a 21.447084
_cell_length_b 6.793011
_cell_length_c 17.955375
_cell_angle_alpha 59.126427
_cell_angle_beta 20.255313
_cell_angle_gamma 58.823735
_cell_volume 771.505999
_symmetry_space_group_name_H-M "P -1"
_symmetry_group_IT_number 2
_symmetry_cell_setting 'triclinic'
loop_
_space_group_symop_operation_xyz
x,y,z
-x,-y,-z
loop_
_atom_site_type_symbol
_atom_site_label
_atom_site_fract_x
_atom_site_fract_y
_atom_site_fract_z
Si Si1 0.673178 0.028742 0.856390
Si Si2 0.156396 0.616113 0.101813
Si Si3 0.455610 0.195814 0.813852
Si Si4 0.687398 0.577354 0.463078
Si Si5 0.301156 0.431513 0.721691
Si Si6 0.039429 0.771439 0.049870
Si Si7 0.022627 0.635063 0.526182
Si Si8 0.397779 0.955179 0.777775
O O1 0.842219 0.826848 0.692091
O O2 0.789856 0.249522 0.692259
O O3 0.583258 0.983001 0.045294
O O4 0.500000 0.000000 0.000000
O O5 0.117266 0.784559 0.042421
O O6 0.004450 0.531755 0.340660
O O7 0.277798 0.389427 0.976324
O O8 0.276443 0.773107 0.985405
O O9 0.616338 0.350262 0.619635
O O10 0.489646 0.075393 0.719739
O O11 0.734432 0.541872 0.330764
O O12 0.534209 0.795393 0.602820
O O13 0.862421 0.651656 0.289888
O O14 0.500000 0.500000 0.500000
O O15 0.300091 0.170520 0.799984
O O16 0.168134 0.598485 0.888407
O O17 0.000000 0.000000 0.000000
O O18 0.000000 0.500000 0.500000
#
# Coordination Sequence:
#
# PCOD9015812 Si02
#       8
#     2   2   2   2   2   2   2   2
#     4  10  23  42  69 100 133 173 219 276 334 400
#     4  10  22  41  65  90 127 173 210 260 324 390
#     4  10  21  42  65  91 125 167 216 259 318 390
#     4  11  24  37  60  92 125 160 211 269 310 373
#     4  12  21  41  64  84 122 171 213 258 313 374
#     4  12  25  41  59  94 132 163 212 267 319 374
#     4  10  22  44  68 100 136 172 222 275 337 401
#     4  11  20  41  64  87 119 172 217 253 314 383
#
# _framework density 20.738659999999999
#
# number of rings (size 3 to 8) (size 9 to 14) (size 15 to 20)
#    0.000    1.250    2.500    3.750    1.750    0.500 
#    2.250    0.000    0.000    0.000    0.000    0.000 
#    0.000    0.000    0.000    0.000    0.000    0.000 
#
# Total GULP energy -89178.233276 kJ/mol
# GULP energy per Si atom -5573.639580 kJ/mol
# Density = 2.069146 g / cm^3
# Si number density = 20.738660 Si / 1000 Ang^3
#
#
#
# Elastic Constant Matrix: (Units=GPa)
#
#
# Indices 1 2 3 4 5 6 
#
# 1 72.7957 23.8433 29.2726 -11.8813 9.6140 3.4123
# 2 23.8433 96.3771 52.2571 -26.9290 9.4180 5.9550
# 3 29.2726 52.2571 107.2840 -26.9137 5.9367 -6.7607
# 4 -11.8813 -26.9290 -26.9137 24.3166 1.6082 -1.8825
# 5 9.6140 9.4180 5.9367 1.6082 35.8921 -4.2786
# 6 3.4123 5.9550 -6.7607 -1.8825 -4.2786 24.3434
#
#
#
# Elastic Compliance Matrix: (Units=1/GPa)
#
#
# Indices 1 2 3 4 5 6 
#
# 1 0.016615 -0.000637 -0.003244 0.003836 -0.004341 -0.003540
# 2 -0.000637 0.018060 -0.005242 0.013784 -0.004986 -0.005595
# 3 -0.003244 -0.005242 0.015897 0.010747 -0.000035 0.006977
# 4 0.003836 0.013784 0.010747 0.070998 -0.009253 0.002939
# 5 -0.004341 -0.004986 -0.000035 -0.009253 0.031545 0.006647
# 6 -0.003540 -0.005595 0.006977 0.002939 0.006647 0.046277
#
#
# Mechanical properties :
#
#
# Convention : Reuss Voigt Hill
#
# Bulk Modulus (GPa) = 30.93388 54.13364 42.53376
# Shear Modulus (GPa) = 21.89009 28.31601 25.10305
#
# Velocity S-wave (km/s) = 3.25240 3.69910 3.48292
# Velocity P-wave (km/s) = 5.39005 6.66363 6.06038
#
# Compressibility (1/GPa) = 0.03232701
#
# Stress axis : x y z
#
# Youngs Moduli (GPa) = 60.18498 55.37093 62.90418
#
# Poissons Ratio (x) = 0.03527 0.20406
# Poissons Ratio (y) = 0.03834 0.32973
# Poissons Ratio (z) = 0.19524 0.29025
#
# Static dielectric constant tensor:
#      x y z
#    x 1.887040 -0.004470 -0.190010 
#    y -0.004470 1.729500 -0.050530 
#    z -0.190010 -0.050530 1.899110 
# 
# From -- ./inp_files/505029.got.cif
#   From: 2010.05.17/outbox.cif.g08.bks.cpg/sg2_253_cif.got.tgz:505029.got - 2010.06.03 11:33:40.
