data_PCOD9015907
_publ_section_title
;
Structure prediction by ZEFSAII (Michael W. Deem and Ramdas Pophale) SiO2 
 PCOD9015907
Probable space group: P -1
;
_chemical_formula_sum "Si O2"
_cell_formula_units_Z 14
_cell_length_a 9.124983
_cell_length_b 12.032685
_cell_length_c 7.335130
_cell_angle_alpha 129.305124
_cell_angle_beta 59.190770
_cell_angle_gamma 119.830741
_cell_volume 516.793040
_symmetry_space_group_name_H-M "P -1"
_symmetry_group_IT_number 2
_symmetry_cell_setting 'triclinic'
loop_
_space_group_symop_operation_xyz
x,y,z
-x,-y,-z
loop_
_atom_site_type_symbol
_atom_site_label
_atom_site_fract_x
_atom_site_fract_y
_atom_site_fract_z
Si Si1 0.210963 0.120128 0.316178
Si Si2 0.223708 0.211295 0.775159
Si Si3 0.497857 0.499041 0.276807
Si Si4 0.564172 0.189092 0.966561
Si Si5 0.272909 0.974583 0.782273
Si Si6 0.896822 0.264698 0.650181
Si Si7 0.137377 0.464784 0.240859
O O1 0.173217 0.093328 0.523497
O O2 0.090656 0.236761 0.482586
O O3 0.424743 0.176807 0.208769
O O4 0.168041 0.996977 0.056521
O O5 0.364739 0.355560 0.745276
O O6 0.267664 0.116776 0.812403
O O7 0.089582 0.297142 0.029419
O O8 0.500000 0.500000 0.500000
O O9 0.317440 0.493332 0.275916
O O10 0.539758 0.340115 0.043326
O O11 0.478484 0.026741 0.762665
O O12 0.773019 0.209969 0.849451
O O13 0.207823 0.828469 0.553364
O O14 0.887280 0.432002 0.803698
O O15 0.000000 0.500000 0.500000
#
# Coordination Sequence:
#
# PCOD9015907 Si02
#       7
#     2   2   2   2   2   2   2
#     4  10  25  43  68 100 136 183 229 284 337 413
#     4  12  23  44  73  93 141 183 230 277 348 413
#     4  12  22  43  70 100 140 182 227 284 350 406
#     4  10  21  42  65  97 130 177 226 271 345 403
#     4  10  23  45  68  99 136 184 228 282 343 418
#     4  12  23  43  72  97 143 179 224 295 347 393
#     4  12  26  42  71 107 134 183 233 282 351 409
#
# _framework density 27.090149
#
# number of rings (size 3 to 8) (size 9 to 14) (size 15 to 20)
#    0.857    0.000    4.286    3.857    0.000    2.286 
#    0.000    2.143    0.000    0.000    0.000    0.000 
#    0.000    0.000    0.000    0.000    0.000    0.000 
#
# Total GULP energy -78087.588660 kJ/mol
# GULP energy per Si atom -5577.684904 kJ/mol
# Density = 2.702849 g / cm^3
# Si number density = 27.090149 Si / 1000 Ang^3
#
#
#
# Elastic Constant Matrix: (Units=GPa)
#
#
# Indices 1 2 3 4 5 6 
#
# 1 99.8650 52.0515 55.6218 -6.7009 -2.2092 -14.3389
# 2 52.0515 115.1736 29.6401 16.3616 -3.4133 -3.7078
# 3 55.6218 29.6401 137.6866 -16.5881 -11.9355 3.8516
# 4 -6.7009 16.3616 -16.5881 46.8714 -3.4903 -9.9338
# 5 -2.2092 -3.4133 -11.9355 -3.4903 41.6392 6.2264
# 6 -14.3389 -3.7078 3.8516 -9.9338 6.2264 28.0859
#
#
#
# Elastic Compliance Matrix: (Units=1/GPa)
#
#
# Indices 1 2 3 4 5 6 
#
# 1 0.019607 -0.007785 -0.006133 0.005791 -0.002736 0.012478
# 2 -0.007785 0.013102 -0.000293 -0.006743 0.000722 -0.004750
# 3 -0.006133 -0.000293 0.010508 0.002231 0.003538 -0.004606
# 4 0.005791 -0.006743 0.002231 0.027791 0.001025 0.011362
# 5 -0.002736 0.000722 0.003538 0.001025 0.026108 -0.007213
# 6 0.012478 -0.004750 -0.004606 0.011362 -0.007213 0.047598
#
#
# Mechanical properties :
#
#
# Convention : Reuss Voigt Hill
#
# Bulk Modulus (GPa) = 67.58720 69.70579 68.64650
# Shear Modulus (GPa) = 28.07911 37.68009 32.87960
#
# Velocity S-wave (km/s) = 3.22297 3.73354 3.48761
# Velocity P-wave (km/s) = 6.23324 6.66128 6.45081
#
# Compressibility (1/GPa) = 0.01479570
#
# Stress axis : x y z
#
# Youngs Moduli (GPa) = 51.00259 76.32142 95.16482
#
# Poissons Ratio (x) = 0.59413 0.58369
# Poissons Ratio (y) = 0.39704 0.02786
# Poissons Ratio (z) = 0.31282 0.02234
#
# Static dielectric constant tensor:
#      x y z
#    x 2.201510 0.069200 0.033530 
#    y 0.069200 2.434240 -0.081970 
#    z 0.033530 -0.081970 2.136540 
# 
# From -- ./inp_files/268776.got.cif
#   From: 2010.05.17/outbox.cif.g08.bks.cpg/sg2_135_cif.got.tgz:268776.got - 2010.06.03 11:33:40.
