data_PCOD9015546
_publ_section_title
;
Structure prediction by ZEFSAII (Michael W. Deem and Ramdas Pophale) SiO2 
 PCOD9015546
Probable space group: P -1
;
_chemical_formula_sum "Si O2"
_cell_formula_units_Z 14
_cell_length_a 18.010122
_cell_length_b 9.235884
_cell_length_c 14.602143
_cell_angle_alpha 46.195912
_cell_angle_beta 22.256426
_cell_angle_gamma 49.381940
_cell_volume 663.462672
_symmetry_space_group_name_H-M "P -1"
_symmetry_group_IT_number 2
_symmetry_cell_setting 'triclinic'
loop_
_space_group_symop_operation_xyz
x,y,z
-x,-y,-z
loop_
_atom_site_type_symbol
_atom_site_label
_atom_site_fract_x
_atom_site_fract_y
_atom_site_fract_z
Si Si1 0.001699 0.514384 0.883897
Si Si2 0.897371 0.934103 0.740590
Si Si3 0.228081 0.765454 0.849092
Si Si4 0.819875 0.833310 0.388897
Si Si5 0.603004 0.795897 0.005279
Si Si6 0.927912 0.724961 0.510553
Si Si7 0.396573 0.388310 0.407515
O O1 0.189847 0.376442 0.700002
O O2 0.012062 0.744200 0.738491
O O3 0.000000 0.500000 0.000000
O O4 0.817527 0.420574 0.083647
O O5 0.692329 0.850732 0.977711
O O6 0.000000 0.000000 0.500000
O O7 0.902012 0.127752 0.715499
O O8 0.426911 0.738015 0.691521
O O9 0.230046 0.958222 0.696834
O O10 0.042766 0.777995 0.124664
O O11 0.825223 0.826745 0.494637
O O12 0.662794 0.679650 0.596368
O O13 0.457446 0.616099 0.247615
O O14 0.776950 0.725121 0.767716
O O15 0.500000 0.000000 0.000000
O O16 0.000000 0.500000 0.500000
#
# Coordination Sequence:
#
# PCOD9015546 Si02
#       7
#     2   2   2   2   2   2   2
#     4  11  23  41  68  95 130 176 225 276 329 400
#     4  10  22  43  67  92 135 179 213 269 344 394
#     4  10  21  42  63  94 130 174 219 271 343 393
#     4  10  23  40  64  94 136 169 215 284 334 389
#     4  11  24  43  66  98 135 177 222 275 336 402
#     4  11  24  41  68  97 131 176 228 270 329 399
#     4  11  22  40  68  92 130 176 222 268 340 399
#
# _framework density 21.101413000000001
#
# number of rings (size 3 to 8) (size 9 to 14) (size 15 to 20)
#    0.000    1.429    1.429    3.857    8.000    1.143 
#    5.143    0.000    0.000    0.000    0.000    0.000 
#    0.000    0.000    0.000    0.000    0.000    0.000 
#
# Total GULP energy -78180.189167 kJ/mol
# GULP energy per Si atom -5584.299226 kJ/mol
# Density = 2.105339 g / cm^3
# Si number density = 21.101413 Si / 1000 Ang^3
#
#
#
# Elastic Constant Matrix: (Units=GPa)
#
#
# Indices 1 2 3 4 5 6 
#
# 1 130.9310 37.8775 28.2013 -8.4943 -24.1367 9.9939
# 2 37.8775 110.9099 9.5132 -4.0624 -23.3491 2.1830
# 3 28.2013 9.5132 37.8814 -2.6024 -27.7051 4.6240
# 4 -8.4943 -4.0624 -2.6024 34.2347 3.3197 -10.4681
# 5 -24.1367 -23.3491 -27.7051 3.3197 31.6268 -5.6316
# 6 9.9939 2.1830 4.6240 -10.4681 -5.6316 47.1569
#
#
#
# Elastic Compliance Matrix: (Units=1/GPa)
#
#
# Indices 1 2 3 4 5 6 
#
# 1 0.010046 -0.003053 -0.007719 0.001362 -0.001693 -0.001131
# 2 -0.003053 0.012739 0.011840 0.000271 0.017607 0.001059
# 3 -0.007719 0.011840 0.087051 -0.001050 0.079541 0.001818
# 4 0.001362 0.000271 -0.001050 0.031702 -0.001829 0.006621
# 5 -0.001693 0.017607 0.079541 -0.001829 0.114079 0.004962
# 6 -0.001131 0.001059 0.001818 0.006621 0.004962 0.023280
#
#
# Mechanical properties :
#
#
# Convention : Reuss Voigt Hill
#
# Bulk Modulus (GPa) = 8.93078 47.87848 28.40463
# Shear Modulus (GPa) = 15.91928 36.21237 26.06582
#
# Velocity S-wave (km/s) = 2.74965 4.14709 3.51845
# Velocity P-wave (km/s) = 3.78447 6.75797 5.47688
#
# Compressibility (1/GPa) = 0.11197228
#
# Stress axis : x y z
#
# Youngs Moduli (GPa) = 99.54253 78.49773 11.48758
#
# Poissons Ratio (x) = 0.23966 0.08867
# Poissons Ratio (y) = 0.30391 -0.13602
# Poissons Ratio (z) = 0.76837 -0.92945
#
# Static dielectric constant tensor:
#      x y z
#    x 1.761040 0.013650 -0.027790 
#    y 0.013650 1.800320 -0.022620 
#    z -0.027790 -0.022620 1.769750 
# 
# From -- ./inp_files/134822.got.cif
#   From: 2010.05.17/outbox.cif.g08.bks.cpg/sg2_68_cif.got.tgz:134822.got - 2010.06.03 11:33:40.
