data_PCOD9015249
_publ_section_title
;
Structure prediction by ZEFSAII (Michael W. Deem and Ramdas Pophale) SiO2 
 PCOD9015249
Probable space group: P -1
;
_chemical_formula_sum "Si O2"
_cell_formula_units_Z 14
_cell_length_a 8.742982
_cell_length_b 11.576997
_cell_length_c 13.298457
_cell_angle_alpha 29.991252
_cell_angle_beta 69.203127
_cell_angle_gamma 52.869780
_cell_volume 486.596788
_symmetry_space_group_name_H-M "P -1"
_symmetry_group_IT_number 2
_symmetry_cell_setting 'triclinic'
loop_
_space_group_symop_operation_xyz
x,y,z
-x,-y,-z
loop_
_atom_site_type_symbol
_atom_site_label
_atom_site_fract_x
_atom_site_fract_y
_atom_site_fract_z
Si Si1 0.272119 0.474569 0.657280
Si Si2 0.753106 0.303233 0.101093
Si Si3 0.915097 0.913054 0.674609
Si Si4 0.408011 0.761704 0.060865
Si Si5 0.636697 0.087954 0.442203
Si Si6 0.975791 0.294194 0.856947
Si Si7 0.249892 0.319746 0.563921
O O1 0.452200 0.278197 0.847404
O O2 0.103239 0.417430 0.762225
O O3 0.321650 0.404778 0.579432
O O4 0.206314 0.801104 0.440036
O O5 0.786016 0.029555 0.357444
O O6 0.880761 0.354067 0.111569
O O7 0.620621 0.029865 0.181457
O O8 0.500000 0.500000 0.000000
O O9 0.754861 0.903050 0.655350
O O10 0.000000 0.000000 0.500000
O O11 0.533070 0.425467 0.246189
O O12 0.129944 0.742863 0.995870
O O13 0.168883 0.978230 0.998721
O O14 0.500000 0.000000 0.500000
O O15 0.780224 0.538211 0.644302
O O16 0.000000 0.500000 0.500000
#
# Coordination Sequence:
#
# PCOD9015249 Si02
#       7
#     2   2   2   2   2   2   2
#     4   9  17  37  73 115 156 199 256 331 407 480
#     4  11  26  47  72 111 158 210 270 329 395 480
#     4   9  21  45  73 104 147 201 265 327 392 478
#     4   9  18  40  76 120 159 203 263 325 400 490
#     4  10  23  49  79 110 155 212 271 335 403 474
#     4  10  21  41  73 116 161 208 258 327 403 479
#     4   8  16  33  65 112 158 199 248 316 393 471
#
# _framework density 28.771253999999999
#
# number of rings (size 3 to 8) (size 9 to 14) (size 15 to 20)
#    0.000    2.857    0.000    1.714    0.000    5.714 
#    0.000   28.571    0.000    8.571    0.000    5.000 
#    0.000    0.000    0.000    2.571    0.000    0.429 
#
# Total GULP energy -78173.031887 kJ/mol
# GULP energy per Si atom -5583.787992 kJ/mol
# Density = 2.870577 g / cm^3
# Si number density = 28.771254 Si / 1000 Ang^3
#
#
#
# Elastic Constant Matrix: (Units=GPa)
#
#
# Indices 1 2 3 4 5 6 
#
# 1 197.8874 105.2796 96.0548 30.0181 31.6056 27.0412
# 2 105.2796 210.9132 97.7134 30.4748 9.2117 14.5239
# 3 96.0548 97.7134 243.5383 16.5124 20.9873 21.2912
# 4 30.0181 30.4748 16.5124 62.2352 10.6907 2.7932
# 5 31.6056 9.2117 20.9873 10.6907 50.4136 19.1105
# 6 27.0412 14.5239 21.2912 2.7932 19.1105 62.6137
#
#
#
# Elastic Compliance Matrix: (Units=1/GPa)
#
#
# Indices 1 2 3 4 5 6 
#
# 1 0.008331 -0.002964 -0.001602 -0.001535 -0.003187 -0.001324
# 2 -0.002964 0.007248 -0.001736 -0.001951 0.001770 -0.000264
# 3 -0.001602 -0.001736 0.005533 0.000324 -0.000845 -0.000544
# 4 -0.001535 -0.001951 0.000324 0.018159 -0.003100 0.001141
# 5 -0.003187 0.001770 -0.000845 -0.003100 0.024869 -0.006199
# 6 -0.001324 -0.000264 -0.000544 0.001141 -0.006199 0.018630
#
#
# Mechanical properties :
#
#
# Convention : Reuss Voigt Hill
#
# Bulk Modulus (GPa) = 117.54951 138.93716 128.24333
# Shear Modulus (GPa) = 50.91132 58.60524 54.75828
#
# Velocity S-wave (km/s) = 4.21113 4.51814 4.36733
# Velocity P-wave (km/s) = 8.03680 8.69559 8.37267
#
# Compressibility (1/GPa) = 0.00850705
#
# Stress axis : x y z
#
# Youngs Moduli (GPa) = 120.03827 137.97041 180.73690
#
# Poissons Ratio (x) = 0.40894 0.28955
# Poissons Ratio (y) = 0.35579 0.31380
# Poissons Ratio (z) = 0.19231 0.23954
#
# Static dielectric constant tensor:
#      x y z
#    x 2.444940 -0.032510 0.016280 
#    y -0.032510 2.453770 0.011620 
#    z 0.016280 0.011620 2.376700 
# 
# From -- ./inp_files/168038.got.cif
#   From: 2010.05.17/outbox.cif.g08.bks.cpg/sg2_85_cif.got.tgz:168038.got - 2010.06.03 11:33:40.
