data_PCOD9015689
_publ_section_title
;
Structure prediction by ZEFSAII (Michael W. Deem and Ramdas Pophale) SiO2 
 PCOD9015689
Probable space group: P -1
;
_chemical_formula_sum "Si O2"
_cell_formula_units_Z 14
_cell_length_a 9.121957
_cell_length_b 12.532947
_cell_length_c 12.600423
_cell_angle_alpha 58.605066
_cell_angle_beta 47.650375
_cell_angle_gamma 36.899566
_cell_volume 638.706014
_symmetry_space_group_name_H-M "P -1"
_symmetry_group_IT_number 2
_symmetry_cell_setting 'triclinic'
loop_
_space_group_symop_operation_xyz
x,y,z
-x,-y,-z
loop_
_atom_site_type_symbol
_atom_site_label
_atom_site_fract_x
_atom_site_fract_y
_atom_site_fract_z
Si Si1 0.788692 0.177554 0.442126
Si Si2 0.121021 0.625139 0.801535
Si Si3 0.165620 0.126008 0.849286
Si Si4 0.731790 0.155258 0.915081
Si Si5 0.109234 0.521328 0.088250
Si Si6 0.296518 0.701935 0.360376
Si Si7 0.350761 0.012372 0.464414
O O1 0.972923 0.199427 0.283305
O O2 0.609901 0.311879 0.557578
O O3 0.643332 0.141842 0.456649
O O4 0.000000 0.000000 0.500000
O O5 0.460607 0.493680 0.704459
O O6 0.040501 0.546435 0.805470
O O7 0.028424 0.622948 0.962975
O O8 0.984956 0.127920 0.850371
O O9 0.995880 0.329309 0.854058
O O10 0.467669 0.025618 0.705046
O O11 0.211204 0.010369 0.985563
O O12 0.707498 0.184864 0.784438
O O13 0.442033 0.338914 0.013541
O O14 0.976036 0.798881 0.474109
O O15 0.500000 0.000000 0.500000
#
# Coordination Sequence:
#
# PCOD9015689 Si02
#       7
#     2   2   2   2   2   2   2
#     4  10  23  37  68  93 130 176 213 271 335 388
#     4  10  22  43  63  98 131 170 221 279 326 391
#     4  11  23  41  67  95 133 182 217 274 336 389
#     4  10  23  41  68  96 135 175 223 277 322 397
#     4  10  23  41  68  96 134 171 227 273 326 399
#     4  10  21  42  64  94 133 171 214 275 323 388
#     4  11  23  42  64  97 132 167 224 268 329 396
#
# _framework density 21.919318000000001
#
# number of rings (size 3 to 8) (size 9 to 14) (size 15 to 20)
#    0.000    1.714    1.429    1.714    8.000    0.000 
#    0.000    3.571    0.000    0.000    0.000    0.000 
#    0.000    0.000    0.000    0.000    0.000    0.000 
#
# Total GULP energy -78072.470058 kJ/mol
# GULP energy per Si atom -5576.605004 kJ/mol
# Density = 2.186943 g / cm^3
# Si number density = 21.919318 Si / 1000 Ang^3
#
#
#
# Elastic Constant Matrix: (Units=GPa)
#
#
# Indices 1 2 3 4 5 6 
#
# 1 93.1352 21.3265 30.4290 -5.3778 -12.8717 18.2801
# 2 21.3265 78.1112 26.3993 -2.9128 -19.1232 5.8645
# 3 30.4290 26.3993 84.8029 -7.5870 -24.4900 4.2363
# 4 -5.3778 -2.9128 -7.5870 49.3991 -6.3526 -10.1085
# 5 -12.8717 -19.1232 -24.4900 -6.3526 35.8738 3.0487
# 6 18.2801 5.8645 4.2363 -10.1085 3.0487 33.5175
#
#
#
# Elastic Compliance Matrix: (Units=1/GPa)
#
#
# Indices 1 2 3 4 5 6 
#
# 1 0.013957 -0.001513 -0.003521 -0.000281 0.002360 -0.007202
# 2 -0.001513 0.015794 -0.002279 0.000863 0.006643 -0.001994
# 3 -0.003521 -0.002279 0.016811 0.003364 0.009565 0.000339
# 4 -0.000281 0.000863 0.003364 0.022780 0.006189 0.005884
# 5 0.002360 0.006643 0.009565 0.006189 0.040354 -0.005463
# 6 -0.007202 -0.001994 0.000339 0.005884 -0.005463 0.036341
#
#
# Mechanical properties :
#
#
# Convention : Reuss Voigt Hill
#
# Bulk Modulus (GPa) = 31.31095 45.81765 38.56430
# Shear Modulus (GPa) = 29.18733 35.61772 32.40253
#
# Velocity S-wave (km/s) = 3.65304 4.03544 3.84899
# Velocity P-wave (km/s) = 5.66644 6.53156 6.11432
#
# Compressibility (1/GPa) = 0.03193771
#
# Stress axis : x y z
#
# Youngs Moduli (GPa) = 71.64677 63.31666 59.48438
#
# Poissons Ratio (x) = 0.09578 0.20945
# Poissons Ratio (y) = 0.10838 0.13554
# Poissons Ratio (z) = 0.25227 0.14427
#
# Static dielectric constant tensor:
#      x y z
#    x 1.868040 0.059890 0.023670 
#    y 0.059890 1.951850 0.017120 
#    z 0.023670 0.017120 1.860190 
# 
# From -- ./inp_files/187730.got.cif
#   From: 2010.05.17/outbox.cif.g08.bks.cpg/sg2_94_cif.got.tgz:187730.got - 2010.06.03 11:33:40.
