data_PCOD9015757
_publ_section_title
;
Structure prediction by ZEFSAII (Michael W. Deem and Ramdas Pophale) SiO2 
 PCOD9015757
Probable space group: P -1
;
_chemical_formula_sum "Si O2"
_cell_formula_units_Z 14
_cell_length_a 9.086077
_cell_length_b 14.163082
_cell_length_c 5.137715
_cell_angle_alpha 121.176427
_cell_angle_beta 62.194473
_cell_angle_gamma 101.887181
_cell_volume 499.805157
_symmetry_space_group_name_H-M "P -1"
_symmetry_group_IT_number 2
_symmetry_cell_setting 'triclinic'
loop_
_space_group_symop_operation_xyz
x,y,z
-x,-y,-z
loop_
_atom_site_type_symbol
_atom_site_label
_atom_site_fract_x
_atom_site_fract_y
_atom_site_fract_z
Si Si1 0.127686 0.150461 0.673032
Si Si2 0.742254 0.669568 0.875921
Si Si3 0.400351 0.616990 0.186394
Si Si4 0.813301 0.526451 0.118426
Si Si5 0.438323 0.104671 0.031983
Si Si6 0.239409 0.794340 0.896932
Si Si7 0.807833 0.028631 0.276573
O O1 0.283715 0.174159 0.393332
O O2 0.165532 0.021249 0.520870
O O3 0.148593 0.225557 0.020473
O O4 0.941152 0.186715 0.788694
O O5 0.742594 0.605668 0.514901
O O6 0.548008 0.698811 0.133040
O O7 0.807863 0.587262 0.931794
O O8 0.283723 0.671312 0.580595
O O9 0.500000 0.500000 0.000000
O O10 0.287816 0.583119 0.992164
O O11 0.000000 0.500000 0.000000
O O12 0.608961 0.170774 0.990302
O O13 0.343905 0.048867 0.791511
O O14 0.500000 0.000000 0.000000
O O15 0.230519 0.866092 0.734412
O O16 0.000000 0.000000 0.000000
#
# Coordination Sequence:
#
# PCOD9015757 Si02
#       7
#     2   2   2   2   2   2   2
#     4  11  23  42  69  97 142 181 232 292 357 432
#     4  11  24  43  71 102 141 190 234 303 362 429
#     4  10  22  43  70  98 142 183 245 300 358 430
#     4  11  24  44  71 101 142 185 247 299 366 426
#     4  10  22  41  67  96 136 176 234 286 359 419
#     4  10  21  42  65 100 134 187 236 290 359 426
#     4   9  22  40  67  95 139 171 232 281 354 422
#
# _framework density 28.010916000000002
#
# number of rings (size 3 to 8) (size 9 to 14) (size 15 to 20)
#    0.000    1.714    1.429    1.714    2.000    8.571 
#    0.000    2.857    6.286    0.000    0.000    0.000 
#    0.000    0.000    0.000    0.000    0.000    0.000 
#
# Total GULP energy -78229.270988 kJ/mol
# GULP energy per Si atom -5587.805071 kJ/mol
# Density = 2.794716 g / cm^3
# Si number density = 28.010916 Si / 1000 Ang^3
#
#
#
# Elastic Constant Matrix: (Units=GPa)
#
#
# Indices 1 2 3 4 5 6 
#
# 1 224.5141 50.9805 41.9722 7.9239 -30.5457 16.0517
# 2 50.9805 79.3806 17.5454 8.3464 -1.3634 -13.1673
# 3 41.9722 17.5454 89.7578 7.4462 -33.9327 12.4692
# 4 7.9239 8.3464 7.4462 33.1102 11.4668 2.8919
# 5 -30.5457 -1.3634 -33.9327 11.4668 64.4022 -1.6640
# 6 16.0517 -13.1673 12.4692 2.8919 -1.6640 65.1723
#
#
#
# Elastic Compliance Matrix: (Units=1/GPa)
#
#
# Indices 1 2 3 4 5 6 
#
# 1 0.005988 -0.003869 -0.000743 -0.000977 0.002489 -0.002007
# 2 -0.003869 0.016730 -0.002904 -0.002206 -0.002491 0.004923
# 3 -0.000743 -0.002904 0.016421 -0.005693 0.009173 -0.003059
# 4 -0.000977 -0.002206 -0.005693 0.035787 -0.009906 -0.000957
# 5 0.002489 -0.002491 0.009173 -0.009906 0.023204 -0.001839
# 6 -0.002007 0.004923 -0.003059 -0.000957 -0.001839 0.017414
#
#
# Mechanical properties :
#
#
# Convention : Reuss Voigt Hill
#
# Bulk Modulus (GPa) = 41.48039 68.29428 54.88733
# Shear Modulus (GPa) = 36.07226 51.41392 43.74309
#
# Velocity S-wave (km/s) = 3.59248 4.28892 3.95605
# Velocity P-wave (km/s) = 5.66115 6.99719 6.36433
#
# Compressibility (1/GPa) = 0.02410778
#
# Stress axis : x y z
#
# Youngs Moduli (GPa) = 166.99671 59.77351 60.89773
#
# Poissons Ratio (x) = 0.23127 0.04524
# Poissons Ratio (y) = 0.64611 0.17682
# Poissons Ratio (z) = 0.12407 0.17356
#
# Static dielectric constant tensor:
#      x y z
#    x 2.012220 0.109100 -0.359420 
#    y 0.109100 2.316570 0.218140 
#    z -0.359420 0.218140 1.109100 
# 
# From -- ./inp_files/49220.got.cif
#   From: 2010.05.17/outbox.cif.g08.bks.cpg/sg2_25_cif.got.tgz:49220.got - 2010.06.03 11:33:40.
