data_PCOD9015795
_publ_section_title
;
Structure prediction by ZEFSAII (Michael W. Deem and Ramdas Pophale) SiO2 
 PCOD9015795
Probable space group: P -1
;
_chemical_formula_sum "Si O2"
_cell_formula_units_Z 16
_cell_length_a 26.698832
_cell_length_b 14.877353
_cell_length_c 16.832244
_cell_angle_alpha 28.508911
_cell_angle_beta 19.422633
_cell_angle_gamma 18.394054
_cell_volume 693.184986
_symmetry_space_group_name_H-M "P -1"
_symmetry_group_IT_number 2
_symmetry_cell_setting 'triclinic'
loop_
_space_group_symop_operation_xyz
x,y,z
-x,-y,-z
loop_
_atom_site_type_symbol
_atom_site_label
_atom_site_fract_x
_atom_site_fract_y
_atom_site_fract_z
Si Si1 0.495368 0.222356 0.859149
Si Si2 0.460626 0.827853 0.890901
Si Si3 0.035375 0.394151 0.170792
Si Si4 0.343420 0.365461 0.813424
Si Si5 0.686728 0.061814 0.145537
Si Si6 0.293985 0.594501 0.398423
Si Si7 0.743237 0.706875 0.695064
Si Si8 0.862875 0.166434 0.375105
O O1 0.360436 0.439661 0.817459
O O2 0.744131 0.078968 0.607230
O O3 0.366068 0.345188 0.041013
O O4 0.500000 0.000000 0.000000
O O5 0.376483 0.710670 0.145703
O O6 0.247934 0.169851 0.965462
O O7 0.472680 0.798710 0.801767
O O8 0.686559 0.687846 0.706606
O O9 0.905015 0.318970 0.422759
O O10 0.162846 0.360941 0.082388
O O11 0.846330 0.727240 0.170727
O O12 0.257309 0.586837 0.702670
O O13 0.590978 0.040334 0.675176
O O14 0.865711 0.064309 0.864457
O O15 0.521890 0.248325 0.321857
O O16 0.202641 0.704451 0.538680
O O17 0.000000 0.500000 0.500000
#
# Coordination Sequence:
#
# PCOD9015795 Si02
#       8
#     2   2   2   2   2   2   2   2
#     4  10  21  42  65  89 123 175 221 263 330 391
#     4  11  22  41  65  93 136 178 216 272 343 382
#     4  10  22  42  66  97 135 176 217 269 335 398
#     4   9  22  40  68  91 126 180 218 262 338 389
#     4  11  25  41  67 102 136 176 222 270 333 406
#     4  12  24  39  66 102 139 172 222 273 330 395
#     4  10  22  40  63  96 126 166 222 282 319 387
#     4  11  23  44  67  95 142 172 217 281 330 400
#
# _framework density 23.081862999999998
#
# number of rings (size 3 to 8) (size 9 to 14) (size 15 to 20)
#    0.000    1.500    2.500    1.875    3.500    3.000 
#    4.500    0.625    0.000    0.000    0.000    0.000 
#    0.000    0.000    0.000    0.000    0.000    0.000 
#
# Total GULP energy -89444.002260 kJ/mol
# GULP energy per Si atom -5590.250141 kJ/mol
# Density = 2.302933 g / cm^3
# Si number density = 23.081863 Si / 1000 Ang^3
#
#
#
# Elastic Constant Matrix: (Units=GPa)
#
#
# Indices 1 2 3 4 5 6 
#
# 1 100.6730 23.9893 37.9432 15.9267 -24.9260 -11.8130
# 2 23.9893 72.4508 24.3599 7.8753 -5.9956 -14.6466
# 3 37.9432 24.3599 114.9667 12.2112 -37.6992 2.1711
# 4 15.9267 7.8753 12.2112 36.0037 -4.2578 -2.2942
# 5 -24.9260 -5.9956 -37.6992 -4.2578 45.5843 0.0857
# 6 -11.8130 -14.6466 2.1711 -2.2942 0.0857 28.2384
#
#
#
# Elastic Compliance Matrix: (Units=1/GPa)
#
#
# Indices 1 2 3 4 5 6 
#
# 1 0.013610 -0.002067 -0.002041 -0.003990 0.005101 0.004439
# 2 -0.002067 0.017388 -0.003682 -0.001349 -0.002030 0.008334
# 3 -0.002041 -0.003682 0.013526 -0.002022 0.009405 -0.003996
# 4 -0.003990 -0.001349 -0.002022 0.030396 -0.001193 0.000260
# 5 0.005101 -0.002030 0.009405 -0.001193 0.032126 0.000164
# 6 0.004439 0.008334 -0.003996 0.000260 0.000164 0.041920
#
#
# Mechanical properties :
#
#
# Convention : Reuss Voigt Hill
#
# Bulk Modulus (GPa) = 34.54886 51.18615 42.86751
# Shear Modulus (GPa) = 28.70349 35.41849 32.06099
#
# Velocity S-wave (km/s) = 3.53023 3.92148 3.73099
# Velocity P-wave (km/s) = 5.62291 6.53667 6.09694
#
# Compressibility (1/GPa) = 0.02894451
#
# Stress axis : x y z
#
# Youngs Moduli (GPa) = 73.47492 57.51006 73.93135
#
# Poissons Ratio (x) = 0.11887 0.15090
# Poissons Ratio (y) = 0.15187 0.27220
# Poissons Ratio (z) = 0.14997 0.21174
#
# Static dielectric constant tensor:
#      x y z
#    x 1.897950 -0.000080 0.003490 
#    y -0.000080 1.913910 -0.043350 
#    z 0.003490 -0.043350 1.885620 
# 
# From -- ./inp_files/579878.got.cif
#   From: 2010.05.17/outbox.cif.g08.bks.cpg/sg2_290_cif.got.tgz:579878.got - 2010.06.03 11:33:40.
