data_PCOD9015844
_publ_section_title
;
Structure prediction by ZEFSAII (Michael W. Deem and Ramdas Pophale) SiO2 
 PCOD9015844
Probable space group: P -1
;
_chemical_formula_sum "Si O2"
_cell_formula_units_Z 16
_cell_length_a 29.916414
_cell_length_b 14.812629
_cell_length_c 9.069687
_cell_angle_alpha 129.172725
_cell_angle_beta 40.637370
_cell_angle_gamma 161.515255
_cell_volume 750.691008
_symmetry_space_group_name_H-M "P -1"
_symmetry_group_IT_number 2
_symmetry_cell_setting 'triclinic'
loop_
_space_group_symop_operation_xyz
x,y,z
-x,-y,-z
loop_
_atom_site_type_symbol
_atom_site_label
_atom_site_fract_x
_atom_site_fract_y
_atom_site_fract_z
Si Si1 0.049861 0.412013 0.181300
Si Si2 0.702299 0.014789 0.675766
Si Si3 0.878388 0.721706 0.619447
Si Si4 0.905004 0.073846 0.468819
Si Si5 0.457331 0.794882 0.869116
Si Si6 0.390521 0.216765 0.045069
Si Si7 0.711457 0.365848 0.385951
Si Si8 0.617819 0.422534 0.485377
O O1 0.181227 0.720300 0.231191
O O2 0.845556 0.143891 0.390410
O O3 0.144047 0.499252 0.898358
O O4 0.040814 0.307664 0.233298
O O5 0.612976 0.957379 0.719686
O O6 0.557376 0.729082 0.859478
O O7 0.749241 0.447993 0.546103
O O8 0.733150 0.541584 0.917154
O O9 0.000000 0.000000 0.500000
O O10 0.008507 0.843915 0.517045
O O11 0.818082 0.062773 0.713355
O O12 0.745323 0.735944 0.460566
O O13 0.438432 0.733110 0.681332
O O14 0.500000 0.000000 0.000000
O O15 0.500000 0.500000 0.000000
O O16 0.444456 0.195959 0.782357
O O17 0.737154 0.526179 0.397573
O O18 0.500000 0.000000 0.500000
#
# Coordination Sequence:
#
# PCOD9015844 Si02
#       8
#     2   2   2   2   2   2   2   2
#     4  10  22  40  67  92 125 171 216 262 328 390
#     4  10  21  42  65  93 130 168 213 271 320 387
#     4  12  25  40  63  96 131 171 215 277 323 381
#     4  10  22  41  62  93 129 169 214 266 328 387
#     4  12  26  42  65  97 134 173 223 271 332 392
#     4   9  20  39  64  92 127 170 212 261 327 388
#     4  12  24  40  65  95 130 172 221 266 328 395
#     4  11  22  39  64  90 129 172 213 267 325 385
#
# _framework density 21.313696
#
# number of rings (size 3 to 8) (size 9 to 14) (size 15 to 20)
#    0.000    1.250    1.250    5.250    3.500    2.000 
#    0.000    5.625    0.000    7.500    0.000    0.000 
#    0.000    0.000    0.000    0.000    0.000    0.000 
#
# Total GULP energy -89356.747378 kJ/mol
# GULP energy per Si atom -5584.796711 kJ/mol
# Density = 2.126519 g / cm^3
# Si number density = 21.313696 Si / 1000 Ang^3
#
#
#
# Elastic Constant Matrix: (Units=GPa)
#
#
# Indices 1 2 3 4 5 6 
#
# 1 136.9233 25.4347 30.5558 10.1217 -7.5292 10.8710
# 2 25.4347 60.5848 15.9378 6.1328 4.1562 -1.2449
# 3 30.5558 15.9378 135.0495 14.4575 -1.2376 12.7868
# 4 10.1217 6.1328 14.4575 27.8422 -3.2254 10.5131
# 5 -7.5292 4.1562 -1.2376 -3.2254 28.7300 0.4769
# 6 10.8710 -1.2449 12.7868 10.5131 0.4769 39.8685
#
#
#
# Elastic Compliance Matrix: (Units=1/GPa)
#
#
# Indices 1 2 3 4 5 6 
#
# 1 0.008564 -0.003415 -0.001258 -0.000690 0.002638 -0.001888
# 2 -0.003415 0.019046 -0.001387 -0.003868 -0.004195 0.003041
# 3 -0.001258 -0.001387 0.008320 -0.002968 -0.000077 -0.001585
# 4 -0.000690 -0.003868 -0.002968 0.043101 0.005262 -0.010409
# 5 0.002638 -0.004195 -0.000077 0.005262 0.036737 -0.002653
# 6 -0.001888 0.003041 -0.001585 -0.010409 -0.002653 0.028977
#
#
# Mechanical properties :
#
#
# Convention : Reuss Voigt Hill
#
# Bulk Modulus (GPa) = 41.99816 52.93489 47.46653
# Shear Modulus (GPa) = 30.33951 36.66342 33.50146
#
# Velocity S-wave (km/s) = 3.77699 4.15201 3.96893
# Velocity P-wave (km/s) = 6.22643 6.91922 6.58194
#
# Compressibility (1/GPa) = 0.02381057
#
# Stress axis : x y z
#
# Youngs Moduli (GPa) = 116.76351 52.50444 120.18988
#
# Poissons Ratio (x) = 0.17928 0.15120
# Poissons Ratio (y) = 0.39869 0.16676
# Poissons Ratio (z) = 0.14689 0.07285
#
# Static dielectric constant tensor:
#      x y z
#    x 1.798300 -0.078140 0.005640 
#    y -0.078140 1.840210 -0.068330 
#    z 0.005640 -0.068330 1.819720 
# 
# From -- ./inp_files/270497.got.cif
#   From: 2010.05.17/outbox.cif.g08.bks.cpg/sg2_136_cif.got.tgz:270497.got - 2010.06.03 11:33:40.
