data_PCOD9015073
_publ_section_title
;
Structure prediction by ZEFSAII (Michael W. Deem and Ramdas Pophale) SiO2 
 PCOD9015073
Probable space group: P -1
;
_chemical_formula_sum "Si O2"
_cell_formula_units_Z 16
_cell_length_a 14.544155
_cell_length_b 5.413027
_cell_length_c 11.176657
_cell_angle_alpha 116.165975
_cell_angle_beta 121.510224
_cell_angle_gamma 88.624057
_cell_volume 648.319291
_symmetry_space_group_name_H-M "P -1"
_symmetry_group_IT_number 2
_symmetry_cell_setting 'triclinic'
loop_
_space_group_symop_operation_xyz
x,y,z
-x,-y,-z
loop_
_atom_site_type_symbol
_atom_site_label
_atom_site_fract_x
_atom_site_fract_y
_atom_site_fract_z
Si Si1 0.539211 0.888854 0.383219
Si Si2 0.324797 0.433647 0.073962
Si Si3 0.859768 0.043451 0.438922
Si Si4 0.784227 0.838907 0.599579
Si Si5 0.696542 0.229131 0.111365
Si Si6 0.348935 0.770633 0.667914
Si Si7 0.117277 0.656435 0.050209
Si Si8 0.928505 0.531242 0.285308
O O1 0.447760 0.592869 0.238779
O O2 0.666949 0.900573 0.497858
O O3 0.500000 0.000000 0.500000
O O4 0.547374 0.087030 0.314201
O O5 0.220652 0.505134 0.091189
O O6 0.320145 0.587514 0.975298
O O7 0.318087 0.101064 0.996839
O O8 0.730247 0.018359 0.323478
O O9 0.944419 0.359873 0.564065
O O10 0.860925 0.927994 0.552552
O O11 0.899688 0.839025 0.329506
O O12 0.735645 0.499767 0.512129
O O13 0.838008 0.034504 0.790078
O O14 0.627064 0.288897 0.191129
O O15 0.828530 0.350708 0.259588
O O16 0.085466 0.638895 0.884554
O O17 0.000000 0.500000 0.000000
#
# Coordination Sequence:
#
# PCOD9015073 Si02
#       8
#     2   2   2   2   2   2   2   2
#     4  11  26  47  70  98 143 193 243 299 366 440
#     4  11  27  48  74 106 146 192 245 304 365 438
#     4  10  21  43  67 104 141 191 242 297 362 429
#     4  11  23  44  69 101 142 185 245 292 368 429
#     4  11  25  47  73 109 145 189 244 305 371 427
#     4  11  25  42  72 102 142 187 244 310 360 438
#     4  11  22  42  70 105 146 187 237 301 365 438
#     4  10  21  41  71 100 146 194 241 298 362 439
#
# _framework density 24.679196000000001
#
# number of rings (size 3 to 8) (size 9 to 14) (size 15 to 20)
#    0.000    1.250    3.750    1.500    3.500    5.000 
#    0.000    3.125    0.000    0.000    0.000    0.000 
#    0.000    0.000    0.000    0.000    0.000    0.000 
#
# Total GULP energy -89387.867713 kJ/mol
# GULP energy per Si atom -5586.741732 kJ/mol
# Density = 2.462303 g / cm^3
# Si number density = 24.679196 Si / 1000 Ang^3
#
#
#
# Elastic Constant Matrix: (Units=GPa)
#
#
# Indices 1 2 3 4 5 6 
#
# 1 135.1918 28.3978 27.7607 5.7560 -8.5191 27.8586
# 2 28.3978 73.3750 29.7825 17.6810 1.3953 3.7986
# 3 27.7607 29.7825 147.0465 33.5361 5.3990 6.8576
# 4 5.7560 17.6810 33.5361 41.8251 10.3812 7.3801
# 5 -8.5191 1.3953 5.3990 10.3812 42.6841 7.8560
# 6 27.8586 3.7986 6.8576 7.3801 7.8560 29.0124
#
#
#
# Elastic Compliance Matrix: (Units=1/GPa)
#
#
# Indices 1 2 3 4 5 6 
#
# 1 0.010971 -0.003679 -0.001448 0.002207 0.004048 -0.011368
# 2 -0.003679 0.016940 -0.001523 -0.005946 -0.000248 0.003254
# 3 -0.001448 -0.001523 0.008790 -0.006406 -0.000003 0.001143
# 4 0.002207 -0.005946 -0.006406 0.033848 -0.005509 -0.006946
# 5 0.004048 -0.000248 -0.000003 -0.005509 0.027401 -0.009873
# 6 -0.011368 0.003254 0.001143 -0.006946 -0.009873 0.049128
#
#
# Mechanical properties :
#
#
# Convention : Reuss Voigt Hill
#
# Bulk Modulus (GPa) = 42.73247 58.61059 50.67153
# Shear Modulus (GPa) = 29.73048 40.68245 35.20646
#
# Velocity S-wave (km/s) = 3.47461 4.06452 3.78109
# Velocity P-wave (km/s) = 5.78360 6.76961 6.29594
#
# Compressibility (1/GPa) = 0.02340141
#
# Stress axis : x y z
#
# Youngs Moduli (GPa) = 91.15202 59.03343 113.76335
#
# Poissons Ratio (x) = 0.21716 0.16473
# Poissons Ratio (y) = 0.33530 0.17326
# Poissons Ratio (z) = 0.13199 0.08991
#
# Static dielectric constant tensor:
#      x y z
#    x 1.935150 -0.099340 0.018150 
#    y -0.099340 2.035870 -0.037380 
#    z 0.018150 -0.037380 1.950860 
# 
# From -- ./inp_files/442336.got.cif
#   From: 2010.05.17/outbox.cif.g08.bks.cpg/sg2_222_cif.got.tgz:442336.got - 2010.06.03 11:33:40.
