data_PCOD9015315
_publ_section_title
;
Structure prediction by ZEFSAII (Michael W. Deem and Ramdas Pophale) SiO2 
 PCOD9015315
Probable space group: P -1
;
_chemical_formula_sum "Si O2"
_cell_formula_units_Z 16
_cell_length_a 18.701104
_cell_length_b 7.676005
_cell_length_c 15.550941
_cell_angle_alpha 61.535356
_cell_angle_beta 157.695092
_cell_angle_gamma 120.836041
_cell_volume 727.461057
_symmetry_space_group_name_H-M "P -1"
_symmetry_group_IT_number 2
_symmetry_cell_setting 'triclinic'
loop_
_space_group_symop_operation_xyz
x,y,z
-x,-y,-z
loop_
_atom_site_type_symbol
_atom_site_label
_atom_site_fract_x
_atom_site_fract_y
_atom_site_fract_z
Si Si1 0.083289 0.317210 0.172686
Si Si2 0.621014 0.309159 0.005491
Si Si3 0.623485 0.726350 0.992523
Si Si4 0.534948 0.628337 0.353627
Si Si5 0.655794 0.026869 0.311931
Si Si6 0.635164 0.763226 0.643808
Si Si7 0.697369 0.998670 0.837105
Si Si8 0.024946 0.738169 0.491574
O O1 0.247410 0.408476 0.404857
O O2 0.198812 0.234377 0.242831
O O3 0.000000 0.500000 0.000000
O O4 0.904211 0.149195 0.045668
O O5 0.589241 0.488361 0.989591
O O6 0.815428 0.235215 0.261953
O O7 0.619279 0.407537 0.886025
O O8 0.440994 0.121250 0.837881
O O9 0.813688 0.781391 0.250885
O O10 0.449684 0.791816 0.832027
O O11 0.653390 0.849995 0.905765
O O12 0.443195 0.471375 0.360504
O O13 0.598896 0.874236 0.364368
O O14 0.871797 0.125319 0.504640
O O15 0.464815 0.867687 0.393277
O O16 0.703545 0.877965 0.782565
O O17 0.000000 0.500000 0.500000
#
# Coordination Sequence:
#
# PCOD9015315 Si02
#       8
#     2   2   2   2   2   2   2   2
#     4  12  24  36  62  91 124 166 213 257 313 373
#     4   9  22  41  64  91 129 162 207 261 314 377
#     4  11  22  41  68  93 125 166 216 258 317 375
#     4  10  21  42  59  90 128 165 207 260 307 371
#     4  10  22  40  67  90 126 168 204 260 319 370
#     4  11  23  42  63  86 133 169 209 265 315 372
#     4  11  23  41  64  92 124 172 213 261 317 370
#     4  10  22  42  67  95 128 162 207 266 313 382
#
# _framework density 21.994305000000001
#
# number of rings (size 3 to 8) (size 9 to 14) (size 15 to 20)
#    0.750    0.750    2.500    2.625    1.750    2.500 
#    0.000    3.750    2.750    0.000    0.000    0.000 
#    0.000    0.000    0.000    0.000    0.000    0.000 
#
# Total GULP energy -89091.916661 kJ/mol
# GULP energy per Si atom -5568.244791 kJ/mol
# Density = 2.194425 g / cm^3
# Si number density = 21.994305 Si / 1000 Ang^3
#
#
#
# Elastic Constant Matrix: (Units=GPa)
#
#
# Indices 1 2 3 4 5 6 
#
# 1 -2279.1735 4552.1626 1731.7284 -105.1548 2100.8731 -531.9748
# 2 4552.1626-8654.1413-3315.0780 176.2776-4087.1101 1045.6846
# 3 1731.7284-3315.0780-1165.1670 53.0637-1558.0400 386.2317
# 4 -105.1548 176.2776 53.0637 37.0749 91.4720 -21.3611
# 5 2100.8731-4087.1101-1558.0400 91.4720-1867.4157 472.4974
# 6 -531.9748 1045.6846 386.2317 -21.3611 472.4974 -98.2559
#
#
#
# Elastic Compliance Matrix: (Units=1/GPa)
#
#
# Indices 1 2 3 4 5 6 
#
# 1 0.013260 0.001967 0.001082 0.002481 0.009677 -0.000615
# 2 0.001967 0.005090 -0.003282 0.001375 -0.007152 -0.004070
# 3 0.001082 -0.003282 0.010930 0.004047 0.000886 0.005561
# 4 0.002481 0.001375 0.004047 0.027318 -0.002628 -0.001468
# 5 0.009677 -0.007152 0.000886 -0.002628 0.029313 0.016499
# 6 -0.000615 -0.004070 0.005561 -0.001468 0.016499 0.051362
#
#
# Mechanical properties :
#
#
# Convention : Reuss Voigt Hill
#
# Bulk Modulus (GPa) = 34.70486 -684.53953 -324.91733
# Shear Modulus (GPa) = 33.93443 -1390.20565 -678.13561
#
# Velocity S-wave (km/s) = 3.93220 -25.16838 -17.57819
# Velocity P-wave (km/s) = 6.03569 34.00746 23.66514
#
# Compressibility (1/GPa) = 0.02881441
#
# Stress axis : x y z
#
# Youngs Moduli (GPa) = 75.41281 196.46154 91.49145
#
# Poissons Ratio (x) = -0.38635 -0.09900
# Poissons Ratio (y) = -0.14830 0.30024
# Poissons Ratio (z) = -0.08160 0.64470
#
# Static dielectric constant tensor:
#      x y z
#    x 1.849550 -0.026910 -0.073830 
#    y -0.026910 1.838270 -0.018310 
#    z -0.073830 -0.018310 1.860370 
# 
# From -- ./inp_files/577586.got.cif
#   From: 2010.05.17/outbox.cif.g08.bks.cpg/sg2_289_cif.got.tgz:577586.got - 2010.06.03 11:33:40.
