data_PCOD9015128
_publ_section_title
;
Structure prediction by ZEFSAII (Michael W. Deem and Ramdas Pophale) SiO2 
 PCOD9015128
Probable space group: P -1
;
_chemical_formula_sum "Si O2"
_cell_formula_units_Z 16
_cell_length_a 24.502444
_cell_length_b 14.979008
_cell_length_c 6.818317
_cell_angle_alpha 79.020167
_cell_angle_beta 123.631524
_cell_angle_gamma 150.074251
_cell_volume 745.300774
_symmetry_space_group_name_H-M "P -1"
_symmetry_group_IT_number 2
_symmetry_cell_setting 'triclinic'
loop_
_space_group_symop_operation_xyz
x,y,z
-x,-y,-z
loop_
_atom_site_type_symbol
_atom_site_label
_atom_site_fract_x
_atom_site_fract_y
_atom_site_fract_z
Si Si1 0.301510 0.743242 0.124718
Si Si2 0.199684 0.738423 0.225944
Si Si3 0.929772 0.010954 0.729506
Si Si4 0.225895 0.596987 0.601771
Si Si5 0.735651 0.478840 0.620489
Si Si6 0.208328 0.229240 0.066920
Si Si7 0.457138 0.228360 0.427655
Si Si8 0.841016 0.015233 0.188666
O O1 0.205392 0.709855 0.023891
O O2 0.214888 0.544588 0.138719
O O3 0.500000 0.000000 0.500000
O O4 0.306178 0.728620 0.913070
O O5 0.252472 0.718988 0.467245
O O6 0.334621 0.997639 0.398424
O O7 0.000000 0.500000 0.000000
O O8 0.082396 0.230730 0.105235
O O9 0.037022 0.076342 0.781554
O O10 0.774959 0.774934 0.664846
O O11 0.869436 0.013523 0.465827
O O12 0.303104 0.609536 0.634747
O O13 0.018727 0.299987 0.353550
O O14 0.569316 0.315275 0.454630
O O15 0.387265 0.517620 0.249276
O O16 0.188905 0.113165 0.950752
O O17 0.324740 0.130765 0.108684
#
# Coordination Sequence:
#
# PCOD9015128 Si02
#       8
#     2   2   2   2   2   2   2   2
#     4  11  23  44  66  99 134 170 234 282 321 399
#     4  11  24  45  66 100 138 182 219 273 344 394
#     4  10  21  41  71  97 131 175 230 272 333 413
#     4  11  24  41  75  97 132 186 227 271 338 408
#     4  10  21  43  67  96 135 178 221 278 334 392
#     4  10  23  43  68  97 136 175 219 286 339 396
#     4  11  24  45  65 101 146 169 226 290 327 404
#     4  12  22  42  70 103 131 178 226 275 344 399
#
# _framework density 21.467842000000001
#
# number of rings (size 3 to 8) (size 9 to 14) (size 15 to 20)
#    0.000    1.250    5.000    0.750    0.000    3.000 
#    0.000    2.500    0.000    0.000    0.000    0.000 
#    0.000    0.000    0.000    0.000    0.000    0.000 
#
# Total GULP energy -89292.563100 kJ/mol
# GULP energy per Si atom -5580.785194 kJ/mol
# Density = 2.141898 g / cm^3
# Si number density = 21.467842 Si / 1000 Ang^3
#
#
#
# Elastic Constant Matrix: (Units=GPa)
#
#
# Indices 1 2 3 4 5 6 
#
# 1 108.2880 26.6825 55.5884 10.6720 -14.6386 -1.0130
# 2 26.6825 122.4671 35.1103 15.1827 -4.9487 -15.5791
# 3 55.5884 35.1103 73.9993 5.3609 -18.3104 -2.9106
# 4 10.6720 15.1827 5.3609 33.3053 1.3497 1.1286
# 5 -14.6386 -4.9487 -18.3104 1.3497 35.4892 -2.0522
# 6 -1.0130 -15.5791 -2.9106 1.1286 -2.0522 34.9950
#
#
#
# Elastic Compliance Matrix: (Units=1/GPa)
#
#
# Indices 1 2 3 4 5 6 
#
# 1 0.015368 0.000292 -0.011290 -0.003259 0.000666 -0.000220
# 2 0.000292 0.010569 -0.004877 -0.004256 -0.000505 0.004416
# 3 -0.011290 -0.004877 0.026240 0.001282 0.008159 0.000122
# 4 -0.003259 -0.004256 0.001282 0.033018 -0.002712 -0.003106
# 5 0.000666 -0.000505 0.008159 -0.002712 0.032838 0.002486
# 6 -0.000220 0.004416 0.000122 -0.003106 0.002486 0.030791
#
#
# Mechanical properties :
#
#
# Convention : Reuss Voigt Hill
#
# Bulk Modulus (GPa) = 48.95871 59.94631 54.45251
# Shear Modulus (GPa) = 26.68325 33.24944 29.96634
#
# Velocity S-wave (km/s) = 3.52936 3.93975 3.74019
# Velocity P-wave (km/s) = 6.28201 6.97710 6.63866
#
# Compressibility (1/GPa) = 0.02042537
#
# Stress axis : x y z
#
# Youngs Moduli (GPa) = 65.07135 94.61726 38.11021
#
# Poissons Ratio (x) = -0.02759 0.43028
# Poissons Ratio (y) = -0.01898 0.18585
# Poissons Ratio (z) = 0.73469 0.46141
#
# Static dielectric constant tensor:
#      x y z
#    x 1.833320 -0.024350 -0.035630 
#    y -0.024350 1.964570 0.015260 
#    z -0.035630 0.015260 1.784010 
# 
# From -- ./inp_files/124224.got.cif
#   From: 2010.05.17/outbox.cif.g08.bks.cpg/sg2_63_cif.got.tgz:124224.got - 2010.06.03 11:33:40.
