data_PCOD9015516
_publ_section_title
;
Structure prediction by ZEFSAII (Michael W. Deem and Ramdas Pophale) SiO2 
 PCOD9015516
Probable space group: P -1
;
_chemical_formula_sum "Si O2"
_cell_formula_units_Z 14
_cell_length_a 6.474856
_cell_length_b 12.450747
_cell_length_c 8.956137
_cell_angle_alpha 105.208823
_cell_angle_beta 77.232314
_cell_angle_gamma 77.826225
_cell_volume 651.182935
_symmetry_space_group_name_H-M "P -1"
_symmetry_group_IT_number 2
_symmetry_cell_setting 'triclinic'
loop_
_space_group_symop_operation_xyz
x,y,z
-x,-y,-z
loop_
_atom_site_type_symbol
_atom_site_label
_atom_site_fract_x
_atom_site_fract_y
_atom_site_fract_z
Si Si1 0.394159 0.394436 0.514459
Si Si2 0.937955 0.901696 0.879839
Si Si3 0.205520 0.034614 0.411666
Si Si4 0.637873 0.295923 0.165370
Si Si5 0.680070 0.753850 0.008999
Si Si6 0.414285 0.191770 0.631629
Si Si7 0.071191 0.538811 0.843178
O O1 0.500000 0.500000 0.500000
O O2 0.432554 0.331383 0.325500
O O3 0.508134 0.287386 0.568891
O O4 0.162061 0.450249 0.658525
O O5 0.852945 0.937197 0.740807
O O6 0.160221 0.793793 0.814325
O O7 0.746360 0.864627 0.982391
O O8 0.000000 0.000000 0.000000
O O9 0.263897 0.142168 0.524468
O O10 0.409029 0.921396 0.371310
O O11 0.000000 0.000000 0.500000
O O12 0.728305 0.403491 0.144576
O O13 0.559438 0.243524 0.011725
O O14 0.708292 0.746863 0.179170
O O15 0.856400 0.641451 0.871671
O O16 0.000000 0.500000 0.000000
#
# Coordination Sequence:
#
# PCOD9015516 Si02
#       7
#     2   2   2   2   2   2   2
#     4  10  21  42  66  92 134 173 217 272 325 394
#     4  11  23  41  65  96 135 171 218 270 329 395
#     4  11  24  41  65  95 130 173 216 272 329 389
#     4  10  23  40  65  97 130 172 219 266 332 391
#     4  11  23  40  66  96 130 172 219 271 329 391
#     4  11  23  41  65  96 131 170 222 269 325 396
#     4  10  21  42  63  92 131 168 219 270 322 390
#
# _framework density 21.499333
#
# number of rings (size 3 to 8) (size 9 to 14) (size 15 to 20)
#    0.000    1.429    1.429    3.429    0.000    6.857 
#    0.000    2.857    0.000    0.000    0.000    0.000 
#    0.000    0.000    0.000    0.000    0.000    0.000 
#
# Total GULP energy -78056.319231 kJ/mol
# GULP energy per Si atom -5575.451374 kJ/mol
# Density = 2.145040 g / cm^3
# Si number density = 21.499333 Si / 1000 Ang^3
#
#
#
# Elastic Constant Matrix: (Units=GPa)
#
#
# Indices 1 2 3 4 5 6 
#
# 1 82.1601 31.8383 51.1830 -10.5501 17.4044 2.9387
# 2 31.8383 103.6904 56.8363 -20.7165 8.2589 10.9272
# 3 51.1830 56.8363 154.9397 -21.5670 5.1542 6.4693
# 4 -10.5501 -20.7165 -21.5670 44.6298 -3.3293 -13.5436
# 5 17.4044 8.2589 5.1542 -3.3293 42.0567 -3.9780
# 6 2.9387 10.9272 6.4693 -13.5436 -3.9780 19.4347
#
#
#
# Elastic Compliance Matrix: (Units=1/GPa)
#
#
# Indices 1 2 3 4 5 6 
#
# 1 0.017272 -0.002121 -0.004668 0.000035 -0.006263 -0.001123
# 2 -0.002121 0.013378 -0.003623 0.002444 -0.001548 -0.004609
# 3 -0.004668 -0.003623 0.009538 0.002464 0.001826 0.001658
# 4 0.000035 0.002444 0.002464 0.031150 0.003584 0.020242
# 5 -0.006263 -0.001548 0.001826 0.003584 0.027619 0.009360
# 6 -0.001123 -0.004609 0.001658 0.020242 0.009360 0.069686
#
#
# Mechanical properties :
#
#
# Convention : Reuss Voigt Hill
#
# Bulk Modulus (GPa) = 51.63703 68.94504 60.29103
# Shear Modulus (GPa) = 25.52052 34.61974 30.07013
#
# Velocity S-wave (km/s) = 3.44908 4.01717 3.74392
# Velocity P-wave (km/s) = 6.31915 7.32495 6.84056
#
# Compressibility (1/GPa) = 0.01936595
#
# Stress axis : x y z
#
# Youngs Moduli (GPa) = 57.89596 74.74737 104.84423
#
# Poissons Ratio (x) = 0.15852 0.48938
# Poissons Ratio (y) = 0.12279 0.37984
# Poissons Ratio (z) = 0.27024 0.27080
#
# Static dielectric constant tensor:
#      x y z
#    x 1.756430 -0.026210 -0.036300 
#    y -0.026210 1.888510 0.048300 
#    z -0.036300 0.048300 1.787770 
# 
# From -- ./inp_files/47385.got.cif
#   From: 2010.05.17/outbox.cif.g08.bks.cpg/sg2_24_cif.got.tgz:47385.got - 2010.06.03 11:33:40.
