data_PCOD9015136
_publ_section_title
;
Structure prediction by ZEFSAII (Michael W. Deem and Ramdas Pophale) SiO2 
 PCOD9015136
Probable space group: P -1
;
_chemical_formula_sum "Si O2"
_cell_formula_units_Z 16
_cell_length_a 13.238222
_cell_length_b 23.100644
_cell_length_c 12.889749
_cell_angle_alpha 151.451253
_cell_angle_beta 54.884098
_cell_angle_gamma 144.132118
_cell_volume 963.507815
_symmetry_space_group_name_H-M "P -1"
_symmetry_group_IT_number 2
_symmetry_cell_setting 'triclinic'
loop_
_space_group_symop_operation_xyz
x,y,z
-x,-y,-z
loop_
_atom_site_type_symbol
_atom_site_label
_atom_site_fract_x
_atom_site_fract_y
_atom_site_fract_z
Si Si1 0.240071 0.070991 0.897569
Si Si2 0.417012 0.532339 0.797360
Si Si3 0.049855 0.217344 0.799011
Si Si4 0.097238 0.452373 0.972869
Si Si5 0.728240 0.169366 0.595838
Si Si6 0.410415 0.471359 0.118563
Si Si7 0.156548 0.103106 0.218238
Si Si8 0.775871 0.888712 0.581926
O O1 0.241540 0.934554 0.643319
O O2 0.438475 0.289369 0.085743
O O3 0.213997 0.065287 0.027099
O O4 0.054477 0.997877 0.840145
O O5 0.241675 0.485430 0.864924
O O6 0.542896 0.588943 0.914080
O O7 0.314869 0.333747 0.499724
O O8 0.076856 0.360189 0.944758
O O9 0.120959 0.160780 0.592981
O O10 0.185731 0.318745 0.981168
O O11 0.836043 0.024319 0.667734
O O12 0.881771 0.294466 0.798575
O O13 0.201766 0.662695 0.250213
O O14 0.500000 0.000000 0.500000
O O15 0.541925 0.687999 0.409596
O O16 0.500000 0.500000 0.000000
O O17 0.153504 0.033694 0.221236
#
# Coordination Sequence:
#
# PCOD9015136 Si02
#       8
#     2   2   2   2   2   2   2   2
#     4  11  21  33  55  73 104 146 178 207 262 309
#     4  11  18  33  51  80 111 135 166 214 268 313
#     4  10  17  30  49  76 106 133 160 210 267 313
#     4  11  21  34  53  75 111 133 174 224 252 304
#     4  11  23  37  52  75 103 146 181 214 250 301
#     4   9  16  26  45  74 105 130 156 200 262 318
#     4  10  20  35  50  80 109 135 170 218 261 315
#     4   9  17  28  47  73 104 130 160 205 264 309
#
# _framework density 16.605989000000001
#
# number of rings (size 3 to 8) (size 9 to 14) (size 15 to 20)
#    0.000    1.750    6.250    1.125    0.000    3.000 
#    0.000    0.000    0.000    0.750    0.000    4.375 
#    0.000    0.000    0.000    0.000    0.000    0.000 
#
# Total GULP energy -89140.862185 kJ/mol
# GULP energy per Si atom -5571.303887 kJ/mol
# Density = 1.656819 g / cm^3
# Si number density = 16.605989 Si / 1000 Ang^3
#
#
#
# Elastic Constant Matrix: (Units=GPa)
#
#
# Indices 1 2 3 4 5 6 
#
# 1 41.6404 25.3020 6.5815 7.5996 5.9519 -1.2060
# 2 25.3020 83.2139 32.3758 9.1773 -3.1028 -6.4866
# 3 6.5815 32.3758 48.3741 6.6540 -2.4463 1.8361
# 4 7.5996 9.1773 6.6540 27.3634 -6.1556 -1.2604
# 5 5.9519 -3.1028 -2.4463 -6.1556 28.9201 1.7993
# 6 -1.2060 -6.4866 1.8361 -1.2604 1.7993 21.1178
#
#
#
# Elastic Compliance Matrix: (Units=1/GPa)
#
#
# Indices 1 2 3 4 5 6 
#
# 1 0.032951 -0.010945 0.003599 -0.008534 -0.009374 -0.001504
# 2 -0.010945 0.020860 -0.012583 0.000091 0.003033 0.006623
# 3 0.003599 -0.012583 0.029429 -0.004257 -0.000105 -0.006463
# 4 -0.008534 0.000091 -0.004257 0.042312 0.010315 0.001557
# 5 -0.009374 0.003033 -0.000105 0.010315 0.039163 -0.002316
# 6 -0.001504 0.006623 -0.006463 0.001557 -0.002316 0.050154
#
#
# Mechanical properties :
#
#
# Convention : Reuss Voigt Hill
#
# Bulk Modulus (GPa) = 23.05043 33.52744 28.28894
# Shear Modulus (GPa) = 18.57440 22.74485 20.65963
#
# Velocity S-wave (km/s) = 3.34808 3.70493 3.53102
# Velocity P-wave (km/s) = 5.37188 6.20772 5.80487
#
# Compressibility (1/GPa) = 0.04338313
#
# Stress axis : x y z
#
# Youngs Moduli (GPa) = 30.34854 47.93881 33.97963
#
# Poissons Ratio (x) = 0.52468 -0.12229
# Poissons Ratio (y) = 0.33216 0.42755
# Poissons Ratio (z) = -0.10922 0.60319
#
# Static dielectric constant tensor:
#      x y z
#    x 1.574110 0.005330 0.022010 
#    y 0.005330 1.557150 0.034440 
#    z 0.022010 0.034440 1.593280 
# 
# From -- ./inp_files/436755.got.cif
#   From: 2010.05.17/outbox.cif.g08.bks.cpg/sg2_219_cif.got.tgz:436755.got - 2010.06.03 11:33:40.
