data_PCOD9015469
_publ_section_title
;
Structure prediction by ZEFSAII (Michael W. Deem and Ramdas Pophale) SiO2 
 PCOD9015469
Probable space group: P -1
;
_chemical_formula_sum "Si O2"
_cell_formula_units_Z 12
_cell_length_a 12.578375
_cell_length_b 9.517597
_cell_length_c 7.101695
_cell_angle_alpha 96.679285
_cell_angle_beta 141.966459
_cell_angle_gamma 89.362093
_cell_volume 515.744559
_symmetry_space_group_name_H-M "P -1"
_symmetry_group_IT_number 2
_symmetry_cell_setting 'triclinic'
loop_
_space_group_symop_operation_xyz
x,y,z
-x,-y,-z
loop_
_atom_site_type_symbol
_atom_site_label
_atom_site_fract_x
_atom_site_fract_y
_atom_site_fract_z
Si Si1 0.685190 0.593343 0.613580
Si Si2 0.373014 0.155617 0.652216
Si Si3 0.170838 0.101068 0.699347
Si Si4 0.321380 0.706827 0.626307
Si Si5 0.035343 0.375989 0.669982
Si Si6 0.506323 0.828927 0.564550
O O1 0.741826 0.729337 0.577136
O O2 0.649304 0.453353 0.416991
O O3 0.527459 0.662661 0.503627
O O4 0.828199 0.573564 0.966482
O O5 0.253237 0.057011 0.612584
O O6 0.467203 0.097082 0.593275
O O7 0.525901 0.232285 0.008755
O O8 0.115979 0.258549 0.641495
O O9 0.320313 0.116037 0.067680
O O10 0.000000 0.000000 0.500000
O O11 0.139185 0.694206 0.478327
O O12 0.347753 0.800882 0.485634
O O13 0.000000 0.500000 0.500000
#
# Coordination Sequence:
#
# PCOD9015469 Si02
#       6
#     2   2   2   2   2   2
#     4   9  19  36  55  84 123 160 194 228 296 362
#     4   9  20  37  59  85 116 156 203 233 285 359
#     4  10  21  42  63  83 115 164 201 233 287 365
#     4  11  19  33  58  86 123 152 191 247 299 338
#     4  11  24  37  57  95 124 149 193 255 299 332
#     4   8  20  35  56  85 113 154 205 227 284 355
#
# _framework density 23.267330999999999
#
# number of rings (size 3 to 8) (size 9 to 14) (size 15 to 20)
#    1.000    1.333    0.000    2.500    2.333    2.000 
#    0.000    3.333    0.000    2.000    0.000    0.000 
#    0.000    0.000    0.000    0.000    0.000    0.000 
#
# Total GULP energy -66974.007073 kJ/mol
# GULP energy per Si atom -5581.167256 kJ/mol
# Density = 2.321437 g / cm^3
# Si number density = 23.267331 Si / 1000 Ang^3
#
#
#
# Elastic Constant Matrix: (Units=GPa)
#
#
# Indices 1 2 3 4 5 6 
#
# 1 170.1369 41.0013 61.3563 3.6037 -21.3743 22.6145
# 2 41.0013 71.0525 33.7519 -12.5437 -4.8055 13.2792
# 3 61.3563 33.7519 74.3405 -6.3791 -16.0203 16.2315
# 4 3.6037 -12.5437 -6.3791 31.1071 1.4135 3.1497
# 5 -21.3743 -4.8055 -16.0203 1.4135 40.8816 0.1683
# 6 22.6145 13.2792 16.2315 3.1497 0.1683 35.0280
#
#
#
# Elastic Compliance Matrix: (Units=1/GPa)
#
#
# Indices 1 2 3 4 5 6 
#
# 1 0.009212 -0.002618 -0.005735 -0.003203 0.002380 -0.002021
# 2 -0.002618 0.020405 -0.005888 0.007800 -0.001531 -0.004011
# 3 -0.005735 -0.005888 0.023466 0.003390 0.005409 -0.005270
# 4 -0.003203 0.007800 0.003390 0.036975 -0.000684 -0.005781
# 5 0.002380 -0.001531 0.005409 -0.000684 0.027683 -0.003534
# 6 -0.002021 -0.004011 -0.005270 -0.005781 -0.003534 0.034352
#
#
# Mechanical properties :
#
#
# Convention : Reuss Voigt Hill
#
# Bulk Modulus (GPa) = 40.65118 65.30544 52.97831
# Shear Modulus (GPa) = 26.48626 33.36468 29.92547
#
# Velocity S-wave (km/s) = 3.37760 3.79089 3.59020
# Velocity P-wave (km/s) = 5.72015 6.87674 6.32494
#
# Compressibility (1/GPa) = 0.02459953
#
# Stress axis : x y z
#
# Youngs Moduli (GPa) = 108.54923 49.00731 42.61563
#
# Poissons Ratio (x) = 0.12832 0.24441
# Poissons Ratio (y) = 0.28423 0.25093
# Poissons Ratio (z) = 0.62255 0.28856
#
# Static dielectric constant tensor:
#      x y z
#    x 1.925390 -0.016210 -0.040750 
#    y -0.016210 2.006450 0.001890 
#    z -0.040750 0.001890 1.799100 
# 
# From -- ./inp_files/66970.got.cif
#   From: 2010.05.17/outbox.cif.g08.bks.cpg/sg2_34_cif.got.tgz:66970.got - 2010.06.03 11:33:40.
