data_PCOD9015213
_publ_section_title
;
Structure prediction by ZEFSAII (Michael W. Deem and Ramdas Pophale) SiO2 
 PCOD9015213
Probable space group: P -1
;
_chemical_formula_sum "Si O2"
_cell_formula_units_Z 14
_cell_length_a 8.984311
_cell_length_b 12.835483
_cell_length_c 18.519831
_cell_angle_alpha 150.166522
_cell_angle_beta 45.050273
_cell_angle_gamma 144.088212
_cell_volume 623.115474
_symmetry_space_group_name_H-M "P -1"
_symmetry_group_IT_number 2
_symmetry_cell_setting 'triclinic'
loop_
_space_group_symop_operation_xyz
x,y,z
-x,-y,-z
loop_
_atom_site_type_symbol
_atom_site_label
_atom_site_fract_x
_atom_site_fract_y
_atom_site_fract_z
Si Si1 0.603494 0.818562 0.436251
Si Si2 0.828195 0.547752 0.537985
Si Si3 0.029822 0.123744 0.837459
Si Si4 0.077321 0.811493 0.241808
Si Si5 0.939764 0.369702 0.135177
Si Si6 0.403711 0.682846 0.655220
Si Si7 0.585025 0.309676 0.737956
O O1 0.451117 0.624311 0.435805
O O2 0.463177 0.685164 0.328317
O O3 0.889999 0.895184 0.380993
O O4 0.594041 0.062660 0.595615
O O5 0.828654 0.443783 0.397004
O O6 0.000000 0.500000 0.500000
O O7 0.923671 0.837571 0.679301
O O8 0.328598 0.259545 0.830675
O O9 0.990528 0.248201 0.855704
O O10 0.896627 0.140575 0.963853
O O11 0.023412 0.590981 0.181126
O O12 0.370044 0.040356 0.279993
O O13 0.698665 0.313686 0.229425
O O14 0.169404 0.464916 0.170430
O O15 0.500000 0.500000 0.500000
#
# Coordination Sequence:
#
# PCOD9015213 Si02
#       7
#     2   2   2   2   2   2   2
#     4  10  21  41  72  98 132 177 219 284 331 383
#     4  12  23  43  70 102 133 173 225 280 332 393
#     4  11  25  46  66  99 140 174 222 276 334 408
#     4  11  25  45  69  98 136 179 225 269 338 392
#     4  12  26  45  70  96 139 182 216 278 340 389
#     4  12  25  45  69 103 133 171 236 277 316 407
#     4  10  21  42  69  99 131 173 230 271 331 399
#
# _framework density 22.467745000000001
#
# number of rings (size 3 to 8) (size 9 to 14) (size 15 to 20)
#    0.000    0.857    2.857    4.286    2.000    2.286 
#    5.143    1.429    0.000    0.000    0.000    0.000 
#    0.000    0.000    0.000    0.000    0.000    0.000 
#
# Total GULP energy -78343.234930 kJ/mol
# GULP energy per Si atom -5595.945352 kJ/mol
# Density = 2.241661 g / cm^3
# Si number density = 22.467745 Si / 1000 Ang^3
#
#
#
# Elastic Constant Matrix: (Units=GPa)
#
#
# Indices 1 2 3 4 5 6 
#
# 1 78.7624 5.5843 33.0704 -4.9209 15.1525 -1.0748
# 2 5.5843 114.1101 39.2150 -12.6168 7.3138 -2.8377
# 3 33.0704 39.2150 79.6518 -24.3490 4.8229 1.0097
# 4 -4.9209 -12.6168 -24.3490 38.8912 -6.1261 0.1021
# 5 15.1525 7.3138 4.8229 -6.1261 15.4329 0.2781
# 6 -1.0748 -2.8377 1.0097 0.1021 0.2781 29.4967
#
#
#
# Elastic Compliance Matrix: (Units=1/GPa)
#
#
# Indices 1 2 3 4 5 6 
#
# 1 0.020799 0.003469 -0.011074 -0.006524 -0.021224 0.001693
# 2 0.003469 0.011358 -0.007053 -0.001427 -0.007179 0.001533
# 3 -0.011074 -0.007053 0.023962 0.013210 0.012008 -0.002061
# 4 -0.006524 -0.001427 0.013210 0.035378 0.017017 -0.001110
# 5 -0.021224 -0.007179 0.012008 0.017017 0.092090 -0.002802
# 6 0.001693 0.001533 -0.002061 -0.001110 -0.002802 0.034212
#
#
# Mechanical properties :
#
#
# Convention : Reuss Voigt Hill
#
# Bulk Modulus (GPa) = 37.30972 47.58486 42.44729
# Shear Modulus (GPa) = 19.52746 29.74115 24.63430
#
# Velocity S-wave (km/s) = 2.95130 3.64225 3.31483
# Velocity P-wave (km/s) = 5.31560 6.23804 5.79520
#
# Compressibility (1/GPa) = 0.02680267
#
# Stress axis : x y z
#
# Youngs Moduli (GPa) = 48.07958 88.04332 41.73264
#
# Poissons Ratio (x) = -0.30542 0.46214
# Poissons Ratio (y) = -0.16679 0.29435
# Poissons Ratio (z) = 0.53243 0.62099
#
# Static dielectric constant tensor:
#      x y z
#    x 1.888460 0.006170 0.030580 
#    y 0.006170 1.856650 -0.017970 
#    z 0.030580 -0.017970 1.831020 
# 
# From -- ./inp_files/186870.got.cif
#   From: 2010.05.17/outbox.cif.g08.bks.cpg/sg2_94_cif.got.tgz:186870.got - 2010.06.03 11:33:40.
