data_PCOD9015387
_publ_section_title
;
Structure prediction by ZEFSAII (Michael W. Deem and Ramdas Pophale) SiO2 
 PCOD9015387
Probable space group: P -1
;
_chemical_formula_sum "Si O2"
_cell_formula_units_Z 16
_cell_length_a 25.846915
_cell_length_b 9.701325
_cell_length_c 11.254119
_cell_angle_alpha 137.481458
_cell_angle_beta 149.300455
_cell_angle_gamma 27.437980
_cell_volume 659.774136
_symmetry_space_group_name_H-M "P -1"
_symmetry_group_IT_number 2
_symmetry_cell_setting 'triclinic'
loop_
_space_group_symop_operation_xyz
x,y,z
-x,-y,-z
loop_
_atom_site_type_symbol
_atom_site_label
_atom_site_fract_x
_atom_site_fract_y
_atom_site_fract_z
Si Si1 0.552345 0.156096 0.127219
Si Si2 0.949522 0.876197 0.599093
Si Si3 0.844624 0.799931 0.985513
Si Si4 0.909290 0.511254 0.160571
Si Si5 0.430840 0.097197 0.244701
Si Si6 0.514397 0.311210 0.714602
Si Si7 0.120239 0.635749 0.366718
Si Si8 0.245764 0.453893 0.761450
O O1 0.574962 0.347276 0.242210
O O2 0.683088 0.877447 0.291201
O O3 0.391565 0.380882 0.017319
O O4 0.540894 0.016942 0.905266
O O5 0.974649 0.804672 0.742889
O O6 0.115374 0.657696 0.730309
O O7 0.892630 0.745252 0.351805
O O8 0.861616 0.200150 0.581022
O O9 0.945303 0.535684 0.115793
O O10 0.945051 0.832338 0.155361
O O11 0.808489 0.676136 0.742009
O O12 0.691595 0.097104 0.931309
O O13 0.746821 0.650875 0.923642
O O14 0.480756 0.241942 0.482346
O O15 0.509098 0.812735 0.303769
O O16 0.178880 0.589506 0.585032
#
# Coordination Sequence:
#
# PCOD9015387 Si02
#       8
#     2   2   2   2   2   2   2   2
#     4  11  23  41  66  92 128 172 204 265 322 370
#     4  11  22  41  67  93 124 168 208 262 320 372
#     4  10  22  42  62  95 130 157 214 267 309 384
#     4  10  22  41  63  93 130 160 211 267 307 382
#     4  10  21  42  61  96 130 161 219 257 308 397
#     4  10  22  41  65  93 128 168 208 264 320 374
#     4  11  23  40  66  92 125 170 207 262 324 374
#     4  11  23  40  63  98 125 158 225 255 307 399
#
# _framework density 24.250724000000002
#
# number of rings (size 3 to 8) (size 9 to 14) (size 15 to 20)
#    0.000    1.500    2.500    2.250    3.500    0.500 
#   11.250    3.125    0.000    0.000    0.000    0.000 
#    0.000    0.000    0.000    0.000    0.000    0.000 
#
# Total GULP energy -89525.498593 kJ/mol
# GULP energy per Si atom -5595.343662 kJ/mol
# Density = 2.419553 g / cm^3
# Si number density = 24.250724 Si / 1000 Ang^3
#
#
#
# Elastic Constant Matrix: (Units=GPa)
#
#
# Indices 1 2 3 4 5 6 
#
# 1 52.8043 25.0219 12.6146 3.8027 -6.6726 23.4404
# 2 25.0219 75.9918 20.7849 -1.7552 -6.5438 25.7688
# 3 12.6146 20.7849 70.5494 2.1533 -7.1091 12.3056
# 4 3.8027 -1.7552 2.1533 19.9766 -10.2856 7.9274
# 5 -6.6726 -6.5438 -7.1091 -10.2856 26.5219 -8.1909
# 6 23.4404 25.7688 12.3056 7.9274 -8.1909 42.6806
#
#
#
# Elastic Compliance Matrix: (Units=1/GPa)
#
#
# Indices 1 2 3 4 5 6 
#
# 1 0.026540 -0.004429 -0.001309 0.000070 0.001804 -0.011191
# 2 -0.004429 0.018989 -0.003167 0.007997 0.003037 -0.009022
# 3 -0.001309 -0.003167 0.015870 0.000282 0.002802 -0.001459
# 4 0.000070 0.007997 0.000282 0.068549 0.024651 -0.012949
# 5 0.001804 0.003037 0.002802 0.024651 0.049624 0.001312
# 6 -0.011191 -0.009022 -0.001459 -0.012949 0.001312 0.038101
#
#
# Mechanical properties :
#
#
# Convention : Reuss Voigt Hill
#
# Bulk Modulus (GPa) = 22.94119 35.13201 29.03660
# Shear Modulus (GPa) = 19.99892 27.23076 23.61484
#
# Velocity S-wave (km/s) = 2.87483 3.35458 3.12393
# Velocity P-wave (km/s) = 4.52770 5.43348 5.00114
#
# Compressibility (1/GPa) = 0.04358971
#
# Stress axis : x y z
#
# Youngs Moduli (GPa) = 37.67879 52.66078 63.01270
#
# Poissons Ratio (x) = 0.23323 0.08248
# Poissons Ratio (y) = 0.16688 0.19956
# Poissons Ratio (z) = 0.04932 0.16678
#
# Static dielectric constant tensor:
#      x y z
#    x 1.951910 -0.013110 0.009500 
#    y -0.013110 1.969810 -0.008760 
#    z 0.009500 -0.008760 1.928740 
# 
# From -- ./inp_files/476414.got.cif
#   From: 2010.05.17/outbox.cif.g08.bks.cpg/sg2_239_cif.got.tgz:476414.got - 2010.06.03 11:33:40.
