data_PCOD9015125
_publ_section_title
;
Structure prediction by ZEFSAII (Michael W. Deem and Ramdas Pophale) SiO2 
 PCOD9015125
Probable space group: P -1
;
_chemical_formula_sum "Si O2"
_cell_formula_units_Z 15
_cell_length_a 8.978446
_cell_length_b 9.065919
_cell_length_c 10.422379
_cell_angle_alpha 94.505013
_cell_angle_beta 59.011275
_cell_angle_gamma 107.390754
_cell_volume 691.077793
_symmetry_space_group_name_H-M "P -1"
_symmetry_group_IT_number 2
_symmetry_cell_setting 'triclinic'
loop_
_space_group_symop_operation_xyz
x,y,z
-x,-y,-z
loop_
_atom_site_type_symbol
_atom_site_label
_atom_site_fract_x
_atom_site_fract_y
_atom_site_fract_z
Si Si1 0.637011 0.970469 0.046969
Si Si2 0.158721 0.576981 0.756093
Si Si3 0.405911 0.965250 0.399701
Si Si4 0.867235 0.286653 0.944283
Si Si5 0.279100 0.249590 0.391318
Si Si6 0.505604 0.667719 0.964472
Si Si7 0.063936 0.673987 0.543644
Si Si8 0.500000 0.500000 0.500000
O O1 0.556402 0.988139 0.222579
O O2 0.629539 0.795234 0.014293
O O3 0.500000 0.000000 0.000000
O O4 0.826391 0.102368 0.948332
O O5 0.059551 0.645155 0.695629
O O6 0.362459 0.593558 0.624552
O O7 0.053511 0.395152 0.812893
O O8 0.149309 0.660419 0.899556
O O9 0.266680 0.790583 0.434881
O O10 0.500000 0.000000 0.500000
O O11 0.300420 0.091628 0.428946
O O12 0.699580 0.321369 0.946483
O O13 0.408638 0.294012 0.211715
O O14 0.336984 0.390975 0.475150
O O15 0.077369 0.239094 0.433874
O O16 0.500000 0.500000 0.000000
O O17 0.000000 0.500000 0.500000
#
# Coordination Sequence:
#
# PCOD9015125 Si02
#       8
#     2   2   2   2   2   2   2   1
#     4  10  21  41  71  96 136 185 238 286 359 425
#     4  11  23  42  71  99 140 186 235 302 359 430
#     4  12  26  47  74 105 144 198 240 303 369 432
#     4  10  21  43  70  95 133 190 239 287 361 426
#     4  12  25  44  67 104 145 186 248 298 356 437
#     4  11  23  38  68 102 139 177 239 293 358 428
#     4  12  27  42  70 105 144 186 242 296 370 429
#     4  12  22  42  68 102 142 184 236 298 364 426
#
# _framework density 21.705228000000002
#
# number of rings (size 3 to 8) (size 9 to 14) (size 15 to 20)
#    0.000    0.800    5.333    2.800    5.600    0.000 
#    2.400    0.000    0.000    3.200    0.000    0.000 
#    0.000    0.000    0.000    0.000    0.000    0.000 
#
# Total GULP energy -83615.487183 kJ/mol
# GULP energy per Si atom -5574.365812 kJ/mol
# Density = 2.165583 g / cm^3
# Si number density = 21.705228 Si / 1000 Ang^3
#
#
#
# Elastic Constant Matrix: (Units=GPa)
#
#
# Indices 1 2 3 4 5 6 
#
# 1 85.9472 36.2196 26.7394 -8.0506 15.5305 1.6005
# 2 36.2196 126.1574 18.9189 -16.9869 16.3435 3.9446
# 3 26.7394 18.9189 68.0633 0.4479 19.1792 -3.7035
# 4 -8.0506 -16.9869 0.4479 31.2242 0.8851 -1.4909
# 5 15.5305 16.3435 19.1792 0.8851 24.7936 -2.0081
# 6 1.6005 3.9446 -3.7035 -1.4909 -2.0081 35.9117
#
#
#
# Elastic Compliance Matrix: (Units=1/GPa)
#
#
# Indices 1 2 3 4 5 6 
#
# 1 0.015137 -0.002767 -0.003888 0.002545 -0.004817 -0.000935
# 2 -0.002767 0.010107 -0.000449 0.004876 -0.004845 -0.001102
# 3 -0.003888 -0.000449 0.019973 -0.001104 -0.012555 0.001534
# 4 0.002545 0.004876 -0.001104 0.035519 -0.005188 0.000422
# 5 -0.004817 -0.004845 -0.012555 -0.005188 0.056636 0.002404
# 6 -0.000935 -0.001102 0.001534 0.000422 0.002404 0.028319
#
#
# Mechanical properties :
#
#
# Convention : Reuss Voigt Hill
#
# Bulk Modulus (GPa) = 32.24844 49.32484 40.78664
# Shear Modulus (GPa) = 26.28337 31.60526 28.94432
#
# Velocity S-wave (km/s) = 3.48361 3.82004 3.65570
# Velocity P-wave (km/s) = 5.57408 6.49855 6.05399
#
# Compressibility (1/GPa) = 0.03100925
#
# Stress axis : x y z
#
# Youngs Moduli (GPa) = 66.06412 98.94122 50.06742
#
# Poissons Ratio (x) = 0.27374 0.19466
# Poissons Ratio (y) = 0.18278 0.02249
# Poissons Ratio (z) = 0.25685 0.04444
#
# Static dielectric constant tensor:
#      x y z
#    x 1.798680 0.013250 0.008500 
#    y 0.013250 1.845050 -0.019660 
#    z 0.008500 -0.019660 1.789360 
# 
# From -- ./inp_files/158564.got.cif
#   From: 2010.05.17/outbox.cif.g08.bks.cpg/sg2_80_cif.got.tgz:158564.got - 2010.06.03 11:33:40.
