data_PCOD9015862
_publ_section_title
;
Structure prediction by ZEFSAII (Michael W. Deem and Ramdas Pophale) SiO2 
 PCOD9015862
Probable space group: P -1
;
_chemical_formula_sum "Si O2"
_cell_formula_units_Z 16
_cell_length_a 14.897403
_cell_length_b 8.969750
_cell_length_c 9.075290
_cell_angle_alpha 131.102251
_cell_angle_beta 90.670958
_cell_angle_gamma 68.036347
_cell_volume 798.493404
_symmetry_space_group_name_H-M "P -1"
_symmetry_group_IT_number 2
_symmetry_cell_setting 'triclinic'
loop_
_space_group_symop_operation_xyz
x,y,z
-x,-y,-z
loop_
_atom_site_type_symbol
_atom_site_label
_atom_site_fract_x
_atom_site_fract_y
_atom_site_fract_z
Si Si1 0.764284 0.402391 0.507040
Si Si2 0.484466 0.076823 0.878962
Si Si3 0.402388 0.660574 0.004015
Si Si4 0.954319 0.343788 0.837490
Si Si5 0.068615 0.468247 0.338470
Si Si6 0.444781 0.393574 0.527506
Si Si7 0.933477 0.952131 0.086825
Si Si8 0.725994 0.449732 0.865166
O O1 0.827939 0.535834 0.611638
O O2 0.657955 0.553914 0.525398
O O3 0.746412 0.341586 0.632453
O O4 0.830095 0.179292 0.268045
O O5 0.489641 0.877450 0.646971
O O6 0.578017 0.128829 0.883660
O O7 0.374537 0.302266 0.996414
O O8 0.500000 0.000000 0.000000
O O9 0.416195 0.522989 0.765127
O O10 0.500000 0.500000 0.000000
O O11 0.303856 0.687150 0.107268
O O12 0.978488 0.330415 0.654466
O O13 0.830604 0.450974 0.913258
O O14 0.006053 0.132138 0.811180
O O15 0.000000 0.500000 0.000000
O O16 0.000000 0.500000 0.500000
O O17 0.086680 0.242766 0.108064
O O18 0.500000 0.500000 0.500000
O O19 0.000000 0.000000 0.000000
#
# Coordination Sequence:
#
# PCOD9015862 Si02
#       8
#     2   2   2   2   2   2   2   2
#     4  11  24  42  64  98 132 174 224 271 342 398
#     4  11  21  44  69  97 133 177 220 277 342 394
#     4  10  23  42  65  99 136 169 223 282 332 407
#     4   9  22  41  62  93 132 174 219 279 330 394
#     4  10  21  42  65  94 132 169 223 283 329 402
#     4  12  24  40  69  99 135 177 224 276 333 408
#     4  11  23  42  69  94 131 177 225 277 341 400
#     4  10  22  42  66  93 139 173 220 282 336 403
#
# _framework density 20.037737
#
# number of rings (size 3 to 8) (size 9 to 14) (size 15 to 20)
#    0.000    1.500    3.750    0.750    1.750    8.000 
#    0.000    3.750    0.000    0.000    0.000    0.000 
#    0.000    0.000    0.000    0.000    0.000    0.000 
#
# Total GULP energy -89284.758832 kJ/mol
# GULP energy per Si atom -5580.297427 kJ/mol
# Density = 1.999213 g / cm^3
# Si number density = 20.037737 Si / 1000 Ang^3
#
#
#
# Elastic Constant Matrix: (Units=GPa)
#
#
# Indices 1 2 3 4 5 6 
#
# 1 103.3701 38.7818 33.9813 -18.5790 2.4220 16.7366
# 2 38.7818 81.5016 16.2905 -12.4173 -5.0900 20.5828
# 3 33.9813 16.2905 111.0000 -1.7992 0.2216 22.0711
# 4 -18.5790 -12.4173 -1.7992 38.1459 2.7545 -3.4130
# 5 2.4220 -5.0900 0.2216 2.7545 39.1820 -5.8225
# 6 16.7366 20.5828 22.0711 -3.4130 -5.8225 45.1810
#
#
#
# Elastic Compliance Matrix: (Units=1/GPa)
#
#
# Indices 1 2 3 4 5 6 
#
# 1 0.013695 -0.004966 -0.003150 0.004946 -0.001993 -0.001155
# 2 -0.004966 0.016394 0.000217 0.002341 0.001473 -0.005368
# 3 -0.003150 0.000217 0.010786 -0.001316 -0.000392 -0.004351
# 4 0.004946 0.002341 -0.001316 0.029449 -0.002109 -0.000303
# 5 -0.001993 0.001473 -0.000392 -0.002109 0.026509 0.003516
# 6 -0.001155 -0.005368 -0.004351 -0.000303 0.003516 0.027562
#
#
# Mechanical properties :
#
#
# Convention : Reuss Voigt Hill
#
# Bulk Modulus (GPa) = 39.87843 52.66432 46.27137
# Shear Modulus (GPa) = 33.65771 38.28964 35.97368
#
# Velocity S-wave (km/s) = 4.10288 4.37610 4.24169
# Velocity P-wave (km/s) = 6.51074 7.20231 6.86524
#
# Compressibility (1/GPa) = 0.02507621
#
# Stress axis : x y z
#
# Youngs Moduli (GPa) = 73.01723 60.99802 92.71197
#
# Poissons Ratio (x) = 0.30294 0.29204
# Poissons Ratio (y) = 0.36264 -0.02010
# Poissons Ratio (z) = 0.23000 -0.01322
#
# Static dielectric constant tensor:
#      x y z
#    x 1.695090 0.019310 -0.000890 
#    y 0.019310 1.743320 -0.001700 
#    z -0.000890 -0.001700 1.694890 
# 
# From -- ./inp_files/215055.got.cif
#   From: 2010.05.17/outbox.cif.g08.bks.cpg/sg2_108_cif.got.tgz:215055.got - 2010.06.03 11:33:40.
