data_PCOD9015305
_publ_section_title
;
Structure prediction by ZEFSAII (Michael W. Deem and Ramdas Pophale) SiO2 
 PCOD9015305
Probable space group: P -1
;
_chemical_formula_sum "Si O2"
_cell_formula_units_Z 14
_cell_length_a 9.210832
_cell_length_b 15.797747
_cell_length_c 11.803300
_cell_angle_alpha 26.643490
_cell_angle_beta 52.981048
_cell_angle_gamma 51.585524
_cell_volume 598.117722
_symmetry_space_group_name_H-M "P -1"
_symmetry_group_IT_number 2
_symmetry_cell_setting 'triclinic'
loop_
_space_group_symop_operation_xyz
x,y,z
-x,-y,-z
loop_
_atom_site_type_symbol
_atom_site_label
_atom_site_fract_x
_atom_site_fract_y
_atom_site_fract_z
Si Si1 0.812064 0.382682 0.005856
Si Si2 0.670766 0.398784 0.283644
Si Si3 0.702075 0.140039 0.798135
Si Si4 0.152981 0.286434 0.792652
Si Si5 0.458125 0.250052 0.374428
Si Si6 0.532854 0.187922 0.056100
Si Si7 0.117245 0.711437 0.279576
O O1 0.732493 0.613007 0.745327
O O2 0.990141 0.300948 0.944820
O O3 0.833276 0.347332 0.173534
O O4 0.632219 0.293769 0.169221
O O5 0.886435 0.154794 0.768764
O O6 0.500090 0.332561 0.378871
O O7 0.621182 0.628618 0.050586
O O8 0.696480 0.284282 0.524940
O O9 0.545887 0.193847 0.905219
O O10 0.712731 0.923296 0.011202
O O11 0.211451 0.489144 0.535781
O O12 0.067813 0.288503 0.702636
O O13 0.476431 0.022942 0.645990
O O14 0.735737 0.222753 0.950326
#
# Coordination Sequence:
#
# PCOD9015305 Si02
#       7
#     2   2   2   2   2   2   2
#     4   9  22  40  62  87 117 160 194 236 293 351
#     4  10  21  42  57  89 125 152 196 239 291 357
#     4  10  24  36  62  91 117 158 194 239 300 345
#     4  11  21  42  59  84 124 155 193 246 288 350
#     4   9  21  40  61  88 115 157 193 242 296 332
#     4  10  22  37  62  90 116 149 201 246 288 341
#     4   9  24  37  61  89 115 153 199 246 289 340
#
# _framework density 23.406763000000002
#
# number of rings (size 3 to 8) (size 9 to 14) (size 15 to 20)
#    1.714    0.571    0.000    1.714    6.000    2.857 
#    2.571    0.714    0.000    0.000    0.000    0.000 
#    0.000    0.000    0.000    0.000    0.000    0.000 
#
# Total GULP energy -78129.530786 kJ/mol
# GULP energy per Si atom -5580.680770 kJ/mol
# Density = 2.335349 g / cm^3
# Si number density = 23.406763 Si / 1000 Ang^3
#
#
#
# Elastic Constant Matrix: (Units=GPa)
#
#
# Indices 1 2 3 4 5 6 
#
# 1 35.8048 15.7705 16.2569 -0.6449 -5.0593 9.8013
# 2 15.7705 96.2130 32.8818 -3.4027 -5.5600 0.8080
# 3 16.2569 32.8818 138.1243 -14.7596 -13.0438 11.7914
# 4 -0.6449 -3.4027 -14.7596 43.6149 13.7461 -5.1890
# 5 -5.0593 -5.5600 -13.0438 13.7461 35.2097 -0.9224
# 6 9.8013 0.8080 11.7914 -5.1890 -0.9224 17.6210
#
#
#
# Elastic Compliance Matrix: (Units=1/GPa)
#
#
# Indices 1 2 3 4 5 6 
#
# 1 0.037157 -0.005318 -0.001333 -0.004396 0.005183 -0.020555
# 2 -0.005318 0.012130 -0.002563 0.000466 0.000131 0.004261
# 3 -0.001333 -0.002563 0.008735 0.001615 0.001894 -0.004412
# 4 -0.004396 0.000466 0.001615 0.027856 -0.010600 0.008991
# 5 0.005183 0.000131 0.001894 -0.010600 0.033862 -0.005505
# 6 -0.020555 0.004261 -0.004412 0.008991 -0.005505 0.073300
#
#
# Mechanical properties :
#
#
# Convention : Reuss Voigt Hill
#
# Bulk Modulus (GPa) = 25.25704 44.44003 34.84854
# Shear Modulus (GPa) = 22.25525 32.97130 27.61328
#
# Velocity S-wave (km/s) = 3.08686 3.75723 3.43842
# Velocity P-wave (km/s) = 4.84962 6.15220 5.53933
#
# Compressibility (1/GPa) = 0.03959293
#
# Stress axis : x y z
#
# Youngs Moduli (GPa) = 26.91297 82.44272 114.48339
#
# Poissons Ratio (x) = 0.43846 0.15257
# Poissons Ratio (y) = 0.14313 0.29344
# Poissons Ratio (z) = 0.03587 0.21132
#
# Static dielectric constant tensor:
#      x y z
#    x 1.966750 -0.017340 0.027240 
#    y -0.017340 1.879080 0.008610 
#    z 0.027240 0.008610 1.874830 
# 
# From -- ./inp_files/434440.got.cif
#   From: 2010.05.17/outbox.cif.g08.bks.cpg/sg2_218_cif.got.tgz:434440.got - 2010.06.03 11:33:40.
