data_PCOD9015960
_publ_section_title
;
Structure prediction by ZEFSAII (Michael W. Deem and Ramdas Pophale) SiO2 
 PCOD9015960
Probable space group: P -1
;
_chemical_formula_sum "Si O2"
_cell_formula_units_Z 14
_cell_length_a 10.594327
_cell_length_b 11.291470
_cell_length_c 10.580660
_cell_angle_alpha 134.312809
_cell_angle_beta 139.259436
_cell_angle_gamma 68.160230
_cell_volume 556.537874
_symmetry_space_group_name_H-M "P -1"
_symmetry_group_IT_number 2
_symmetry_cell_setting 'triclinic'
loop_
_space_group_symop_operation_xyz
x,y,z
-x,-y,-z
loop_
_atom_site_type_symbol
_atom_site_label
_atom_site_fract_x
_atom_site_fract_y
_atom_site_fract_z
Si Si1 0.748271 0.032931 0.344138
Si Si2 0.909681 0.432480 0.016686
Si Si3 0.255518 0.919728 0.235445
Si Si4 0.698845 0.546122 0.523235
Si Si5 0.581087 0.790785 0.805844
Si Si6 0.057765 0.225875 0.327642
Si Si7 0.150149 0.265644 0.709512
O O1 0.720904 0.867098 0.291093
O O2 0.591724 0.136402 0.324232
O O3 0.712494 0.946894 0.111838
O O4 0.976461 0.171205 0.611858
O O5 0.758164 0.533934 0.024817
O O6 0.108396 0.493545 0.301410
O O7 0.818382 0.226941 0.820465
O O8 0.000000 0.500000 0.000000
O O9 0.500000 0.000000 0.500000
O O10 0.146533 0.065409 0.272017
O O11 0.151693 0.823634 0.952173
O O12 0.680451 0.715105 0.711801
O O13 0.512460 0.375637 0.295663
O O14 0.768265 0.609647 0.483111
O O15 0.047897 0.264557 0.495625
#
# Coordination Sequence:
#
# PCOD9015960 Si02
#       7
#     2   2   2   2   2   2   2
#     4  10  23  40  66  99 134 181 224 291 345 406
#     4  11  24  44  72 100 136 186 234 289 351 414
#     4  10  25  47  71 102 139 191 232 285 349 428
#     4  10  22  41  68  98 136 181 224 288 346 414
#     4  10  21  42  66 101 136 174 237 287 341 413
#     4  10  25  45  69 101 144 182 232 285 355 418
#     4  11  24  44  66  99 139 181 230 287 350 419
#
# _framework density 25.155521
#
# number of rings (size 3 to 8) (size 9 to 14) (size 15 to 20)
#    0.000    1.714    1.429    0.857   10.000    6.857 
#    2.571    1.429    0.000    0.000    0.000    0.000 
#    0.000    0.000    0.000    0.000    0.000    0.000 
#
# Total GULP energy -78294.531301 kJ/mol
# GULP energy per Si atom -5592.466522 kJ/mol
# Density = 2.509827 g / cm^3
# Si number density = 25.155521 Si / 1000 Ang^3
#
#
#
# Elastic Constant Matrix: (Units=GPa)
#
#
# Indices 1 2 3 4 5 6 
#
# 1 86.3089 62.2743 26.7320 -1.7740 -5.8449 15.8274
# 2 62.2743 178.2306 32.8993 -3.0715 -11.1172 6.8620
# 3 26.7320 32.8993 40.9768 -5.4815 1.5609 3.1334
# 4 -1.7740 -3.0715 -5.4815 43.0284 1.2866 3.1293
# 5 -5.8449 -11.1172 1.5609 1.2866 36.8318 2.9134
# 6 15.8274 6.8620 3.1334 3.1293 2.9134 55.5886
#
#
#
# Elastic Compliance Matrix: (Units=1/GPa)
#
#
# Indices 1 2 3 4 5 6 
#
# 1 0.018351 -0.004627 -0.008060 -0.000354 0.002209 -0.004295
# 2 -0.004627 0.007965 -0.003499 -0.000154 0.001788 0.000446
# 3 -0.008060 -0.003499 0.033048 0.003683 -0.003933 0.000863
# 4 -0.000354 -0.000154 0.003683 0.023814 -0.000982 -0.001377
# 5 0.002209 0.001788 -0.003933 -0.000982 0.028405 -0.002062
# 6 -0.004295 0.000446 0.000863 -0.001377 -0.002062 0.019294
#
#
# Mechanical properties :
#
#
# Convention : Reuss Voigt Hill
#
# Bulk Modulus (GPa) = 37.04814 61.03638 49.04226
# Shear Modulus (GPa) = 29.02821 39.33047 34.17934
#
# Velocity S-wave (km/s) = 3.40067 3.95839 3.69008
# Velocity P-wave (km/s) = 5.49354 6.72370 6.13951
#
# Compressibility (1/GPa) = 0.02699191
#
# Stress axis : x y z
#
# Youngs Moduli (GPa) = 54.49220 125.54827 30.25912
#
# Poissons Ratio (x) = 0.58093 0.24388
# Poissons Ratio (y) = 0.25214 0.10588
# Poissons Ratio (z) = 0.43920 0.43932
#
# Static dielectric constant tensor:
#      x y z
#    x 1.959130 -0.020590 -0.020800 
#    y -0.020590 1.999000 0.008180 
#    z -0.020800 0.008180 2.048660 
# 
# From -- ./inp_files/427091.got.cif
#   From: 2010.05.17/outbox.cif.g08.bks.cpg/sg2_214_cif.got.tgz:427091.got - 2010.06.03 11:33:40.
