data_PCOD9015461
_publ_section_title
;
Structure prediction by ZEFSAII (Michael W. Deem and Ramdas Pophale) SiO2 
 PCOD9015461
Probable space group: P -1
;
_chemical_formula_sum "Si O2"
_cell_formula_units_Z 14
_cell_length_a 9.070142
_cell_length_b 8.288255
_cell_length_c 21.143793
_cell_angle_alpha 50.704907
_cell_angle_beta 36.231147
_cell_angle_gamma 35.383284
_cell_volume 542.613297
_symmetry_space_group_name_H-M "P -1"
_symmetry_group_IT_number 2
_symmetry_cell_setting 'triclinic'
loop_
_space_group_symop_operation_xyz
x,y,z
-x,-y,-z
loop_
_atom_site_type_symbol
_atom_site_label
_atom_site_fract_x
_atom_site_fract_y
_atom_site_fract_z
Si Si1 0.134682 0.171598 0.527800
Si Si2 0.460161 0.728100 0.038117
Si Si3 0.682649 0.784861 0.070966
Si Si4 0.828369 0.539666 0.202384
Si Si5 0.274134 0.494173 0.532623
Si Si6 0.741418 0.094879 0.324081
Si Si7 0.000862 0.353461 0.755261
O O1 0.339286 0.275694 0.425533
O O2 0.886590 0.293712 0.523631
O O3 0.451442 0.836602 0.494716
O O4 0.050013 0.152928 0.633559
O O5 0.425501 0.848371 0.090833
O O6 0.342627 0.557716 0.123404
O O7 0.820187 0.573052 0.920979
O O8 0.240133 0.013351 0.003718
O O9 0.577219 0.771633 0.179745
O O10 0.000000 0.500000 0.000000
O O11 0.804011 0.303980 0.263502
O O12 0.807420 0.648648 0.251736
O O13 0.500000 0.500000 0.500000
O O14 0.983614 0.542501 0.661540
O O15 0.825481 0.942627 0.265204
#
# Coordination Sequence:
#
# PCOD9015461 Si02
#       7
#     2   2   2   2   2   2   2
#     4  10  24  46  74 104 148 195 239 307 371 435
#     4  10  21  42  62  99 137 181 235 287 350 431
#     4   9  19  37  66  88 130 179 224 282 345 412
#     4  11  23  43  66 101 138 185 231 295 357 422
#     4  11  24  47  73 109 147 190 248 305 367 439
#     4  10  23  44  71 107 141 186 244 294 367 435
#     4  11  24  42  68 103 137 182 239 293 360 433
#
# _framework density 25.801062000000002
#
# number of rings (size 3 to 8) (size 9 to 14) (size 15 to 20)
#    0.000    1.714    0.000    4.286    2.000    5.714 
#   15.429    0.000    0.000    0.000    0.000    0.000 
#    0.000    0.000    0.000    0.000    0.000    0.000 
#
# Total GULP energy -78106.837064 kJ/mol
# GULP energy per Si atom -5579.059790 kJ/mol
# Density = 2.574234 g / cm^3
# Si number density = 25.801062 Si / 1000 Ang^3
#
#
#
# Elastic Constant Matrix: (Units=GPa)
#
#
# Indices 1 2 3 4 5 6 
#
# 1 201.8345 49.4036 75.2493 -23.3429 18.3573 7.1093
# 2 49.4036 38.2239 28.3439 -14.6704 8.5628 -11.0822
# 3 75.2493 28.3439 111.4494 -14.5244 -2.9625 5.7025
# 4 -23.3429 -14.6704 -14.5244 41.0905 -10.8638 4.1659
# 5 18.3573 8.5628 -2.9625 -10.8638 56.0117 -5.9213
# 6 7.1093 -11.0822 5.7025 4.1659 -5.9213 44.1465
#
#
#
# Elastic Compliance Matrix: (Units=1/GPa)
#
#
# Indices 1 2 3 4 5 6 
#
# 1 0.008887 -0.009445 -0.003423 0.000315 -0.001975 -0.003655
# 2 -0.009445 0.050726 -0.006158 0.008668 -0.001825 0.013988
# 3 -0.003423 -0.006158 0.013251 0.001532 0.002800 -0.002475
# 4 0.000315 0.008668 0.001532 0.029318 0.004311 -0.000261
# 5 -0.001975 -0.001825 0.002800 0.004311 0.019951 0.001767
# 6 -0.003655 0.013988 -0.002475 -0.000261 0.001767 0.027333
#
#
# Mechanical properties :
#
#
# Convention : Reuss Voigt Hill
#
# Bulk Modulus (GPa) = 28.72569 73.05569 50.89069
# Shear Modulus (GPa) = 25.11015 41.48382 33.29699
#
# Velocity S-wave (km/s) = 3.12303 4.01413 3.59629
# Velocity P-wave (km/s) = 4.91550 7.06122 6.08371
#
# Compressibility (1/GPa) = 0.03481204
#
# Stress axis : x y z
#
# Youngs Moduli (GPa) = 112.51886 19.71370 75.46684
#
# Poissons Ratio (x) = 0.18619 0.25833
# Poissons Ratio (y) = 1.06269 0.46476
# Poissons Ratio (z) = 0.38517 0.12141
#
# Static dielectric constant tensor:
#      x y z
#    x 2.151710 -0.064990 -0.014570 
#    y -0.064990 2.180730 0.015370 
#    z -0.014570 0.015370 2.217930 
# 
# From -- ./inp_files/587195.got.cif
#   From: 2010.05.17/outbox.cif.g08.bks.cpg/sg2_294_cif.got.tgz:587195.got - 2010.06.03 11:33:40.
