data_PCOD9015654
_publ_section_title
;
Structure prediction by ZEFSAII (Michael W. Deem and Ramdas Pophale) SiO2 
 PCOD9015654
Probable space group: P -1
;
_chemical_formula_sum "Si O2"
_cell_formula_units_Z 16
_cell_length_a 10.892393
_cell_length_b 9.739805
_cell_length_c 12.795561
_cell_angle_alpha 135.954897
_cell_angle_beta 112.658298
_cell_angle_gamma 46.508913
_cell_volume 668.353913
_symmetry_space_group_name_H-M "P -1"
_symmetry_group_IT_number 2
_symmetry_cell_setting 'triclinic'
loop_
_space_group_symop_operation_xyz
x,y,z
-x,-y,-z
loop_
_atom_site_type_symbol
_atom_site_label
_atom_site_fract_x
_atom_site_fract_y
_atom_site_fract_z
Si Si1 0.605288 0.656033 0.706504
Si Si2 0.971776 0.466203 0.310422
Si Si3 0.575093 0.723656 0.334633
Si Si4 0.234404 0.828758 0.653696
Si Si5 0.376884 0.559188 0.204571
Si Si6 0.088374 0.367313 0.845788
Si Si7 0.938478 0.882892 0.675232
Si Si8 0.479085 0.173148 0.861441
O O1 0.403838 0.783905 0.721963
O O2 0.699550 0.410102 0.528789
O O3 0.678135 0.549957 0.787702
O O4 0.598588 0.876691 0.773405
O O5 0.780066 0.552528 0.304045
O O6 0.006380 0.468671 0.200925
O O7 0.960898 0.685723 0.488766
O O8 0.088495 0.204667 0.272378
O O9 0.494705 0.625964 0.324195
O O10 0.501368 0.773768 0.220895
O O11 0.500000 0.000000 0.500000
O O12 0.112331 0.848254 0.710907
O O13 0.123408 0.099146 0.703445
O O14 0.211988 0.825293 0.247726
O O15 0.491857 0.337903 0.036511
O O16 0.278708 0.287994 0.864387
O O17 0.000000 0.500000 0.000000
#
# Coordination Sequence:
#
# PCOD9015654 Si02
#       8
#     2   2   2   2   2   2   2   2
#     4  10  23  40  67  92 132 169 222 265 326 384
#     4  10  23  41  63  97 127 173 218 264 321 388
#     4  11  23  42  69  90 128 176 218 267 323 388
#     4  10  22  39  64  96 126 173 220 266 316 393
#     4  12  23  41  65  97 131 171 214 272 330 379
#     4  10  21  42  64  91 135 172 209 264 334 387
#     4  11  23  39  64  97 133 164 219 268 323 385
#     4  10  24  41  64  97 128 166 221 274 320 384
#
# _framework density 23.939412000000001
#
# number of rings (size 3 to 8) (size 9 to 14) (size 15 to 20)
#    0.000    1.500    1.250    3.000    7.000    3.000 
#    0.000   10.625    0.000    0.000    0.000    0.000 
#    0.000    0.000    0.000    0.000    0.000    0.000 
#
# Total GULP energy -89558.351606 kJ/mol
# GULP energy per Si atom -5597.396975 kJ/mol
# Density = 2.388493 g / cm^3
# Si number density = 23.939412 Si / 1000 Ang^3
#
#
#
# Elastic Constant Matrix: (Units=GPa)
#
#
# Indices 1 2 3 4 5 6 
#
# 1 113.1317 30.3276 -7.6902 -1.2611 -4.4681 11.0794
# 2 30.3276 133.4285 4.5381 -7.3337 -5.0377 16.7289
# 3 -7.6902 4.5381 31.2241 1.6577 7.7497 5.1252
# 4 -1.2611 -7.3337 1.6577 27.2947 10.7424 -5.5484
# 5 -4.4681 -5.0377 7.7497 10.7424 28.4199 -0.3930
# 6 11.0794 16.7289 5.1252 -5.5484 -0.3930 36.0761
#
#
#
# Elastic Compliance Matrix: (Units=1/GPa)
#
#
# Indices 1 2 3 4 5 6 
#
# 1 0.009874 -0.002045 0.003043 -0.001116 0.000745 -0.002680
# 2 -0.002045 0.008485 -0.001606 0.001265 0.001103 -0.002872
# 3 0.003043 -0.001606 0.036340 0.000299 -0.009904 -0.005414
# 4 -0.001116 0.001265 0.000299 0.044867 -0.016903 0.006430
# 5 0.000745 0.001103 -0.009904 -0.016903 0.044569 -0.001447
# 6 -0.002680 -0.002872 -0.005414 0.006430 -0.001447 0.031616
#
#
# Mechanical properties :
#
#
# Convention : Reuss Voigt Hill
#
# Bulk Modulus (GPa) = 18.69732 36.90391 27.80062
# Shear Modulus (GPa) = 25.66795 35.06539 30.36667
#
# Velocity S-wave (km/s) = 3.27801 3.83136 3.56544
# Velocity P-wave (km/s) = 4.70684 5.91790 5.34677
#
# Compressibility (1/GPa) = 0.05348359
#
# Stress axis : x y z
#
# Youngs Moduli (GPa) = 101.27851 117.85032 27.51752
#
# Poissons Ratio (x) = 0.24100 -0.08375
# Poissons Ratio (y) = 0.20711 0.04420
# Poissons Ratio (z) = -0.30822 0.18931
#
# Static dielectric constant tensor:
#      x y z
#    x 1.917920 -0.033920 0.018340 
#    y -0.033920 1.935480 -0.035750 
#    z 0.018340 -0.035750 1.856290 
# 
# From -- ./inp_files/382504.got.cif
#   From: 2010.05.17/outbox.cif.g08.bks.cpg/sg2_192_cif.got.tgz:382504.got - 2010.06.03 11:33:40.
