data_PCOD9015737
_publ_section_title
;
Structure prediction by ZEFSAII (Michael W. Deem and Ramdas Pophale) SiO2 
 PCOD9015737
Probable space group: P -1
;
_chemical_formula_sum "Si O2"
_cell_formula_units_Z 16
_cell_length_a 8.769584
_cell_length_b 11.508295
_cell_length_c 19.028826
_cell_angle_alpha 38.904328
_cell_angle_beta 136.172404
_cell_angle_gamma 107.925808
_cell_volume 678.467170
_symmetry_space_group_name_H-M "P -1"
_symmetry_group_IT_number 2
_symmetry_cell_setting 'triclinic'
loop_
_space_group_symop_operation_xyz
x,y,z
-x,-y,-z
loop_
_atom_site_type_symbol
_atom_site_label
_atom_site_fract_x
_atom_site_fract_y
_atom_site_fract_z
Si Si1 0.627760 0.883515 0.728396
Si Si2 0.572843 0.579776 0.758510
Si Si3 0.796459 0.936982 0.031193
Si Si4 0.966389 0.799129 0.998813
Si Si5 0.038808 0.027340 0.304550
Si Si6 0.994378 0.812350 0.633707
Si Si7 0.812109 0.522504 0.265131
Si Si8 0.185467 0.256424 0.637747
O O1 0.651475 0.663368 0.812191
O O2 0.687277 0.879575 0.831777
O O3 0.858789 0.885001 0.762872
O O4 0.321396 0.092702 0.511296
O O5 0.320635 0.805888 0.532404
O O6 0.451832 0.444569 0.805842
O O7 0.810710 0.441673 0.847555
O O8 0.783931 0.754403 0.155402
O O9 0.956290 0.801647 0.077419
O O10 0.952989 0.029846 0.073712
O O11 0.498139 0.145214 0.808933
O O12 0.870930 0.929120 0.272049
O O13 0.911619 0.188531 0.255268
O O14 0.154797 0.577081 0.755123
O O15 0.000000 0.000000 0.500000
O O16 0.076646 0.325150 0.489234
O O17 0.000000 0.500000 0.500000
#
# Coordination Sequence:
#
# PCOD9015737 Si02
#       8
#     2   2   2   2   2   2   2   2
#     4  11  23  40  67  96 132 174 218 271 338 396
#     4  10  21  42  64  98 131 170 217 273 333 396
#     4  11  27  46  65 100 134 176 227 272 330 391
#     4  11  26  45  61  94 142 167 217 283 323 396
#     4  10  23  38  68  99 127 176 222 268 336 393
#     4  11  19  42  67  96 137 167 220 279 325 394
#     4  11  24  42  74  98 129 182 219 275 336 384
#     4  11  24  45  70  98 134 174 230 274 319 402
#
# _framework density 23.582568999999999
#
# number of rings (size 3 to 8) (size 9 to 14) (size 15 to 20)
#    0.000    1.250    3.750    4.125    7.000    1.000 
#    0.000    3.125    0.000    0.000    0.000    0.000 
#    0.000    0.000    0.000    0.000    0.000    0.000 
#
# Total GULP energy -89541.484396 kJ/mol
# GULP energy per Si atom -5596.342775 kJ/mol
# Density = 2.352889 g / cm^3
# Si number density = 23.582569 Si / 1000 Ang^3
#
#
#
# Elastic Constant Matrix: (Units=GPa)
#
#
# Indices 1 2 3 4 5 6 
#
# 1 52.6239 3.7409 2.7902 3.3118 0.8300 -0.1713
# 2 3.7409 101.9418 13.6088 14.6200 1.0083 -2.0874
# 3 2.7902 13.6088 49.1975 -2.7008 11.8065 2.2126
# 4 3.3118 14.6200 -2.7008 25.6658 1.5956 5.1896
# 5 0.8300 1.0083 11.8065 1.5956 34.7580 -11.1382
# 6 -0.1713 -2.0874 2.2126 5.1896 -11.1382 44.5444
#
#
#
# Elastic Compliance Matrix: (Units=1/GPa)
#
#
# Indices 1 2 3 4 5 6 
#
# 1 0.019246 -0.000147 -0.001283 -0.002654 0.000264 0.000506
# 2 -0.000147 0.011476 -0.004187 -0.007527 0.002129 0.002154
# 3 -0.001283 -0.004187 0.024536 0.006704 -0.009996 -0.004701
# 4 -0.002654 -0.007527 0.006704 0.046272 -0.006599 -0.007737
# 5 0.000264 0.002129 -0.009996 -0.006599 0.035699 0.010293
# 6 0.000506 0.002154 -0.004701 -0.007737 0.010293 0.026261
#
#
# Mechanical properties :
#
#
# Convention : Reuss Voigt Hill
#
# Bulk Modulus (GPa) = 22.71476 27.11589 24.91532
# Shear Modulus (GPa) = 26.39940 33.23522 29.81731
#
# Velocity S-wave (km/s) = 3.34944 3.75815 3.55967
# Velocity P-wave (km/s) = 4.96097 5.50953 5.24243
#
# Compressibility (1/GPa) = 0.04402424
#
# Stress axis : x y z
#
# Youngs Moduli (GPa) = 51.95971 87.13520 40.75712
#
# Poissons Ratio (x) = 0.01278 0.05228
# Poissons Ratio (y) = 0.00762 0.17066
# Poissons Ratio (z) = 0.06666 0.36485
#
# Static dielectric constant tensor:
#      x y z
#    x 1.928340 0.004400 -0.033520 
#    y 0.004400 1.868660 0.004590 
#    z -0.033520 0.004590 1.871520 
# 
# From -- ./inp_files/205398.got.cif
#   From: 2010.05.17/outbox.cif.g08.bks.cpg/sg2_103_cif.got.tgz:205398.got - 2010.06.03 11:33:40.
