data_PCOD9015901
_publ_section_title
;
Structure prediction by ZEFSAII (Michael W. Deem and Ramdas Pophale) SiO2 
 PCOD9015901
Probable space group: P -1
;
_chemical_formula_sum "Si O2"
_cell_formula_units_Z 16
_cell_length_a 14.501718
_cell_length_b 8.996981
_cell_length_c 8.079637
_cell_angle_alpha 50.730336
_cell_angle_beta 105.325218
_cell_angle_gamma 84.608627
_cell_volume 737.334006
_symmetry_space_group_name_H-M "P -1"
_symmetry_group_IT_number 2
_symmetry_cell_setting 'triclinic'
loop_
_space_group_symop_operation_xyz
x,y,z
-x,-y,-z
loop_
_atom_site_type_symbol
_atom_site_label
_atom_site_fract_x
_atom_site_fract_y
_atom_site_fract_z
Si Si1 0.124275 0.975754 0.214296
Si Si2 0.038734 0.111767 0.591508
Si Si3 0.556364 0.268046 0.632329
Si Si4 0.418789 0.065242 0.563491
Si Si5 0.238288 0.842490 0.024342
Si Si6 0.727405 0.524801 0.943085
Si Si7 0.057073 0.458065 0.880927
Si Si8 0.332694 0.751370 0.654600
O O1 0.216382 0.888661 0.453263
O O2 0.086079 0.222496 0.009476
O O3 0.028406 0.920383 0.266645
O O4 0.175065 0.867119 0.146646
O O5 0.013209 0.353674 0.393018
O O6 0.159216 0.004976 0.751996
O O7 0.000000 0.000000 0.500000
O O8 0.500000 0.500000 0.500000
O O9 0.475330 0.152228 0.665830
O O10 0.602706 0.281678 0.461393
O O11 0.653351 0.147418 0.876972
O O12 0.500000 0.000000 0.500000
O O13 0.379599 0.879226 0.708601
O O14 0.326709 0.249693 0.310291
O O15 0.260519 0.627204 0.097394
O O16 0.837113 0.502782 0.079663
O O17 0.667202 0.451885 0.108900
O O18 0.000000 0.500000 0.000000
#
# Coordination Sequence:
#
# PCOD9015901 Si02
#       8
#     2   2   2   2   2   2   2   2
#     4  11  22  42  63  99 135 169 213 273 330 384
#     4  12  22  41  68  96 129 172 222 262 325 399
#     4  10  21  42  65  96 133 171 211 275 335 375
#     4  10  22  41  69  93 129 171 221 271 324 380
#     4  11  24  40  65  94 137 171 212 273 331 386
#     4  12  22  42  69  98 127 174 226 263 320 399
#     4  12  24  39  70  99 130 173 217 270 325 394
#     4  10  22  40  71  96 126 175 223 263 320 396
#
# _framework density 21.699798999999999
#
# number of rings (size 3 to 8) (size 9 to 14) (size 15 to 20)
#    0.000    1.000    6.250    0.375    0.000    2.500 
#    0.000    3.125    0.000    0.000    0.000    0.000 
#    0.000    0.000    0.000    0.000    0.000    0.000 
#
# Total GULP energy -89423.485059 kJ/mol
# GULP energy per Si atom -5588.967816 kJ/mol
# Density = 2.165041 g / cm^3
# Si number density = 21.699799 Si / 1000 Ang^3
#
#
#
# Elastic Constant Matrix: (Units=GPa)
#
#
# Indices 1 2 3 4 5 6 
#
# 1 78.4290 8.9332 19.4452 5.5112 6.7536 11.4312
# 2 8.9332 57.4935 5.0361 7.7599 -4.9366 -5.9660
# 3 19.4452 5.0361 49.8232 7.1958 6.3001 6.9815
# 4 5.5112 7.7599 7.1958 26.1100 6.2808 2.2636
# 5 6.7536 -4.9366 6.3001 6.2808 42.5298 -1.6910
# 6 11.4312 -5.9660 6.9815 2.2636 -1.6910 36.4739
#
#
#
# Elastic Compliance Matrix: (Units=1/GPa)
#
#
# Indices 1 2 3 4 5 6 
#
# 1 0.015031 -0.002519 -0.004705 -0.000245 -0.002117 -0.004305
# 2 -0.002519 0.019590 -0.001263 -0.006318 0.003985 0.004812
# 3 -0.004705 -0.001263 0.023373 -0.004242 -0.002357 -0.003052
# 4 -0.000245 -0.006318 -0.004242 0.043252 -0.006578 -0.003134
# 5 -0.002117 0.003985 -0.002357 -0.006578 0.025766 0.003369
# 6 -0.004305 0.004812 -0.003052 -0.003134 0.003369 0.030488
#
#
# Mechanical properties :
#
#
# Convention : Reuss Voigt Hill
#
# Bulk Modulus (GPa) = 24.37850 28.06386 26.22118
# Shear Modulus (GPa) = 26.57491 31.17815 28.87653
#
# Velocity S-wave (km/s) = 3.50331 3.79462 3.65187
# Velocity P-wave (km/s) = 5.25577 5.67095 5.46730
#
# Compressibility (1/GPa) = 0.04101976
#
# Stress axis : x y z
#
# Youngs Moduli (GPa) = 66.52955 51.04752 42.78394
#
# Poissons Ratio (x) = 0.12858 0.20131
# Poissons Ratio (y) = 0.16757 0.05403
# Poissons Ratio (z) = 0.31305 0.06446
#
# Static dielectric constant tensor:
#      x y z
#    x 1.758560 0.018800 -0.012730 
#    y 0.018800 1.809970 0.049040 
#    z -0.012730 0.049040 1.792090 
# 
# From -- ./inp_files/201099.got.cif
#   From: 2010.05.17/outbox.cif.g08.bks.cpg/sg2_101_cif.got.tgz:201099.got - 2010.06.03 11:33:40.
