data_PCOD9015318
_publ_section_title
;
Structure prediction by ZEFSAII (Michael W. Deem and Ramdas Pophale) SiO2 
 PCOD9015318
Probable space group: P -1
;
_chemical_formula_sum "Si O2"
_cell_formula_units_Z 16
_cell_length_a 6.639007
_cell_length_b 22.948919
_cell_length_c 17.105816
_cell_angle_alpha 158.365369
_cell_angle_beta 102.655086
_cell_angle_gamma 64.812531
_cell_volume 737.842863
_symmetry_space_group_name_H-M "P -1"
_symmetry_group_IT_number 2
_symmetry_cell_setting 'triclinic'
loop_
_space_group_symop_operation_xyz
x,y,z
-x,-y,-z
loop_
_atom_site_type_symbol
_atom_site_label
_atom_site_fract_x
_atom_site_fract_y
_atom_site_fract_z
Si Si1 0.660190 0.613051 0.431710
Si Si2 0.413383 0.900622 0.478919
Si Si3 0.842341 0.883775 0.776519
Si Si4 0.457839 0.240244 0.856984
Si Si5 0.127835 0.831715 0.575271
Si Si6 0.066028 0.814835 0.100549
Si Si7 0.620351 0.315419 0.339463
Si Si8 0.047099 0.391077 0.786000
O O1 0.716311 0.771870 0.633305
O O2 0.431726 0.686232 0.440978
O O3 0.548449 0.613669 0.507254
O O4 0.909774 0.384269 0.151250
O O5 0.442774 0.791895 0.264787
O O6 0.640174 0.745708 0.366729
O O7 0.479585 0.049340 0.646497
O O8 0.130473 0.035407 0.661593
O O9 0.969693 0.847434 0.656931
O O10 0.081460 0.781421 0.731267
O O11 0.646063 0.123578 0.071039
O O12 0.643937 0.256952 0.947002
O O13 0.153051 0.433431 0.072096
O O14 0.047574 0.746184 0.393997
O O15 0.039457 0.048437 0.814716
O O16 0.500000 0.500000 0.500000
O O17 0.000000 0.500000 0.000000
#
# Coordination Sequence:
#
# PCOD9015318 Si02
#       8
#     2   2   2   2   2   2   2   2
#     4  11  25  41  65 100 132 171 210 259 323 390
#     4  10  23  38  62  89 120 172 223 275 328 374
#     4  10  24  43  67  96 133 166 208 262 314 386
#     4  10  21  42  60  85 127 167 221 279 325 376
#     4  11  24  41  61  94 135 170 218 268 323 379
#     4  12  24  38  62  95 129 169 219 268 323 387
#     4  10  22  45  72  98 127 165 207 258 319 383
#     4  10  21  42  64  86 126 178 220 272 327 375
#
# _framework density 21.684833000000001
#
# number of rings (size 3 to 8) (size 9 to 14) (size 15 to 20)
#    0.000    1.500    2.500    1.500    3.500    1.500 
#    0.000    1.250    0.000    0.000    0.000    0.000 
#    0.000    0.000    0.000    0.000    0.000    0.000 
#
# Total GULP energy -89406.694013 kJ/mol
# GULP energy per Si atom -5587.918376 kJ/mol
# Density = 2.163548 g / cm^3
# Si number density = 21.684833 Si / 1000 Ang^3
#
#
#
# Elastic Constant Matrix: (Units=GPa)
#
#
# Indices 1 2 3 4 5 6 
#
# 1 39.0302 35.4390 8.8782 11.5152 7.7296 4.3187
# 2 35.4390 93.7631 42.9480 33.1602 -0.2425 7.7104
# 3 8.8782 42.9480 107.0688 29.4540 7.6296 -2.8525
# 4 11.5152 33.1602 29.4540 31.4814 -6.1836 -2.3167
# 5 7.7296 -0.2425 7.6296 -6.1836 32.2391 0.2532
# 6 4.3187 7.7104 -2.8525 -2.3167 0.2532 25.1830
#
#
#
# Elastic Compliance Matrix: (Units=1/GPa)
#
#
# Indices 1 2 3 4 5 6 
#
# 1 0.044670 -0.017063 0.005881 -0.006685 -0.013495 -0.002249
# 2 -0.017063 0.025675 -0.004704 -0.016466 0.002294 -0.007005
# 3 0.005881 -0.004704 0.014659 -0.012263 -0.007275 0.001037
# 4 -0.006685 -0.016466 -0.012263 0.067198 0.017185 0.010808
# 5 -0.013495 0.002294 -0.007275 0.017185 0.039273 0.001974
# 6 -0.002249 -0.007005 0.001037 0.010808 0.001974 0.043332
#
#
# Mechanical properties :
#
#
# Convention : Reuss Voigt Hill
#
# Bulk Modulus (GPa) = 18.78625 46.04360 32.41492
# Shear Modulus (GPa) = 17.58559 27.95384 22.76971
#
# Velocity S-wave (km/s) = 2.85083 3.59429 3.24393
# Velocity P-wave (km/s) = 4.41797 6.20520 5.38623
#
# Compressibility (1/GPa) = 0.05323042
#
# Stress axis : x y z
#
# Youngs Moduli (GPa) = 22.38624 38.94899 68.21880
#
# Poissons Ratio (x) = 0.66460 -0.40120
# Poissons Ratio (y) = 0.38198 0.32092
# Poissons Ratio (z) = -0.13165 0.18323
#
# Static dielectric constant tensor:
#      x y z
#    x 1.745040 -0.002860 -0.007430 
#    y -0.002860 1.795150 -0.001770 
#    z -0.007430 -0.001770 1.832230 
# 
# From -- ./inp_files/551289.got.cif
#   From: 2010.05.17/outbox.cif.g08.bks.cpg/sg2_276_cif.got.tgz:551289.got - 2010.06.03 11:33:40.
