data_PCOD9015603
_publ_section_title
;
Structure prediction by ZEFSAII (Michael W. Deem and Ramdas Pophale) SiO2 
 PCOD9015603
Probable space group: P -1
;
_chemical_formula_sum "Si O2"
_cell_formula_units_Z 14
_cell_length_a 6.962659
_cell_length_b 8.385783
_cell_length_c 18.202169
_cell_angle_alpha 129.308391
_cell_angle_beta 66.911311
_cell_angle_gamma 131.629141
_cell_volume 613.895780
_symmetry_space_group_name_H-M "P -1"
_symmetry_group_IT_number 2
_symmetry_cell_setting 'triclinic'
loop_
_space_group_symop_operation_xyz
x,y,z
-x,-y,-z
loop_
_atom_site_type_symbol
_atom_site_label
_atom_site_fract_x
_atom_site_fract_y
_atom_site_fract_z
Si Si1 0.287750 0.549776 0.030791
Si Si2 0.936609 0.032954 0.896224
Si Si3 0.468613 0.886361 0.361652
Si Si4 0.948266 0.933461 0.704357
Si Si5 0.713333 0.075180 0.090158
Si Si6 0.289229 0.600139 0.462225
Si Si7 0.040566 0.599943 0.220092
O O1 0.139160 0.499801 0.113507
O O2 0.421563 0.839248 0.077978
O O3 0.500000 0.500000 0.000000
O O4 0.107293 0.333495 0.936587
O O5 0.112187 0.967342 0.894552
O O6 0.862580 0.887531 0.788917
O O7 0.755578 0.015112 0.982882
O O8 0.376596 0.733617 0.407909
O O9 0.241220 0.702733 0.286074
O O10 0.515063 0.159991 0.445227
O O11 0.751847 0.969367 0.318585
O O12 0.750937 0.667908 0.614384
O O13 0.954251 0.164311 0.737837
O O14 0.759403 0.333714 0.188140
O O15 0.000000 0.500000 0.500000
#
# Coordination Sequence:
#
# PCOD9015603 Si02
#       7
#     2   2   2   2   2   2   2
#     4   9  18  34  55  82 115 156 198 234 279 333
#     4   9  18  33  54  79 115 155 195 237 278 334
#     4  10  21  42  64  83 116 154 187 237 297 350
#     4  11  23  38  59  90 119 149 195 244 288 344
#     4   9  18  34  55  82 116 157 195 234 284 333
#     4   9  21  42  65  87 114 150 190 236 295 354
#     4  11  23  36  59  91 117 151 198 239 287 346
#
# _framework density 22.805173
#
# number of rings (size 3 to 8) (size 9 to 14) (size 15 to 20)
#    0.000    2.286    0.000    3.429    0.000    6.286 
#    0.000    7.857    0.000    0.000    0.000    0.000 
#    0.000    0.000    0.000    0.000    0.000    0.000 
#
# Total GULP energy -78041.705783 kJ/mol
# GULP energy per Si atom -5574.407556 kJ/mol
# Density = 2.275327 g / cm^3
# Si number density = 22.805173 Si / 1000 Ang^3
#
#
#
# Elastic Constant Matrix: (Units=GPa)
#
#
# Indices 1 2 3 4 5 6 
#
# 1 64.2803 13.0756 23.2870 -4.0075 -1.7581 -4.1394
# 2 13.0756 83.7838 22.1986 32.6729 -4.1482 -0.2314
# 3 23.2870 22.1986 101.5966 21.5522 -6.2714 0.2035
# 4 -4.0075 32.6729 21.5522 48.4676 -6.8211 -4.3304
# 5 -1.7581 -4.1482 -6.2714 -6.8211 15.0908 6.4781
# 6 -4.1394 -0.2314 0.2035 -4.3304 6.4781 29.9432
#
#
#
# Elastic Compliance Matrix: (Units=1/GPa)
#
#
# Indices 1 2 3 4 5 6 
#
# 1 0.018884 -0.004380 -0.004836 0.007073 0.000688 0.003484
# 2 -0.004380 0.017436 -0.000226 -0.012269 -0.000434 -0.002150
# 3 -0.004836 -0.000226 0.012359 -0.005524 0.002955 -0.002193
# 4 0.007073 -0.012269 -0.005524 0.033507 0.008627 0.003900
# 5 0.000688 -0.000434 0.002955 0.008627 0.078034 -0.015563
# 6 0.003484 -0.002150 -0.002193 0.003900 -0.015563 0.037807
#
#
# Mechanical properties :
#
#
# Convention : Reuss Voigt Hill
#
# Bulk Modulus (GPa) = 33.56259 40.75367 37.15813
# Shear Modulus (GPa) = 22.04166 31.44029 26.74098
#
# Velocity S-wave (km/s) = 3.11226 3.71704 3.42802
# Velocity P-wave (km/s) = 5.25965 6.02752 5.65663
#
# Compressibility (1/GPa) = 0.02979507
#
# Stress axis : x y z
#
# Youngs Moduli (GPa) = 52.95482 57.35311 80.91128
#
# Poissons Ratio (x) = 0.25122 0.39131
# Poissons Ratio (y) = 0.23195 0.01825
# Poissons Ratio (z) = 0.25610 0.01293
#
# Static dielectric constant tensor:
#      x y z
#    x 1.838340 0.083600 0.013360 
#    y 0.083600 1.711160 -0.088100 
#    z 0.013360 -0.088100 1.769160 
# 
# From -- ./inp_files/506808.got.cif
#   From: 2010.05.17/outbox.cif.g08.bks.cpg/sg2_254_cif.got.tgz:506808.got - 2010.06.03 11:33:40.
