data_PCOD9015589
_publ_section_title
;
Structure prediction by ZEFSAII (Michael W. Deem and Ramdas Pophale) SiO2 
 PCOD9015589
Probable space group: P -1
;
_chemical_formula_sum "Si O2"
_cell_formula_units_Z 14
_cell_length_a 20.766927
_cell_length_b 16.314783
_cell_length_c 9.545779
_cell_angle_alpha 43.423622
_cell_angle_beta 139.914573
_cell_angle_gamma 163.215241
_cell_volume 601.068992
_symmetry_space_group_name_H-M "P -1"
_symmetry_group_IT_number 2
_symmetry_cell_setting 'triclinic'
loop_
_space_group_symop_operation_xyz
x,y,z
-x,-y,-z
loop_
_atom_site_type_symbol
_atom_site_label
_atom_site_fract_x
_atom_site_fract_y
_atom_site_fract_z
Si Si1 0.206039 0.203518 0.281821
Si Si2 0.969478 0.372246 0.484567
Si Si3 0.619736 0.373156 0.111590
Si Si4 0.443507 0.828618 0.217700
Si Si5 0.367133 0.500046 0.442690
Si Si6 0.686482 0.172851 0.724240
Si Si7 0.327304 0.424605 0.796307
O O1 0.213895 0.247143 0.404494
O O2 0.367637 0.264195 0.439857
O O3 0.331166 0.452638 0.107196
O O4 0.931500 0.885546 0.185537
O O5 0.000000 0.500000 0.500000
O O6 0.140446 0.446407 0.710603
O O7 0.062577 0.537333 0.293101
O O8 0.694929 0.045150 0.417575
O O9 0.569922 0.358568 0.206632
O O10 0.403278 0.055038 0.095531
O O11 0.325094 0.593950 0.223849
O O12 0.324991 0.751627 0.256624
O O13 0.500000 0.000000 0.000000
O O14 0.308831 0.432259 0.593197
O O15 0.500000 0.000000 0.500000
O O16 0.500000 0.500000 0.000000
#
# Coordination Sequence:
#
# PCOD9015589 Si02
#       7
#     2   2   2   2   2   2   2
#     4  11  25  46  66 100 135 180 225 273 346 399
#     4  11  23  40  70  95 136 180 216 279 333 391
#     4  11  22  42  71 101 132 170 229 276 328 406
#     4  12  25  44  67 102 135 178 225 272 342 396
#     4  11  25  45  68  94 144 178 218 283 333 403
#     4  10  21  42  64 100 132 167 226 269 327 401
#     4  12  25  42  69 103 132 177 228 279 336 395
#
# _framework density 23.291836
#
# number of rings (size 3 to 8) (size 9 to 14) (size 15 to 20)
#    0.000    0.857    4.286    4.286    2.000    0.571 
#    0.000    0.000    0.000    0.000    0.000    0.000 
#    0.000    0.000    0.000    0.000    0.000    0.000 
#
# Total GULP energy -78314.067195 kJ/mol
# GULP energy per Si atom -5593.861942 kJ/mol
# Density = 2.323882 g / cm^3
# Si number density = 23.291836 Si / 1000 Ang^3
#
#
#
# Elastic Constant Matrix: (Units=GPa)
#
#
# Indices 1 2 3 4 5 6 
#
# 1 194.5991 22.3954 26.2528 -12.0094 8.7827 -5.3326
# 2 22.3954 68.9226 -13.6125 -7.7253 5.9432 5.2438
# 3 26.2528 -13.6125 66.1299 -20.4730 10.5788 1.1861
# 4 -12.0094 -7.7253 -20.4730 31.3173 1.3643 -2.3256
# 5 8.7827 5.9432 10.5788 1.3643 40.3651 -10.2129
# 6 -5.3326 5.2438 1.1861 -2.3256 -10.2129 30.5287
#
#
#
# Elastic Compliance Matrix: (Units=1/GPa)
#
#
# Indices 1 2 3 4 5 6 
#
# 1 0.005878 -0.002717 -0.003082 -0.000320 0.000373 0.001714
# 2 -0.002717 0.019221 0.009093 0.009509 -0.006342 -0.005526
# 3 -0.003082 0.009093 0.025194 0.017572 -0.009073 -0.004776
# 4 -0.000320 0.009509 0.017572 0.045872 -0.007868 -0.001510
# 5 0.000373 -0.006342 -0.009073 -0.007868 0.031135 0.011323
# 6 0.001714 -0.005526 -0.004776 -0.001510 0.011323 0.037863
#
#
# Mechanical properties :
#
#
# Convention : Reuss Voigt Hill
#
# Bulk Modulus (GPa) = 17.58102 44.41368 30.99735
# Shear Modulus (GPa) = 28.16329 40.08330 34.12330
#
# Velocity S-wave (km/s) = 3.48105 4.15289 3.83173
# Velocity P-wave (km/s) = 4.87047 6.48884 5.73701
#
# Compressibility (1/GPa) = 0.05687952
#
# Stress axis : x y z
#
# Youngs Moduli (GPa) = 170.13675 52.02661 39.69175
#
# Poissons Ratio (x) = 0.14136 0.12234
# Poissons Ratio (y) = 0.46228 -0.36091
# Poissons Ratio (z) = 0.52441 -0.47307
#
# Static dielectric constant tensor:
#      x y z
#    x 1.862520 -0.011630 -0.055790 
#    y -0.011630 1.913030 -0.035710 
#    z -0.055790 -0.035710 2.042410 
# 
# From -- ./inp_files/179553.got.cif
#   From: 2010.05.17/outbox.cif.g08.bks.cpg/sg2_90_cif.got.tgz:179553.got - 2010.06.03 11:33:40.
