data_PCOD9015413
_publ_section_title
;
Structure prediction by ZEFSAII (Michael W. Deem and Ramdas Pophale) SiO2 
 PCOD9015413
Probable space group: P -1
;
_chemical_formula_sum "Si O2"
_cell_formula_units_Z 14
_cell_length_a 8.334250
_cell_length_b 9.406353
_cell_length_c 10.416705
_cell_angle_alpha 95.038750
_cell_angle_beta 82.538570
_cell_angle_gamma 138.234155
_cell_volume 539.282237
_symmetry_space_group_name_H-M "P -1"
_symmetry_group_IT_number 2
_symmetry_cell_setting 'triclinic'
loop_
_space_group_symop_operation_xyz
x,y,z
-x,-y,-z
loop_
_atom_site_type_symbol
_atom_site_label
_atom_site_fract_x
_atom_site_fract_y
_atom_site_fract_z
Si Si1 0.223373 0.512398 0.887398
Si Si2 0.691610 0.653344 0.761254
Si Si3 0.151235 0.994778 0.393219
Si Si4 0.608236 0.153050 0.314234
Si Si5 0.428636 0.845281 0.106006
Si Si6 0.046481 0.867812 0.959494
Si Si7 0.032954 0.354559 0.457859
O O1 0.427607 0.530251 0.826137
O O2 0.243230 0.649539 0.787199
O O3 0.274029 0.630644 0.025221
O O4 0.989208 0.262987 0.926111
O O5 0.842188 0.691554 0.865976
O O6 0.741820 0.570102 0.636174
O O7 0.813468 0.885258 0.726352
O O8 0.998745 0.751403 0.414331
O O9 0.431814 0.142454 0.411625
O O10 0.000000 0.000000 0.500000
O O11 0.795257 0.181340 0.377253
O O12 0.405868 0.924766 0.242600
O O13 0.691422 0.952522 0.115748
O O14 0.500000 0.000000 0.000000
O O15 0.000000 0.000000 0.000000
O O16 0.000000 0.500000 0.500000
#
# Coordination Sequence:
#
# PCOD9015413 Si02
#       7
#     2   2   2   2   2   2   2
#     4  10  23  42  65  96 137 168 210 256 318 405
#     4  10  21  42  62  90 129 173 211 257 323 382
#     4   9  21  42  65  80 122 170 213 265 314 373
#     4  10  21  42  64  95 126 166 212 266 329 372
#     4  10  22  40  63  96 133 164 210 258 322 384
#     4  12  23  39  64  96 134 171 212 253 318 394
#     4  11  23  41  64  96 122 164 220 277 316 370
#
# _framework density 25.960431
#
# number of rings (size 3 to 8) (size 9 to 14) (size 15 to 20)
#    0.000    1.714    2.857    0.857    0.000    4.571 
#    0.000    6.429    0.000    0.000    0.000    0.000 
#    0.000    0.000    0.000    0.000    0.000    0.000 
#
# Total GULP energy -78002.286306 kJ/mol
# GULP energy per Si atom -5571.591879 kJ/mol
# Density = 2.590134 g / cm^3
# Si number density = 25.960431 Si / 1000 Ang^3
#
#
#
# Elastic Constant Matrix: (Units=GPa)
#
#
# Indices 1 2 3 4 5 6 
#
# 1 96.4645 12.9431 24.5375 -0.6300 -26.9624 -5.3659
# 2 12.9431 106.0650 40.7541 -7.8486 -14.2731 -35.8519
# 3 24.5375 40.7541 80.4413 0.7055 -19.4258 -3.5057
# 4 -0.6300 -7.8486 0.7055 33.7843 -5.8672 1.7552
# 5 -26.9624 -14.2731 -19.4258 -5.8672 50.6526 -3.5029
# 6 -5.3659 -35.8519 -3.5057 1.7552 -3.5029 53.0005
#
#
#
# Elastic Compliance Matrix: (Units=1/GPa)
#
#
# Indices 1 2 3 4 5 6 
#
# 1 0.012890 0.001376 -0.002978 0.001619 0.006461 0.002412
# 2 0.001376 0.016705 -0.007520 0.004149 0.003801 0.011056
# 3 -0.002978 -0.007520 0.017616 -0.001511 0.002600 -0.004001
# 4 0.001619 0.004149 -0.001511 0.031422 0.005242 0.002177
# 5 0.006461 0.003801 0.002600 0.005242 0.026200 0.004955
# 6 0.002412 0.011056 -0.004001 0.002177 0.004955 0.026581
#
#
# Mechanical properties :
#
#
# Convention : Reuss Voigt Hill
#
# Bulk Modulus (GPa) = 34.52032 48.82670 41.67351
# Shear Modulus (GPa) = 31.38438 41.13655 36.26047
#
# Velocity S-wave (km/s) = 3.48074 3.98501 3.74138
# Velocity P-wave (km/s) = 5.42957 6.32635 5.89503
#
# Compressibility (1/GPa) = 0.02896845
#
# Stress axis : x y z
#
# Youngs Moduli (GPa) = 77.57893 59.86136 56.76556
#
# Poissons Ratio (x) = -0.08236 0.16903
# Poissons Ratio (y) = -0.10673 0.42686
# Poissons Ratio (z) = 0.23100 0.45014
#
# Static dielectric constant tensor:
#      x y z
#    x 2.094980 0.029040 -0.077720 
#    y 0.029040 2.140540 0.083810 
#    z -0.077720 0.083810 2.195660 
# 
# From -- ./inp_files/49002.got.cif
#   From: 2010.05.17/outbox.cif.g08.bks.cpg/sg2_25_cif.got.tgz:49002.got - 2010.06.03 11:33:40.
