data_PCOD9015467
_publ_section_title
;
Structure prediction by ZEFSAII (Michael W. Deem and Ramdas Pophale) SiO2 
 PCOD9015467
Probable space group: P -1
;
_chemical_formula_sum "Si O2"
_cell_formula_units_Z 16
_cell_length_a 7.030724
_cell_length_b 20.784636
_cell_length_c 5.458260
_cell_angle_alpha 73.189828
_cell_angle_beta 70.602523
_cell_angle_gamma 65.473657
_cell_volume 673.734480
_symmetry_space_group_name_H-M "P -1"
_symmetry_group_IT_number 2
_symmetry_cell_setting 'triclinic'
loop_
_space_group_symop_operation_xyz
x,y,z
-x,-y,-z
loop_
_atom_site_type_symbol
_atom_site_label
_atom_site_fract_x
_atom_site_fract_y
_atom_site_fract_z
Si Si1 0.941068 0.082291 0.249666
Si Si2 0.244062 0.949093 0.130937
Si Si3 0.928471 0.227683 0.886714
Si Si4 0.367837 0.336622 0.561330
Si Si5 0.004069 0.541838 0.201420
Si Si6 0.874405 0.726182 0.641233
Si Si7 0.402143 0.198345 0.929817
Si Si8 0.733881 0.366011 0.089984
O O1 0.882252 0.074802 0.564510
O O2 0.826026 0.049430 0.127011
O O3 0.191199 0.031631 0.146906
O O4 0.872643 0.163298 0.095266
O O5 0.466397 0.882554 0.104897
O O6 0.000673 0.224338 0.579915
O O7 0.158138 0.218156 0.921912
O O8 0.762991 0.306637 0.930867
O O9 0.218468 0.389096 0.769278
O O10 0.198068 0.323002 0.461361
O O11 0.489772 0.256839 0.707490
O O12 0.522278 0.371072 0.324153
O O13 0.000000 0.500000 0.500000
O O14 0.000000 0.500000 0.000000
O O15 0.215333 0.565050 0.095013
O O16 0.058992 0.671774 0.785424
O O17 0.649926 0.779105 0.791365
#
# Coordination Sequence:
#
# PCOD9015467 Si02
#       8
#     2   2   2   2   2   2   2   2
#     4  10  23  41  61  93 136 179 228 283 342 408
#     4  10  23  41  61  93 136 179 228 283 342 408
#     4  10  22  38  65  96 132 176 231 287 336 402
#     4  11  24  44  71 102 136 184 232 280 350 409
#     4  12  27  50  72 102 150 176 225 293 340 426
#     4  10  21  42  63 104 141 170 228 303 334 402
#     4  10  22  38  65  96 132 176 231 287 336 402
#     4  11  24  44  71 102 136 184 232 280 350 409
#
# _framework density 23.748227
#
# number of rings (size 3 to 8) (size 9 to 14) (size 15 to 20)
#    0.000    1.500    3.750    1.500   10.500    1.500 
#    0.000    0.625    0.000    0.000    0.000    0.000 
#    0.000    0.000    0.000    0.000    0.000    0.000 
#
# Total GULP energy -89207.046703 kJ/mol
# GULP energy per Si atom -5575.440419 kJ/mol
# Density = 2.369418 g / cm^3
# Si number density = 23.748227 Si / 1000 Ang^3
#
#
#
# Elastic Constant Matrix: (Units=GPa)
#
#
# Indices 1 2 3 4 5 6 
#
# 1 51.3922 10.6380 24.0868 8.1107 -14.5257 0.8525
# 2 10.6380 60.0766 17.3277 11.9846 -7.9023 1.3092
# 3 24.0868 17.3277 123.8549 -10.3954 -6.9478 10.2413
# 4 8.1107 11.9846 -10.3954 49.6752 -1.7610 -5.7221
# 5 -14.5257 -7.9023 -6.9478 -1.7610 32.6781 -0.0365
# 6 0.8525 1.3092 10.2413 -5.7221 -0.0365 26.1162
#
#
#
# Elastic Compliance Matrix: (Units=1/GPa)
#
#
# Indices 1 2 3 4 5 6 
#
# 1 0.025300 -0.000961 -0.004620 -0.004512 0.009788 0.000059
# 2 -0.000961 0.019027 -0.002624 -0.004977 0.003347 -0.000979
# 3 -0.004620 -0.002624 0.009813 0.003093 -0.000438 -0.002889
# 4 -0.004512 -0.004977 0.003093 0.023160 -0.001299 0.004256
# 5 0.009788 0.003347 -0.000438 -0.001299 0.035598 -0.000550
# 6 0.000059 -0.000979 -0.002889 0.004256 -0.000550 0.040402
#
#
# Mechanical properties :
#
#
# Convention : Reuss Voigt Hill
#
# Bulk Modulus (GPa) = 26.50424 37.71431 32.10927
# Shear Modulus (GPa) = 27.42912 33.91199 30.67055
#
# Velocity S-wave (km/s) = 3.40221 3.78296 3.59763
# Velocity P-wave (km/s) = 5.15928 5.91578 5.55043
#
# Compressibility (1/GPa) = 0.03772982
#
# Stress axis : x y z
#
# Youngs Moduli (GPa) = 39.52509 52.55746 101.90058
#
# Poissons Ratio (x) = 0.05051 0.47082
# Poissons Ratio (y) = 0.03799 0.26739
# Poissons Ratio (z) = 0.18262 0.13791
#
# Static dielectric constant tensor:
#      x y z
#    x 1.966210 -0.001190 0.078090 
#    y -0.001190 1.998610 -0.005870 
#    z 0.078090 -0.005870 2.149940 
# 
# From -- ./inp_files/52698.got.cif
#   From: 2010.05.17/outbox.cif.g08.bks.cpg/sg2_27_cif.got.tgz:52698.got - 2010.06.03 11:33:40.
