data_PCOD9015989
_publ_section_title
;
Structure prediction by ZEFSAII (Michael W. Deem and Ramdas Pophale) SiO2 
 PCOD9015989
Probable space group: P -1
;
_chemical_formula_sum "Si O2"
_cell_formula_units_Z 16
_cell_length_a 8.452936
_cell_length_b 22.227398
_cell_length_c 12.976546
_cell_angle_alpha 21.715788
_cell_angle_beta 54.747788
_cell_angle_gamma 54.104882
_cell_volume 726.489013
_symmetry_space_group_name_H-M "P -1"
_symmetry_group_IT_number 2
_symmetry_cell_setting 'triclinic'
loop_
_space_group_symop_operation_xyz
x,y,z
-x,-y,-z
loop_
_atom_site_type_symbol
_atom_site_label
_atom_site_fract_x
_atom_site_fract_y
_atom_site_fract_z
Si Si1 0.352919 0.469409 0.697192
Si Si2 0.987854 0.732953 0.444330
Si Si3 0.332528 0.130890 0.987164
Si Si4 0.371136 0.438576 0.380036
Si Si5 0.760770 0.210991 0.228620
Si Si6 0.575052 0.670004 0.689209
Si Si7 0.783910 0.037187 0.899134
Si Si8 0.812466 0.857798 0.744403
O O1 0.500000 0.500000 0.500000
O O2 0.448783 0.520896 0.684708
O O3 0.149558 0.592393 0.559258
O O4 0.303774 0.284962 0.022395
O O5 0.794463 0.661600 0.660317
O O6 0.090755 0.817945 0.361950
O O7 0.904738 0.878304 0.164444
O O8 0.263178 0.322645 0.676429
O O9 0.570925 0.089047 0.952373
O O10 0.255801 0.117743 0.150424
O O11 0.249815 0.013822 0.123110
O O12 0.426832 0.316204 0.455832
O O13 0.262964 0.615377 0.099485
O O14 0.572642 0.212412 0.370876
O O15 0.954104 0.201029 0.242468
O O16 0.777861 0.045399 0.416238
O O17 0.500000 0.500000 0.000000
#
# Coordination Sequence:
#
# PCOD9015989 Si02
#       8
#     2   2   2   2   2   2   2   2
#     4  12  24  40  64  99 136 164 213 270 326 381
#     4  11  21  38  62  95 130 165 213 266 324 378
#     4  11  21  41  69  99 132 161 215 275 325 388
#     4  11  22  42  67  96 127 170 213 268 329 374
#     4  10  25  45  65  90 130 180 215 259 325 388
#     4  10  21  42  66  88 127 172 215 261 318 381
#     4  10  22  36  64 102 127 158 210 276 333 370
#     4  11  24  43  65  93 132 176 217 258 321 394
#
# _framework density 22.023731999999999
#
# number of rings (size 3 to 8) (size 9 to 14) (size 15 to 20)
#    0.000    1.250    3.750    2.250    1.750    3.000 
#    0.000   10.625    0.000    0.000    0.000    0.000 
#    0.000    0.000    0.000    0.000    0.000    0.000 
#
# Total GULP energy -89338.288676 kJ/mol
# GULP energy per Si atom -5583.643042 kJ/mol
# Density = 2.197361 g / cm^3
# Si number density = 22.023732 Si / 1000 Ang^3
#
#
#
# Elastic Constant Matrix: (Units=GPa)
#
#
# Indices 1 2 3 4 5 6 
#
# 1 106.5956 42.6556 26.5366 -11.9614 -33.7696 -11.4083
# 2 42.6556 66.8286 18.7945 -8.7676 -6.7533 -29.9780
# 3 26.5366 18.7945 123.7296 -26.1743 -8.1653 -13.4042
# 4 -11.9614 -8.7676 -26.1743 29.9807 -5.9476 -0.5306
# 5 -33.7696 -6.7533 -8.1653 -5.9476 57.5773 -4.3577
# 6 -11.4083 -29.9780 -13.4042 -0.5306 -4.3577 31.6894
#
#
#
# Elastic Compliance Matrix: (Units=1/GPa)
#
#
# Indices 1 2 3 4 5 6 
#
# 1 0.016613 -0.010021 -0.000730 0.004755 0.008765 -0.002522
# 2 -0.010021 0.036953 0.002333 0.009881 0.002292 0.032817
# 3 -0.000730 0.002333 0.011185 0.010902 0.003109 0.007285
# 4 0.004755 0.009881 0.010902 0.050375 0.012073 0.018174
# 5 0.008765 0.002292 0.003109 0.012073 0.025246 0.010313
# 6 -0.002522 0.032817 0.007285 0.018174 0.010313 0.066497
#
#
# Mechanical properties :
#
#
# Convention : Reuss Voigt Hill
#
# Bulk Modulus (GPa) = 20.87027 52.56969 36.71998
# Shear Modulus (GPa) = 20.86144 37.79395 29.32769
#
# Velocity S-wave (km/s) = 3.08104 4.14702 3.65312
# Velocity P-wave (km/s) = 4.70680 6.84484 5.87391
#
# Compressibility (1/GPa) = 0.04791505
#
# Stress axis : x y z
#
# Youngs Moduli (GPa) = 60.19290 27.06173 89.40590
#
# Poissons Ratio (x) = 0.27118 0.06526
# Poissons Ratio (y) = 0.60317 -0.20856
# Poissons Ratio (z) = 0.04394 -0.06313
#
# Static dielectric constant tensor:
#      x y z
#    x 1.804130 -0.005070 0.050620 
#    y -0.005070 1.857300 -0.010030 
#    z 0.050620 -0.010030 1.996780 
# 
# From -- ./inp_files/354433.got.cif
#   From: 2010.05.17/outbox.cif.g08.bks.cpg/sg2_178_cif.got.tgz:354433.got - 2010.06.03 11:33:40.
