data_PCOD9015940
_publ_section_title
;
Structure prediction by ZEFSAII (Michael W. Deem and Ramdas Pophale) SiO2 
 PCOD9015940
Probable space group: P -1
;
_chemical_formula_sum "Si O2"
_cell_formula_units_Z 15
_cell_length_a 5.068984
_cell_length_b 11.995735
_cell_length_c 12.215123
_cell_angle_alpha 105.859376
_cell_angle_beta 94.122590
_cell_angle_gamma 60.261228
_cell_volume 618.577213
_symmetry_space_group_name_H-M "P -1"
_symmetry_group_IT_number 2
_symmetry_cell_setting 'triclinic'
loop_
_space_group_symop_operation_xyz
x,y,z
-x,-y,-z
loop_
_atom_site_type_symbol
_atom_site_label
_atom_site_fract_x
_atom_site_fract_y
_atom_site_fract_z
Si Si1 0.330417 0.614307 0.169427
Si Si2 0.699404 0.328110 0.582363
Si Si3 0.021135 0.643155 0.842210
Si Si4 0.183706 0.102604 0.960922
Si Si5 0.000000 0.500000 0.000000
Si Si6 0.104563 0.593682 0.588893
Si Si7 0.622144 0.138113 0.830592
Si Si8 0.329798 0.922207 0.435624
O O1 0.154650 0.679176 0.295568
O O2 0.637195 0.479558 0.169522
O O3 0.449673 0.709280 0.146564
O O4 0.144036 0.590742 0.065684
O O5 0.448263 0.483186 0.602839
O O6 0.895655 0.302535 0.471696
O O7 0.555912 0.231128 0.563924
O O8 0.852458 0.592119 0.905741
O O9 0.933849 0.653965 0.714259
O O10 0.979412 0.779895 0.924093
O O11 0.330480 0.137509 0.870615
O O12 0.927078 0.071463 0.897384
O O13 0.500000 0.000000 0.000000
O O14 0.000000 0.500000 0.500000
O O15 0.687969 0.076656 0.695570
O O16 0.500000 0.000000 0.500000
O O17 0.000000 0.000000 0.500000
#
# Coordination Sequence:
#
# PCOD9015940 Si02
#       8
#     2   2   2   2   1   2   2   2
#     4  10  22  39  69 101 134 174 229 303 360 415
#     4   9  22  42  65  98 140 179 229 297 364 423
#     4  11  24  38  66 102 135 183 235 288 355 427
#     4  12  27  47  68  99 145 195 237 285 354 437
#     4  12  20  36  66 102 136 172 232 294 348 430
#     4  10  21  42  65  99 141 183 227 290 362 431
#     4  11  25  49  71 101 144 181 240 306 357 415
#     4  11  25  46  76 107 136 186 249 303 361 427
#
# _framework density 24.249198
#
# number of rings (size 3 to 8) (size 9 to 14) (size 15 to 20)
#    0.000    1.333    1.333    3.200    3.733    1.067 
#    2.400    0.000    0.000    0.000    0.000    0.000 
#    0.000    0.000    0.000    0.000    0.000    0.000 
#
# Total GULP energy -83619.811316 kJ/mol
# GULP energy per Si atom -5574.654088 kJ/mol
# Density = 2.419401 g / cm^3
# Si number density = 24.249198 Si / 1000 Ang^3
#
#
#
# Elastic Constant Matrix: (Units=GPa)
#
#
# Indices 1 2 3 4 5 6 
#
# 1 73.2856 0.4402 23.5315 4.1052 16.4025 14.2526
# 2 0.4402 63.9281 25.6792 -6.5555 4.2372 0.9043
# 3 23.5315 25.6792 182.7625 -10.4023 5.7631 23.6656
# 4 4.1052 -6.5555 -10.4023 36.6031 7.6019 -1.3182
# 5 16.4025 4.2372 5.7631 7.6019 38.0873 1.5433
# 6 14.2526 0.9043 23.6656 -1.3182 1.5433 41.4537
#
#
#
# Elastic Compliance Matrix: (Units=1/GPa)
#
#
# Indices 1 2 3 4 5 6 
#
# 1 0.016560 0.000901 -0.001501 -0.000912 -0.006635 -0.004638
# 2 0.000901 0.017038 -0.002381 0.002829 -0.002523 0.000862
# 3 -0.001501 -0.002381 0.006493 0.001529 -0.000252 -0.003081
# 4 -0.000912 0.002829 0.001529 0.029649 -0.006093 0.000549
# 5 -0.006635 -0.002523 -0.000252 -0.006093 0.030601 0.001147
# 6 -0.004638 0.000862 -0.003081 0.000549 0.001147 0.027433
#
#
# Mechanical properties :
#
#
# Convention : Reuss Voigt Hill
#
# Bulk Modulus (GPa) = 29.30061 46.58644 37.94352
# Shear Modulus (GPa) = 34.45613 41.25048 37.85331
#
# Velocity S-wave (km/s) = 3.77360 4.12892 3.95525
# Velocity P-wave (km/s) = 5.57638 6.47950 6.04483
#
# Compressibility (1/GPa) = 0.03412899
#
# Stress axis : x y z
#
# Youngs Moduli (GPa) = 60.38700 58.69286 154.00647
#
# Poissons Ratio (x) = -0.05286 0.23112
# Poissons Ratio (y) = -0.05439 0.36668
# Poissons Ratio (z) = 0.09063 0.13974
#
# Static dielectric constant tensor:
#      x y z
#    x 1.960030 -0.090040 -0.088630 
#    y -0.090040 2.084240 -0.013010 
#    z -0.088630 -0.013010 2.033230 
# 
# From -- ./inp_files/365030.got.cif
#   From: 2010.05.17/outbox.cif.g08.bks.cpg/sg2_183_cif.got.tgz:365030.got - 2010.06.03 11:33:40.
