data_PCOD9015645
_publ_section_title
;
Structure prediction by ZEFSAII (Michael W. Deem and Ramdas Pophale) SiO2 
 PCOD9015645
Probable space group: P -1
;
_chemical_formula_sum "Si O2"
_cell_formula_units_Z 16
_cell_length_a 9.644197
_cell_length_b 13.010557
_cell_length_c 12.222830
_cell_angle_alpha 35.542989
_cell_angle_beta 60.030869
_cell_angle_gamma 83.962778
_cell_volume 618.869844
_symmetry_space_group_name_H-M "P -1"
_symmetry_group_IT_number 2
_symmetry_cell_setting 'triclinic'
loop_
_space_group_symop_operation_xyz
x,y,z
-x,-y,-z
loop_
_atom_site_type_symbol
_atom_site_label
_atom_site_fract_x
_atom_site_fract_y
_atom_site_fract_z
Si Si1 0.528311 0.008868 0.128705
Si Si2 0.781226 0.760945 0.692248
Si Si3 0.210312 0.611001 0.882289
Si Si4 0.175531 0.782485 0.959423
Si Si5 0.756860 0.869035 0.836727
Si Si6 0.546921 0.396831 0.402416
Si Si7 0.821603 0.813647 0.399363
Si Si8 0.092073 0.652855 0.438273
O O1 0.331971 0.999821 0.215019
O O2 0.481822 0.769210 0.350540
O O3 0.656516 0.126609 0.090249
O O4 0.678507 0.173366 0.833701
O O5 0.682060 0.785976 0.813468
O O6 0.690780 0.720864 0.643215
O O7 0.802211 0.572723 0.880633
O O8 0.005207 0.983542 0.394307
O O9 0.365918 0.666752 0.676899
O O10 0.249536 0.790829 0.799443
O O11 0.000000 0.500000 0.000000
O O12 0.992020 0.527793 0.276363
O O13 0.106634 0.939560 0.858993
O O14 0.683530 0.660515 0.122687
O O15 0.329154 0.326141 0.517879
O O16 0.990391 0.778755 0.374582
O O17 0.000000 0.500000 0.500000
#
# Coordination Sequence:
#
# PCOD9015645 Si02
#       8
#     2   2   2   2   2   2   2   2
#     4  10  22  39  65  91 123 164 210 258 306 370
#     4  10  23  39  62  91 132 167 201 249 320 378
#     4  11  23  39  63  93 133 166 204 254 318 378
#     4  10  23  37  64  96 123 165 207 258 311 366
#     4  10  22  39  60  91 128 166 201 255 315 371
#     4  10  23  36  61  96 121 163 202 258 313 364
#     4  11  23  39  63  97 124 161 213 255 308 376
#     4  10  21  42  64  91 125 165 210 259 308 360
#
# _framework density 25.853577999999999
#
# number of rings (size 3 to 8) (size 9 to 14) (size 15 to 20)
#    0.000    1.750    1.250    2.250    8.750    7.500 
#    0.000    0.625    0.000    1.500    0.000    0.000 
#    0.000    0.000    0.000    0.000    0.000    0.000 
#
# Total GULP energy -89599.369890 kJ/mol
# GULP energy per Si atom -5599.960618 kJ/mol
# Density = 2.579473 g / cm^3
# Si number density = 25.853578 Si / 1000 Ang^3
#
#
#
# Elastic Constant Matrix: (Units=GPa)
#
#
# Indices 1 2 3 4 5 6 
#
# 1 114.4152 9.0233 36.4832 -3.1047 2.2036 -3.7346
# 2 9.0233 59.0256 -22.9831 -6.2954 12.2846 3.2816
# 3 36.4832 -22.9831 140.0356 -22.3455 14.7600 -15.9972
# 4 -3.1047 -6.2954 -22.3455 33.2815 -2.1547 11.7394
# 5 2.2036 12.2846 14.7600 -2.1547 35.8178 0.3941
# 6 -3.7346 3.2816 -15.9972 11.7394 0.3941 32.1030
#
#
#
# Elastic Compliance Matrix: (Units=1/GPa)
#
#
# Indices 1 2 3 4 5 6 
#
# 1 0.010159 -0.003743 -0.003798 -0.002355 0.002077 0.000508
# 2 -0.003743 0.023483 0.007059 0.009059 -0.010160 -0.002506
# 3 -0.003798 0.007059 0.011383 0.007564 -0.006443 0.001822
# 4 -0.002355 0.009059 0.007564 0.040724 -0.003494 -0.012280
# 5 0.002077 -0.010160 -0.006443 -0.003494 0.033733 -0.001067
# 6 0.000508 -0.002506 0.001822 -0.012280 -0.001067 0.036877
#
#
# Mechanical properties :
#
#
# Convention : Reuss Voigt Hill
#
# Bulk Modulus (GPa) = 22.69529 39.83594 31.26561
# Shear Modulus (GPa) = 29.06820 39.63732 34.35276
#
# Velocity S-wave (km/s) = 3.35675 3.91979 3.64915
# Velocity P-wave (km/s) = 4.88070 5.99400 5.46577
#
# Compressibility (1/GPa) = 0.04406201
#
# Stress axis : x y z
#
# Youngs Moduli (GPa) = 98.43543 42.58430 87.84755
#
# Poissons Ratio (x) = 0.15941 0.33362
# Poissons Ratio (y) = 0.36847 -0.62015
# Poissons Ratio (z) = 0.37383 -0.30062
#
# Static dielectric constant tensor:
#      x y z
#    x 2.069570 0.126480 -0.049900 
#    y 0.126480 2.115460 -0.003580 
#    z -0.049900 -0.003580 2.048180 
# 
# From -- ./inp_files/455556.got.cif
#   From: 2010.05.17/outbox.cif.g08.bks.cpg/sg2_228_cif.got.tgz:455556.got - 2010.06.03 11:33:40.
