data_PCOD9015470
_publ_section_title
;
Structure prediction by ZEFSAII (Michael W. Deem and Ramdas Pophale) SiO2 
 PCOD9015470
Probable space group: P -1
;
_chemical_formula_sum "Si O2"
_cell_formula_units_Z 14
_cell_length_a 22.687398
_cell_length_b 5.846480
_cell_length_c 4.935857
_cell_angle_alpha 84.978603
_cell_angle_beta 62.447195
_cell_angle_gamma 68.740333
_cell_volume 538.390934
_symmetry_space_group_name_H-M "P -1"
_symmetry_group_IT_number 2
_symmetry_cell_setting 'triclinic'
loop_
_space_group_symop_operation_xyz
x,y,z
-x,-y,-z
loop_
_atom_site_type_symbol
_atom_site_label
_atom_site_fract_x
_atom_site_fract_y
_atom_site_fract_z
Si Si1 0.584043 0.918501 0.854397
Si Si2 0.211051 0.352717 0.210254
Si Si3 0.178923 0.991511 0.721357
Si Si4 0.917102 0.204436 0.382083
Si Si5 0.656364 0.033293 0.207981
Si Si6 0.045925 0.262391 0.262742
Si Si7 0.308106 0.594579 0.305936
O O1 0.614082 0.078641 0.573877
O O2 0.623901 0.632442 0.713749
O O3 0.609337 0.945404 0.101601
O O4 0.500000 0.000000 0.000000
O O5 0.194235 0.137840 0.423141
O O6 0.136384 0.579207 0.339764
O O7 0.258104 0.467250 0.281263
O O8 0.267758 0.195839 0.881880
O O9 0.127889 0.842900 0.763201
O O10 0.256572 0.778986 0.623104
O O11 0.125637 0.211625 0.993832
O O12 0.988798 0.252977 0.156546
O O13 0.939747 0.962259 0.539240
O O14 0.669806 0.249242 0.987873
O O15 0.000000 0.500000 0.500000
#
# Coordination Sequence:
#
# PCOD9015470 Si02
#       7
#     2   2   2   2   2   2   2
#     4  11  24  43  71 105 141 178 225 278 337 408
#     4   9  20  41  63  89 120 168 223 274 326 400
#     4  10  21  42  63  85 123 172 222 273 336 399
#     4  10  22  39  58  87 120 170 213 275 341 396
#     4  10  23  43  67 103 138 181 227 277 338 406
#     4  11  24  37  56  91 123 162 217 278 343 401
#     4   9  22  43  64  99 130 180 223 277 336 404
#
# _framework density 26.003412000000001
#
# number of rings (size 3 to 8) (size 9 to 14) (size 15 to 20)
#    0.000    2.000    0.000    1.714    2.000   10.286 
#   25.714    0.000    0.000    0.000    0.000    0.000 
#    0.000    0.000    0.000    0.000    0.000    0.000 
#
# Total GULP energy -78317.287533 kJ/mol
# GULP energy per Si atom -5594.091967 kJ/mol
# Density = 2.594423 g / cm^3
# Si number density = 26.003412 Si / 1000 Ang^3
#
#
#
# Elastic Constant Matrix: (Units=GPa)
#
#
# Indices 1 2 3 4 5 6 
#
# 1 100.2858 44.9847 48.4222 11.8215 -36.5603 -21.3135
# 2 44.9847 126.4653 31.4990 24.5484 -23.3717 -22.2303
# 3 48.4222 31.4990 133.0680 12.1424 -29.1775 -18.4558
# 4 11.8215 24.5484 12.1424 41.9258 -8.9483 -5.3149
# 5 -36.5603 -23.3717 -29.1775 -8.9483 53.1356 15.0205
# 6 -21.3135 -22.2303 -18.4558 -5.3149 15.0205 39.8624
#
#
#
# Elastic Compliance Matrix: (Units=1/GPa)
#
#
# Indices 1 2 3 4 5 6 
#
# 1 0.016104 -0.003155 -0.003170 0.000104 0.007212 0.002680
# 2 -0.003155 0.010730 -0.000370 -0.004739 0.000627 0.003258
# 3 -0.003170 -0.000370 0.009563 -0.000972 0.002313 0.001525
# 4 0.000104 -0.004739 -0.000972 0.027304 0.002105 -0.000190
# 5 0.007212 0.000627 0.002313 0.002105 0.026986 -0.004611
# 6 0.002680 0.003258 0.001525 -0.000190 -0.004611 0.030754
#
#
# Mechanical properties :
#
#
# Convention : Reuss Voigt Hill
#
# Bulk Modulus (GPa) = 43.46412 67.73675 55.60044
# Shear Modulus (GPa) = 35.08778 42.64567 38.86672
#
# Velocity S-wave (km/s) = 3.67734 4.05409 3.87030
# Velocity P-wave (km/s) = 5.89758 6.92964 6.43434
#
# Compressibility (1/GPa) = 0.02300748
#
# Stress axis : x y z
#
# Youngs Moduli (GPa) = 62.09792 93.19549 104.56565
#
# Poissons Ratio (x) = 0.29403 0.33143
# Poissons Ratio (y) = 0.19592 0.03872
# Poissons Ratio (z) = 0.19682 0.03451
#
# Static dielectric constant tensor:
#      x y z
#    x 2.111990 0.077530 0.043560 
#    y 0.077530 2.070040 0.060710 
#    z 0.043560 0.060710 2.037170 
# 
# From -- ./inp_files/7373.got.cif
#   From: 2010.05.17/outbox.cif.g08.bks.cpg/sg2_4_cif.got.tgz:7373.got - 2010.06.03 11:33:40.
