data_PCOD9015916
_publ_section_title
;
Structure prediction by ZEFSAII (Michael W. Deem and Ramdas Pophale) SiO2 
 PCOD9015916
Probable space group: P -1
;
_chemical_formula_sum "Si O2"
_cell_formula_units_Z 13
_cell_length_a 16.221070
_cell_length_b 7.408262
_cell_length_c 9.435813
_cell_angle_alpha 132.300275
_cell_angle_beta 143.261484
_cell_angle_gamma 60.754490
_cell_volume 498.343109
_symmetry_space_group_name_H-M "P -1"
_symmetry_group_IT_number 2
_symmetry_cell_setting 'triclinic'
loop_
_space_group_symop_operation_xyz
x,y,z
-x,-y,-z
loop_
_atom_site_type_symbol
_atom_site_label
_atom_site_fract_x
_atom_site_fract_y
_atom_site_fract_z
Si Si1 0.029946 0.273953 0.031590
Si Si2 0.663285 0.659995 0.382474
Si Si3 0.500000 0.500000 0.500000
Si Si4 0.895301 0.934806 0.451087
Si Si5 0.879621 0.391534 0.168162
Si Si6 0.628679 0.206360 0.292307
Si Si7 0.394660 0.643939 0.123041
O O1 0.186688 0.278481 0.308171
O O2 0.936885 0.286429 0.048999
O O3 0.000000 0.500000 0.000000
O O4 0.988541 0.018379 0.759798
O O5 0.617714 0.397237 0.252647
O O6 0.528749 0.794452 0.310125
O O7 0.663226 0.590900 0.181006
O O8 0.619169 0.342615 0.500917
O O9 0.451005 0.576406 0.316957
O O10 0.833414 0.656094 0.196315
O O11 0.767981 0.090779 0.383496
O O12 0.000000 0.000000 0.500000
O O13 0.000000 0.500000 0.500000
O O14 0.748310 0.241468 0.984552
O O15 0.500000 0.000000 0.000000
#
# Coordination Sequence:
#
# PCOD9015916 Si02
#       7
#     2   2   1   2   2   2   2
#     4  12  23  44  70  99 141 189 233 287 362 419
#     4  10  21  42  65  97 138 180 222 297 345 415
#     4  10  22  42  70  98 132 180 226 292 348 420
#     4  12  25  41  71 106 140 188 242 283 354 436
#     4  12  25  45  70 102 143 184 235 303 352 417
#     4  11  23  42  72 102 138 183 241 288 354 424
#     4  10  22  40  68  95 133 180 230 281 359 403
#
# _framework density 26.086442000000002
#
# number of rings (size 3 to 8) (size 9 to 14) (size 15 to 20)
#    0.000    0.923    4.615    2.769    2.154    3.077 
#    0.000    0.769    0.000    0.000    0.000    0.000 
#    0.000    0.000    0.000    0.000    0.000    0.000 
#
# Total GULP energy -72426.867666 kJ/mol
# GULP energy per Si atom -5571.297513 kJ/mol
# Density = 2.602707 g / cm^3
# Si number density = 26.086442 Si / 1000 Ang^3
#
#
#
# Elastic Constant Matrix: (Units=GPa)
#
#
# Indices 1 2 3 4 5 6 
#
# 1 229.5963 41.1079 69.4506 -11.0773 -14.1800 -50.0957
# 2 41.1079 63.2611 23.0985 5.3354 -2.2684 -23.7680
# 3 69.4506 23.0985 134.2598 -9.4092 -5.2824 -23.3370
# 4 -11.0773 5.3354 -9.4092 40.4554 -4.7346 8.2290
# 5 -14.1800 -2.2684 -5.2824 -4.7346 72.3600 -9.3953
# 6 -50.0957 -23.7680 -23.3370 8.2290 -9.3953 54.8603
#
#
#
# Elastic Compliance Matrix: (Units=1/GPa)
#
#
# Indices 1 2 3 4 5 6 
#
# 1 0.006405 -0.001759 -0.002134 0.000800 0.001660 0.004343
# 2 -0.001759 0.020893 -0.001680 -0.005082 0.000847 0.007638
# 3 -0.002134 -0.001680 0.009154 0.001604 0.000439 0.001052
# 4 0.000800 -0.005082 0.001604 0.027073 0.001285 -0.004630
# 5 0.001660 0.000847 0.000439 0.001285 0.014862 0.004422
# 6 0.004343 0.007638 0.001052 -0.004630 0.004422 0.027402
#
#
# Mechanical properties :
#
#
# Convention : Reuss Voigt Hill
#
# Bulk Modulus (GPa) = 39.51722 77.15903 58.33813
# Shear Modulus (GPa) = 39.88219 53.09914 46.49067
#
# Velocity S-wave (km/s) = 3.91429 4.51655 4.22616
# Velocity P-wave (km/s) = 5.96744 7.53933 6.79896
#
# Compressibility (1/GPa) = 0.02530542
#
# Stress axis : x y z
#
# Youngs Moduli (GPa) = 156.13570 47.86381 109.24539
#
# Poissons Ratio (x) = 0.08419 0.23315
# Poissons Ratio (y) = 0.27463 0.18350
# Poissons Ratio (z) = 0.33322 0.08040
#
# Static dielectric constant tensor:
#      x y z
#    x 2.135100 -0.126590 0.038780 
#    y -0.126590 2.297400 -0.063150 
#    z 0.038780 -0.063150 2.217100 
# 
# From -- ./inp_files/297048.got.cif
#   From: 2010.05.17/outbox.cif.g08.bks.cpg/sg2_149_cif.got.tgz:297048.got - 2010.06.03 11:33:40.
