data_PCOD9015540
_publ_section_title
;
Structure prediction by ZEFSAII (Michael W. Deem and Ramdas Pophale) SiO2 
 PCOD9015540
Probable space group: P -1
;
_chemical_formula_sum "Si O2"
_cell_formula_units_Z 12
_cell_length_a 7.365563
_cell_length_b 7.023422
_cell_length_c 17.058516
_cell_angle_alpha 36.682129
_cell_angle_beta 113.651265
_cell_angle_gamma 95.665449
_cell_volume 440.962226
_symmetry_space_group_name_H-M "P -1"
_symmetry_group_IT_number 2
_symmetry_cell_setting 'triclinic'
loop_
_space_group_symop_operation_xyz
x,y,z
-x,-y,-z
loop_
_atom_site_type_symbol
_atom_site_label
_atom_site_fract_x
_atom_site_fract_y
_atom_site_fract_z
Si Si1 0.733121 0.819056 0.860983
Si Si2 0.569067 0.460807 0.829397
Si Si3 0.044206 0.640921 0.281522
Si Si4 0.326038 0.417182 0.545823
Si Si5 0.797200 0.645945 0.099366
Si Si6 0.193840 0.701667 0.584563
O O1 0.721763 0.610297 0.850623
O O2 0.877753 0.046758 0.807627
O O3 0.480481 0.091211 0.731159
O O4 0.802323 0.587215 0.027200
O O5 0.428785 0.677908 0.659807
O O6 0.378538 0.477339 0.851930
O O7 0.703892 0.065091 0.957304
O O8 0.183528 0.389286 0.458835
O O9 0.812595 0.666729 0.264872
O O10 0.023689 0.519687 0.229480
O O11 0.500000 0.500000 0.500000
O O12 0.182406 0.705150 0.487768
O O13 0.000000 0.000000 0.500000
#
# Coordination Sequence:
#
# PCOD9015540 Si02
#       6
#     2   2   2   2   2   2
#     4  11  21  42  66  94 133 176 220 276 334 393
#     4  10  22  39  67  98 126 182 223 269 334 399
#     4  10  23  40  63  98 132 170 219 280 330 390
#     4  10  22  43  68  97 132 174 222 274 329 397
#     4  10  21  42  63  93 138 170 229 270 329 398
#     4  11  22  44  68  99 135 174 224 278 332 394
#
# _framework density 27.213215999999999
#
# number of rings (size 3 to 8) (size 9 to 14) (size 15 to 20)
#    0.000    1.667    1.667    2.500    0.000    0.667 
#   12.000    5.000    0.000    0.000    0.000    0.000 
#    0.000    0.000    0.000    0.000    0.000    0.000 
#
# Total GULP energy -67005.633543 kJ/mol
# GULP energy per Si atom -5583.802795 kJ/mol
# Density = 2.715128 g / cm^3
# Si number density = 27.213216 Si / 1000 Ang^3
#
#
#
# Elastic Constant Matrix: (Units=GPa)
#
#
# Indices 1 2 3 4 5 6 
#
# 1 79.3311 39.3584 25.1359 12.6904 1.4437 11.9867
# 2 39.3584 147.3231 52.1914 32.8547 7.3914 25.2857
# 3 25.1359 52.1914 113.1650 49.8016 24.1131 0.9630
# 4 12.6904 32.8547 49.8016 55.9032 4.9986 11.9097
# 5 1.4437 7.3914 24.1131 4.9986 46.2617 -1.6623
# 6 11.9867 25.2857 0.9630 11.9097 -1.6623 43.7986
#
#
#
# Elastic Compliance Matrix: (Units=1/GPa)
#
#
# Indices 1 2 3 4 5 6 
#
# 1 0.015128 -0.002931 -0.002789 0.001233 0.001220 -0.002676
# 2 -0.002931 0.009769 -0.003359 -0.001160 0.000247 -0.004439
# 3 -0.002789 -0.003359 0.019227 -0.015149 -0.007541 0.006113
# 4 0.001233 -0.001160 -0.015149 0.033159 0.004166 -0.008193
# 5 0.001220 0.000247 -0.007541 0.004166 0.025002 -0.000495
# 6 -0.002676 -0.004439 0.006113 -0.008193 -0.000495 0.028202
#
#
# Mechanical properties :
#
#
# Convention : Reuss Voigt Hill
#
# Bulk Modulus (GPa) = 38.50953 63.68786 51.09869
# Shear Modulus (GPa) = 31.78705 44.06828 37.92766
#
# Velocity S-wave (km/s) = 3.42142 4.02851 3.73731
# Velocity P-wave (km/s) = 5.45801 6.71510 6.11892
#
# Compressibility (1/GPa) = 0.02596760
#
# Stress axis : x y z
#
# Youngs Moduli (GPa) = 66.10384 102.36653 52.01052
#
# Poissons Ratio (x) = 0.29999 0.14504
# Poissons Ratio (y) = 0.19372 0.17469
# Poissons Ratio (z) = 0.18434 0.34382
#
# Static dielectric constant tensor:
#      x y z
#    x 2.281850 0.157920 0.070530 
#    y 0.157920 2.247600 0.036410 
#    z 0.070530 0.036410 2.346510 
# 
# From -- ./inp_files/59522.got.cif
#   From: 2010.05.17/outbox.cif.g08.bks.cpg/sg2_30_cif.got.tgz:59522.got - 2010.06.03 11:33:40.
