data_PCOD9015884
_publ_section_title
;
Structure prediction by ZEFSAII (Michael W. Deem and Ramdas Pophale) SiO2 
 PCOD9015884
Probable space group: P -1
;
_chemical_formula_sum "Si O2"
_cell_formula_units_Z 16
_cell_length_a 5.679960
_cell_length_b 26.679231
_cell_length_c 17.505417
_cell_angle_alpha 162.098597
_cell_angle_beta 99.224499
_cell_angle_gamma 72.822725
_cell_volume 710.148238
_symmetry_space_group_name_H-M "P -1"
_symmetry_group_IT_number 2
_symmetry_cell_setting 'triclinic'
loop_
_space_group_symop_operation_xyz
x,y,z
-x,-y,-z
loop_
_atom_site_type_symbol
_atom_site_label
_atom_site_fract_x
_atom_site_fract_y
_atom_site_fract_z
Si Si1 0.242868 0.257621 0.914823
Si Si2 0.567452 0.146067 0.612357
Si Si3 0.523511 0.452550 0.307934
Si Si4 0.757714 0.279773 0.434336
Si Si5 0.302141 0.402297 0.839185
Si Si6 0.927807 0.342050 0.290093
Si Si7 0.308564 0.539189 0.882990
Si Si8 0.217289 0.095870 0.080898
O O1 0.351088 0.210563 0.764655
O O2 0.274083 0.072123 0.686705
O O3 0.417274 0.336104 0.082720
O O4 0.930070 0.404185 0.107603
O O5 0.441896 0.212613 0.618595
O O6 0.729879 0.262058 0.802618
O O7 0.488962 0.624331 0.501395
O O8 0.799530 0.314970 0.165590
O O9 0.312433 0.563932 0.524920
O O10 0.618625 0.424627 0.704971
O O11 0.012393 0.247890 0.350301
O O12 0.844211 0.077613 0.177661
O O13 0.271907 0.412910 0.762102
O O14 0.500000 0.500000 0.000000
O O15 0.000000 0.500000 0.000000
O O16 0.000000 0.500000 0.500000
O O17 0.167673 0.180411 0.116009
O O18 0.500000 0.000000 0.000000
#
# Coordination Sequence:
#
# PCOD9015884 Si02
#       8
#     2   2   2   2   2   2   2   2
#     4  11  22  38  67  95 132 176 232 283 338 412
#     4  10  22  41  62  97 133 180 230 285 341 407
#     4  10  22  40  62  95 126 171 222 274 338 411
#     4  10  22  39  64  96 126 169 226 276 333 416
#     4  10  21  42  65  95 138 186 233 295 354 412
#     4  10  22  41  65  90 131 169 214 276 350 411
#     4  11  22  39  68  94 133 182 235 278 348 419
#     4  10  22  41  67  93 131 170 217 285 344 410
#
# _framework density 22.530505999999999
#
# number of rings (size 3 to 8) (size 9 to 14) (size 15 to 20)
#    0.000    1.750    2.500    1.125    5.250    1.000 
#    2.250    3.750    0.000    0.000    0.000    0.000 
#    0.000    0.000    0.000    0.000    0.000    0.000 
#
# Total GULP energy -89111.510468 kJ/mol
# GULP energy per Si atom -5569.469404 kJ/mol
# Density = 2.247923 g / cm^3
# Si number density = 22.530506 Si / 1000 Ang^3
#
#
#
# Elastic Constant Matrix: (Units=GPa)
#
#
# Indices 1 2 3 4 5 6 
#
# 1 64.8223 41.0425 25.6662 13.9620 -13.3494 -10.1881
# 2 41.0425 157.3941 62.9929 58.2426 -2.8383 1.1784
# 3 25.6662 62.9929 95.3713 23.7898 5.1473 -3.6532
# 4 13.9620 58.2426 23.7898 41.1698 8.2313 3.7173
# 5 -13.3494 -2.8383 5.1473 8.2313 37.7121 5.2833
# 6 -10.1881 1.1784 -3.6532 3.7173 5.2833 39.1061
#
#
#
# Elastic Compliance Matrix: (Units=1/GPa)
#
#
# Indices 1 2 3 4 5 6 
#
# 1 0.021718 -0.003101 -0.003274 -0.003092 0.007922 0.004669
# 2 -0.003101 0.017530 -0.005703 -0.021556 0.005789 -0.000602
# 3 -0.003274 -0.005703 0.015109 0.001154 -0.004066 0.001170
# 4 -0.003092 -0.021556 0.001154 0.058516 -0.015147 -0.003564
# 5 0.007922 0.005789 -0.004066 -0.015147 0.033845 -0.001623
# 6 0.004669 -0.000602 0.001170 -0.003564 -0.001623 0.027473
#
#
# Mechanical properties :
#
#
# Convention : Reuss Voigt Hill
#
# Bulk Modulus (GPa) = 33.11007 64.11012 48.61009
# Shear Modulus (GPa) = 23.99078 36.12335 30.05706
#
# Velocity S-wave (km/s) = 3.26669 4.00848 3.65644
# Velocity P-wave (km/s) = 5.38107 7.06685 6.28078
#
# Compressibility (1/GPa) = 0.03020229
#
# Stress axis : x y z
#
# Youngs Moduli (GPa) = 46.04552 57.04598 66.18414
#
# Poissons Ratio (x) = 0.17688 0.21669
# Poissons Ratio (y) = 0.14277 0.37742
# Poissons Ratio (z) = 0.15075 0.32531
#
# Static dielectric constant tensor:
#      x y z
#    x -3.098880 -1.604830 2.904270 
#    y -1.604830 1.429590 0.897310 
#    z 2.904270 0.897310 0.195060 
# 
# From -- ./inp_files/551412.got.cif
#   From: 2010.05.17/outbox.cif.g08.bks.cpg/sg2_276_cif.got.tgz:551412.got - 2010.06.03 11:33:40.
