data_PCOD9015175
_publ_section_title
;
Structure prediction by ZEFSAII (Michael W. Deem and Ramdas Pophale) SiO2 
 PCOD9015175
Probable space group: P -1
;
_chemical_formula_sum "Si O2"
_cell_formula_units_Z 15
_cell_length_a 7.781223
_cell_length_b 9.125180
_cell_length_c 11.955265
_cell_angle_alpha 66.407193
_cell_angle_beta 67.665971
_cell_angle_gamma 57.572461
_cell_volume 641.441842
_symmetry_space_group_name_H-M "P -1"
_symmetry_group_IT_number 2
_symmetry_cell_setting 'triclinic'
loop_
_space_group_symop_operation_xyz
x,y,z
-x,-y,-z
loop_
_atom_site_type_symbol
_atom_site_label
_atom_site_fract_x
_atom_site_fract_y
_atom_site_fract_z
Si Si1 0.367917 0.217076 0.463514
Si Si2 0.363173 0.261729 0.703452
Si Si3 0.588610 0.857435 0.851147
Si Si4 0.000000 0.500000 0.500000
Si Si5 0.017847 0.853753 0.688900
Si Si6 0.767520 0.603613 0.075226
Si Si7 0.377427 0.685580 0.800193
Si Si8 0.198988 0.734868 0.444021
O O1 0.272822 0.283652 0.593410
O O2 0.145943 0.331975 0.427076
O O3 0.518408 0.281018 0.346817
O O4 0.500000 0.000000 0.500000
O O5 0.216211 0.381749 0.800054
O O6 0.566528 0.292215 0.626821
O O7 0.438028 0.060470 0.790143
O O8 0.487141 0.741954 0.853450
O O9 0.809560 0.831056 0.756492
O O10 0.642418 0.792804 0.985205
O O11 0.159617 0.592994 0.424960
O O12 0.134682 0.809047 0.792745
O O13 0.160611 0.738559 0.585762
O O14 0.952554 0.061750 0.617476
O O15 0.625099 0.502072 0.124425
O O16 0.000000 0.500000 0.000000
#
# Coordination Sequence:
#
# PCOD9015175 Si02
#       8
#     2   2   2   1   2   2   2   2
#     4  12  25  46  74 116 149 184 241 309 392 445
#     4  11  25  45  74  99 144 194 240 300 374 445
#     4  11  24  46  73 100 141 200 241 292 364 445
#     4  12  26  36  68 110 152 182 232 292 368 464
#     4  10  21  41  72 104 146 189 236 295 381 437
#     4  12  27  47  69 103 144 194 254 304 354 435
#     4  12  23  43  78 104 146 190 235 313 370 434
#     4  10  22  40  65 109 146 182 234 302 371 457
#
# _framework density 23.384817999999999
#
# number of rings (size 3 to 8) (size 9 to 14) (size 15 to 20)
#    0.000    0.800    4.000    3.200    3.733    2.133 
#    0.000    2.000    0.000    0.000    0.000    0.000 
#    0.000    0.000    0.000    0.000    0.000    0.000 
#
# Total GULP energy -83532.093911 kJ/mol
# GULP energy per Si atom -5568.806261 kJ/mol
# Density = 2.333159 g / cm^3
# Si number density = 23.384818 Si / 1000 Ang^3
#
#
#
# Elastic Constant Matrix: (Units=GPa)
#
#
# Indices 1 2 3 4 5 6 
#
# 1 53.2914 9.3909 2.4328 7.0270 1.0537 22.7803
# 2 9.3909 77.6905 48.7969 -5.0410 -17.3083 8.5439
# 3 2.4328 48.7969 114.2744 -4.3242 3.8977 19.3174
# 4 7.0270 -5.0410 -4.3242 46.9725 0.8692 -1.8975
# 5 1.0537 -17.3083 3.8977 0.8692 42.6488 -2.3947
# 6 22.7803 8.5439 19.3174 -1.8975 -2.3947 28.4033
#
#
#
# Elastic Compliance Matrix: (Units=1/GPa)
#
#
# Indices 1 2 3 4 5 6 
#
# 1 0.033964 -0.007211 0.007594 -0.006302 -0.006082 -0.031170
# 2 -0.007211 0.022289 -0.010906 0.002576 0.010593 0.007562
# 3 0.007594 -0.010906 0.015838 -0.001297 -0.006835 -0.014245
# 4 -0.006302 0.002576 -0.001297 0.022640 0.001239 0.006779
# 5 -0.006082 0.010593 -0.006835 0.001239 0.028994 0.008867
# 6 -0.031170 0.007562 -0.014245 0.006779 0.008867 0.068820
#
#
# Mechanical properties :
#
#
# Convention : Reuss Voigt Hill
#
# Bulk Modulus (GPa) = 19.59066 40.72195 30.15630
# Shear Modulus (GPa) = 21.68199 35.91395 28.79797
#
# Velocity S-wave (km/s) = 3.04827 3.92316 3.51305
# Velocity P-wave (km/s) = 4.55905 6.16224 5.42025
#
# Compressibility (1/GPa) = 0.05104474
#
# Stress axis : x y z
#
# Youngs Moduli (GPa) = 29.44284 44.86558 63.13794
#
# Poissons Ratio (x) = 0.32354 -0.47949
# Poissons Ratio (y) = 0.21232 0.68859
# Poissons Ratio (z) = -0.22360 0.48931
#
# Static dielectric constant tensor:
#      x y z
#    x 1.903410 0.110570 -0.162280 
#    y 0.110570 1.954010 0.047900 
#    z -0.162280 0.047900 1.840740 
# 
# From -- ./inp_files/328557.got.cif
#   From: 2010.05.17/outbox.cif.g08.bks.cpg/sg2_165_cif.got.tgz:328557.got - 2010.06.03 11:33:40.
