data_PCOD9015409
_publ_section_title
;
Structure prediction by ZEFSAII (Michael W. Deem and Ramdas Pophale) SiO2 
 PCOD9015409
Probable space group: P -1
;
_chemical_formula_sum "Si O2"
_cell_formula_units_Z 16
_cell_length_a 6.331236
_cell_length_b 7.678190
_cell_length_c 18.884338
_cell_angle_alpha 59.175479
_cell_angle_beta 116.281278
_cell_angle_gamma 109.724647
_cell_volume 699.514035
_symmetry_space_group_name_H-M "P -1"
_symmetry_group_IT_number 2
_symmetry_cell_setting 'triclinic'
loop_
_space_group_symop_operation_xyz
x,y,z
-x,-y,-z
loop_
_atom_site_type_symbol
_atom_site_label
_atom_site_fract_x
_atom_site_fract_y
_atom_site_fract_z
Si Si1 0.627248 0.863555 0.602466
Si Si2 0.433716 0.700952 0.752939
Si Si3 0.400728 0.513442 0.560661
Si Si4 0.921749 0.650359 0.898435
Si Si5 0.158220 0.969441 0.097424
Si Si6 0.952673 0.694829 0.246285
Si Si7 0.318917 0.926689 0.827248
Si Si8 0.026189 0.766348 0.394386
O O1 0.487961 0.826456 0.662776
O O2 0.606940 0.637214 0.613414
O O3 0.500000 0.000000 0.500000
O O4 0.882655 0.992510 0.631930
O O5 0.671279 0.599148 0.830819
O O6 0.220066 0.515885 0.748558
O O7 0.388040 0.864891 0.771632
O O8 0.500000 0.500000 0.500000
O O9 0.190271 0.656861 0.495077
O O10 0.250345 0.308694 0.612998
O O11 0.884666 0.851793 0.893408
O O12 0.147077 0.722633 0.867769
O O13 0.000000 0.500000 0.000000
O O14 0.432453 0.016977 0.106778
O O15 0.089079 0.768457 0.178432
O O16 0.000000 0.000000 0.000000
O O17 0.095169 0.689920 0.342365
O O18 0.809615 0.878643 0.213769
#
# Coordination Sequence:
#
# PCOD9015409 Si02
#       8
#     2   2   2   2   2   2   2   2
#     4  10  21  42  67  92 132 170 212 279 325 389
#     4  11  24  44  66  98 133 170 228 273 335 404
#     4  10  22  40  62  97 126 171 215 263 336 396
#     4  10  24  41  64  97 130 171 224 276 330 404
#     4  10  24  40  63  96 128 170 219 271 339 397
#     4  11  24  42  67  96 133 172 221 279 327 406
#     4  10  24  43  64  92 131 175 216 277 340 390
#     4  10  21  42  62  89 136 161 218 278 317 394
#
# _framework density 22.873021000000001
#
# number of rings (size 3 to 8) (size 9 to 14) (size 15 to 20)
#    0.000    1.750    1.250    2.250    5.250    5.500 
#    4.500    0.000    0.000    0.000    0.000    0.000 
#    0.000    0.000    0.000    0.000    0.000    0.000 
#
# Total GULP energy -89266.396555 kJ/mol
# GULP energy per Si atom -5579.149785 kJ/mol
# Density = 2.282096 g / cm^3
# Si number density = 22.873021 Si / 1000 Ang^3
#
#
#
# Elastic Constant Matrix: (Units=GPa)
#
#
# Indices 1 2 3 4 5 6 
#
# 1 59.1077 21.3007 15.5264 -1.8419 -5.3763 8.1124
# 2 21.3007 148.6569 11.8430 10.7746 -4.7459 34.3240
# 3 15.5264 11.8430 95.7321 1.8934 0.2160 14.2869
# 4 -1.8419 10.7746 1.8934 41.6485 0.4117 -2.6490
# 5 -5.3763 -4.7459 0.2160 0.4117 37.7608 2.5271
# 6 8.1124 34.3240 14.2869 -2.6490 2.5271 34.1613
#
#
#
# Elastic Compliance Matrix: (Units=1/GPa)
#
#
# Indices 1 2 3 4 5 6 
#
# 1 0.018852 -0.002240 -0.002636 0.001432 0.002482 -0.001197
# 2 -0.002240 0.009510 0.000691 -0.003222 0.001555 -0.009678
# 3 -0.002636 0.000691 0.011555 -0.001138 -0.000008 -0.004989
# 4 0.001432 -0.003222 -0.001138 0.025311 -0.000832 0.005397
# 5 0.002482 0.001555 -0.000008 -0.000832 0.027324 -0.004235
# 6 -0.001197 -0.009678 -0.004989 0.005397 -0.004235 0.042099
#
#
# Mechanical properties :
#
#
# Convention : Reuss Voigt Hill
#
# Bulk Modulus (GPa) = 31.69632 44.53745 38.11689
# Shear Modulus (GPa) = 32.56560 39.70256 36.13408
#
# Velocity S-wave (km/s) = 3.77736 4.17079 3.97894
# Velocity P-wave (km/s) = 5.73692 6.53513 6.14899
#
# Compressibility (1/GPa) = 0.03154940
#
# Stress axis : x y z
#
# Youngs Moduli (GPa) = 53.04359 105.14721 86.54391
#
# Poissons Ratio (x) = 0.23548 0.22812
# Poissons Ratio (y) = 0.11879 -0.05982
# Poissons Ratio (z) = 0.13981 -0.07268
#
# Static dielectric constant tensor:
#      x y z
#    x 1.918160 0.040880 0.077640 
#    y 0.040880 1.877460 -0.020650 
#    z 0.077640 -0.020650 2.026990 
# 
# From -- ./inp_files/48801.got.cif
#   From: 2010.05.17/outbox.cif.g08.bks.cpg/sg2_25_cif.got.tgz:48801.got - 2010.06.03 11:33:40.
