data_PCOD9015012
_publ_section_title
;
Structure prediction by ZEFSAII (Michael W. Deem and Ramdas Pophale) SiO2 
 PCOD9015012
Probable space group: P -1
;
_chemical_formula_sum "Si O2"
_cell_formula_units_Z 15
_cell_length_a 14.086499
_cell_length_b 21.756593
_cell_length_c 6.891899
_cell_angle_alpha 73.219505
_cell_angle_beta 112.775039
_cell_angle_gamma 160.230012
_cell_volume 639.092159
_symmetry_space_group_name_H-M "P -1"
_symmetry_group_IT_number 2
_symmetry_cell_setting 'triclinic'
loop_
_space_group_symop_operation_xyz
x,y,z
-x,-y,-z
loop_
_atom_site_type_symbol
_atom_site_label
_atom_site_fract_x
_atom_site_fract_y
_atom_site_fract_z
Si Si1 0.395686 0.320788 0.312593
Si Si2 0.977952 0.603981 0.335332
Si Si3 0.892395 0.780534 0.199856
Si Si4 0.339860 0.640972 0.049275
Si Si5 0.017794 0.035497 0.761635
Si Si6 0.324793 0.924263 0.244486
Si Si7 0.756155 0.276387 0.173355
Si Si8 0.500000 0.500000 0.500000
O O1 0.734193 0.497918 0.370624
O O2 0.199040 0.141281 0.356769
O O3 0.382223 0.362932 0.437000
O O4 0.273370 0.282472 0.053855
O O5 0.805703 0.456825 0.187586
O O6 0.137305 0.751848 0.194073
O O7 0.192238 0.695311 0.578369
O O8 0.064662 0.938002 0.310784
O O9 0.661874 0.612404 0.316780
O O10 0.106829 0.852685 0.211358
O O11 0.416826 0.761601 0.001896
O O12 0.633004 0.770253 0.188439
O O13 0.080229 0.472159 0.150660
O O14 0.000000 0.000000 0.000000
O O15 0.500000 0.000000 0.500000
O O16 0.566498 0.101084 0.138767
#
# Coordination Sequence:
#
# PCOD9015012 Si02
#       8
#     2   2   2   2   2   2   2   1
#     4  11  24  43  67 103 132 176 213 277 337 393
#     4  11  22  41  67  94 131 175 218 267 335 383
#     4  11  23  44  68  97 135 171 219 275 333 395
#     4  11  22  43  67  98 128 174 219 274 329 387
#     4  10  21  41  70  96 130 171 217 271 336 387
#     4  10  23  43  64  94 134 175 219 265 326 396
#     4  10  24  42  65  92 135 171 225 269 318 398
#     4  12  26  40  68 102 136 170 218 272 334 400
#
# _framework density 23.470794000000001
#
# number of rings (size 3 to 8) (size 9 to 14) (size 15 to 20)
#    0.000    1.333    4.000    2.400    1.867    1.067 
#    0.000    5.333    0.000    0.000    0.000    0.000 
#    0.000    0.000    0.000    0.000    0.000    0.000 
#
# Total GULP energy -83611.850766 kJ/mol
# GULP energy per Si atom -5574.123384 kJ/mol
# Density = 2.341737 g / cm^3
# Si number density = 23.470794 Si / 1000 Ang^3
#
#
#
# Elastic Constant Matrix: (Units=GPa)
#
#
# Indices 1 2 3 4 5 6 
#
# 1 58.2281 17.0430 22.6091 -10.3208 9.3499 -23.6075
# 2 17.0430 76.8073 17.6954 -26.9049 7.9857 -25.0663
# 3 22.6091 17.6954 77.7690 -19.2051 1.1761 6.2449
# 4 -10.3208 -26.9049 -19.2051 33.8601 -5.2659 -0.1039
# 5 9.3499 7.9857 1.1761 -5.2659 36.4650 5.0862
# 6 -23.6075 -25.0663 6.2449 -0.1039 5.0862 42.0181
#
#
#
# Elastic Compliance Matrix: (Units=1/GPa)
#
#
# Indices 1 2 3 4 5 6 
#
# 1 0.033877 0.008382 -0.011666 0.008473 -0.012734 0.027330
# 2 0.008382 0.028133 -0.005515 0.020542 -0.008427 0.023383
# 3 -0.011666 -0.005515 0.019485 0.004009 0.006027 -0.013460
# 4 0.008473 0.020542 0.004009 0.050476 -0.001850 0.016768
# 5 -0.012734 -0.008427 0.006027 -0.001850 0.034480 -0.017256
# 6 0.027330 0.023383 -0.013460 0.016768 -0.017256 0.057234
#
#
# Mechanical properties :
#
#
# Convention : Reuss Voigt Hill
#
# Bulk Modulus (GPa) = 15.65034 36.38881 26.01958
# Shear Modulus (GPa) = 19.04157 32.83243 25.93700
#
# Velocity S-wave (km/s) = 2.85140 3.74420 3.32787
# Velocity P-wave (km/s) = 4.18606 5.85060 5.08688
#
# Compressibility (1/GPa) = 0.06389637
#
# Stress axis : x y z
#
# Youngs Moduli (GPa) = 29.51844 35.54484 51.32199
#
# Poissons Ratio (x) = -0.29792 0.59870
# Poissons Ratio (y) = -0.24741 0.28307
# Poissons Ratio (z) = 0.34435 0.19605
#
# Static dielectric constant tensor:
#      x y z
#    x 2.018160 0.039740 0.072790 
#    y 0.039740 1.981200 0.028000 
#    z 0.072790 0.028000 1.902640 
# 
# From -- ./inp_files/100872.got.cif
#   From: 2010.05.17/outbox.cif.g08.bks.cpg/sg2_51_cif.got.tgz:100872.got - 2010.06.03 11:33:40.
