data_PCOD9015205
_publ_section_title
;
Structure prediction by ZEFSAII (Michael W. Deem and Ramdas Pophale) SiO2 
 PCOD9015205
Probable space group: P -1
;
_chemical_formula_sum "Si O2"
_cell_formula_units_Z 16
_cell_length_a 9.846647
_cell_length_b 9.969720
_cell_length_c 8.685920
_cell_angle_alpha 71.281071
_cell_angle_beta 123.288204
_cell_angle_gamma 101.012002
_cell_volume 674.952509
_symmetry_space_group_name_H-M "P -1"
_symmetry_group_IT_number 2
_symmetry_cell_setting 'triclinic'
loop_
_space_group_symop_operation_xyz
x,y,z
-x,-y,-z
loop_
_atom_site_type_symbol
_atom_site_label
_atom_site_fract_x
_atom_site_fract_y
_atom_site_fract_z
Si Si1 0.165352 0.942256 0.684752
Si Si2 0.498486 0.968226 0.195823
Si Si3 0.148779 0.400702 0.755954
Si Si4 0.388593 0.708616 0.425406
Si Si5 0.154200 0.696867 0.550572
Si Si6 0.010035 0.883864 0.918956
Si Si7 0.893697 0.429637 0.824699
Si Si8 0.666465 0.779883 0.805185
O O1 0.186584 0.783498 0.693289
O O2 0.308391 0.031953 0.664987
O O3 0.135273 0.939722 0.848245
O O4 0.000000 0.000000 0.500000
O O5 0.422471 0.094593 0.203369
O O6 0.500000 0.000000 0.000000
O O7 0.223988 0.538029 0.670235
O O8 0.000099 0.473716 0.728157
O O9 0.038412 0.300770 0.613554
O O10 0.260681 0.321506 0.977079
O O11 0.254266 0.762976 0.445991
O O12 0.428579 0.822335 0.274910
O O13 0.545788 0.702444 0.637742
O O14 0.297212 0.572220 0.337890
O O15 0.078809 0.736145 0.071484
O O16 0.821468 0.842830 0.784123
O O17 0.000000 0.000000 0.000000
O O18 0.000000 0.500000 0.000000
#
# Coordination Sequence:
#
# PCOD9015205 Si02
#       8
#     2   2   2   2   2   2   2   2
#     4  12  26  39  68 104 140 184 246 292 353 432
#     4  12  26  43  67 107 150 190 232 304 370 432
#     4   9  22  41  70  98 140 190 249 286 364 434
#     4  11  23  43  70 100 147 187 234 303 375 423
#     4  10  22  44  68 102 140 195 240 303 349 442
#     4  11  24  42  69 102 140 189 241 291 356 435
#     4  10  21  41  72  96 137 188 241 288 358 439
#     4  11  23  43  70 105 147 190 238 302 376 428
#
# _framework density 23.705369999999998
#
# number of rings (size 3 to 8) (size 9 to 14) (size 15 to 20)
#    0.000    1.250    1.250    4.125    8.750    0.500 
#    0.000    2.500    0.000    0.000    0.000    0.000 
#    0.000    0.000    0.000    0.000    0.000    0.000 
#
# Total GULP energy -89215.681156 kJ/mol
# GULP energy per Si atom -5575.980072 kJ/mol
# Density = 2.365142 g / cm^3
# Si number density = 23.705370 Si / 1000 Ang^3
#
#
#
# Elastic Constant Matrix: (Units=GPa)
#
#
# Indices 1 2 3 4 5 6 
#
# 1 130.9534 32.7520 30.6578 6.9660 3.6588 19.7174
# 2 32.7520 67.4256 34.7636 19.0169 -4.6661 12.5836
# 3 30.6578 34.7636 135.6578 15.2806 9.6518 17.1057
# 4 6.9660 19.0169 15.2806 45.8084 7.3722 -1.8902
# 5 3.6588 -4.6661 9.6518 7.3722 51.1753 7.5126
# 6 19.7174 12.5836 17.1057 -1.8902 7.5126 29.4554
#
#
#
# Elastic Compliance Matrix: (Units=1/GPa)
#
#
# Indices 1 2 3 4 5 6 
#
# 1 0.009297 -0.003399 -0.000679 0.000082 -0.000225 -0.004314
# 2 -0.003399 0.022461 -0.003461 -0.008799 0.005271 -0.007219
# 3 -0.000679 -0.003461 0.009051 -0.001393 -0.001322 -0.003075
# 4 0.000082 -0.008799 -0.001393 0.027151 -0.005584 0.007679
# 5 -0.000225 0.005271 -0.001322 -0.005584 0.022170 -0.007346
# 6 -0.004314 -0.007219 -0.003075 0.007679 -0.007346 0.044074
#
#
# Mechanical properties :
#
#
# Convention : Reuss Voigt Hill
#
# Bulk Modulus (GPa) = 38.86716 58.93150 48.89933
# Shear Modulus (GPa) = 31.67408 41.01207 36.34307
#
# Velocity S-wave (km/s) = 3.65931 4.16393 3.91975
# Velocity P-wave (km/s) = 5.85539 6.93049 6.41550
#
# Compressibility (1/GPa) = 0.02572866
#
# Stress axis : x y z
#
# Youngs Moduli (GPa) = 107.56163 44.52225 110.48944
#
# Poissons Ratio (x) = 0.15135 0.07504
# Poissons Ratio (y) = 0.36566 0.38242
# Poissons Ratio (z) = 0.07305 0.15410
#
# Static dielectric constant tensor:
#      x y z
#    x 2.000670 0.046190 -0.049150 
#    y 0.046190 1.931270 0.093390 
#    z -0.049150 0.093390 2.174530 
# 
# From -- ./inp_files/253323.got.cif
#   From: 2010.05.17/outbox.cif.g08.bks.cpg/sg2_127_cif.got.tgz:253323.got - 2010.06.03 11:33:40.
