data_PCOD9015478
_publ_section_title
;
Structure prediction by ZEFSAII (Michael W. Deem and Ramdas Pophale) SiO2 
 PCOD9015478
Probable space group: P -1
;
_chemical_formula_sum "Si O2"
_cell_formula_units_Z 16
_cell_length_a 17.725476
_cell_length_b 8.494614
_cell_length_c 12.305158
_cell_angle_alpha 61.782869
_cell_angle_beta 22.971490
_cell_angle_gamma 64.025404
_cell_volume 637.147822
_symmetry_space_group_name_H-M "P -1"
_symmetry_group_IT_number 2
_symmetry_cell_setting 'triclinic'
loop_
_space_group_symop_operation_xyz
x,y,z
-x,-y,-z
loop_
_atom_site_type_symbol
_atom_site_label
_atom_site_fract_x
_atom_site_fract_y
_atom_site_fract_z
Si Si1 0.580370 0.243639 0.910394
Si Si2 0.558582 0.948347 0.317828
Si Si3 0.998325 0.273787 0.972318
Si Si4 0.189467 0.716928 0.193823
Si Si5 0.158805 0.082560 0.342123
Si Si6 0.610226 0.585631 0.095438
Si Si7 0.773598 0.949368 0.432048
Si Si8 0.713952 0.575354 0.284717
O O1 0.381262 0.157420 0.252310
O O2 0.719211 0.326879 0.792990
O O3 0.521667 0.375738 0.848958
O O4 0.708899 0.081700 0.742620
O O5 0.670317 0.762724 0.226236
O O6 0.500000 0.000000 0.500000
O O7 0.366439 0.953080 0.500712
O O8 0.687133 0.110235 0.054665
O O9 0.839598 0.425207 0.107368
O O10 0.912595 0.118799 0.217668
O O11 0.089412 0.185749 0.772885
O O12 0.166251 0.371872 0.783456
O O13 0.971233 0.790861 0.450367
O O14 0.232406 0.558047 0.106427
O O15 0.301724 0.224179 0.053494
O O16 0.000000 0.000000 0.500000
O O17 0.484619 0.506732 0.383443
#
# Coordination Sequence:
#
# PCOD9015478 Si02
#       8
#     2   2   2   2   2   2   2   2
#     4  10  22  41  63  89 126 167 204 254 315 375
#     4  11  20  41  64  87 124 168 204 253 316 366
#     4  10  22  39  61  94 125 157 213 263 305 370
#     4  10  22  40  64  90 126 164 211 257 307 372
#     4  10  23  42  62  93 127 164 208 258 312 372
#     4  12  22  40  65  93 127 165 208 253 317 378
#     4  10  21  42  63  88 124 168 207 257 318 366
#     4  11  23  39  63  94 125 163 209 259 313 372
#
# _framework density 25.111910000000002
#
# number of rings (size 3 to 8) (size 9 to 14) (size 15 to 20)
#    0.000    1.500    2.500    2.625    0.000    3.500 
#    0.000    6.250    0.000    0.000    0.000    0.000 
#    0.000    0.000    0.000    0.000    0.000    0.000 
#
# Total GULP energy -89586.126608 kJ/mol
# GULP energy per Si atom -5599.132913 kJ/mol
# Density = 2.505475 g / cm^3
# Si number density = 25.111910 Si / 1000 Ang^3
#
#
#
# Elastic Constant Matrix: (Units=GPa)
#
#
# Indices 1 2 3 4 5 6 
#
# 1 54.1154 0.6048 2.1827 11.9166 4.7987 -3.2575
# 2 0.6048 133.7206 3.2922 43.9064 2.5041 0.6897
# 3 2.1827 3.2922 55.5112 26.3035 -2.5813 5.1495
# 4 11.9166 43.9064 26.3035 62.2113 6.7360 -7.9882
# 5 4.7987 2.5041 -2.5813 6.7360 24.1025 -7.2451
# 6 -3.2575 0.6897 5.1495 -7.9882 -7.2451 27.4347
#
#
#
# Elastic Compliance Matrix: (Units=1/GPa)
#
#
# Indices 1 2 3 4 5 6 
#
# 1 0.019799 0.001701 0.001598 -0.005428 -0.002500 -0.000233
# 2 0.001701 0.010806 0.004655 -0.010497 0.000835 -0.003779
# 3 0.001598 0.004655 0.026365 -0.016271 0.003996 -0.008558
# 4 -0.005428 -0.010497 -0.016271 0.033412 -0.005628 0.010916
# 5 -0.002500 0.000835 0.003996 -0.005628 0.046803 0.009653
# 6 -0.000233 -0.003779 -0.008558 0.010916 0.009653 0.043852
#
#
# Mechanical properties :
#
#
# Convention : Reuss Voigt Hill
#
# Bulk Modulus (GPa) = 13.72141 28.38961 21.05551
# Shear Modulus (GPa) = 26.39626 38.56752 32.48189
#
# Velocity S-wave (km/s) = 3.24565 3.92321 3.60041
# Velocity P-wave (km/s) = 4.41833 5.64375 5.06821
#
# Compressibility (1/GPa) = 0.07287882
#
# Stress axis : x y z
#
# Youngs Moduli (GPa) = 50.50872 92.53850 37.92933
#
# Poissons Ratio (x) = -0.15744 -0.06061
# Poissons Ratio (y) = -0.08593 -0.17657
# Poissons Ratio (z) = -0.08071 -0.43079
#
# Static dielectric constant tensor:
#      x y z
#    x 1.847340 -0.026700 0.007050 
#    y -0.026700 1.946340 -0.026700 
#    z 0.007050 -0.026700 2.025120 
# 
# From -- ./inp_files/540437.got.cif
#   From: 2010.05.17/outbox.cif.g08.bks.cpg/sg2_271_cif.got.tgz:540437.got - 2010.06.03 11:33:40.
