data_PCOD9015502
_publ_section_title
;
Structure prediction by ZEFSAII (Michael W. Deem and Ramdas Pophale) SiO2 
 PCOD9015502
Probable space group: P -1
;
_chemical_formula_sum "Si O2"
_cell_formula_units_Z 16
_cell_length_a 12.284215
_cell_length_b 13.537055
_cell_length_c 9.017035
_cell_angle_alpha 86.404006
_cell_angle_beta 51.695159
_cell_angle_gamma 51.293300
_cell_volume 778.331486
_symmetry_space_group_name_H-M "P -1"
_symmetry_group_IT_number 2
_symmetry_cell_setting 'triclinic'
loop_
_space_group_symop_operation_xyz
x,y,z
-x,-y,-z
loop_
_atom_site_type_symbol
_atom_site_label
_atom_site_fract_x
_atom_site_fract_y
_atom_site_fract_z
Si Si1 0.973434 0.633123 0.337782
Si Si2 0.011362 0.110507 0.978239
Si Si3 0.308332 0.608926 0.954761
Si Si4 0.647518 0.967080 0.504696
Si Si5 0.705588 0.278630 0.725129
Si Si6 0.052918 0.383004 0.302295
Si Si7 0.099768 0.137224 0.224227
Si Si8 0.463707 0.855326 0.129225
O O1 0.768343 0.809827 0.489876
O O2 0.036141 0.586930 0.460801
O O3 0.945214 0.537295 0.309835
O O4 0.154651 0.597185 0.107766
O O5 0.787014 0.278264 0.110583
O O6 0.091563 0.098964 0.071669
O O7 0.174047 0.062608 0.722448
O O8 0.000000 0.000000 0.000000
O O9 0.539284 0.440173 0.769536
O O10 0.291072 0.686443 0.109953
O O11 0.500000 0.000000 0.500000
O O12 0.541219 0.089602 0.710443
O O13 0.633184 0.203533 0.780837
O O14 0.929399 0.176343 0.470754
O O15 0.043218 0.282752 0.243155
O O16 0.298776 0.277782 0.113706
O O17 0.321575 0.998399 0.127649
#
# Coordination Sequence:
#
# PCOD9015502 Si02
#       8
#     2   2   2   2   2   2   2   2
#     4  10  21  42  63  91 131 161 204 255 316 362
#     4  11  24  43  62  89 129 164 205 256 318 364
#     4  10  21  43  62  91 129 165 204 253 317 372
#     4  11  24  44  63  91 129 166 202 256 316 370
#     4  11  22  40  67  91 122 167 208 255 313 365
#     4  11  22  39  66  95 123 161 211 259 301 365
#     4  12  23  39  64  96 122 160 213 263 297 367
#     4  12  23  40  67  94 123 160 217 253 307 372
#
# _framework density 20.556792000000002
#
# number of rings (size 3 to 8) (size 9 to 14) (size 15 to 20)
#    0.000    1.000    3.750    3.750    1.750    0.500 
#    4.500    1.875    0.000    0.000    0.000    0.000 
#    0.000    0.000    0.000    0.000    0.000    0.000 
#
# Total GULP energy -89448.044643 kJ/mol
# GULP energy per Si atom -5590.502790 kJ/mol
# Density = 2.051000 g / cm^3
# Si number density = 20.556792 Si / 1000 Ang^3
#
#
#
# Elastic Constant Matrix: (Units=GPa)
#
#
# Indices 1 2 3 4 5 6 
#
# 1 68.8220 33.0114 -1.1393 -10.5720 18.6509 13.8282
# 2 33.0114 111.0586 15.2243 -6.5082 8.0985 28.1965
# 3 -1.1393 15.2243 50.5186 6.9122 3.1444 2.2575
# 4 -10.5720 -6.5082 6.9122 17.5025 4.2080 -7.1967
# 5 18.6509 8.0985 3.1444 4.2080 33.1770 1.7359
# 6 13.8282 28.1965 2.2575 -7.1967 1.7359 45.5309
#
#
#
# Elastic Compliance Matrix: (Units=1/GPa)
#
#
# Indices 1 2 3 4 5 6 
#
# 1 0.023028 -0.004803 0.000881 0.014542 -0.013636 -0.001245
# 2 -0.004803 0.012485 -0.003712 0.000689 0.000230 -0.005989
# 3 0.000881 -0.003712 0.022330 -0.009815 -0.000429 -0.000611
# 4 0.014542 0.000689 -0.009815 0.077863 -0.017740 0.008627
# 5 -0.013636 0.000230 -0.000429 -0.017740 0.040058 -0.000311
# 6 -0.001245 -0.005989 -0.000611 0.008627 -0.000311 0.027456
#
#
# Mechanical properties :
#
#
# Convention : Reuss Voigt Hill
#
# Bulk Modulus (GPa) = 23.48749 36.06578 29.77664
# Shear Modulus (GPa) = 21.48888 31.46226 26.47557
#
# Velocity S-wave (km/s) = 3.23668 3.91641 3.59266
# Velocity P-wave (km/s) = 5.04169 6.16714 5.63259
#
# Compressibility (1/GPa) = 0.04257585
#
# Stress axis : x y z
#
# Youngs Moduli (GPa) = 43.42538 80.09711 44.78270
#
# Poissons Ratio (x) = 0.38472 -0.03947
# Poissons Ratio (y) = 0.20858 0.16622
# Poissons Ratio (z) = -0.03828 0.29730
#
# Static dielectric constant tensor:
#      x y z
#    x 1.717690 -0.004360 -0.012910 
#    y -0.004360 1.740690 0.011180 
#    z -0.012910 0.011180 1.717620 
# 
# From -- ./inp_files/184166.got.cif
#   From: 2010.05.17/outbox.cif.g08.bks.cpg/sg2_93_cif.got.tgz:184166.got - 2010.06.03 11:33:40.
