data_PCOD9015729
_publ_section_title
;
Structure prediction by ZEFSAII (Michael W. Deem and Ramdas Pophale) SiO2 
 PCOD9015729
Probable space group: P -1
;
_chemical_formula_sum "Si O2"
_cell_formula_units_Z 16
_cell_length_a 20.938346
_cell_length_b 26.523251
_cell_length_c 9.314225
_cell_angle_alpha 151.620920
_cell_angle_beta 142.111326
_cell_angle_gamma 18.702845
_cell_volume 754.558858
_symmetry_space_group_name_H-M "P -1"
_symmetry_group_IT_number 2
_symmetry_cell_setting 'triclinic'
loop_
_space_group_symop_operation_xyz
x,y,z
-x,-y,-z
loop_
_atom_site_type_symbol
_atom_site_label
_atom_site_fract_x
_atom_site_fract_y
_atom_site_fract_z
Si Si1 0.600099 0.746313 0.327857
Si Si2 0.630727 0.202506 0.172598
Si Si3 0.772438 0.225066 0.226955
Si Si4 0.617370 0.192682 0.670078
Si Si5 0.411171 0.027478 0.266243
Si Si6 0.612288 0.622644 0.559352
Si Si7 0.924327 0.297936 0.799827
Si Si8 0.023798 0.227836 0.128045
O O1 0.527280 0.763218 0.392791
O O2 0.585604 0.883980 0.625751
O O3 0.449230 0.822745 0.134878
O O4 0.832345 0.493801 0.087277
O O5 0.718411 0.214069 0.252258
O O6 0.445270 0.385517 0.415785
O O7 0.821210 0.996245 0.093349
O O8 0.773914 0.346806 0.575748
O O9 0.625955 0.295017 0.028853
O O10 0.000000 0.000000 0.000000
O O11 0.535908 0.286930 0.603942
O O12 0.843457 0.937258 0.425575
O O13 0.175870 0.193623 0.285761
O O14 0.500000 0.000000 0.500000
O O15 0.548714 0.802272 0.913791
O O16 0.844974 0.405967 0.372878
O O17 0.928769 0.281306 0.938770
#
# Coordination Sequence:
#
# PCOD9015729 Si02
#       8
#     2   2   2   2   2   2   2   2
#     4  11  23  41  68  95 125 173 219 260 332 379
#     4  10  22  43  66  92 136 167 213 270 317 386
#     4   9  22  42  70  96 130 174 215 259 334 380
#     4  10  21  42  64  97 135 166 209 276 317 383
#     4  11  23  45  65  93 132 172 215 272 324 379
#     4  11  22  42  66  94 136 169 213 269 323 381
#     4  11  22  43  67  95 132 168 216 272 318 385
#     4  11  23  42  66  96 134 168 219 267 320 385
#
# _framework density 21.204442
#
# number of rings (size 3 to 8) (size 9 to 14) (size 15 to 20)
#    0.000    1.500    6.250    0.000    0.000    8.000 
#    0.000    1.875    0.000    0.000    0.000    0.000 
#    0.000    0.000    0.000    0.000    0.000    0.000 
#
# Total GULP energy -89348.222639 kJ/mol
# GULP energy per Si atom -5584.263915 kJ/mol
# Density = 2.115618 g / cm^3
# Si number density = 21.204442 Si / 1000 Ang^3
#
#
#
# Elastic Constant Matrix: (Units=GPa)
#
#
# Indices 1 2 3 4 5 6 
#
# 1 106.7545 24.9357 35.0041 -6.3278 -15.3380 -8.7696
# 2 24.9357 70.3350 30.3533 5.6537 -11.1991 -0.9214
# 3 35.0041 30.3533 78.0639 -1.2129 -18.2956 -6.6208
# 4 -6.3278 5.6537 -1.2129 37.1771 -3.8211 -16.6075
# 5 -15.3380 -11.1991 -18.2956 -3.8211 29.0931 2.3660
# 6 -8.7696 -0.9214 -6.6208 -16.6075 2.3660 40.2091
#
#
#
# Elastic Compliance Matrix: (Units=1/GPa)
#
#
# Indices 1 2 3 4 5 6 
#
# 1 0.012106 -0.002647 -0.003167 0.004363 0.003648 0.003646
# 2 -0.002647 0.018284 -0.005892 -0.004668 0.001581 -0.003149
# 3 -0.003167 -0.005892 0.018705 0.003170 0.007990 0.003093
# 4 0.004363 -0.004668 0.003170 0.036199 0.005953 0.015968
# 5 0.003648 0.001581 0.007990 0.005953 0.042540 0.002103
# 6 0.003646 -0.003149 0.003093 0.015968 0.002103 0.032574
#
#
# Mechanical properties :
#
#
# Convention : Reuss Voigt Hill
#
# Bulk Modulus (GPa) = 38.93468 48.41552 43.67510
# Shear Modulus (GPa) = 25.98994 32.28654 29.13824
#
# Velocity S-wave (km/s) = 3.50477 3.90632 3.71098
# Velocity P-wave (km/s) = 5.89740 6.57481 6.24530
#
# Compressibility (1/GPa) = 0.02568404
#
# Stress axis : x y z
#
# Youngs Moduli (GPa) = 82.60051 54.69145 53.46104
#
# Poissons Ratio (x) = 0.14479 0.16932
# Poissons Ratio (y) = 0.21867 0.31497
# Poissons Ratio (z) = 0.26161 0.32221
#
# Static dielectric constant tensor:
#      x y z
#    x 1.758080 -0.002780 -0.003610 
#    y -0.002780 1.792460 0.025220 
#    z -0.003610 0.025220 1.782540 
# 
# From -- ./inp_files/202299.got.cif
#   From: 2010.05.17/outbox.cif.g08.bks.cpg/sg2_102_cif.got.tgz:202299.got - 2010.06.03 11:33:40.
