data_PCOD9015440
_publ_section_title
;
Structure prediction by ZEFSAII (Michael W. Deem and Ramdas Pophale) SiO2 
 PCOD9015440
Probable space group: P -1
;
_chemical_formula_sum "Si O2"
_cell_formula_units_Z 14
_cell_length_a 19.214954
_cell_length_b 8.943309
_cell_length_c 10.873765
_cell_angle_alpha 33.722932
_cell_angle_beta 31.342830
_cell_angle_gamma 44.069101
_cell_volume 539.400740
_symmetry_space_group_name_H-M "P -1"
_symmetry_group_IT_number 2
_symmetry_cell_setting 'triclinic'
loop_
_space_group_symop_operation_xyz
x,y,z
-x,-y,-z
loop_
_atom_site_type_symbol
_atom_site_label
_atom_site_fract_x
_atom_site_fract_y
_atom_site_fract_z
Si Si1 0.021531 0.781952 0.433478
Si Si2 0.897589 0.691168 0.951646
Si Si3 0.609689 0.318484 0.829019
Si Si4 0.669318 0.733358 0.114564
Si Si5 0.582185 0.404532 0.264878
Si Si6 0.889183 0.819632 0.358607
Si Si7 0.354790 0.155381 0.464883
O O1 0.957976 0.738506 0.692285
O O2 0.917002 0.870386 0.424767
O O3 0.084525 0.497772 0.490155
O O4 0.116936 0.031709 0.140316
O O5 0.753586 0.594896 0.192136
O O6 0.000000 0.500000 0.000000
O O7 0.506922 0.405629 0.817134
O O8 0.689971 0.579892 0.571550
O O9 0.507532 0.227837 0.152676
O O10 0.696081 0.051179 0.849086
O O11 0.685001 0.573677 0.073078
O O12 0.515532 0.718131 0.400350
O O13 0.640393 0.145569 0.281564
O O14 0.743612 0.876981 0.480957
O O15 0.000000 0.000000 0.000000
#
# Coordination Sequence:
#
# PCOD9015440 Si02
#       7
#     2   2   2   2   2   2   2
#     4  10  25  42  61  98 124 177 227 256 334 386
#     4  11  24  43  67  94 133 173 220 275 323 390
#     4  10  21  42  62  93 126 166 208 267 319 388
#     4  10  23  39  62  93 127 162 214 255 330 380
#     4  10  22  38  63  97 122 165 207 264 321 382
#     4  11  24  42  65  93 135 175 219 272 323 390
#     4  10  23  38  64  92 125 163 218 257 323 382
#
# _framework density 25.954729
#
# number of rings (size 3 to 8) (size 9 to 14) (size 15 to 20)
#    0.000    1.714    0.000    2.571    6.000    5.714 
#    0.000    0.000    0.000    0.000    0.000    0.000 
#    0.000    0.000    0.000    0.000    0.000    0.000 
#
# Total GULP energy -78319.929692 kJ/mol
# GULP energy per Si atom -5594.280692 kJ/mol
# Density = 2.589565 g / cm^3
# Si number density = 25.954729 Si / 1000 Ang^3
#
#
#
# Elastic Constant Matrix: (Units=GPa)
#
#
# Indices 1 2 3 4 5 6 
#
# 1 213.3739 43.3212 45.1176 -23.7057 -14.7983 -6.5230
# 2 43.3212 92.4046 40.6292 -33.9000 -2.4107 -0.8329
# 3 45.1176 40.6292 91.0656 -15.3368 -10.8336 4.0250
# 4 -23.7057 -33.9000 -15.3368 49.6349 2.6627 -2.6869
# 5 -14.7983 -2.4107 -10.8336 2.6627 39.8082 -3.9815
# 6 -6.5230 -0.8329 4.0250 -2.6869 -3.9815 42.4279
#
#
#
# Elastic Compliance Matrix: (Units=1/GPa)
#
#
# Indices 1 2 3 4 5 6 
#
# 1 0.005628 -0.001332 -0.001865 0.001186 0.001548 0.001237
# 2 -0.001332 0.017497 -0.005749 0.009682 -0.001532 0.001153
# 3 -0.001865 -0.005749 0.014798 -0.000483 0.002862 -0.001565
# 4 0.001186 0.009682 -0.000483 0.027329 -0.000724 0.002081
# 5 0.001548 -0.001532 0.002862 -0.000724 0.026670 0.002393
# 6 0.001237 0.001153 -0.001565 0.002081 0.002393 0.024287
#
#
# Mechanical properties :
#
#
# Convention : Reuss Voigt Hill
#
# Bulk Modulus (GPa) = 49.92155 72.77558 61.34856
# Shear Modulus (GPa) = 35.51703 44.22592 39.87148
#
# Velocity S-wave (km/s) = 3.70323 4.13239 3.92368
# Velocity P-wave (km/s) = 6.12871 7.13226 6.64944
#
# Compressibility (1/GPa) = 0.02003143
#
# Stress axis : x y z
#
# Youngs Moduli (GPa) = 177.67221 57.15394 67.57566
#
# Poissons Ratio (x) = 0.07613 0.12602
# Poissons Ratio (y) = 0.23668 0.38848
# Poissons Ratio (z) = 0.33134 0.32857
#
# Static dielectric constant tensor:
#      x y z
#    x 1.978360 0.022260 -0.008000 
#    y 0.022260 2.092350 0.018490 
#    z -0.008000 0.018490 2.127560 
# 
# From -- ./inp_files/27295.got.cif
#   From: 2010.05.17/outbox.cif.g08.bks.cpg/sg2_14_cif.got.tgz:27295.got - 2010.06.03 11:33:40.
