data_PCOD9015655
_publ_section_title
;
Structure prediction by ZEFSAII (Michael W. Deem and Ramdas Pophale) SiO2 
 PCOD9015655
Probable space group: P -1
;
_chemical_formula_sum "Si O2"
_cell_formula_units_Z 14
_cell_length_a 12.076628
_cell_length_b 12.047117
_cell_length_c 9.710802
_cell_angle_alpha 35.904197
_cell_angle_beta 132.218969
_cell_angle_gamma 130.592392
_cell_volume 594.892395
_symmetry_space_group_name_H-M "P -1"
_symmetry_group_IT_number 2
_symmetry_cell_setting 'triclinic'
loop_
_space_group_symop_operation_xyz
x,y,z
-x,-y,-z
loop_
_atom_site_type_symbol
_atom_site_label
_atom_site_fract_x
_atom_site_fract_y
_atom_site_fract_z
Si Si1 0.330771 0.863086 0.472732
Si Si2 0.709859 0.893827 0.366114
Si Si3 0.114385 0.312123 0.634543
Si Si4 0.363079 0.862039 0.180980
Si Si5 0.112583 0.040069 0.301101
Si Si6 0.325949 0.471252 0.434126
Si Si7 0.140201 0.461570 0.814759
O O1 0.302452 0.840851 0.307101
O O2 0.286740 0.646745 0.723789
O O3 0.500000 0.000000 0.500000
O O4 0.220616 0.980028 0.335911
O O5 0.546039 0.867752 0.335562
O O6 0.836673 0.020075 0.445991
O O7 0.760899 0.696619 0.570128
O O8 0.666032 0.963842 0.109893
O O9 0.283201 0.396506 0.628780
O O10 0.107038 0.353463 0.747490
O O11 0.995056 0.436368 0.355119
O O12 0.051302 0.090890 0.752965
O O13 0.291351 0.680451 0.203273
O O14 0.142169 0.273365 0.095597
O O15 0.500000 0.500000 0.500000
#
# Coordination Sequence:
#
# PCOD9015655 Si02
#       7
#     2   2   2   2   2   2   2
#     4  11  22  40  68 102 132 171 228 287 338 385
#     4  10  23  41  62  94 132 177 220 272 338 401
#     4  10  22  42  66  96 131 178 225 274 339 396
#     4  10  21  42  64  91 136 175 215 281 338 398
#     4  11  24  41  65 102 132 176 233 273 333 401
#     4  10  22  41  68  95 127 172 224 267 340 408
#     4  10  23  42  66  95 137 178 220 283 333 399
#
# _framework density 23.533666
#
# number of rings (size 3 to 8) (size 9 to 14) (size 15 to 20)
#    0.000    1.714    2.857    0.429    2.000    4.571 
#    5.143    1.429    0.000    0.000    0.000    0.000 
#    0.000    0.000    0.000    0.000    0.000    0.000 
#
# Total GULP energy -78051.482022 kJ/mol
# GULP energy per Si atom -5575.105859 kJ/mol
# Density = 2.348010 g / cm^3
# Si number density = 23.533666 Si / 1000 Ang^3
#
#
#
# Elastic Constant Matrix: (Units=GPa)
#
#
# Indices 1 2 3 4 5 6 
#
# 1 108.4954 18.4357 11.8260 -1.2804 -13.2618 -1.6600
# 2 18.4357 112.9560 37.6664 -15.1033 3.3910 -9.9304
# 3 11.8260 37.6664 63.8432 -15.5480 -6.0433 -6.3648
# 4 -1.2804 -15.1033 -15.5480 30.9151 -4.4371 -8.3840
# 5 -13.2618 3.3910 -6.0433 -4.4371 17.6849 -7.0740
# 6 -1.6600 -9.9304 -6.3648 -8.3840 -7.0740 45.5560
#
#
#
# Elastic Compliance Matrix: (Units=1/GPa)
#
#
# Indices 1 2 3 4 5 6 
#
# 1 0.010715 -0.001857 0.000683 0.001823 0.009861 0.001948
# 2 -0.001857 0.011850 -0.006471 0.002098 -0.004852 0.001244
# 3 0.000683 -0.006471 0.025014 0.013800 0.016657 0.007235
# 4 0.001823 0.002098 0.013800 0.047830 0.023652 0.014927
# 5 0.009861 -0.004852 0.016657 0.023652 0.084114 0.019043
# 6 0.001948 0.001244 0.007235 0.014927 0.019043 0.029008
#
#
# Mechanical properties :
#
#
# Convention : Reuss Voigt Hill
#
# Bulk Modulus (GPa) = 30.97315 46.79453 38.88384
# Shear Modulus (GPa) = 21.31426 33.32230 27.31828
#
# Velocity S-wave (km/s) = 3.01274 3.76698 3.41077
# Velocity P-wave (km/s) = 5.02910 6.23277 5.66301
#
# Compressibility (1/GPa) = 0.03228603
#
# Stress axis : x y z
#
# Youngs Moduli (GPa) = 93.32832 84.39035 39.97829
#
# Poissons Ratio (x) = 0.15675 -0.02729
# Poissons Ratio (y) = 0.17336 0.25871
# Poissons Ratio (z) = -0.06372 0.54612
#
# Static dielectric constant tensor:
#      x y z
#    x 1.918030 0.077650 -0.012700 
#    y 0.077650 1.923480 -0.062420 
#    z -0.012700 -0.062420 1.999840 
# 
# From -- ./inp_files/256165.got.cif
#   From: 2010.05.17/outbox.cif.g08.bks.cpg/sg2_129_cif.got.tgz:256165.got - 2010.06.03 11:33:40.
