data_PCOD9015628
_publ_section_title
;
Structure prediction by ZEFSAII (Michael W. Deem and Ramdas Pophale) SiO2 
 PCOD9015628
Probable space group: P -1
;
_chemical_formula_sum "Si O2"
_cell_formula_units_Z 14
_cell_length_a 9.048314
_cell_length_b 14.944389
_cell_length_c 15.715642
_cell_angle_alpha 139.773694
_cell_angle_beta 37.933549
_cell_angle_gamma 153.304186
_cell_volume 573.423413
_symmetry_space_group_name_H-M "P -1"
_symmetry_group_IT_number 2
_symmetry_cell_setting 'triclinic'
loop_
_space_group_symop_operation_xyz
x,y,z
-x,-y,-z
loop_
_atom_site_type_symbol
_atom_site_label
_atom_site_fract_x
_atom_site_fract_y
_atom_site_fract_z
Si Si1 0.254990 0.202769 0.722627
Si Si2 0.424028 0.041389 0.931038
Si Si3 0.020713 0.933710 0.773212
Si Si4 0.864364 0.336072 0.704438
Si Si5 0.059981 0.639758 0.502568
Si Si6 0.981068 0.667446 0.982464
Si Si7 0.962821 0.145849 0.641464
O O1 0.945338 0.992635 0.763439
O O2 0.514295 0.186479 0.571807
O O3 0.203443 0.257194 0.696491
O O4 0.339614 0.365434 0.867004
O O5 0.588389 0.045087 0.774393
O O6 0.171085 0.820849 0.928309
O O7 0.745416 0.208644 0.972643
O O8 0.198669 0.087120 0.067195
O O9 0.442756 0.129899 0.736033
O O10 0.934151 0.737852 0.656004
O O11 0.034178 0.437563 0.608263
O O12 0.046308 0.278649 0.621372
O O13 0.896781 0.477071 0.856768
O O14 0.000000 0.500000 0.500000
O O15 0.000000 0.000000 0.500000
#
# Coordination Sequence:
#
# PCOD9015628 Si02
#       7
#     2   2   2   2   2   2   2
#     4   9  20  40  63  86 129 169 196 250 315 367
#     4   9  21  40  64  88 128 166 200 256 312 365
#     4  10  21  42  64  90 125 167 205 252 316 367
#     4  11  24  39  65  94 125 163 211 259 303 371
#     4  11  24  41  62  90 127 168 207 257 315 367
#     4   9  20  40  63  94 124 164 210 251 305 366
#     4  11  22  39  63  92 123 162 207 253 307 370
#
# _framework density 24.414770999999998
#
# number of rings (size 3 to 8) (size 9 to 14) (size 15 to 20)
#    0.000    2.000    0.000    4.286    0.000   12.571 
#    0.000    2.143    0.000    0.000    0.000    0.000 
#    0.000    0.000    0.000    0.000    0.000    0.000 
#
# Total GULP energy -78106.842089 kJ/mol
# GULP energy per Si atom -5579.060149 kJ/mol
# Density = 2.435920 g / cm^3
# Si number density = 24.414771 Si / 1000 Ang^3
#
#
#
# Elastic Constant Matrix: (Units=GPa)
#
#
# Indices 1 2 3 4 5 6 
#
# 1 120.6617 18.1729 45.2773 7.2329 -1.5349 -34.2679
# 2 18.1729 43.5594 46.8667 12.1986 1.6516 -10.7857
# 3 45.2773 46.8667 188.5082 12.5673 -24.3797 -25.7416
# 4 7.2329 12.1986 12.5673 40.2659 -5.9799 -7.8055
# 5 -1.5349 1.6516 -24.3797 -5.9799 41.5294 -2.9501
# 6 -34.2679 -10.7857 -25.7416 -7.8055 -2.9501 30.0899
#
#
#
# Elastic Compliance Matrix: (Units=1/GPa)
#
#
# Indices 1 2 3 4 5 6 
#
# 1 0.012598 -0.001515 -0.000706 0.001249 0.001261 0.013648
# 2 -0.001515 0.036236 -0.009032 -0.009005 -0.008067 0.000410
# 3 -0.000706 -0.009032 0.009062 0.001900 0.006269 0.004818
# 4 0.001249 -0.009005 0.001900 0.029236 0.006299 0.008021
# 5 0.001261 -0.008067 0.006269 0.006299 0.029634 0.008447
# 6 0.013648 0.000410 0.004818 0.008021 0.008447 0.055955
#
#
# Mechanical properties :
#
#
# Convention : Reuss Voigt Hill
#
# Bulk Modulus (GPa) = 28.25589 63.70701 45.98145
# Shear Modulus (GPa) = 24.15191 38.53787 31.34489
#
# Velocity S-wave (km/s) = 3.14862 3.97730 3.58697
# Velocity P-wave (km/s) = 4.98165 6.87329 6.00246
#
# Compressibility (1/GPa) = 0.03539085
#
# Stress axis : x y z
#
# Youngs Moduli (GPa) = 79.37911 27.59661 110.35140
#
# Poissons Ratio (x) = 0.04180 0.07788
# Poissons Ratio (y) = 0.12023 0.99671
# Poissons Ratio (z) = 0.05602 0.24926
#
# Static dielectric constant tensor:
#      x y z
#    x 2.103130 0.065170 -0.006660 
#    y 0.065170 1.977690 -0.066080 
#    z -0.006660 -0.066080 1.978780 
# 
# From -- ./inp_files/505543.got.cif
#   From: 2010.05.17/outbox.cif.g08.bks.cpg/sg2_253_cif.got.tgz:505543.got - 2010.06.03 11:33:40.
