data_PCOD9015171
_publ_section_title
;
Structure prediction by ZEFSAII (Michael W. Deem and Ramdas Pophale) SiO2 
 PCOD9015171
Probable space group: P -1
;
_chemical_formula_sum "Si O2"
_cell_formula_units_Z 16
_cell_length_a 11.868775
_cell_length_b 8.790451
_cell_length_c 14.517659
_cell_angle_alpha 150.546962
_cell_angle_beta 106.755199
_cell_angle_gamma 78.190633
_cell_volume 709.685002
_symmetry_space_group_name_H-M "P -1"
_symmetry_group_IT_number 2
_symmetry_cell_setting 'triclinic'
loop_
_space_group_symop_operation_xyz
x,y,z
-x,-y,-z
loop_
_atom_site_type_symbol
_atom_site_label
_atom_site_fract_x
_atom_site_fract_y
_atom_site_fract_z
Si Si1 0.854098 0.392577 0.317552
Si Si2 0.676773 0.258706 0.553530
Si Si3 0.311479 0.666534 0.049171
Si Si4 0.500530 0.698639 0.776923
Si Si5 0.563890 0.898143 0.178395
Si Si6 0.863544 0.056503 0.968651
Si Si7 0.328428 0.114390 0.462022
Si Si8 0.872918 0.419706 0.546995
O O1 0.778253 0.677735 0.442484
O O2 0.848870 0.297272 0.373289
O O3 0.985630 0.530132 0.390766
O O4 0.813460 0.121876 0.092966
O O5 0.626494 0.595358 0.720175
O O6 0.798500 0.239541 0.515432
O O7 0.583248 0.028481 0.354034
O O8 0.681789 0.136785 0.592635
O O9 0.429728 0.739701 0.052384
O O10 0.192072 0.675766 0.965343
O O11 0.319695 0.932926 0.268460
O O12 0.340463 0.349270 0.939624
O O13 0.438674 0.378940 0.635679
O O14 0.426680 0.801485 0.726097
O O15 0.500000 0.000000 0.000000
O O16 0.834002 0.762301 0.739859
O O17 0.000000 0.000000 0.000000
#
# Coordination Sequence:
#
# PCOD9015171 Si02
#       8
#     2   2   2   2   2   2   2   2
#     4  10  22  41  72  99 134 185 233 296 357 416
#     4  12  25  44  67 100 145 185 235 293 354 432
#     4  11  23  43  68 102 145 180 234 294 357 420
#     4  12  27  42  67 102 139 191 240 284 358 436
#     4  11  25  41  67  98 140 186 228 293 352 426
#     4  10  21  41  72 103 138 186 238 290 355 422
#     4  12  25  43  69  99 144 190 232 296 359 422
#     4  10  22  43  69 102 137 182 240 293 351 426
#
# _framework density 22.545213
#
# number of rings (size 3 to 8) (size 9 to 14) (size 15 to 20)
#    0.000    1.000    2.500    3.750    7.000    0.500 
#    2.250    0.000    0.000    2.250    0.000    0.000 
#    0.000    0.000    0.000    0.000    0.000    0.000 
#
# Total GULP energy -89178.560162 kJ/mol
# GULP energy per Si atom -5573.660010 kJ/mol
# Density = 2.249390 g / cm^3
# Si number density = 22.545213 Si / 1000 Ang^3
#
#
#
# Elastic Constant Matrix: (Units=GPa)
#
#
# Indices 1 2 3 4 5 6 
#
# 1 138.6419 48.6477 29.3718 3.9679 -13.4629 -7.2194
# 2 48.6477 51.6558 -2.8077 -15.6039 2.8996 -1.6780
# 3 29.3718 -2.8077 114.9787 -17.2973 -31.3183 1.9617
# 4 3.9679 -15.6039 -17.2973 35.8929 1.8525 -6.1887
# 5 -13.4629 2.8996 -31.3183 1.8525 36.3267 4.3032
# 6 -7.2194 -1.6780 1.9617 -6.1887 4.3032 22.8581
#
#
#
# Elastic Compliance Matrix: (Units=1/GPa)
#
#
# Indices 1 2 3 4 5 6 
#
# 1 0.015909 -0.019430 -0.005612 -0.013094 0.003287 -0.000084
# 2 -0.019430 0.047066 0.008751 0.028000 -0.005454 0.005175
# 3 -0.005612 0.008751 0.014524 0.010730 0.009342 -0.001230
# 4 -0.013094 0.028000 0.010730 0.048530 -0.001547 0.010429
# 5 0.003287 -0.005454 0.009342 -0.001547 0.038236 -0.007781
# 6 -0.000084 0.005175 -0.001230 0.010429 -0.007781 0.048496
#
#
# Mechanical properties :
#
#
# Convention : Reuss Voigt Hill
#
# Bulk Modulus (GPa) = 22.26288 50.63333 36.44811
# Shear Modulus (GPa) = 19.20751 34.35317 26.78034
#
# Velocity S-wave (km/s) = 2.92199 3.90775 3.45026
# Velocity P-wave (km/s) = 4.61305 6.54737 5.66341
#
# Compressibility (1/GPa) = 0.04491781
#
# Stress axis : x y z
#
# Youngs Moduli (GPa) = 62.85722 21.24688 68.84979
#
# Poissons Ratio (x) = 0.41283 0.38637
# Poissons Ratio (y) = 1.22133 -0.60253
# Poissons Ratio (z) = 0.35274 -0.18594
#
# Static dielectric constant tensor:
#      x y z
#    x 1.930130 -0.001700 0.055690 
#    y -0.001700 1.874660 -0.008560 
#    z 0.055690 -0.008560 1.874510 
# 
# From -- ./inp_files/516486.got.cif
#   From: 2010.05.17/outbox.cif.g08.bks.cpg/sg2_259_cif.got.tgz:516486.got - 2010.06.03 11:33:40.
