data_PCOD9015865
_publ_section_title
;
Structure prediction by ZEFSAII (Michael W. Deem and Ramdas Pophale) SiO2 
 PCOD9015865
Probable space group: P -1
;
_chemical_formula_sum "Si O2"
_cell_formula_units_Z 15
_cell_length_a 9.121949
_cell_length_b 11.855783
_cell_length_c 7.435089
_cell_angle_alpha 63.421543
_cell_angle_beta 85.819642
_cell_angle_gamma 121.767279
_cell_volume 558.819055
_symmetry_space_group_name_H-M "P -1"
_symmetry_group_IT_number 2
_symmetry_cell_setting 'triclinic'
loop_
_space_group_symop_operation_xyz
x,y,z
-x,-y,-z
loop_
_atom_site_type_symbol
_atom_site_label
_atom_site_fract_x
_atom_site_fract_y
_atom_site_fract_z
Si Si1 0.700417 0.696392 0.406099
Si Si2 0.102054 0.858423 0.673437
Si Si3 0.057439 0.619001 0.247120
Si Si4 0.500000 0.000000 0.500000
Si Si5 0.090663 0.034811 0.205566
Si Si6 0.672894 0.043512 0.842926
Si Si7 0.343663 0.512764 0.756496
Si Si8 0.223890 0.478796 0.177537
O O1 0.526974 0.677443 0.530384
O O2 0.657211 0.614625 0.273672
O O3 0.730666 0.591769 0.612700
O O4 0.894337 0.876776 0.256937
O O5 0.113106 0.971566 0.438331
O O6 0.988918 0.676515 0.744588
O O7 0.305277 0.933800 0.676351
O O8 0.954614 0.845146 0.834964
O O9 0.145997 0.789443 0.207908
O O10 0.211711 0.619593 0.124642
O O11 0.000000 0.500000 0.500000
O O12 0.860211 0.535751 0.225162
O O13 0.626484 0.058826 0.631662
O O14 0.275820 0.077515 0.063618
O O15 0.500000 0.000000 0.000000
O O16 0.358167 0.525381 0.961608
#
# Coordination Sequence:
#
# PCOD9015865 Si02
#       8
#     2   2   2   1   2   2   2   2
#     4  10  21  42  65  94 136 169 223 279 328 406
#     4   9  20  38  67  95 127 174 217 266 334 400
#     4  12  23  46  69  96 140 177 221 286 333 400
#     4  10  22  42  66  96 130 174 224 268 332 406
#     4   9  18  42  64  91 133 174 210 279 331 389
#     4  11  25  46  67  98 135 174 227 277 335 395
#     4  11  23  40  67  96 130 177 222 271 341 398
#     4  11  23  43  65  97 135 171 220 276 333 395
#
# _framework density 26.842319
#
# number of rings (size 3 to 8) (size 9 to 14) (size 15 to 20)
#    0.000    1.600    2.667    2.400    1.867    2.133 
#   14.400    1.333    0.000    0.000    0.000    0.000 
#    0.000    0.000    0.000    0.000    0.000    0.000 
#
# Total GULP energy -83699.394070 kJ/mol
# GULP energy per Si atom -5579.959605 kJ/mol
# Density = 2.678122 g / cm^3
# Si number density = 26.842319 Si / 1000 Ang^3
#
#
#
# Elastic Constant Matrix: (Units=GPa)
#
#
# Indices 1 2 3 4 5 6 
#
# 1 150.4281 34.4178 38.5948 12.4390 -16.7767 16.6927
# 2 34.4178 76.1187 9.2056 19.5060 4.7895 -7.3795
# 3 38.5948 9.2056 126.0238 26.1058 -19.0746 -14.9842
# 4 12.4390 19.5060 26.1058 31.3004 -6.3239 -8.1387
# 5 -16.7767 4.7895 -19.0746 -6.3239 40.6930 -4.8516
# 6 16.6927 -7.3795 -14.9842 -8.1387 -4.8516 33.5926
#
#
#
# Elastic Compliance Matrix: (Units=1/GPa)
#
#
# Indices 1 2 3 4 5 6 
#
# 1 0.009522 -0.004875 -0.003129 0.000585 0.002322 -0.006721
# 2 -0.004875 0.018674 0.002329 -0.011452 -0.004401 0.004153
# 3 -0.003129 0.002329 0.011498 -0.007606 0.003339 0.005835
# 4 0.000585 -0.011452 -0.007606 0.048115 0.006260 0.006362
# 5 0.002322 -0.004401 0.003339 0.006260 0.029196 0.005102
# 6 -0.006721 0.004153 0.005835 0.006362 0.005102 0.038902
#
#
# Mechanical properties :
#
#
# Convention : Reuss Voigt Hill
#
# Bulk Modulus (GPa) = 35.28053 57.44523 46.36288
# Shear Modulus (GPa) = 28.29582 39.14069 33.71825
#
# Velocity S-wave (km/s) = 3.25029 3.82274 3.54808
# Velocity P-wave (km/s) = 5.22092 6.39781 5.83909
#
# Compressibility (1/GPa) = 0.02834425
#
# Stress axis : x y z
#
# Youngs Moduli (GPa) = 105.01644 53.55031 86.97341
#
# Poissons Ratio (x) = 0.26105 0.27213
# Poissons Ratio (y) = 0.51194 -0.20254
# Poissons Ratio (z) = 0.32859 -0.12471
#
# Static dielectric constant tensor:
#      x y z
#    x 2.141540 0.003030 -0.106490 
#    y 0.003030 2.175930 -0.085280 
#    z -0.106490 -0.085280 2.567840 
# 
# From -- ./inp_files/169357.got.cif
#   From: 2010.05.17/outbox.cif.g08.bks.cpg/sg2_85_cif.got.tgz:169357.got - 2010.06.03 11:33:40.
