data_PCOD9015805
_publ_section_title
;
Structure prediction by ZEFSAII (Michael W. Deem and Ramdas Pophale) SiO2 
 PCOD9015805
Probable space group: P -1
;
_chemical_formula_sum "Si O2"
_cell_formula_units_Z 16
_cell_length_a 14.600407
_cell_length_b 14.725905
_cell_length_c 14.703910
_cell_angle_alpha 33.641314
_cell_angle_beta 31.086286
_cell_angle_gamma 30.951808
_cell_volume 780.170438
_symmetry_space_group_name_H-M "P -1"
_symmetry_group_IT_number 2
_symmetry_cell_setting 'triclinic'
loop_
_space_group_symop_operation_xyz
x,y,z
-x,-y,-z
loop_
_atom_site_type_symbol
_atom_site_label
_atom_site_fract_x
_atom_site_fract_y
_atom_site_fract_z
Si Si1 0.968096 0.708753 0.356115
Si Si2 0.160244 0.030910 0.397260
Si Si3 0.396948 0.029629 0.662932
Si Si4 0.412113 0.652296 0.027789
Si Si5 0.232379 0.984017 0.579382
Si Si6 0.465630 0.372528 0.562402
Si Si7 0.313298 0.596483 0.834505
Si Si8 0.991311 0.535703 0.869787
O O1 0.179052 0.705266 0.187279
O O2 0.000000 0.500000 0.500000
O O3 0.837464 0.817225 0.287405
O O4 0.851805 0.829091 0.444153
O O5 0.127643 0.236401 0.231959
O O6 0.121546 0.031006 0.538018
O O7 0.388272 0.846982 0.347267
O O8 0.000000 0.000000 0.500000
O O9 0.500000 0.000000 0.500000
O O10 0.523065 0.090410 0.571020
O O11 0.422838 0.835902 0.838632
O O12 0.535982 0.555803 0.094283
O O13 0.500000 0.500000 0.000000
O O14 0.218523 0.809225 0.779024
O O15 0.500000 0.500000 0.500000
O O16 0.559969 0.400811 0.364478
O O17 0.223407 0.443332 0.709921
O O18 0.137691 0.551130 0.992984
O O19 0.000000 0.500000 0.000000
#
# Coordination Sequence:
#
# PCOD9015805 Si02
#       8
#     2   2   2   2   2   2   2   2
#     4  11  23  41  71  99 129 182 229 288 359 418
#     4  11  23  42  71 103 143 189 230 290 355 420
#     4  10  21  42  65  90 129 172 221 282 344 412
#     4  12  24  42  65  99 135 174 227 289 351 424
#     4  10  22  45  66  97 138 175 230 290 349 424
#     4  11  23  47  73 102 143 193 236 296 364 418
#     4  11  25  46  69 103 141 182 237 298 351 430
#     4  12  24  45  72 104 144 187 243 297 357 427
#
# _framework density 20.508341000000001
#
# number of rings (size 3 to 8) (size 9 to 14) (size 15 to 20)
#    0.000    1.000    2.500    5.625    1.750    0.500 
#   11.250    0.000    0.000    0.000    0.000    0.000 
#    0.000    0.000    0.000    0.000    0.000    0.000 
#
# Total GULP energy -89375.291415 kJ/mol
# GULP energy per Si atom -5585.955713 kJ/mol
# Density = 2.046166 g / cm^3
# Si number density = 20.508341 Si / 1000 Ang^3
#
#
#
# Elastic Constant Matrix: (Units=GPa)
#
#
# Indices 1 2 3 4 5 6 
#
# 1 155.6994 52.6807 66.8225 -10.0965 -23.6628 -24.3056
# 2 52.6807 132.2958 65.0634 -28.4064 -7.1586 -12.9756
# 3 66.8225 65.0634 138.1731 -27.9852 -23.6506 -20.4627
# 4 -10.0965 -28.4064 -27.9852 55.9765 -3.1589 -1.4781
# 5 -23.6628 -7.1586 -23.6506 -3.1589 48.5141 -5.3776
# 6 -24.3056 -12.9756 -20.4627 -1.4781 -5.3776 39.6073
#
#
#
# Elastic Compliance Matrix: (Units=1/GPa)
#
#
# Indices 1 2 3 4 5 6 
#
# 1 0.009306 -0.001967 -0.002361 -0.000185 0.003565 0.004324
# 2 -0.001967 0.010796 -0.003516 0.003334 -0.000805 0.000528
# 3 -0.002361 -0.003516 0.012552 0.004488 0.005269 0.004767
# 4 -0.000185 0.003334 0.004488 0.022149 0.004558 0.004743
# 5 0.003565 -0.000805 0.005269 0.004558 0.026024 0.008350
# 6 0.004324 0.000528 0.004767 0.004743 0.008350 0.031847
#
#
# Mechanical properties :
#
#
# Convention : Reuss Voigt Hill
#
# Bulk Modulus (GPa) = 58.94861 88.36683 73.65772
# Shear Modulus (GPa) = 37.30808 44.92635 41.11722
#
# Velocity S-wave (km/s) = 4.26980 4.68550 4.48247
# Velocity P-wave (km/s) = 7.28796 8.51197 7.92364
#
# Compressibility (1/GPa) = 0.01696393
#
# Stress axis : x y z
#
# Youngs Moduli (GPa) = 107.45232 92.62936 79.66935
#
# Poissons Ratio (x) = 0.18223 0.18812
# Poissons Ratio (y) = 0.21139 0.28016
# Poissons Ratio (z) = 0.25372 0.32573
#
# Static dielectric constant tensor:
#      x y z
#    x 1.739880 -0.023670 -0.013700 
#    y -0.023670 1.779050 0.024670 
#    z -0.013700 0.024670 1.722890 
# 
# From -- ./inp_files/534053.got.cif
#   From: 2010.05.17/outbox.cif.g08.bks.cpg/sg2_268_cif.got.tgz:534053.got - 2010.06.03 11:33:40.
