data_PCOD9015667
_publ_section_title
;
Structure prediction by ZEFSAII (Michael W. Deem and Ramdas Pophale) SiO2 
 PCOD9015667
Probable space group: P -1
;
_chemical_formula_sum "Si O2"
_cell_formula_units_Z 14
_cell_length_a 11.944191
_cell_length_b 8.389920
_cell_length_c 11.755250
_cell_angle_alpha 125.882360
_cell_angle_beta 141.029928
_cell_angle_gamma 65.885203
_cell_volume 597.690666
_symmetry_space_group_name_H-M "P -1"
_symmetry_group_IT_number 2
_symmetry_cell_setting 'triclinic'
loop_
_space_group_symop_operation_xyz
x,y,z
-x,-y,-z
loop_
_atom_site_type_symbol
_atom_site_label
_atom_site_fract_x
_atom_site_fract_y
_atom_site_fract_z
Si Si1 0.091207 0.980990 0.685341
Si Si2 0.536339 0.131458 0.820916
Si Si3 0.711483 0.042245 0.712489
Si Si4 0.565409 0.329525 0.400495
Si Si5 0.355582 0.688428 0.783395
Si Si6 0.183393 0.268356 0.476539
Si Si7 0.919681 0.306665 0.795340
O O1 0.277662 0.894721 0.776895
O O2 0.980213 0.828305 0.619106
O O3 0.000000 0.000000 0.500000
O O4 0.078292 0.187332 0.823559
O O5 0.704993 0.144454 0.872877
O O6 0.360190 0.203200 0.653306
O O7 0.508175 0.895771 0.723961
O O8 0.565440 0.265151 0.011277
O O9 0.805994 0.180504 0.748720
O O10 0.500000 0.000000 0.500000
O O11 0.802369 0.837613 0.680055
O O12 0.500000 0.500000 0.500000
O O13 0.524988 0.366152 0.251602
O O14 0.778572 0.337793 0.596906
O O15 0.205887 0.502970 0.590000
O O16 0.000000 0.500000 0.000000
#
# Coordination Sequence:
#
# PCOD9015667 Si02
#       7
#     2   2   2   2   2   2   2
#     4  11  22  45  65  88 142 178 211 274 338 394
#     4  11  22  43  67  99 131 173 220 280 329 387
#     4   9  18  41  70  89 131 177 216 270 330 388
#     4  12  25  44  67  96 136 173 224 280 333 395
#     4  12  25  39  66 104 129 169 226 272 335 401
#     4  10  21  42  64  92 134 179 217 269 337 391
#     4  11  24  44  68  99 129 181 224 269 334 396
#
# _framework density 23.423486
#
# number of rings (size 3 to 8) (size 9 to 14) (size 15 to 20)
#    0.000    1.143    5.714    2.143    4.000    1.143 
#    2.571    1.429    0.000    0.000    0.000    0.000 
#    0.000    0.000    0.000    0.000    0.000    0.000 
#
# Total GULP energy -78245.484242 kJ/mol
# GULP energy per Si atom -5588.963160 kJ/mol
# Density = 2.337017 g / cm^3
# Si number density = 23.423486 Si / 1000 Ang^3
#
#
#
# Elastic Constant Matrix: (Units=GPa)
#
#
# Indices 1 2 3 4 5 6 
#
# 1 113.7434 18.0698 36.5440 16.9634 -39.4806 -22.4390
# 2 18.0698 79.1523 17.3307 28.4758 -12.0647 -22.8992
# 3 36.5440 17.3307 65.7486 26.2812 -27.3024 -9.4592
# 4 16.9634 28.4758 26.2812 39.1715 -6.8105 -6.8609
# 5 -39.4806 -12.0647 -27.3024 -6.8105 41.8396 6.3114
# 6 -22.4390 -22.8992 -9.4592 -6.8609 6.3114 34.6707
#
#
#
# Elastic Compliance Matrix: (Units=1/GPa)
#
#
# Indices 1 2 3 4 5 6 
#
# 1 0.015341 0.002484 -0.001189 -0.004044 0.012527 0.008165
# 2 0.002484 0.021642 0.003892 -0.016067 0.006612 0.012581
# 3 -0.001189 0.003892 0.029220 -0.018647 0.015542 0.003254
# 4 -0.004044 -0.016067 -0.018647 0.048266 -0.011761 -0.006625
# 5 0.012527 0.006612 0.015542 -0.011761 0.044918 0.006210
# 6 0.008165 0.012581 0.003254 -0.006625 0.006210 0.040883
#
#
# Mechanical properties :
#
#
# Convention : Reuss Voigt Hill
#
# Bulk Modulus (GPa) = 13.05833 44.72593 28.89213
# Shear Modulus (GPa) = 23.21046 35.58299 29.39672
#
# Velocity S-wave (km/s) = 3.15128 3.90181 3.54646
# Velocity P-wave (km/s) = 4.33909 6.27971 5.39734
#
# Compressibility (1/GPa) = 0.07657949
#
# Stress axis : x y z
#
# Youngs Moduli (GPa) = 65.18584 46.20568 34.22332
#
# Poissons Ratio (x) = -0.11479 0.04068
# Poissons Ratio (y) = -0.16195 -0.13321
# Poissons Ratio (z) = 0.07748 -0.17986
#
# Static dielectric constant tensor:
#      x y z
#    x 1.950750 0.004090 -0.032160 
#    y 0.004090 1.896230 -0.011280 
#    z -0.032160 -0.011280 1.919940 
# 
# From -- ./inp_files/151751.got.cif
#   From: 2010.05.17/outbox.cif.g08.bks.cpg/sg2_76_cif.got.tgz:151751.got - 2010.06.03 11:33:40.
