data_PCOD9015458
_publ_section_title
;
Structure prediction by ZEFSAII (Michael W. Deem and Ramdas Pophale) SiO2 
 PCOD9015458
Probable space group: P -1
;
_chemical_formula_sum "Si O2"
_cell_formula_units_Z 16
_cell_length_a 11.633437
_cell_length_b 18.349580
_cell_length_c 8.995908
_cell_angle_alpha 141.298358
_cell_angle_beta 138.511730
_cell_angle_gamma 39.427886
_cell_volume 708.963482
_symmetry_space_group_name_H-M "P -1"
_symmetry_group_IT_number 2
_symmetry_cell_setting 'triclinic'
loop_
_space_group_symop_operation_xyz
x,y,z
-x,-y,-z
loop_
_atom_site_type_symbol
_atom_site_label
_atom_site_fract_x
_atom_site_fract_y
_atom_site_fract_z
Si Si1 0.962311 0.588022 0.893429
Si Si2 0.664552 0.002932 0.061395
Si Si3 0.289327 0.346331 0.950265
Si Si4 0.664271 0.511154 0.353841
Si Si5 0.587504 0.877922 0.502949
Si Si6 0.949818 0.193313 0.752116
Si Si7 0.387186 0.717865 0.191493
Si Si8 0.379203 0.721949 0.637527
O O1 0.865503 0.508929 0.590841
O O2 0.175916 0.489100 0.998137
O O3 0.825743 0.649371 0.003038
O O4 0.971246 0.699521 0.980624
O O5 0.865933 0.942259 0.249937
O O6 0.595507 0.152522 0.190844
O O7 0.681201 0.919517 0.796595
O O8 0.500000 0.000000 0.000000
O O9 0.277125 0.244113 0.661785
O O10 0.512278 0.309156 0.148770
O O11 0.580186 0.605426 0.278678
O O12 0.507952 0.593594 0.460760
O O13 0.677198 0.370165 0.114569
O O14 0.436418 0.827727 0.343255
O O15 0.500000 0.000000 0.500000
O O16 0.778264 0.220249 0.744939
O O17 0.847483 0.227095 0.543242
#
# Coordination Sequence:
#
# PCOD9015458 Si02
#       8
#     2   2   2   2   2   2   2   2
#     4  10  22  42  68 100 137 186 234 289 341 425
#     4  12  24  45  72  96 139 187 236 282 342 421
#     4  10  23  44  64  98 138 188 228 278 359 412
#     4   9  20  41  68  98 138 175 233 291 345 404
#     4  12  26  46  71  97 142 191 230 284 356 422
#     4  11  24  41  71 105 132 182 241 294 343 409
#     4  10  23  42  66 104 137 179 231 300 351 403
#     4  10  21  42  62  98 135 181 230 279 344 406
#
# _framework density 22.568156999999999
#
# number of rings (size 3 to 8) (size 9 to 14) (size 15 to 20)
#    0.000    1.500    1.250    4.125    7.000    1.000 
#    4.500    0.625    0.000    0.000    0.000    0.000 
#    0.000    0.000    0.000    0.000    0.000    0.000 
#
# Total GULP energy -89408.089504 kJ/mol
# GULP energy per Si atom -5588.005594 kJ/mol
# Density = 2.251679 g / cm^3
# Si number density = 22.568157 Si / 1000 Ang^3
#
#
#
# Elastic Constant Matrix: (Units=GPa)
#
#
# Indices 1 2 3 4 5 6 
#
# 1 64.8449 37.5071 35.4009 6.9433 11.2731 14.8061
# 2 37.5071 111.1675 23.6385 -9.8084 4.4843 -4.1531
# 3 35.4009 23.6385 134.7104 -0.7113 -5.1957 -7.6830
# 4 6.9433 -9.8084 -0.7113 48.0550 -3.2396 9.9985
# 5 11.2731 4.4843 -5.1957 -3.2396 29.9661 9.8384
# 6 14.8061 -4.1531 -7.6830 9.9985 9.8384 27.3086
#
#
#
# Elastic Compliance Matrix: (Units=1/GPa)
#
#
# Indices 1 2 3 4 5 6 
#
# 1 0.029938 -0.009171 -0.007443 -0.003342 -0.006203 -0.016262
# 2 -0.009171 0.012422 0.000590 0.002602 -0.000022 0.006083
# 3 -0.007443 0.000590 0.009707 0.000292 0.002507 0.005846
# 4 -0.003342 0.002602 0.000292 0.024103 0.006430 -0.008851
# 5 -0.006203 -0.000022 0.002507 0.006430 0.041143 -0.013112
# 6 -0.016262 0.006083 0.005846 -0.008851 -0.013112 0.055970
#
#
# Mechanical properties :
#
#
# Convention : Reuss Voigt Hill
#
# Bulk Modulus (GPa) = 49.94779 55.97954 52.96367
# Shear Modulus (GPa) = 23.58457 35.34436 29.46447
#
# Velocity S-wave (km/s) = 3.23621 3.96171 3.61720
# Velocity P-wave (km/s) = 6.01200 6.76649 6.40037
#
# Compressibility (1/GPa) = 0.02002090
#
# Stress axis : x y z
#
# Youngs Moduli (GPa) = 33.40187 80.50370 103.01476
#
# Poissons Ratio (x) = 0.73827 0.76671
# Poissons Ratio (y) = 0.30632 -0.06078
# Poissons Ratio (z) = 0.24860 -0.04750
#
# Static dielectric constant tensor:
#      x y z
#    x 1.829100 0.008880 -0.010820 
#    y 0.008880 1.820920 -0.022740 
#    z -0.010820 -0.022740 1.907700 
# 
# From -- ./inp_files/280206.got.cif
#   From: 2010.05.17/outbox.cif.g08.bks.cpg/sg2_141_cif.got.tgz:280206.got - 2010.06.03 11:33:40.
