data_PCOD9015452
_publ_section_title
;
Structure prediction by ZEFSAII (Michael W. Deem and Ramdas Pophale) SiO2 
 PCOD9015452
Probable space group: P -1
;
_chemical_formula_sum "Si O2"
_cell_formula_units_Z 16
_cell_length_a 5.987118
_cell_length_b 19.745119
_cell_length_c 9.563332
_cell_angle_alpha 52.125541
_cell_angle_beta 76.861299
_cell_angle_gamma 57.011945
_cell_volume 738.701868
_symmetry_space_group_name_H-M "P -1"
_symmetry_group_IT_number 2
_symmetry_cell_setting 'triclinic'
loop_
_space_group_symop_operation_xyz
x,y,z
-x,-y,-z
loop_
_atom_site_type_symbol
_atom_site_label
_atom_site_fract_x
_atom_site_fract_y
_atom_site_fract_z
Si Si1 0.846954 0.944717 0.421069
Si Si2 0.387946 0.744566 0.642032
Si Si3 0.310021 0.437068 0.659591
Si Si4 0.725541 0.354329 0.952930
Si Si5 0.469890 0.151217 0.302586
Si Si6 0.688063 0.026239 0.035034
Si Si7 0.708029 0.548819 0.659237
Si Si8 0.705248 0.756729 0.087707
O O1 0.712310 0.896625 0.593484
O O2 0.150323 0.851540 0.480643
O O3 0.770347 0.051867 0.365249
O O4 0.709850 0.978092 0.245945
O O5 0.574414 0.777850 0.650699
O O6 0.524212 0.654761 0.626080
O O7 0.294210 0.700996 0.838285
O O8 0.476748 0.400295 0.824494
O O9 0.402258 0.457130 0.471583
O O10 0.289849 0.341011 0.741198
O O11 0.008303 0.526757 0.623090
O O12 0.748016 0.451618 0.861715
O O13 0.985932 0.273870 0.928049
O O14 0.398285 0.215811 0.091571
O O15 0.498853 0.146847 0.917713
O O16 0.500000 0.000000 0.000000
O O17 0.000000 0.000000 0.000000
#
# Coordination Sequence:
#
# PCOD9015452 Si02
#       8
#     2   2   2   2   2   2   2   2
#     4  10  24  41  66  95 136 173 228 276 342 413
#     4  12  23  38  70  97 133 173 227 292 343 406
#     4  10  22  44  64  87 132 180 220 278 354 424
#     4  11  22  41  67  94 127 178 224 280 348 418
#     4  10  21  42  62  97 129 174 220 278 341 413
#     4  11  28  45  68 105 146 183 233 289 342 417
#     4  10  25  40  61  97 128 168 231 283 346 422
#     4  10  22  41  66  93 131 178 230 269 352 416
#
# _framework density 21.659617999999998
#
# number of rings (size 3 to 8) (size 9 to 14) (size 15 to 20)
#    0.000    1.500    2.500    1.125    5.250    1.500 
#    0.000    0.000    0.000    0.000    0.000    0.000 
#    0.000    0.000    0.000    0.000    0.000    0.000 
#
# Total GULP energy -89179.715661 kJ/mol
# GULP energy per Si atom -5573.732229 kJ/mol
# Density = 2.161032 g / cm^3
# Si number density = 21.659618 Si / 1000 Ang^3
#
#
#
# Elastic Constant Matrix: (Units=GPa)
#
#
# Indices 1 2 3 4 5 6 
#
# 1 44.7796 30.3570 2.9337 2.2398 19.4795 -8.0738
# 2 30.3570 109.0209 0.2845 -3.6884 9.9681 -18.0273
# 3 2.9337 0.2845 86.1994 -12.1639 4.9100 -2.4210
# 4 2.2398 -3.6884 -12.1639 29.7816 0.9650 6.5424
# 5 19.4795 9.9681 4.9100 0.9650 37.2379 -4.9769
# 6 -8.0738 -18.0273 -2.4210 6.5424 -4.9769 27.5574
#
#
#
# Elastic Compliance Matrix: (Units=1/GPa)
#
#
# Indices 1 2 3 4 5 6 
#
# 1 0.035486 -0.008048 -0.000783 -0.004179 -0.015768 0.003207
# 2 -0.008048 0.012249 0.000442 0.000987 0.001616 0.005751
# 3 -0.000783 0.000442 0.012456 0.005337 -0.001542 -0.000391
# 4 -0.004179 0.000987 0.005337 0.038289 -0.001029 -0.009386
# 5 -0.015768 0.001616 -0.001542 -0.001029 0.035291 0.002920
# 6 0.003207 0.005751 -0.000391 -0.009386 0.002920 0.043711
#
#
# Mechanical properties :
#
#
# Convention : Reuss Voigt Hill
#
# Bulk Modulus (GPa) = 23.03422 34.12781 28.58101
# Shear Modulus (GPa) = 23.95437 32.67703 28.31570
#
# Velocity S-wave (km/s) = 3.32918 3.88836 3.61959
# Velocity P-wave (km/s) = 5.04338 5.99581 5.54010
#
# Compressibility (1/GPa) = 0.04341367
#
# Stress axis : x y z
#
# Youngs Moduli (GPa) = 28.18049 81.63850 80.28150
#
# Poissons Ratio (x) = 0.65705 0.06283
# Poissons Ratio (y) = 0.22680 -0.03551
# Poissons Ratio (z) = 0.02205 -0.03611
#
# Static dielectric constant tensor:
#      x y z
#    x 1.893840 -0.007530 -0.009350 
#    y -0.007530 1.784060 0.013770 
#    z -0.009350 0.013770 1.770780 
# 
# From -- ./inp_files/81533.got.cif
#   From: 2010.05.17/outbox.cif.g08.bks.cpg/sg2_41_cif.got.tgz:81533.got - 2010.06.03 11:33:40.
