data_PCOD9015351
_publ_section_title
;
Structure prediction by ZEFSAII (Michael W. Deem and Ramdas Pophale) SiO2 
 PCOD9015351
Probable space group: P -1
;
_chemical_formula_sum "Si O2"
_cell_formula_units_Z 16
_cell_length_a 9.649147
_cell_length_b 7.595223
_cell_length_c 10.865466
_cell_angle_alpha 62.294630
_cell_angle_beta 96.886343
_cell_angle_gamma 98.316001
_cell_volume 696.331868
_symmetry_space_group_name_H-M "P -1"
_symmetry_group_IT_number 2
_symmetry_cell_setting 'triclinic'
loop_
_space_group_symop_operation_xyz
x,y,z
-x,-y,-z
loop_
_atom_site_type_symbol
_atom_site_label
_atom_site_fract_x
_atom_site_fract_y
_atom_site_fract_z
Si Si1 0.083100 0.104167 0.588731
Si Si2 0.315741 0.631411 0.077620
Si Si3 0.317919 0.827897 0.769546
Si Si4 0.402174 0.193590 0.814943
Si Si5 0.795069 0.112545 0.664650
Si Si6 0.836319 0.024484 0.971312
Si Si7 0.297043 0.271998 0.380467
Si Si8 0.613623 0.366641 0.420840
O O1 0.184729 0.274580 0.476989
O O2 0.961735 0.168927 0.642305
O O3 0.174135 0.937009 0.710549
O O4 0.000000 0.000000 0.500000
O O5 0.457422 0.752445 0.107949
O O6 0.186441 0.755577 0.054530
O O7 0.295227 0.429135 0.217977
O O8 0.322426 0.645390 0.926048
O O9 0.350116 0.745322 0.666202
O O10 0.418379 0.012060 0.780125
O O11 0.371404 0.398293 0.680318
O O12 0.268227 0.121904 0.909311
O O13 0.781095 0.021919 0.827372
O O14 0.706735 0.295241 0.564423
O O15 0.735799 0.942137 0.618059
O O16 0.000000 0.000000 0.000000
O O17 0.450471 0.299475 0.445805
#
# Coordination Sequence:
#
# PCOD9015351 Si02
#       8
#     2   2   2   2   2   2   2   2
#     4  10  21  42  61  88 131 169 211 265 320 379
#     4  10  24  42  64  96 128 169 210 266 328 381
#     4  11  21  41  69  89 135 167 210 267 326 373
#     4  10  25  43  65  98 134 166 214 267 323 385
#     4  11  23  41  66  92 131 169 215 266 321 382
#     4  11  24  44  64  95 130 169 216 265 319 383
#     4  10  23  39  63  97 126 164 217 261 320 384
#     4  11  24  40  68 102 124 169 219 262 324 386
#
# _framework density 22.977550000000001
#
# number of rings (size 3 to 8) (size 9 to 14) (size 15 to 20)
#    0.000    1.500    2.500    3.375    5.250    3.000 
#    0.000    7.500    0.000    0.000    0.000    0.000 
#    0.000    0.000    0.000    0.000    0.000    0.000 
#
# Total GULP energy -89481.524541 kJ/mol
# GULP energy per Si atom -5592.595284 kJ/mol
# Density = 2.292525 g / cm^3
# Si number density = 22.977550 Si / 1000 Ang^3
#
#
#
# Elastic Constant Matrix: (Units=GPa)
#
#
# Indices 1 2 3 4 5 6 
#
# 1 125.8472 15.8445 60.1374 -13.8614 3.8175 0.9467
# 2 15.8445 63.5999 38.3753 -5.4551 -7.9067 0.7191
# 3 60.1374 38.3753 139.5715 -2.4101 12.9757 9.2379
# 4 -13.8614 -5.4551 -2.4101 34.2119 -0.1154 1.6931
# 5 3.8175 -7.9067 12.9757 -0.1154 39.5733 1.4424
# 6 0.9467 0.7191 9.2379 1.6931 1.4424 11.0825
#
#
#
# Elastic Compliance Matrix: (Units=1/GPa)
#
#
# Indices 1 2 3 4 5 6 
#
# 1 0.010604 0.000721 -0.004923 0.003945 0.000657 0.002463
# 2 0.000721 0.020554 -0.006673 0.002976 0.006128 0.002915
# 3 -0.004923 -0.006673 0.012061 -0.001812 -0.004515 -0.008336
# 4 0.003945 0.002976 -0.001812 0.031374 0.001044 -0.003949
# 5 0.000657 0.006128 -0.004515 0.001044 0.027932 -0.000485
# 6 0.002463 0.002915 -0.008336 -0.003949 -0.000485 0.097448
#
#
# Mechanical properties :
#
#
# Convention : Reuss Voigt Hill
#
# Bulk Modulus (GPa) = 46.58020 61.97030 54.27525
# Shear Modulus (GPa) = 21.84558 31.28430 26.56494
#
# Velocity S-wave (km/s) = 3.08675 3.69388 3.40387
# Velocity P-wave (km/s) = 5.74631 6.72469 6.25466
#
# Compressibility (1/GPa) = 0.02146835
#
# Stress axis : x y z
#
# Youngs Moduli (GPa) = 94.30396 48.65152 82.91157
#
# Poissons Ratio (x) = -0.03508 0.40819
# Poissons Ratio (y) = -0.06800 0.55330
# Poissons Ratio (z) = 0.46428 0.32467
#
# Static dielectric constant tensor:
#      x y z
#    x 1.894680 -0.028050 -0.037310 
#    y -0.028050 1.893000 0.041780 
#    z -0.037310 0.041780 1.916850 
# 
# From -- ./inp_files/381085.got.cif
#   From: 2010.05.17/outbox.cif.g08.bks.cpg/sg2_191_cif.got.tgz:381085.got - 2010.06.03 11:33:40.
