data_PCOD9015810
_publ_section_title
;
Structure prediction by ZEFSAII (Michael W. Deem and Ramdas Pophale) SiO2 
 PCOD9015810
Probable space group: P -1
;
_chemical_formula_sum "Si O2"
_cell_formula_units_Z 16
_cell_length_a 12.312916
_cell_length_b 13.435553
_cell_length_c 9.606645
_cell_angle_alpha 116.099497
_cell_angle_beta 145.151189
_cell_angle_gamma 59.730421
_cell_volume 783.189747
_symmetry_space_group_name_H-M "P -1"
_symmetry_group_IT_number 2
_symmetry_cell_setting 'triclinic'
loop_
_space_group_symop_operation_xyz
x,y,z
-x,-y,-z
loop_
_atom_site_type_symbol
_atom_site_label
_atom_site_fract_x
_atom_site_fract_y
_atom_site_fract_z
Si Si1 0.943789 0.694382 0.899112
Si Si2 0.042484 0.808197 0.346827
Si Si3 0.563636 0.325254 0.351189
Si Si4 0.457104 0.115157 0.435106
Si Si5 0.317123 0.755482 0.844444
Si Si6 0.359566 0.006122 0.988400
Si Si7 0.314600 0.448040 0.405700
Si Si8 0.331673 0.701098 0.145543
O O1 0.753882 0.791159 0.697173
O O2 0.887723 0.573878 0.771499
O O3 0.966952 0.735376 0.106036
O O4 0.136563 0.688900 0.009043
O O5 0.867762 0.924699 0.242493
O O6 0.267429 0.795508 0.519168
O O7 0.112174 0.763554 0.548711
O O8 0.518524 0.318172 0.136508
O O9 0.389963 0.362449 0.300706
O O10 0.674720 0.425880 0.545098
O O11 0.619836 0.182231 0.678598
O O12 0.500000 0.000000 0.500000
O O13 0.437936 0.074069 0.233164
O O14 0.352479 0.881589 0.960286
O O15 0.316969 0.707186 0.967684
O O16 0.500000 0.000000 0.000000
O O17 0.482611 0.401145 0.669499
#
# Coordination Sequence:
#
# PCOD9015810 Si02
#       8
#     2   2   2   2   2   2   2   2
#     4  10  22  37  63  85 120 161 196 252 299 358
#     4   9  21  39  57  91 118 156 206 246 297 360
#     4   9  21  41  64  89 119 154 211 253 295 359
#     4  10  22  40  57  91 117 159 206 237 302 364
#     4  10  22  39  58  88 122 164 193 247 311 351
#     4  11  23  37  62  89 125 160 199 252 297 356
#     4  10  21  42  65  91 115 161 206 254 302 350
#     4  11  21  41  59  88 129 154 200 249 301 365
#
# _framework density 20.429276999999999
#
# number of rings (size 3 to 8) (size 9 to 14) (size 15 to 20)
#    0.750    1.250    2.500    0.375    7.000    2.500 
#    0.000    0.625    0.000    0.000    0.000    0.000 
#    0.000    0.000    0.000    0.000    0.000    0.000 
#
# Total GULP energy -89116.083316 kJ/mol
# GULP energy per Si atom -5569.755207 kJ/mol
# Density = 2.038278 g / cm^3
# Si number density = 20.429277 Si / 1000 Ang^3
#
#
#
# Elastic Constant Matrix: (Units=GPa)
#
#
# Indices 1 2 3 4 5 6 
#
# 1 103.8484 21.2098 64.1493 -7.9748 -5.5496 7.2582
# 2 21.2098 43.8817 8.4719 -11.9064 5.6959 4.1310
# 3 64.1493 8.4719 87.4959 -1.5607 -9.4533 8.6957
# 4 -7.9748 -11.9064 -1.5607 17.5116 8.6718 -2.8534
# 5 -5.5496 5.6959 -9.4533 8.6718 42.3168 7.3936
# 6 7.2582 4.1310 8.6957 -2.8534 7.3936 27.0024
#
#
#
# Elastic Compliance Matrix: (Units=1/GPa)
#
#
# Indices 1 2 3 4 5 6 
#
# 1 0.019608 -0.005540 -0.013927 0.004463 -0.000842 0.000764
# 2 -0.005540 0.033887 -0.000166 0.026359 -0.011109 0.002186
# 3 -0.013927 -0.000166 0.022771 -0.008434 0.006081 -0.006120
# 4 0.004463 0.026359 -0.008434 0.091571 -0.026112 0.014310
# 5 -0.000842 -0.011109 0.006081 -0.026112 0.033832 -0.012055
# 6 0.000764 0.002186 -0.006120 0.014310 -0.012055 0.043278
#
#
# Mechanical properties :
#
#
# Convention : Reuss Voigt Hill
#
# Bulk Modulus (GPa) = 27.02817 46.98755 37.00786
# Shear Modulus (GPa) = 16.86072 26.79249 21.82660
#
# Velocity S-wave (km/s) = 2.87596 3.62536 3.27218
# Velocity P-wave (km/s) = 4.92819 6.36980 5.69479
#
# Compressibility (1/GPa) = 0.03699844
#
# Stress axis : x y z
#
# Youngs Moduli (GPa) = 50.99864 29.50998 43.91568
#
# Poissons Ratio (x) = 0.16350 0.61162
# Poissons Ratio (y) = 0.28255 0.00730
# Poissons Ratio (z) = 0.71026 0.00491
#
# Static dielectric constant tensor:
#      x y z
#    x 1.731920 -0.017370 -0.009940 
#    y -0.017370 1.777750 -0.001200 
#    z -0.009940 -0.001200 1.767600 
# 
# From -- ./inp_files/270772.got.cif
#   From: 2010.05.17/outbox.cif.g08.bks.cpg/sg2_136_cif.got.tgz:270772.got - 2010.06.03 11:33:40.
