data_PCOD9015832
_publ_section_title
;
Structure prediction by ZEFSAII (Michael W. Deem and Ramdas Pophale) SiO2 
 PCOD9015832
Probable space group: P -1
;
_chemical_formula_sum "Si O2"
_cell_formula_units_Z 16
_cell_length_a 14.374900
_cell_length_b 9.282077
_cell_length_c 19.267420
_cell_angle_alpha 146.825036
_cell_angle_beta 33.327287
_cell_angle_gamma 145.950155
_cell_volume 697.893436
_symmetry_space_group_name_H-M "P -1"
_symmetry_group_IT_number 2
_symmetry_cell_setting 'triclinic'
loop_
_space_group_symop_operation_xyz
x,y,z
-x,-y,-z
loop_
_atom_site_type_symbol
_atom_site_label
_atom_site_fract_x
_atom_site_fract_y
_atom_site_fract_z
Si Si1 0.237880 0.698321 0.007654
Si Si2 0.537589 0.686639 0.278964
Si Si3 0.856170 0.146719 0.735337
Si Si4 0.832246 0.156313 0.039640
Si Si5 0.754146 0.329046 0.441889
Si Si6 0.492692 0.951897 0.269310
Si Si7 0.738496 0.736519 0.507374
Si Si8 0.846052 0.547981 0.796905
O O1 0.373070 0.540291 0.869232
O O2 0.262733 0.841524 0.974327
O O3 0.248726 0.911324 0.149959
O O4 0.023906 0.446874 0.042396
O O5 0.342160 0.580578 0.399066
O O6 0.515522 0.803301 0.265035
O O7 0.678536 0.980764 0.350031
O O8 0.859914 0.450260 0.827235
O O9 0.067486 0.180455 0.620506
O O10 0.770747 0.930645 0.636282
O O11 0.687585 0.121654 0.176761
O O12 0.872968 0.874461 0.905485
O O13 0.689604 0.426239 0.449314
O O14 0.978959 0.476313 0.360633
O O15 0.351435 0.675138 0.200489
O O16 0.394893 0.173698 0.419916
#
# Coordination Sequence:
#
# PCOD9015832 Si02
#       8
#     2   2   2   2   2   2   2   2
#     4  11  24  42  64  94 128 171 211 263 320 370
#     4  11  24  41  63  98 125 169 216 256 320 376
#     4   9  20  39  68  91 124 168 209 254 318 376
#     4  11  24  40  62  95 132 164 215 264 312 377
#     4  10  22  42  67  87 132 172 207 263 310 382
#     4  11  24  39  64  96 128 164 213 265 312 373
#     4   9  20  41  61  94 126 163 210 257 311 377
#     4  10  21  42  65  92 129 167 205 263 317 373
#
# _framework density 22.926136
#
# number of rings (size 3 to 8) (size 9 to 14) (size 15 to 20)
#    0.000    1.750    1.250    2.625    3.500    5.000 
#    2.250    3.750    0.000    0.000    0.000    0.000 
#    0.000    0.000    0.000    0.000    0.000    0.000 
#
# Total GULP energy -89494.626178 kJ/mol
# GULP energy per Si atom -5593.414136 kJ/mol
# Density = 2.287395 g / cm^3
# Si number density = 22.926136 Si / 1000 Ang^3
#
#
#
# Elastic Constant Matrix: (Units=GPa)
#
#
# Indices 1 2 3 4 5 6 
#
# 1 101.4617 17.6043 60.1637 -7.9318 -12.6502 -29.1794
# 2 17.6043 60.4528 10.9178 0.1280 -6.6620 -7.3738
# 3 60.1637 10.9178 109.6584 -2.7176 -5.9517 -13.2383
# 4 -7.9318 0.1280 -2.7176 42.9399 -5.5368 0.2663
# 5 -12.6502 -6.6620 -5.9517 -5.5368 32.0474 2.7388
# 6 -29.1794 -7.3738 -13.2383 0.2663 2.7388 37.9577
#
#
#
# Elastic Compliance Matrix: (Units=1/GPa)
#
#
# Indices 1 2 3 4 5 6 
#
# 1 0.019639 -0.002180 -0.008826 0.003695 0.005343 0.011184
# 2 -0.002180 0.017692 -0.000247 -0.000142 0.002620 0.001487
# 3 -0.008826 -0.000247 0.013671 -0.000878 -0.000978 -0.001988
# 4 0.003695 -0.000142 -0.000878 0.024593 0.005348 0.001948
# 5 0.005343 0.002620 -0.000978 0.005348 0.034450 0.001752
# 6 0.011184 0.001487 -0.001988 0.001948 0.001752 0.034398
#
#
# Mechanical properties :
#
#
# Convention : Reuss Voigt Hill
#
# Bulk Modulus (GPa) = 35.09326 49.88274 42.48800
# Shear Modulus (GPa) = 28.33672 34.78146 31.55909
#
# Velocity S-wave (km/s) = 3.51949 3.89923 3.71422
# Velocity P-wave (km/s) = 5.64412 6.48670 6.08003
#
# Compressibility (1/GPa) = 0.02849550
#
# Stress axis : x y z
#
# Youngs Moduli (GPa) = 50.91811 56.52386 73.14498
#
# Poissons Ratio (x) = 0.12322 0.64560
# Poissons Ratio (y) = 0.11100 0.01809
# Poissons Ratio (z) = 0.44942 0.01398
#
# Static dielectric constant tensor:
#      x y z
#    x 1.844310 0.044530 0.016730 
#    y 0.044530 1.896720 0.038740 
#    z 0.016730 0.038740 1.845630 
# 
# From -- ./inp_files/572922.got.cif
#   From: 2010.05.17/outbox.cif.g08.bks.cpg/sg2_287_cif.got.tgz:572922.got - 2010.06.03 11:33:40.
