data_PCOD9015186
_publ_section_title
;
Structure prediction by ZEFSAII (Michael W. Deem and Ramdas Pophale) SiO2 
 PCOD9015186
Probable space group: P -1
;
_chemical_formula_sum "Si O2"
_cell_formula_units_Z 13
_cell_length_a 13.459113
_cell_length_b 5.436690
_cell_length_c 8.866626
_cell_angle_alpha 114.285576
_cell_angle_beta 49.201271
_cell_angle_gamma 110.496409
_cell_volume 444.556070
_symmetry_space_group_name_H-M "P -1"
_symmetry_group_IT_number 2
_symmetry_cell_setting 'triclinic'
loop_
_space_group_symop_operation_xyz
x,y,z
-x,-y,-z
loop_
_atom_site_type_symbol
_atom_site_label
_atom_site_fract_x
_atom_site_fract_y
_atom_site_fract_z
Si Si1 0.475884 0.191502 0.393026
Si Si2 0.000000 0.000000 0.000000
Si Si3 0.503610 0.564779 0.839967
Si Si4 0.949865 0.654395 0.273177
Si Si5 0.281057 0.136540 0.930494
Si Si6 0.744925 0.239159 0.499824
Si Si7 0.812009 0.089208 0.719883
O O1 0.500000 0.500000 0.500000
O O2 0.474930 0.159792 0.203074
O O3 0.397776 0.952236 0.721507
O O4 0.327937 0.057823 0.539732
O O5 0.050687 0.229247 0.865484
O O6 0.137710 0.088476 0.986582
O O7 0.359014 0.431780 0.897001
O O8 0.629614 0.421629 0.623513
O O9 0.500000 0.500000 0.000000
O O10 0.878780 0.345017 0.300855
O O11 0.090897 0.699426 0.224893
O O12 0.874993 0.851460 0.505432
O O13 0.267593 0.075485 0.108626
O O14 0.769563 0.252366 0.657436
#
# Coordination Sequence:
#
# PCOD9015186 Si02
#       7
#     2   1   2   2   2   2   2
#     4  11  26  45  68 103 148 197 245 297 360 429
#     4  10  24  48  72 104 150 192 234 296 370 446
#     4  11  23  41  70 105 141 183 239 302 365 434
#     4  10  22  42  71 107 145 187 241 301 368 439
#     4  10  23  45  73 105 145 192 244 299 361 434
#     4  11  22  40  72 104 140 189 244 303 359 427
#     4  10  21  41  72 107 141 186 240 300 365 437
#
# _framework density 29.242653000000001
#
# number of rings (size 3 to 8) (size 9 to 14) (size 15 to 20)
#    0.000    1.538    0.000    4.154    0.000    8.615 
#    0.000    8.462    0.000    9.231    0.000    0.000 
#    0.000    0.000    0.000    0.000    0.000    0.000 
#
# Total GULP energy -72575.921916 kJ/mol
# GULP energy per Si atom -5582.763224 kJ/mol
# Density = 2.917610 g / cm^3
# Si number density = 29.242653 Si / 1000 Ang^3
#
#
#
# Elastic Constant Matrix: (Units=GPa)
#
#
# Indices 1 2 3 4 5 6 
#
# 1 216.2153 32.3752 71.1050 -50.2456 27.4613 -11.5854
# 2 32.3752 118.1424 32.4013 -50.7681 4.6602 22.8976
# 3 71.1050 32.4013 170.6932 -55.7760 27.6228 5.1936
# 4 -50.2456 -50.7681 -55.7760 64.5203 -2.3980 -7.3695
# 5 27.4613 4.6602 27.6228 -2.3980 74.5874 -14.1717
# 6 -11.5854 22.8976 5.1936 -7.3695 -14.1717 45.1428
#
#
#
# Elastic Compliance Matrix: (Units=1/GPa)
#
#
# Indices 1 2 3 4 5 6 
#
# 1 0.006208 0.000034 -0.001092 0.004087 -0.001385 0.001934
# 2 0.000034 0.014523 0.001793 0.012193 -0.002394 -0.006325
# 3 -0.001092 0.001793 0.009236 0.008204 -0.003233 -0.001928
# 4 0.004087 0.012193 0.008204 0.034996 -0.004519 -0.001785
# 5 -0.001385 -0.002394 -0.003233 -0.004519 0.016177 0.005571
# 6 0.001934 -0.006325 -0.001928 -0.001785 0.005571 0.027536
#
#
# Mechanical properties :
#
#
# Convention : Reuss Voigt Hill
#
# Bulk Modulus (GPa) = 31.80939 86.31265 59.06102
# Shear Modulus (GPa) = 42.48662 61.46142 51.97402
#
# Velocity S-wave (km/s) = 3.81583 4.58948 4.22042
# Velocity P-wave (km/s) = 5.50594 7.59372 6.63249
#
# Compressibility (1/GPa) = 0.03143726
#
# Stress axis : x y z
#
# Youngs Moduli (GPa) = 161.07501 68.85665 108.27779
#
# Poissons Ratio (x) = -0.00236 0.11823
# Poissons Ratio (y) = -0.00553 -0.19412
# Poissons Ratio (z) = 0.17587 -0.12345
#
# Static dielectric constant tensor:
#      x y z
#    x 2.141790 0.097020 0.104230 
#    y 0.097020 2.345130 -0.003960 
#    z 0.104230 -0.003960 2.275590 
# 
# From -- ./inp_files/63017.got.cif
#   From: 2010.05.17/outbox.cif.g08.bks.cpg/sg2_32_cif.got.tgz:63017.got - 2010.06.03 11:33:40.
