data_PCOD9015615
_publ_section_title
;
Structure prediction by ZEFSAII (Michael W. Deem and Ramdas Pophale) SiO2 
 PCOD9015615
Probable space group: P -1
;
_chemical_formula_sum "Si O2"
_cell_formula_units_Z 12
_cell_length_a 16.920526
_cell_length_b 9.745145
_cell_length_c 13.502054
_cell_angle_alpha 46.460577
_cell_angle_beta 21.579068
_cell_angle_gamma 35.142714
_cell_volume 443.594486
_symmetry_space_group_name_H-M "P -1"
_symmetry_group_IT_number 2
_symmetry_cell_setting 'triclinic'
loop_
_space_group_symop_operation_xyz
x,y,z
-x,-y,-z
loop_
_atom_site_type_symbol
_atom_site_label
_atom_site_fract_x
_atom_site_fract_y
_atom_site_fract_z
Si Si1 0.137989 0.391659 0.257251
Si Si2 0.899368 0.972829 0.430387
Si Si3 0.606011 0.537465 0.472946
Si Si4 0.529287 0.188986 0.151632
Si Si5 0.155163 0.374283 0.009393
Si Si6 0.247762 0.742056 0.962338
O O1 0.760883 0.868253 0.689075
O O2 0.808847 0.601815 0.576261
O O3 0.136871 0.386533 0.142336
O O4 0.307149 0.483631 0.042687
O O5 0.731824 0.262747 0.498550
O O6 0.225409 0.807445 0.176242
O O7 0.946640 0.936886 0.274387
O O8 0.681667 0.539855 0.269632
O O9 0.308435 0.739104 0.778105
O O10 0.834181 0.548915 0.253830
O O11 0.565485 0.219286 0.210875
O O12 0.663203 0.911224 0.100844
#
# Coordination Sequence:
#
# PCOD9015615 Si02
#       6
#     2   2   2   2   2   2
#     4  12  22  40  66  96 120 161 213 250 308 372
#     4   9  22  40  64  91 125 163 202 258 309 359
#     4  10  21  42  64  88 127 165 205 249 314 365
#     4   9  22  40  60  96 122 160 202 260 305 361
#     4  10  22  40  66  90 122 168 205 253 307 367
#     4  10  23  39  62  93 127 163 197 262 310 359
#
# _framework density 27.051735000000001
#
# number of rings (size 3 to 8) (size 9 to 14) (size 15 to 20)
#    1.000    1.000    1.667    1.000    0.000    8.667 
#    0.000    1.667    0.000    0.000    0.000    0.000 
#    0.000    0.000    0.000    0.000    0.000    0.000 
#
# Total GULP energy -67049.525656 kJ/mol
# GULP energy per Si atom -5587.460471 kJ/mol
# Density = 2.699016 g / cm^3
# Si number density = 27.051735 Si / 1000 Ang^3
#
#
#
# Elastic Constant Matrix: (Units=GPa)
#
#
# Indices 1 2 3 4 5 6 
#
# 1 107.2447 11.3511 35.9098 3.6494 31.3293 -0.1299
# 2 11.3511 114.2908 45.9214 -18.9532 16.5248 12.0643
# 3 35.9098 45.9214 154.8781 13.9613 35.1024 -11.9252
# 4 3.6494 -18.9532 13.9613 27.6807 -7.5701 4.9620
# 5 31.3293 16.5248 35.1024 -7.5701 56.9153 4.0838
# 6 -0.1299 12.0643 -11.9252 4.9620 4.0838 26.9265
#
#
#
# Elastic Compliance Matrix: (Units=1/GPa)
#
#
# Indices 1 2 3 4 5 6 
#
# 1 0.011623 -0.000963 -0.000378 -0.004178 -0.006591 0.002090
# 2 -0.000963 0.016801 -0.008980 0.020418 0.005057 -0.016039
# 3 -0.000378 -0.008980 0.014206 -0.018585 -0.009507 0.015180
# 4 -0.004178 0.020418 -0.018585 0.071447 0.019745 -0.033560
# 5 -0.006591 0.005057 -0.009507 0.019745 0.029266 -0.014585
# 6 0.002090 -0.016039 0.015180 -0.033560 -0.014585 0.059454
#
#
# Mechanical properties :
#
#
# Convention : Reuss Voigt Hill
#
# Bulk Modulus (GPa) = 45.47924 62.53092 54.00508
# Shear Modulus (GPa) = 21.66682 41.18658 31.42670
#
# Velocity S-wave (km/s) = 2.83316 3.90617 3.41211
# Velocity P-wave (km/s) = 5.24889 6.59619 5.96073
#
# Compressibility (1/GPa) = 0.02198805
#
# Stress axis : x y z
#
# Youngs Moduli (GPa) = 86.03569 59.51945 70.39399
#
# Poissons Ratio (x) = 0.05732 0.02661
# Poissons Ratio (y) = 0.08285 0.63214
# Poissons Ratio (z) = 0.03253 0.53448
#
# Static dielectric constant tensor:
#      x y z
#    x 2.138700 0.038500 -0.063200 
#    y 0.038500 2.092760 -0.023240 
#    z -0.063200 -0.023240 2.145860 
# 
# From -- ./inp_files/577225.got.cif
#   From: 2010.05.17/outbox.cif.g08.bks.cpg/sg2_289_cif.got.tgz:577225.got - 2010.06.03 11:33:40.
