data_PCOD9015643
_publ_section_title
;
Structure prediction by ZEFSAII (Michael W. Deem and Ramdas Pophale) SiO2 
 PCOD9015643
Probable space group: P -1
;
_chemical_formula_sum "Si O2"
_cell_formula_units_Z 16
_cell_length_a 11.030922
_cell_length_b 13.458458
_cell_length_c 9.153561
_cell_angle_alpha 98.186983
_cell_angle_beta 92.580855
_cell_angle_gamma 149.466857
_cell_volume 644.236738
_symmetry_space_group_name_H-M "P -1"
_symmetry_group_IT_number 2
_symmetry_cell_setting 'triclinic'
loop_
_space_group_symop_operation_xyz
x,y,z
-x,-y,-z
loop_
_atom_site_type_symbol
_atom_site_label
_atom_site_fract_x
_atom_site_fract_y
_atom_site_fract_z
Si Si1 0.371750 0.192712 0.510801
Si Si2 0.947510 0.082094 0.828077
Si Si3 0.729436 0.561097 0.393671
Si Si4 0.279534 0.745727 0.529605
Si Si5 0.138023 0.952270 0.710178
Si Si6 0.716152 0.726754 0.863257
Si Si7 0.924865 0.290479 0.757674
Si Si8 0.489669 0.947767 0.147604
O O1 0.547818 0.400447 0.483826
O O2 0.535185 0.209147 0.501732
O O3 0.122540 0.008730 0.356232
O O4 0.301310 0.149909 0.666491
O O5 0.909803 0.173322 0.819254
O O6 0.751056 0.872930 0.871667
O O7 0.205087 0.248193 0.965190
O O8 0.554599 0.499839 0.263946
O O9 0.976368 0.781056 0.535702
O O10 0.813916 0.533299 0.280838
O O11 0.244270 0.800601 0.410274
O O12 0.000000 0.500000 0.500000
O O13 0.388199 0.878704 0.705020
O O14 0.934043 0.841493 0.792069
O O15 0.335491 0.021543 0.812026
O O16 0.802265 0.278051 0.864258
O O17 0.500000 0.000000 0.000000
#
# Coordination Sequence:
#
# PCOD9015643 Si02
#       8
#     2   2   2   2   2   2   2   2
#     4  11  21  39  70  95 127 171 220 263 321 395
#     4  10  21  42  64  91 122 175 223 258 321 389
#     4  11  23  40  68  97 125 170 229 267 312 392
#     4  12  21  40  70  96 131 174 221 263 325 414
#     4  12  22  43  64  96 132 170 214 271 334 384
#     4  10  25  42  64  91 133 171 220 271 322 380
#     4  12  21  41  69  96 126 174 223 263 325 405
#     4  12  24  39  68 100 134 168 211 280 341 389
#
# _framework density 24.835591000000001
#
# number of rings (size 3 to 8) (size 9 to 14) (size 15 to 20)
#    0.000    0.750    6.250    1.500    0.000    2.500 
#    2.250    0.625   16.500    0.000    0.000    0.000 
#    0.000    0.000    0.000    0.000    0.000    0.000 
#
# Total GULP energy -89255.220707 kJ/mol
# GULP energy per Si atom -5578.451294 kJ/mol
# Density = 2.477906 g / cm^3
# Si number density = 24.835591 Si / 1000 Ang^3
#
#
#
# Elastic Constant Matrix: (Units=GPa)
#
#
# Indices 1 2 3 4 5 6 
#
# 1 123.5489 39.2145 54.6767 -3.4395 31.7012 22.9857
# 2 39.2145 91.6717 56.9201 -15.1939 10.9681 20.5482
# 3 54.6767 56.9201 158.1951 -33.1550 41.8774 2.4570
# 4 -3.4395 -15.1939 -33.1550 34.1183 -2.1552 -3.4584
# 5 31.7012 10.9681 41.8774 -2.1552 50.3328 -14.5590
# 6 22.9857 20.5482 2.4570 -3.4584 -14.5590 47.3456
#
#
#
# Elastic Compliance Matrix: (Units=1/GPa)
#
#
# Indices 1 2 3 4 5 6 
#
# 1 0.013411 -0.001983 -0.002056 -0.002951 -0.008887 -0.008492
# 2 -0.001983 0.016254 -0.004684 0.001912 0.000038 -0.005698
# 3 -0.002056 -0.004684 0.012778 0.009710 -0.007694 0.000711
# 4 -0.002951 0.001912 0.009710 0.039175 -0.004504 0.001576
# 5 -0.008887 0.000038 -0.007694 -0.004504 0.036144 0.015483
# 6 -0.008492 -0.005698 0.000711 0.001576 0.015483 0.032556
#
#
# Mechanical properties :
#
#
# Convention : Reuss Voigt Hill
#
# Bulk Modulus (GPa) = 40.00249 75.00428 57.50339
# Shear Modulus (GPa) = 28.39336 41.19963 34.79650
#
# Velocity S-wave (km/s) = 3.38487 4.07737 3.74715
# Velocity P-wave (km/s) = 5.60521 7.24103 6.47498
#
# Compressibility (1/GPa) = 0.02499844
#
# Stress axis : x y z
#
# Youngs Moduli (GPa) = 74.56482 61.52145 78.25817
#
# Poissons Ratio (x) = 0.12198 0.16090
# Poissons Ratio (y) = 0.14784 0.36657
# Poissons Ratio (z) = 0.15330 0.28817
#
# Static dielectric constant tensor:
#      x y z
#    x 2.039040 -0.002710 -0.037540 
#    y -0.002710 2.076860 0.026650 
#    z -0.037540 0.026650 1.928890 
# 
# From -- ./inp_files/273217.got.cif
#   From: 2010.05.17/outbox.cif.g08.bks.cpg/sg2_137_cif.got.tgz:273217.got - 2010.06.03 11:33:40.
