data_PCOD9015076
_publ_section_title
;
Structure prediction by ZEFSAII (Michael W. Deem and Ramdas Pophale) SiO2 
 PCOD9015076
Probable space group: P -1
;
_chemical_formula_sum "Si O2"
_cell_formula_units_Z 14
_cell_length_a 10.205832
_cell_length_b 18.462871
_cell_length_c 16.073948
_cell_angle_alpha 158.821042
_cell_angle_beta 31.427246
_cell_angle_gamma 146.117727
_cell_volume 560.899341
_symmetry_space_group_name_H-M "P -1"
_symmetry_group_IT_number 2
_symmetry_cell_setting 'triclinic'
loop_
_space_group_symop_operation_xyz
x,y,z
-x,-y,-z
loop_
_atom_site_type_symbol
_atom_site_label
_atom_site_fract_x
_atom_site_fract_y
_atom_site_fract_z
Si Si1 0.735460 0.556507 0.172832
Si Si2 0.832074 0.090952 0.257228
Si Si3 0.905666 0.455371 0.718451
Si Si4 0.218462 0.871304 0.997464
Si Si5 0.451981 0.886570 0.724468
Si Si6 0.533527 0.711889 0.098680
Si Si7 0.051230 0.888030 0.267330
O O1 0.606693 0.700485 0.458267
O O2 0.841582 0.688224 0.174945
O O3 0.534802 0.372480 0.048013
O O4 0.000000 0.500000 0.000000
O O5 0.978305 0.290112 0.438112
O O6 0.621087 0.146655 0.367061
O O7 0.679970 0.939108 0.245104
O O8 0.000000 0.000000 0.000000
O O9 0.727129 0.329293 0.750736
O O10 0.145693 0.630265 0.801585
O O11 0.722871 0.585670 0.907451
O O12 0.216356 0.875323 0.903005
O O13 0.043456 0.964815 0.259164
O O14 0.500000 0.000000 0.000000
O O15 0.645978 0.098342 0.865001
O O16 0.000000 0.000000 0.500000
#
# Coordination Sequence:
#
# PCOD9015076 Si02
#       7
#     2   2   2   2   2   2   2
#     4  11  21  40  66 102 133 184 240 290 356 425
#     4  12  26  43  68 108 146 191 243 289 369 438
#     4  11  24  46  72 105 148 188 246 298 364 426
#     4  10  21  41  71 101 140 190 235 291 368 423
#     4  10  22  41  66  99 144 184 236 296 358 428
#     4  11  24  43  73 103 143 190 242 304 356 429
#     4   9  19  38  65  96 131 181 234 290 350 419
#
# _framework density 24.959916
#
# number of rings (size 3 to 8) (size 9 to 14) (size 15 to 20)
#    0.000    1.429    2.857    2.143    2.000    1.143 
#    0.000   12.143    0.000    0.000    0.000    0.000 
#    0.000    0.000    0.000    0.000    0.000    0.000 
#
# Total GULP energy -77979.009728 kJ/mol
# GULP energy per Si atom -5569.929266 kJ/mol
# Density = 2.490311 g / cm^3
# Si number density = 24.959916 Si / 1000 Ang^3
#
#
#
# Elastic Constant Matrix: (Units=GPa)
#
#
# Indices 1 2 3 4 5 6 
#
# 1 72.3129 26.2959 40.5815 -3.9833 12.9445 -8.4356
# 2 26.2959 145.0146 45.7198 -3.4634 18.9269 -7.2736
# 3 40.5815 45.7198 103.7653 3.1988 26.6922 -0.7265
# 4 -3.9833 -3.4634 3.1988 40.1871 7.0673 23.7262
# 5 12.9445 18.9269 26.6922 7.0673 40.7724 0.4539
# 6 -8.4356 -7.2736 -0.7265 23.7262 0.4539 52.1380
#
#
#
# Elastic Compliance Matrix: (Units=1/GPa)
#
#
# Indices 1 2 3 4 5 6 
#
# 1 0.018357 -0.000987 -0.006403 0.001183 -0.001408 0.002217
# 2 -0.000987 0.008245 -0.002797 0.000801 -0.001828 0.000603
# 3 -0.006403 -0.002797 0.015034 -0.000348 -0.006439 -0.001002
# 4 0.001183 0.000801 -0.000348 0.035597 -0.006513 -0.015844
# 5 -0.001408 -0.001828 -0.006439 -0.006513 0.031143 0.002120
# 6 0.002217 0.000603 -0.001002 -0.015844 0.002120 0.026800
#
#
# Mechanical properties :
#
#
# Convention : Reuss Voigt Hill
#
# Bulk Modulus (GPa) = 47.03308 60.69855 53.86582
# Shear Modulus (GPa) = 30.74336 40.51920 35.63128
#
# Velocity S-wave (km/s) = 3.51338 4.03348 3.78238
# Velocity P-wave (km/s) = 5.94498 6.78698 6.37989
#
# Compressibility (1/GPa) = 0.02126163
#
# Stress axis : x y z
#
# Youngs Moduli (GPa) = 54.47564 121.29173 66.51665
#
# Poissons Ratio (x) = 0.11968 0.42592
# Poissons Ratio (y) = 0.05375 0.18604
# Poissons Ratio (z) = 0.34882 0.33923
#
# Static dielectric constant tensor:
#      x y z
#    x 2.110280 -0.018570 -0.043130 
#    y -0.018570 2.027100 0.029720 
#    z -0.043130 0.029720 2.085970 
# 
# From -- ./inp_files/570773.got.cif
#   From: 2010.05.17/outbox.cif.g08.bks.cpg/sg2_286_cif.got.tgz:570773.got - 2010.06.03 11:33:40.
