data_PCOD9015392
_publ_section_title
;
Structure prediction by ZEFSAII (Michael W. Deem and Ramdas Pophale) SiO2 
 PCOD9015392
Probable space group: P -1
;
_chemical_formula_sum "Si O2"
_cell_formula_units_Z 13
_cell_length_a 11.128071
_cell_length_b 8.505396
_cell_length_c 9.732526
_cell_angle_alpha 56.575963
_cell_angle_beta 73.470200
_cell_angle_gamma 111.458982
_cell_volume 558.152603
_symmetry_space_group_name_H-M "P -1"
_symmetry_group_IT_number 2
_symmetry_cell_setting 'triclinic'
loop_
_space_group_symop_operation_xyz
x,y,z
-x,-y,-z
loop_
_atom_site_type_symbol
_atom_site_label
_atom_site_fract_x
_atom_site_fract_y
_atom_site_fract_z
Si Si1 0.997969 0.356010 0.368368
Si Si2 0.181954 0.473600 0.529491
Si Si3 0.460237 0.739459 0.965003
Si Si4 0.720440 0.816407 0.654610
Si Si5 0.568946 0.858987 0.176465
Si Si6 0.833705 0.950297 0.240731
Si Si7 0.000000 0.500000 0.000000
O O1 0.874312 0.408548 0.416484
O O2 0.127436 0.475990 0.391973
O O3 0.887741 0.059062 0.550015
O O4 0.051984 0.445968 0.153038
O O5 0.378890 0.638073 0.389161
O O6 0.096754 0.192097 0.730774
O O7 0.327769 0.441866 0.163545
O O8 0.570767 0.836687 0.021965
O O9 0.572610 0.801408 0.767659
O O10 0.398655 0.892395 0.912197
O O11 0.741363 0.854369 0.466158
O O12 0.699094 0.858295 0.211515
O O13 0.953965 0.245721 0.069497
#
# Coordination Sequence:
#
# PCOD9015392 Si02
#       7
#     2   2   2   2   2   2   1
#     4  10  24  45  67  87 131 163 222 248 318 367
#     4  11  23  44  67  91 124 178 203 261 307 386
#     4  10  22  38  67  94 125 161 215 245 326 360
#     4  10  21  42  61  99 120 167 202 269 310 368
#     4  11  23  41  65  98 125 169 206 262 304 389
#     4  11  25  42  66  91 135 159 215 254 322 363
#     4  10  26  44  62 100 120 170 206 270 308 368
#
# _framework density 23.291122000000001
#
# number of rings (size 3 to 8) (size 9 to 14) (size 15 to 20)
#    0.000    1.538    3.077    0.462    4.308    4.923 
#    0.000    1.538    0.000    0.000    0.000    0.000 
#    0.000    0.000    0.000    0.000    0.000    0.000 
#
# Total GULP energy -72486.802858 kJ/mol
# GULP energy per Si atom -5575.907912 kJ/mol
# Density = 2.323811 g / cm^3
# Si number density = 23.291122 Si / 1000 Ang^3
#
#
#
# Elastic Constant Matrix: (Units=GPa)
#
#
# Indices 1 2 3 4 5 6 
#
# 1 58.3007 32.8493 4.9460 4.2335 19.5555 -9.5807
# 2 32.8493 109.4230 26.8053 -26.2598 3.4817 -10.8233
# 3 4.9460 26.8053 66.4905 -25.3821 15.1412 -7.1722
# 4 4.2335 -26.2598 -25.3821 55.6179 -6.0692 14.1270
# 5 19.5555 3.4817 15.1412 -6.0692 28.5618 -3.0915
# 6 -9.5807 -10.8233 -7.1722 14.1270 -3.0915 39.3598
#
#
#
# Elastic Compliance Matrix: (Units=1/GPa)
#
#
# Indices 1 2 3 4 5 6 
#
# 1 0.035053 -0.012879 0.005214 -0.011292 -0.026739 0.007894
# 2 -0.012879 0.015571 -0.005106 0.007630 0.011069 -0.001652
# 3 0.005214 -0.005106 0.021949 0.005546 -0.013315 0.000829
# 4 -0.011292 0.007630 0.005546 0.028248 0.008881 -0.009081
# 5 -0.026739 0.011069 -0.013315 0.008881 0.060447 -0.004331
# 6 0.007894 -0.001652 0.000829 -0.009081 -0.004331 0.029944
#
#
# Mechanical properties :
#
#
# Convention : Reuss Voigt Hill
#
# Bulk Modulus (GPa) = 21.26179 40.37949 30.82064
# Shear Modulus (GPa) = 21.51192 36.01548 28.76370
#
# Velocity S-wave (km/s) = 3.04239 3.93659 3.51802
# Velocity P-wave (km/s) = 4.63574 6.16740 5.45559
#
# Compressibility (1/GPa) = 0.04703273
#
# Stress axis : x y z
#
# Youngs Moduli (GPa) = 28.52854 64.22121 45.56079
#
# Poissons Ratio (x) = 0.82708 -0.23757
# Poissons Ratio (y) = 0.36741 0.23262
# Poissons Ratio (z) = -0.14876 0.32789
#
# Static dielectric constant tensor:
#      x y z
#    x 1.857890 -0.014820 -0.072420 
#    y -0.014820 1.858640 -0.043750 
#    z -0.072420 -0.043750 1.911070 
# 
# From -- ./inp_files/236745.got.cif
#   From: 2010.05.17/outbox.cif.g08.bks.cpg/sg2_119_cif.got.tgz:236745.got - 2010.06.03 11:33:40.
