data_PCOD9015647
_publ_section_title
;
Structure prediction by ZEFSAII (Michael W. Deem and Ramdas Pophale) SiO2 
 PCOD9015647
Probable space group: P -1
;
_chemical_formula_sum "Si O2"
_cell_formula_units_Z 15
_cell_length_a 8.697405
_cell_length_b 19.080114
_cell_length_c 8.121121
_cell_angle_alpha 30.830864
_cell_angle_beta 65.480003
_cell_angle_gamma 68.631997
_cell_volume 628.311688
_symmetry_space_group_name_H-M "P -1"
_symmetry_group_IT_number 2
_symmetry_cell_setting 'triclinic'
loop_
_space_group_symop_operation_xyz
x,y,z
-x,-y,-z
loop_
_atom_site_type_symbol
_atom_site_label
_atom_site_fract_x
_atom_site_fract_y
_atom_site_fract_z
Si Si1 0.612067 0.294074 0.713206
Si Si2 0.940998 0.401564 0.528432
Si Si3 0.016531 0.156792 0.227255
Si Si4 0.622717 0.934876 0.213579
Si Si5 0.161229 0.813985 0.419888
Si Si6 0.831920 0.684785 0.661481
Si Si7 0.500000 0.000000 0.500000
Si Si8 0.258046 0.348270 0.865670
O O1 0.762338 0.361980 0.607480
O O2 0.680890 0.275413 0.535466
O O3 0.435476 0.372244 0.655237
O O4 0.581206 0.144174 0.105546
O O5 0.886169 0.545144 0.345825
O O6 0.086172 0.424089 0.280892
O O7 0.994307 0.261593 0.877348
O O8 0.880967 0.192487 0.356627
O O9 0.000000 0.000000 0.500000
O O10 0.197331 0.194448 0.153788
O O11 0.698258 0.787064 0.430067
O O12 0.533038 0.932452 0.435167
O O13 0.500000 0.000000 0.000000
O O14 0.785632 0.032227 0.953638
O O15 0.996086 0.766719 0.489693
O O16 0.745249 0.639102 0.961416
#
# Coordination Sequence:
#
# PCOD9015647 Si02
#       8
#     2   2   2   2   2   2   1   2
#     4  10  22  40  67  91 131 171 223 267 342 390
#     4  11  24  41  67  97 130 173 226 270 330 410
#     4  11  25  41  65  96 133 171 222 276 336 393
#     4  11  22  37  63  98 137 169 228 276 346 397
#     4   9  22  39  60  92 134 171 213 275 332 400
#     4  10  21  42  64  91 128 178 217 270 334 401
#     4  10  22  38  60  96 138 172 210 290 336 390
#     4  11  23  44  66  94 132 177 218 273 335 401
#
# _framework density 23.8735
#
# number of rings (size 3 to 8) (size 9 to 14) (size 15 to 20)
#    0.000    1.600    1.333    2.400    3.733    5.333 
#    0.000    0.667    0.000    0.000    0.000    0.000 
#    0.000    0.000    0.000    0.000    0.000    0.000 
#
# Total GULP energy -83604.827650 kJ/mol
# GULP energy per Si atom -5573.655177 kJ/mol
# Density = 2.381916 g / cm^3
# Si number density = 23.873500 Si / 1000 Ang^3
#
#
#
# Elastic Constant Matrix: (Units=GPa)
#
#
# Indices 1 2 3 4 5 6 
#
# 1 56.2159 48.1908 22.2541 1.2011 6.4451 -14.9714
# 2 48.1908 138.6407 35.0907 20.9942 -3.3923 -29.2412
# 3 22.2541 35.0907 76.7704 2.8665 4.3291 -3.0536
# 4 1.2011 20.9942 2.8665 50.7537 1.7066 -10.3450
# 5 6.4451 -3.3923 4.3291 1.7066 29.8327 -5.9814
# 6 -14.9714 -29.2412 -3.0536 -10.3450 -5.9814 27.4753
#
#
#
# Elastic Compliance Matrix: (Units=1/GPa)
#
#
# Indices 1 2 3 4 5 6 
#
# 1 0.029021 -0.008403 -0.004158 0.004626 -0.005492 0.006954
# 2 -0.008403 0.013794 -0.003694 -0.003529 0.006063 0.009682
# 3 -0.004158 -0.003694 0.015884 -0.000222 -0.002843 -0.005134
# 4 0.004626 -0.003529 -0.000222 0.022524 -0.001264 0.006946
# 5 -0.005492 0.006063 -0.002843 -0.001264 0.038078 0.010958
# 6 0.006954 0.009682 -0.005134 0.006946 0.010958 0.054920
#
#
# Mechanical properties :
#
#
# Convention : Reuss Voigt Hill
#
# Bulk Modulus (GPa) = 38.18510 53.63313 45.90912
# Shear Modulus (GPa) = 23.20604 32.68510 27.94557
#
# Velocity S-wave (km/s) = 3.12114 3.70414 3.42507
# Velocity P-wave (km/s) = 5.38685 6.38816 5.90875
#
# Compressibility (1/GPa) = 0.02618822
#
# Stress axis : x y z
#
# Youngs Moduli (GPa) = 34.45751 72.49785 62.95647
#
# Poissons Ratio (x) = 0.60923 0.26177
# Poissons Ratio (y) = 0.28956 0.23255
# Poissons Ratio (z) = 0.14327 0.26780
#
# Static dielectric constant tensor:
#      x y z
#    x 1.944840 0.011650 0.058990 
#    y 0.011650 1.989530 -0.051370 
#    z 0.058990 -0.051370 1.961110 
# 
# From -- ./inp_files/221513.got.cif
#   From: 2010.05.17/outbox.cif.g08.bks.cpg/sg2_111_cif.got.tgz:221513.got - 2010.06.03 11:33:40.
