data_PCOD9015483
_publ_section_title
;
Structure prediction by ZEFSAII (Michael W. Deem and Ramdas Pophale) SiO2 
 PCOD9015483
Probable space group: P -1
;
_chemical_formula_sum "Si O2"
_cell_formula_units_Z 16
_cell_length_a 10.190390
_cell_length_b 16.155443
_cell_length_c 8.887362
_cell_angle_alpha 52.242257
_cell_angle_beta 100.191395
_cell_angle_gamma 57.856277
_cell_volume 646.753111
_symmetry_space_group_name_H-M "P -1"
_symmetry_group_IT_number 2
_symmetry_cell_setting 'triclinic'
loop_
_space_group_symop_operation_xyz
x,y,z
-x,-y,-z
loop_
_atom_site_type_symbol
_atom_site_label
_atom_site_fract_x
_atom_site_fract_y
_atom_site_fract_z
Si Si1 0.582910 0.929171 0.268690
Si Si2 0.686017 0.465833 0.013946
Si Si3 0.073315 0.251498 0.850422
Si Si4 0.855985 0.187247 0.831732
Si Si5 0.047122 0.559231 0.678115
Si Si6 0.374075 0.401750 0.445131
Si Si7 0.175539 0.816260 0.829651
Si Si8 0.484931 0.218289 0.982647
O O1 0.341570 0.051678 0.165279
O O2 0.634435 0.014608 0.241219
O O3 0.804666 0.706937 0.561766
O O4 0.500000 0.000000 0.000000
O O5 0.825373 0.430533 0.215016
O O6 0.819650 0.298258 0.121145
O O7 0.500000 0.500000 0.000000
O O8 0.610726 0.607541 0.723800
O O9 0.960469 0.228808 0.758262
O O10 0.055998 0.350323 0.608745
O O11 0.889381 0.399955 0.777207
O O12 0.577996 0.357190 0.563871
O O13 0.910267 0.147259 0.061800
O O14 0.000000 0.000000 0.000000
O O15 0.260817 0.345561 0.907040
O O16 0.442395 0.273506 0.733686
O O17 0.401147 0.746984 0.972386
O O18 0.000000 0.000000 0.500000
#
# Coordination Sequence:
#
# PCOD9015483 Si02
#       8
#     2   2   2   2   2   2   2   2
#     4  10  23  40  68  95 121 168 226 262 313 373
#     4  12  22  39  63  97 128 170 207 257 335 386
#     4  10  21  42  63  89 121 169 211 259 313 372
#     4  11  24  37  62  96 125 159 208 265 320 380
#     4  10  22  38  67  92 129 165 216 261 316 379
#     4  10  23  39  64  89 128 163 208 259 323 382
#     4  11  24  38  62  94 131 163 207 264 327 385
#     4  10  22  43  64  94 128 169 215 268 312 378
#
# _framework density 24.738962999999998
#
# number of rings (size 3 to 8) (size 9 to 14) (size 15 to 20)
#    0.000    1.500    2.500    1.875   12.250    4.500 
#    0.000    0.625    0.000    5.250    0.000    0.000 
#    0.000    0.000    0.000    0.000    0.000    0.000 
#
# Total GULP energy -89112.475620 kJ/mol
# GULP energy per Si atom -5569.529726 kJ/mol
# Density = 2.468266 g / cm^3
# Si number density = 24.738963 Si / 1000 Ang^3
#
#
#
# Elastic Constant Matrix: (Units=GPa)
#
#
# Indices 1 2 3 4 5 6 
#
# 1 102.2639 13.4703 18.4288 2.5988 17.8601 -2.4914
# 2 13.4703 113.0144 30.6489 1.9217 7.1369 -1.2013
# 3 18.4288 30.6489 68.1054 12.3852 5.8970 -14.7657
# 4 2.5988 1.9217 12.3852 33.8509 2.6713 9.3929
# 5 17.8601 7.1369 5.8970 2.6713 29.3465 0.3693
# 6 -2.4914 -1.2013 -14.7657 9.3929 0.3693 40.3266
#
#
#
# Elastic Compliance Matrix: (Units=1/GPa)
#
#
# Indices 1 2 3 4 5 6 
#
# 1 0.011374 -0.000258 -0.002616 0.000705 -0.006393 -0.000369
# 2 -0.000258 0.010350 -0.005298 0.002073 -0.001457 -0.002117
# 3 -0.002616 -0.005298 0.021888 -0.010250 -0.000712 0.010089
# 4 0.000705 0.002073 -0.010250 0.036658 -0.002058 -0.012167
# 5 -0.006393 -0.001457 -0.000712 -0.002058 0.038658 -0.000574
# 6 -0.000369 -0.002117 0.010089 -0.012167 -0.000574 0.031245
#
#
# Mechanical properties :
#
#
# Convention : Reuss Voigt Hill
#
# Bulk Modulus (GPa) = 36.67324 45.38664 41.02994
# Shear Modulus (GPa) = 28.47269 35.42717 31.94993
#
# Velocity S-wave (km/s) = 3.39621 3.78834 3.59762
# Velocity P-wave (km/s) = 5.49866 6.12547 5.82051
#
# Compressibility (1/GPa) = 0.02726784
#
# Stress axis : x y z
#
# Youngs Moduli (GPa) = 87.92215 96.61656 45.68717
#
# Poissons Ratio (x) = 0.02496 0.11952
# Poissons Ratio (y) = 0.02272 0.24203
# Poissons Ratio (z) = 0.23001 0.51184
#
# Static dielectric constant tensor:
#      x y z
#    x 2.221430 -0.018270 -0.053460 
#    y -0.018270 2.018020 -0.068310 
#    z -0.053460 -0.068310 2.030200 
# 
# From -- ./inp_files/277609.got.cif
#   From: 2010.05.17/outbox.cif.g08.bks.cpg/sg2_139_cif.got.tgz:277609.got - 2010.06.03 11:33:40.
