data_PCOD9015663
_publ_section_title
;
Structure prediction by ZEFSAII (Michael W. Deem and Ramdas Pophale) SiO2 
 PCOD9015663
Probable space group: P -1
;
_chemical_formula_sum "Si O2"
_cell_formula_units_Z 16
_cell_length_a 15.697432
_cell_length_b 15.819413
_cell_length_c 9.135350
_cell_angle_alpha 75.549300
_cell_angle_beta 93.151996
_cell_angle_gamma 27.106225
_cell_volume 778.881413
_symmetry_space_group_name_H-M "P -1"
_symmetry_group_IT_number 2
_symmetry_cell_setting 'triclinic'
loop_
_space_group_symop_operation_xyz
x,y,z
-x,-y,-z
loop_
_atom_site_type_symbol
_atom_site_label
_atom_site_fract_x
_atom_site_fract_y
_atom_site_fract_z
Si Si1 0.727209 0.261104 0.722612
Si Si2 0.118346 0.645532 0.940303
Si Si3 0.947184 0.961189 0.599294
Si Si4 0.097339 0.299213 0.481672
Si Si5 0.152552 0.275629 0.180034
Si Si6 0.319109 0.899111 0.715454
Si Si7 0.106273 0.039576 0.943777
Si Si8 0.621253 0.845009 0.222907
O O1 0.500000 0.500000 0.500000
O O2 0.865863 0.213092 0.813143
O O3 0.890483 0.054018 0.712547
O O4 0.699965 0.217339 0.868672
O O5 0.394998 0.366698 0.129285
O O6 0.967991 0.823123 0.992664
O O7 0.111530 0.722309 0.771961
O O8 0.996100 0.671935 0.870013
O O9 0.747523 0.106426 0.415310
O O10 0.000000 0.000000 0.500000
O O11 0.186402 0.261833 0.360008
O O12 0.215463 0.234905 0.657733
O O13 0.809323 0.586342 0.329929
O O14 0.195427 0.108162 0.571040
O O15 0.405589 0.025659 0.231103
O O16 0.000000 0.500000 0.000000
O O17 0.204389 0.983670 0.825508
O O18 0.500000 0.000000 0.000000
#
# Coordination Sequence:
#
# PCOD9015663 Si02
#       8
#     2   2   2   2   2   2   2   2
#     4  10  21  42  64  92 130 172 229 280 341 402
#     4  11  27  44  65 104 140 175 234 278 340 411
#     4  11  23  44  66  99 133 178 233 276 340 408
#     4  11  26  45  69 107 134 183 231 274 348 413
#     4  12  24  46  74  98 143 184 223 288 346 400
#     4  12  25  43  70  98 141 179 228 281 340 410
#     4  10  24  41  63  97 131 176 224 281 340 396
#     4  11  25  46  73 102 137 177 231 281 339 419
#
# _framework density 20.542280000000002
#
# number of rings (size 3 to 8) (size 9 to 14) (size 15 to 20)
#    0.000    1.000    3.750    1.875    3.500    1.500 
#    4.500    0.000    0.000    0.000    0.000    0.000 
#    0.000    0.000    0.000    0.000    0.000    0.000 
#
# Total GULP energy -89272.622896 kJ/mol
# GULP energy per Si atom -5579.538931 kJ/mol
# Density = 2.049553 g / cm^3
# Si number density = 20.542280 Si / 1000 Ang^3
#
#
#
# Elastic Constant Matrix: (Units=GPa)
#
#
# Indices 1 2 3 4 5 6 
#
# 1 69.9843 8.2995 28.1512 -17.5108 -5.6201 12.3754
# 2 8.2995 58.4743 15.2127 -6.0075 -0.4608 -12.6209
# 3 28.1512 15.2127 133.9469 -9.0407 -6.5840 -4.0835
# 4 -17.5108 -6.0075 -9.0407 44.6627 -0.3547 0.8384
# 5 -5.6201 -0.4608 -6.5840 -0.3547 41.3779 8.2645
# 6 12.3754 -12.6209 -4.0835 0.8384 8.2645 29.2622
#
#
#
# Elastic Compliance Matrix: (Units=1/GPa)
#
#
# Indices 1 2 3 4 5 6 
#
# 1 0.020512 -0.003901 -0.003536 0.007071 0.004714 -0.012385
# 2 -0.003901 0.020412 -0.001245 0.000736 -0.002695 0.011020
# 3 -0.003536 -0.001245 0.008442 0.000121 0.000449 0.002006
# 4 0.007071 0.000736 0.000121 0.025376 0.001994 -0.003947
# 5 0.004714 -0.002695 0.000449 0.001994 0.027020 -0.010782
# 6 -0.012385 0.011020 0.002006 -0.003947 -0.010782 0.047603
#
#
# Mechanical properties :
#
#
# Convention : Reuss Voigt Hill
#
# Bulk Modulus (GPa) = 31.24934 40.63692 35.94313
# Shear Modulus (GPa) = 28.18555 37.11001 32.64778
#
# Velocity S-wave (km/s) = 3.70817 4.25493 3.99092
# Velocity P-wave (km/s) = 5.79476 6.63055 6.22670
#
# Compressibility (1/GPa) = 0.03200068
#
# Stress axis : x y z
#
# Youngs Moduli (GPa) = 48.75198 48.99078 118.45928
#
# Poissons Ratio (x) = 0.19110 0.41893
# Poissons Ratio (y) = 0.19017 0.14752
# Poissons Ratio (z) = 0.17241 0.06101
#
# Static dielectric constant tensor:
#      x y z
#    x 1.649000 -0.031900 -0.294340 
#    y -0.031900 1.715880 -0.152090 
#    z -0.294340 -0.152090 1.121680 
# 
# From -- ./inp_files/124830.got.cif
#   From: 2010.05.17/outbox.cif.g08.bks.cpg/sg2_63_cif.got.tgz:124830.got - 2010.06.03 11:33:40.
