data_PCOD9015067
_publ_section_title
;
Structure prediction by ZEFSAII (Michael W. Deem and Ramdas Pophale) SiO2 
 PCOD9015067
Probable space group: P -1
;
_chemical_formula_sum "Si O2"
_cell_formula_units_Z 14
_cell_length_a 12.900197
_cell_length_b 11.375962
_cell_length_c 12.921766
_cell_angle_alpha 48.200235
_cell_angle_beta 130.219739
_cell_angle_gamma 156.984114
_cell_volume 549.323870
_symmetry_space_group_name_H-M "P -1"
_symmetry_group_IT_number 2
_symmetry_cell_setting 'triclinic'
loop_
_space_group_symop_operation_xyz
x,y,z
-x,-y,-z
loop_
_atom_site_type_symbol
_atom_site_label
_atom_site_fract_x
_atom_site_fract_y
_atom_site_fract_z
Si Si1 0.349148 0.277561 0.629891
Si Si2 0.316331 0.710992 0.820916
Si Si3 0.468762 0.853137 0.471423
Si Si4 0.188911 0.264540 0.877799
Si Si5 0.844277 0.336947 0.887014
Si Si6 0.066545 0.312231 0.398806
Si Si7 0.645389 0.689434 0.762032
O O1 0.500000 0.500000 0.500000
O O2 0.133201 0.204098 0.548711
O O3 0.535306 0.454885 0.745484
O O4 0.208164 0.984461 0.664912
O O5 0.265503 0.510119 0.831945
O O6 0.056868 0.478588 0.859253
O O7 0.381452 0.916297 0.662495
O O8 0.574247 0.966168 0.913926
O O9 0.165014 0.519942 0.434538
O O10 0.574557 0.789019 0.609886
O O11 0.500000 0.000000 0.500000
O O12 0.465625 0.487363 0.869435
O O13 0.962372 0.017723 0.788010
O O14 0.000000 0.000000 0.000000
O O15 0.778467 0.447977 0.737816
O O16 0.000000 0.500000 0.000000
#
# Coordination Sequence:
#
# PCOD9015067 Si02
#       7
#     2   2   2   2   2   2   2
#     4  10  23  40  66  96 138 173 222 280 334 403
#     4  11  25  44  69 102 135 175 224 289 335 394
#     4  10  21  41  71 100 135 169 222 284 341 397
#     4  12  27  47  68  98 140 177 229 274 334 408
#     4  11  25  45  69  97 136 180 229 271 335 400
#     4   9  23  39  63  96 135 171 224 271 339 382
#     4  11  26  43  71 102 130 184 224 272 349 396
#
# _framework density 25.485875
#
# number of rings (size 3 to 8) (size 9 to 14) (size 15 to 20)
#    0.000    1.429    1.429    1.714   14.000    4.000 
#    0.000    0.000    0.000    0.000    0.000    0.000 
#    0.000    0.000    0.000    0.000    0.000    0.000 
#
# Total GULP energy -78108.761916 kJ/mol
# GULP energy per Si atom -5579.197280 kJ/mol
# Density = 2.542787 g / cm^3
# Si number density = 25.485875 Si / 1000 Ang^3
#
#
#
# Elastic Constant Matrix: (Units=GPa)
#
#
# Indices 1 2 3 4 5 6 
#
# 1 84.2297 52.1005 1.8211 10.5709 -29.8453 -3.5311
# 2 52.1005 208.9925 8.9420 23.0436 0.3906 -11.8993
# 3 1.8211 8.9420 81.4350 -3.9559 -10.9236 -6.6969
# 4 10.5709 23.0436 -3.9559 52.8332 -4.1376 -7.4091
# 5 -29.8453 0.3906 -10.9236 -4.1376 32.0234 7.6268
# 6 -3.5311 -11.8993 -6.6969 -7.4091 7.6268 55.1474
#
#
#
# Elastic Compliance Matrix: (Units=1/GPa)
#
#
# Indices 1 2 3 4 5 6 
#
# 1 0.024353 -0.006380 0.003191 -0.000334 0.024502 -0.002863
# 2 -0.006380 0.006780 -0.001543 -0.002140 -0.007207 0.001576
# 3 0.003191 -0.001543 0.013549 0.001747 0.007676 0.000690
# 4 -0.000334 -0.002140 0.001747 0.020552 0.002454 0.002151
# 5 0.024502 -0.007207 0.007676 0.002454 0.058716 -0.006845
# 6 -0.002863 0.001576 0.000690 0.002151 -0.006845 0.019609
#
#
# Mechanical properties :
#
#
# Convention : Reuss Voigt Hill
#
# Bulk Modulus (GPa) = 28.39354 55.59827 41.99590
# Shear Modulus (GPa) = 30.34670 48.78703 39.56687
#
# Velocity S-wave (km/s) = 3.45443 4.37999 3.94445
# Velocity P-wave (km/s) = 5.20345 6.88780 6.10400
#
# Compressibility (1/GPa) = 0.03521928
#
# Stress axis : x y z
#
# Youngs Moduli (GPa) = 41.06278 147.48374 73.80615
#
# Poissons Ratio (x) = 0.94088 -0.23551
# Poissons Ratio (y) = 0.26196 0.11387
# Poissons Ratio (z) = -0.13103 0.22755
#
# Static dielectric constant tensor:
#      x y z
#    x 2.306170 -0.087950 0.189320 
#    y -0.087950 2.343590 -0.144090 
#    z 0.189320 -0.144090 2.218100 
# 
# From -- ./inp_files/76941.got.cif
#   From: 2010.05.17/outbox.cif.g08.bks.cpg/sg2_39_cif.got.tgz:76941.got - 2010.06.03 11:33:40.
