data_PCOD9015707
_publ_section_title
;
Structure prediction by ZEFSAII (Michael W. Deem and Ramdas Pophale) SiO2 
 PCOD9015707
Probable space group: P -1
;
_chemical_formula_sum "Si O2"
_cell_formula_units_Z 12
_cell_length_a 5.056530
_cell_length_b 17.928369
_cell_length_c 9.510845
_cell_angle_alpha 143.216509
_cell_angle_beta 112.623498
_cell_angle_gamma 71.746872
_cell_volume 476.537194
_symmetry_space_group_name_H-M "P -1"
_symmetry_group_IT_number 2
_symmetry_cell_setting 'triclinic'
loop_
_space_group_symop_operation_xyz
x,y,z
-x,-y,-z
loop_
_atom_site_type_symbol
_atom_site_label
_atom_site_fract_x
_atom_site_fract_y
_atom_site_fract_z
Si Si1 0.809473 0.952908 0.260314
Si Si2 0.134320 0.802217 0.530280
Si Si3 0.741504 0.426501 0.525727
Si Si4 0.306287 0.365332 0.942457
Si Si5 0.692707 0.203096 0.979799
Si Si6 0.289577 0.324326 0.562384
O O1 0.502542 0.915027 0.200888
O O2 0.987381 0.837461 0.057065
O O3 0.800322 0.062823 0.310807
O O4 0.000000 0.000000 0.500000
O O5 0.426732 0.733757 0.529953
O O6 0.980300 0.719857 0.252175
O O7 0.910972 0.788751 0.591825
O O8 0.500000 0.500000 0.500000
O O9 0.093052 0.416151 0.567417
O O10 0.268475 0.494929 0.211563
O O11 0.678498 0.290985 0.244103
O O12 0.543455 0.279853 0.938433
O O13 0.364308 0.384085 0.818407
#
# Coordination Sequence:
#
# PCOD9015707 Si02
#       6
#     2   2   2   2   2   2
#     4  12  21  41  66  94 128 166 215 256 303 376
#     4  10  22  37  68  94 119 164 221 256 299 362
#     4  10  23  46  63  96 130 165 203 266 322 376
#     4   9  21  41  66  94 125 168 214 253 308 373
#     4  11  24  39  64  99 128 165 205 263 316 362
#     4  10  21  42  64  96 123 166 214 252 313 373
#
# _framework density 25.181667000000001
#
# number of rings (size 3 to 8) (size 9 to 14) (size 15 to 20)
#    1.000    0.667    1.667    3.000    0.000    2.000 
#    3.000   10.000    0.000    0.000    0.000    0.000 
#    0.000    0.000    0.000    0.000    0.000    0.000 
#
# Total GULP energy -66967.007502 kJ/mol
# GULP energy per Si atom -5580.583959 kJ/mol
# Density = 2.512435 g / cm^3
# Si number density = 25.181667 Si / 1000 Ang^3
#
#
#
# Elastic Constant Matrix: (Units=GPa)
#
#
# Indices 1 2 3 4 5 6 
#
# 1 72.0197 18.4524 -0.7185 -0.6888 0.1964 -11.7037
# 2 18.4524 150.3707 22.8555 -5.9908 -1.6895 -25.1221
# 3 -0.7185 22.8555 74.2017 -12.5208 -14.0786 1.1265
# 4 -0.6888 -5.9908 -12.5208 39.9157 3.9825 2.2293
# 5 0.1964 -1.6895 -14.0786 3.9825 33.9251 7.2084
# 6 -11.7037 -25.1221 1.1265 2.2293 7.2084 36.3145
#
#
#
# Elastic Compliance Matrix: (Units=1/GPa)
#
#
# Indices 1 2 3 4 5 6 
#
# 1 0.014867 -0.001183 0.000276 0.000025 -0.000914 0.004144
# 2 -0.001183 0.008200 -0.002992 0.000155 -0.002074 0.005786
# 3 0.000276 -0.002992 0.016530 0.004266 0.007093 -0.004164
# 4 0.000025 0.000155 0.004266 0.026599 -0.001038 -0.001443
# 5 -0.000914 -0.002074 0.007093 -0.001038 0.034291 -0.008693
# 6 0.004144 0.005786 -0.004164 -0.001443 -0.008693 0.034819
#
#
# Mechanical properties :
#
#
# Convention : Reuss Voigt Hill
#
# Bulk Modulus (GPa) = 31.44798 41.97453 36.71126
# Shear Modulus (GPa) = 32.53010 39.09790 35.81400
#
# Velocity S-wave (km/s) = 3.59808 3.94462 3.77533
# Velocity P-wave (km/s) = 5.45685 6.11977 5.79779
#
# Compressibility (1/GPa) = 0.03179854
#
# Stress axis : x y z
#
# Youngs Moduli (GPa) = 67.26205 121.95360 60.49631
#
# Poissons Ratio (x) = 0.14431 -0.01672
# Poissons Ratio (y) = 0.07959 0.18103
# Poissons Ratio (z) = -0.01859 0.36493
#
# Static dielectric constant tensor:
#      x y z
#    x -0.036550 -1.810240 -0.677260 
#    y -1.810240 0.351240 -0.663930 
#    z -0.677260 -0.663930 1.717760 
# 
# From -- ./inp_files/64871.got.cif
#   From: 2010.05.17/outbox.cif.g08.bks.cpg/sg2_33_cif.got.tgz:64871.got - 2010.06.03 11:33:40.
