data_PCOD9015559
_publ_section_title
;
Structure prediction by ZEFSAII (Michael W. Deem and Ramdas Pophale) SiO2 
 PCOD9015559
Probable space group: P -1
;
_chemical_formula_sum "Si O2"
_cell_formula_units_Z 16
_cell_length_a 13.564658
_cell_length_b 7.610849
_cell_length_c 15.685196
_cell_angle_alpha 80.328952
_cell_angle_beta 155.611461
_cell_angle_gamma 94.615584
_cell_volume 648.601194
_symmetry_space_group_name_H-M "P -1"
_symmetry_group_IT_number 2
_symmetry_cell_setting 'triclinic'
loop_
_space_group_symop_operation_xyz
x,y,z
-x,-y,-z
loop_
_atom_site_type_symbol
_atom_site_label
_atom_site_fract_x
_atom_site_fract_y
_atom_site_fract_z
Si Si1 0.452465 0.699745 0.760331
Si Si2 0.110541 0.795360 0.131530
Si Si3 0.911658 0.506806 0.061050
Si Si4 0.724285 0.164864 0.024100
Si Si5 0.764307 0.657727 0.418308
Si Si6 0.302589 0.684440 0.819486
Si Si7 0.639192 0.713113 0.507791
Si Si8 0.797780 0.088834 0.617758
O O1 0.336418 0.516823 0.679453
O O2 0.382652 0.781468 0.791046
O O3 0.342278 0.807326 0.581100
O O4 0.741079 0.633774 0.984481
O O5 0.354837 0.718906 0.279202
O O6 0.194087 0.808392 0.295160
O O7 0.913464 0.662894 0.977580
O O8 0.000000 0.000000 0.000000
O O9 0.200162 0.435717 0.295960
O O10 0.814574 0.319410 0.022102
O O11 0.445680 0.171530 0.780259
O O12 0.715921 0.214764 0.113028
O O13 0.922664 0.987650 0.180385
O O14 0.768434 0.660663 0.523390
O O15 0.028664 0.655206 0.590937
O O16 0.500000 0.500000 0.000000
O O17 0.675868 0.911690 0.548508
#
# Coordination Sequence:
#
# PCOD9015559 Si02
#       8
#     2   2   2   2   2   2   2   2
#     4  11  24  39  71  98 132 176 216 277 330 390
#     4  12  25  42  68  95 129 179 222 273 342 395
#     4  10  21  42  63  95 130 168 223 273 320 388
#     4  10  23  42  66  95 138 177 214 278 323 392
#     4  11  21  42  68  96 132 175 222 270 325 381
#     4  12  21  42  71 100 134 172 231 262 324 397
#     4  11  22  43  67  93 135 176 222 275 327 398
#     4  11  24  44  62  97 139 168 219 277 337 386
#
# _framework density 24.668469000000002
#
# number of rings (size 3 to 8) (size 9 to 14) (size 15 to 20)
#    0.000    1.000    5.000    3.375    0.000    0.500 
#    0.000   10.000    0.000    0.000    0.000    0.000 
#    0.000    0.000    0.000    0.000    0.000    0.000 
#
# Total GULP energy -89339.118586 kJ/mol
# GULP energy per Si atom -5583.694912 kJ/mol
# Density = 2.461232 g / cm^3
# Si number density = 24.668469 Si / 1000 Ang^3
#
#
#
# Elastic Constant Matrix: (Units=GPa)
#
#
# Indices 1 2 3 4 5 6 
#
# 1 121.6612 40.1183 52.8421 -6.2165 -0.5236 -6.8572
# 2 40.1183 82.8835 15.8454 -9.6816 -9.6583 14.1405
# 3 52.8421 15.8454 120.3509 -21.9427 19.2520 18.8442
# 4 -6.2165 -9.6816 -21.9427 33.5334 -0.7631 -4.4478
# 5 -0.5236 -9.6583 19.2520 -0.7631 62.4649 7.2386
# 6 -6.8572 14.1405 18.8442 -4.4478 7.2386 28.1096
#
#
#
# Elastic Compliance Matrix: (Units=1/GPa)
#
#
# Indices 1 2 3 4 5 6 
#
# 1 0.015009 -0.008302 -0.008048 -0.003190 -0.000197 0.012779
# 2 -0.008302 0.018696 0.003657 0.004466 0.003376 -0.014044
# 3 -0.008048 0.003657 0.015085 0.007783 -0.002666 -0.011998
# 4 -0.003190 0.004466 0.007783 0.035270 -0.001026 -0.002397
# 5 -0.000197 0.003376 -0.002666 -0.001026 0.017886 -0.004728
# 6 0.012779 -0.014044 -0.011998 -0.002397 -0.004728 0.054639
#
#
# Mechanical properties :
#
#
# Convention : Reuss Voigt Hill
#
# Bulk Modulus (GPa) = 42.72866 60.27859 51.50362
# Shear Modulus (GPa) = 26.34728 39.22758 32.78743
#
# Velocity S-wave (km/s) = 3.27166 3.99205 3.64967
# Velocity P-wave (km/s) = 5.62409 6.76292 6.21963
#
# Compressibility (1/GPa) = 0.02340350
#
# Stress axis : x y z
#
# Youngs Moduli (GPa) = 66.62597 53.48849 66.29008
#
# Poissons Ratio (x) = 0.44407 0.53350
# Poissons Ratio (y) = 0.55314 -0.24242
# Poissons Ratio (z) = 0.53620 -0.19560
#
# Static dielectric constant tensor:
#      x y z
#    x 1.963770 0.005000 -0.078710 
#    y 0.005000 2.027070 0.043120 
#    z -0.078710 0.043120 2.015220 
# 
# From -- ./inp_files/515455.got.cif
#   From: 2010.05.17/outbox.cif.g08.bks.cpg/sg2_258_cif.got.tgz:515455.got - 2010.06.03 11:33:40.
