data_PCOD9015200
_publ_section_title
;
Structure prediction by ZEFSAII (Michael W. Deem and Ramdas Pophale) SiO2 
 PCOD9015200
Probable space group: P -1
;
_chemical_formula_sum "Si O2"
_cell_formula_units_Z 15
_cell_length_a 9.315460
_cell_length_b 11.577835
_cell_length_c 9.194475
_cell_angle_alpha 85.935346
_cell_angle_beta 46.366343
_cell_angle_gamma 80.476176
_cell_volume 706.527989
_symmetry_space_group_name_H-M "P -1"
_symmetry_group_IT_number 2
_symmetry_cell_setting 'triclinic'
loop_
_space_group_symop_operation_xyz
x,y,z
-x,-y,-z
loop_
_atom_site_type_symbol
_atom_site_label
_atom_site_fract_x
_atom_site_fract_y
_atom_site_fract_z
Si Si1 0.368673 0.135878 0.229405
Si Si2 0.641818 0.901476 0.099369
Si Si3 0.108275 0.325788 0.550018
Si Si4 0.729932 0.506128 0.803352
Si Si5 0.000000 0.000000 0.000000
Si Si6 0.211306 0.497618 0.928239
Si Si7 0.698006 0.242377 0.165543
Si Si8 0.614409 0.699124 0.367060
O O1 0.170764 0.199453 0.444003
O O2 0.545085 0.205477 0.155096
O O3 0.444295 0.002253 0.236817
O O4 0.342181 0.138727 0.075251
O O5 0.628612 0.797580 0.229128
O O6 0.828061 0.961609 0.015282
O O7 0.226570 0.415108 0.369696
O O8 0.197366 0.317043 0.650835
O O9 0.875999 0.381748 0.693850
O O10 0.500000 0.500000 0.000000
O O11 0.802064 0.558449 0.898307
O O12 0.885710 0.139387 0.057107
O O13 0.251990 0.629017 0.909486
O O14 0.377610 0.421003 0.717721
O O15 0.000000 0.500000 0.000000
O O16 0.575164 0.257702 0.402047
#
# Coordination Sequence:
#
# PCOD9015200 Si02
#       8
#     2   2   2   2   1   2   2   2
#     4   9  20  42  68  93 131 175 223 264 335 400
#     4  10  21  41  72  94 130 177 214 280 332 395
#     4  10  22  40  63  94 130 172 223 274 326 395
#     4  11  23  41  62  90 129 178 218 270 332 389
#     4  10  22  40  62 100 130 164 224 264 336 390
#     4  12  23  41  65  94 133 174 217 273 340 395
#     4  10  23  40  65  95 131 173 222 278 322 406
#     4  11  22  41  66  99 130 173 224 274 334 390
#
# _framework density 21.23058
#
# number of rings (size 3 to 8) (size 9 to 14) (size 15 to 20)
#    0.000    1.600    1.333    3.600    0.000    4.800 
#    2.400    0.000    0.000    5.600    0.000    0.000 
#    0.000    0.000    0.000    0.000    0.000    0.000 
#
# Total GULP energy -83539.952178 kJ/mol
# GULP energy per Si atom -5569.330145 kJ/mol
# Density = 2.118226 g / cm^3
# Si number density = 21.230580 Si / 1000 Ang^3
#
#
#
# Elastic Constant Matrix: (Units=GPa)
#
#
# Indices 1 2 3 4 5 6 
#
# 1 91.9266 49.4684 48.8857 0.3844 11.3607 -25.6004
# 2 49.4684 141.3553 58.1432 24.0377 14.5953 -17.3224
# 3 48.8857 58.1432 96.5181 15.8493 8.3951 -11.7574
# 4 0.3844 24.0377 15.8493 39.2459 -6.3772 -2.4322
# 5 11.3607 14.5953 8.3951 -6.3772 36.9911 4.4937
# 6 -25.6004 -17.3224 -11.7574 -2.4322 4.4937 39.0105
#
#
#
# Elastic Compliance Matrix: (Units=1/GPa)
#
#
# Indices 1 2 3 4 5 6 
#
# 1 0.019640 -0.003051 -0.007348 0.004684 -0.003571 0.010023
# 2 -0.003051 0.011334 -0.003722 -0.005928 -0.003955 0.001995
# 3 -0.007348 -0.003722 0.016974 -0.004723 -0.000751 -0.001567
# 4 0.004684 -0.005928 -0.004723 0.032202 0.007504 0.000162
# 5 -0.003571 -0.003955 -0.000751 0.007504 0.032072 -0.007552
# 6 0.010023 0.001995 -0.001567 0.000162 -0.007552 0.033505
#
#
# Mechanical properties :
#
#
# Convention : Reuss Voigt Hill
#
# Bulk Modulus (GPa) = 50.74106 71.42163 61.08135
# Shear Modulus (GPa) = 27.69511 34.60301 31.14906
#
# Velocity S-wave (km/s) = 3.61569 4.04154 3.83453
# Velocity P-wave (km/s) = 6.43295 7.44934 6.95972
#
# Compressibility (1/GPa) = 0.01970790
#
# Stress axis : x y z
#
# Youngs Moduli (GPa) = 50.91586 88.23232 58.91225
#
# Poissons Ratio (x) = 0.26916 0.43286
# Poissons Ratio (y) = 0.15532 0.21927
# Poissons Ratio (z) = 0.37411 0.32840
#
# Static dielectric constant tensor:
#      x y z
#    x 1.819660 -0.032060 0.003200 
#    y -0.032060 1.791030 0.015150 
#    z 0.003200 0.015150 1.814060 
# 
# From -- ./inp_files/178581.got.cif
#   From: 2010.05.17/outbox.cif.g08.bks.cpg/sg2_90_cif.got.tgz:178581.got - 2010.06.03 11:33:40.
