data_PCOD9015680
_publ_section_title
;
Structure prediction by ZEFSAII (Michael W. Deem and Ramdas Pophale) SiO2 
 PCOD9015680
Probable space group: P -1
;
_chemical_formula_sum "Si O2"
_cell_formula_units_Z 16
_cell_length_a 6.192842
_cell_length_b 14.592904
_cell_length_c 8.030780
_cell_angle_alpha 111.474908
_cell_angle_beta 105.690874
_cell_angle_gamma 72.192509
_cell_volume 632.641837
_symmetry_space_group_name_H-M "P -1"
_symmetry_group_IT_number 2
_symmetry_cell_setting 'triclinic'
loop_
_space_group_symop_operation_xyz
x,y,z
-x,-y,-z
loop_
_atom_site_type_symbol
_atom_site_label
_atom_site_fract_x
_atom_site_fract_y
_atom_site_fract_z
Si Si1 0.004890 0.206073 0.310688
Si Si2 0.318275 0.866688 0.072529
Si Si3 0.582637 0.335740 0.415277
Si Si4 0.716166 0.761199 0.923067
Si Si5 0.217078 0.468451 0.641760
Si Si6 0.790540 0.977621 0.565476
Si Si7 0.106154 0.591049 0.016492
Si Si8 0.466542 0.700594 0.280623
O O1 0.847443 0.313152 0.407773
O O2 0.187351 0.218890 0.221038
O O3 0.836212 0.153677 0.127899
O O4 0.122678 0.139427 0.444272
O O5 0.196707 0.960229 0.220343
O O6 0.388956 0.776051 0.163777
O O7 0.569548 0.862578 0.043424
O O8 0.450965 0.312342 0.208743
O O9 0.426292 0.433523 0.533103
O O10 0.587214 0.254386 0.515254
O O11 0.917851 0.696004 0.030900
O O12 0.202436 0.556460 0.830048
O O13 0.271205 0.364923 0.696510
O O14 0.000000 0.500000 0.500000
O O15 0.500000 0.000000 0.500000
O O16 0.000000 0.000000 0.500000
O O17 0.314835 0.616458 0.176910
O O18 0.000000 0.500000 0.000000
#
# Coordination Sequence:
#
# PCOD9015680 Si02
#       8
#     2   2   2   2   2   2   2   2
#     4  11  25  48  77 107 155 197 251 311 391 463
#     4  11  25  47  76 110 151 196 255 305 394 460
#     4   9  23  43  69 100 143 192 252 303 384 445
#     4  11  24  43  73 104 146 199 247 309 380 460
#     4  10  21  42  64  93 140 188 249 304 369 437
#     4  12  31  51  84 121 160 197 258 321 387 479
#     4  12  23  41  65 105 142 193 253 317 379 446
#     4  10  22  43  67 100 144 192 247 314 380 450
#
# _framework density 25.290773000000002
#
# number of rings (size 3 to 8) (size 9 to 14) (size 15 to 20)
#    0.750    0.500    2.500    2.250    7.000    2.500 
#    0.000    1.875    0.000    0.000    0.000    0.000 
#    0.000    0.000    0.000    0.000    0.000    0.000 
#
# Total GULP energy -89173.706077 kJ/mol
# GULP energy per Si atom -5573.356630 kJ/mol
# Density = 2.523321 g / cm^3
# Si number density = 25.290773 Si / 1000 Ang^3
#
#
#
# Elastic Constant Matrix: (Units=GPa)
#
#
# Indices 1 2 3 4 5 6 
#
# 1 154.9834 59.7593 45.1881 1.6884 -17.8062 -26.1385
# 2 59.7593 82.3159 4.1031 -25.4546 0.7292 -13.5145
# 3 45.1881 4.1031 84.7148 3.2097 -0.6153 -27.0387
# 4 1.6884 -25.4546 3.2097 42.1234 -13.8197 -6.1003
# 5 -17.8062 0.7292 -0.6153 -13.8197 64.2057 -6.3493
# 6 -26.1385 -13.5145 -27.0387 -6.1003 -6.3493 40.8027
#
#
#
# Elastic Compliance Matrix: (Units=1/GPa)
#
#
# Indices 1 2 3 4 5 6 
#
# 1 0.012649 -0.010641 -0.005950 -0.005686 0.002363 0.000153
# 2 -0.010641 0.026578 0.006706 0.017847 0.001577 0.009344
# 3 -0.005950 0.006706 0.018040 0.004718 0.000565 0.011157
# 4 -0.005686 0.017847 0.004718 0.038760 0.007836 0.012409
# 5 0.002363 0.001577 0.000565 0.007836 0.018544 0.006468
# 6 0.000153 0.009344 0.011157 0.012409 0.006468 0.037957
#
#
# Mechanical properties :
#
#
# Convention : Reuss Voigt Hill
#
# Bulk Modulus (GPa) = 26.66848 60.01279 43.34063
# Shear Modulus (GPa) = 27.05671 43.62393 35.34032
#
# Velocity S-wave (km/s) = 3.27437 4.15769 3.74218
# Velocity P-wave (km/s) = 4.98628 6.84318 5.98716
#
# Compressibility (1/GPa) = 0.03749745
#
# Stress axis : x y z
#
# Youngs Moduli (GPa) = 79.05466 37.62548 55.43248
#
# Poissons Ratio (x) = 0.40036 0.32985
# Poissons Ratio (y) = 0.84119 -0.37174
# Poissons Ratio (z) = 0.47041 -0.25233
#
# Static dielectric constant tensor:
#      x y z
#    x 2.194950 0.037590 -0.012760 
#    y 0.037590 2.054830 -0.004220 
#    z -0.012760 -0.004220 2.000490 
# 
# From -- ./inp_files/135744.got.cif
#   From: 2010.05.17/outbox.cif.g08.bks.cpg/sg2_68_cif.got.tgz:135744.got - 2010.06.03 11:33:40.
