data_PCOD9015771
_publ_section_title
;
Structure prediction by ZEFSAII (Michael W. Deem and Ramdas Pophale) SiO2 
 PCOD9015771
Probable space group: P -1
;
_chemical_formula_sum "Si O2"
_cell_formula_units_Z 16
_cell_length_a 14.781342
_cell_length_b 10.748003
_cell_length_c 14.682185
_cell_angle_alpha 138.487043
_cell_angle_beta 149.749641
_cell_angle_gamma 60.468063
_cell_volume 691.135076
_symmetry_space_group_name_H-M "P -1"
_symmetry_group_IT_number 2
_symmetry_cell_setting 'triclinic'
loop_
_space_group_symop_operation_xyz
x,y,z
-x,-y,-z
loop_
_atom_site_type_symbol
_atom_site_label
_atom_site_fract_x
_atom_site_fract_y
_atom_site_fract_z
Si Si1 0.564624 0.130348 0.035157
Si Si2 0.959012 0.245994 0.520842
Si Si3 0.868187 0.812245 0.852554
Si Si4 0.396932 0.590815 0.032879
Si Si5 0.113057 0.728564 0.174021
Si Si6 0.499640 0.493973 0.246169
Si Si7 0.437758 0.032870 0.248175
Si Si8 0.072115 0.206397 0.785418
O O1 0.803253 0.274186 0.335570
O O2 0.474813 0.294199 0.053188
O O3 0.519491 0.974761 0.826224
O O4 0.500000 0.000000 0.000000
O O5 0.179254 0.404124 0.765803
O O6 0.955847 0.268260 0.639763
O O7 0.912143 0.003807 0.339218
O O8 0.702092 0.606129 0.542251
O O9 0.732141 0.893819 0.838149
O O10 0.013513 0.750346 0.005870
O O11 0.000000 0.000000 0.000000
O O12 0.500000 0.500000 0.000000
O O13 0.508363 0.654688 0.263064
O O14 0.375293 0.791424 0.088279
O O15 0.052395 0.856579 0.264913
O O16 0.353946 0.820919 0.437488
O O17 0.000000 0.500000 0.000000
O O18 0.300662 0.397477 0.084263
#
# Coordination Sequence:
#
# PCOD9015771 Si02
#       8
#     2   2   2   2   2   2   2   2
#     4  12  24  42  72 112 141 182 237 313 370 431
#     4  10  22  36  67 100 145 176 233 290 377 427
#     4  12  31  52  73 107 153 204 251 301 367 453
#     4  11  23  45  70 106 144 191 242 303 370 444
#     4  12  28  47  78 105 146 194 252 302 369 436
#     4  11  25  44  74 104 148 186 247 305 368 435
#     4  12  28  50  76 106 151 196 247 306 372 439
#     4  10  21  42  65 106 140 184 229 306 364 436
#
# _framework density 23.150323
#
# number of rings (size 3 to 8) (size 9 to 14) (size 15 to 20)
#    0.000    0.750    2.500    3.750    7.000    5.500 
#    0.000    0.000    0.000    0.000    0.000    0.000 
#    0.000    0.000    0.000    0.000    0.000    0.000 
#
# Total GULP energy -89414.333991 kJ/mol
# GULP energy per Si atom -5588.395874 kJ/mol
# Density = 2.309763 g / cm^3
# Si number density = 23.150323 Si / 1000 Ang^3
#
#
#
# Elastic Constant Matrix: (Units=GPa)
#
#
# Indices 1 2 3 4 5 6 
#
# 1 78.2023 17.1580 21.0324 1.7977 -2.0438 5.8204
# 2 17.1580 93.5469 26.7264 0.0104 -2.2691 7.3854
# 3 21.0324 26.7264 115.2914 -13.0841 2.5256 5.7655
# 4 1.7977 0.0104 -13.0841 38.9709 -2.9678 -3.0449
# 5 -2.0438 -2.2691 2.5256 -2.9678 25.6977 2.8751
# 6 5.8204 7.3854 5.7655 -3.0449 2.8751 43.5485
#
#
#
# Elastic Compliance Matrix: (Units=1/GPa)
#
#
# Indices 1 2 3 4 5 6 
#
# 1 0.013952 -0.001774 -0.002249 -0.001422 0.001171 -0.001443
# 2 -0.001774 0.011875 -0.002465 -0.000779 0.001237 -0.001587
# 3 -0.002249 -0.002465 0.010077 0.003390 -0.000960 -0.000315
# 4 -0.001422 -0.000779 0.003390 0.027176 0.002443 0.001612
# 5 0.001171 0.001237 -0.000960 0.002443 0.039795 -0.002696
# 6 -0.001443 -0.001587 -0.000315 0.001612 -0.002696 0.023757
#
#
# Mechanical properties :
#
#
# Convention : Reuss Voigt Hill
#
# Bulk Modulus (GPa) = 43.61571 46.31933 44.96752
# Shear Modulus (GPa) = 33.95571 36.45168 35.20369
#
# Velocity S-wave (km/s) = 3.83397 3.97238 3.90379
# Velocity P-wave (km/s) = 6.20324 6.41025 6.30759
#
# Compressibility (1/GPa) = 0.02292752
#
# Stress axis : x y z
#
# Youngs Moduli (GPa) = 71.67387 84.21118 99.23672
#
# Poissons Ratio (x) = 0.14940 0.22317
# Poissons Ratio (y) = 0.12715 0.24465
# Poissons Ratio (z) = 0.16118 0.20761
#
# Static dielectric constant tensor:
#      x y z
#    x 1.990350 -0.038000 -0.082740 
#    y -0.038000 1.967930 -0.071330 
#    z -0.082740 -0.071330 1.967110 
# 
# From -- ./inp_files/532757.got.cif
#   From: 2010.05.17/outbox.cif.g08.bks.cpg/sg2_267_cif.got.tgz:532757.got - 2010.06.03 11:33:40.
