data_PCOD9015867
_publ_section_title
;
Structure prediction by ZEFSAII (Michael W. Deem and Ramdas Pophale) SiO2 
 PCOD9015867
Probable space group: P -1
;
_chemical_formula_sum "Si O2"
_cell_formula_units_Z 14
_cell_length_a 26.203011
_cell_length_b 17.753253
_cell_length_c 14.533026
_cell_angle_alpha 20.025488
_cell_angle_beta 19.653814
_cell_angle_gamma 17.245762
_cell_volume 617.100795
_symmetry_space_group_name_H-M "P -1"
_symmetry_group_IT_number 2
_symmetry_cell_setting 'triclinic'
loop_
_space_group_symop_operation_xyz
x,y,z
-x,-y,-z
loop_
_atom_site_type_symbol
_atom_site_label
_atom_site_fract_x
_atom_site_fract_y
_atom_site_fract_z
Si Si1 0.046203 0.745527 0.646711
Si Si2 0.722871 0.174654 0.352042
Si Si3 0.444467 0.238646 0.608477
Si Si4 0.084647 0.603540 0.306034
Si Si5 0.544392 0.211508 0.275053
Si Si6 0.182283 0.328006 0.651393
Si Si7 0.184303 0.131257 0.267135
O O1 0.269831 0.530855 0.528051
O O2 0.945449 0.895117 0.551046
O O3 0.000000 0.000000 0.500000
O O4 0.000000 0.500000 0.000000
O O5 0.732742 0.081412 0.545802
O O6 0.898053 0.900765 0.316173
O O7 0.535666 0.272376 0.502743
O O8 0.767940 0.387964 0.014914
O O9 0.580410 0.112325 0.433807
O O10 0.354808 0.091868 0.965802
O O11 0.182981 0.452428 0.409413
O O12 0.000000 0.500000 0.500000
O O13 0.350984 0.262554 0.507790
O O14 0.735987 0.981474 0.157721
O O15 0.500000 0.500000 0.000000
O O16 0.969111 0.551781 0.795840
#
# Coordination Sequence:
#
# PCOD9015867 Si02
#       7
#     2   2   2   2   2   2   2
#     4  10  23  46  70 102 146 194 234 294 370 437
#     4  10  22  42  69  97 136 180 241 286 355 430
#     4  11  22  43  69 103 140 184 238 301 355 428
#     4  10  21  42  65  94 136 185 227 291 362 428
#     4  11  23  39  65  99 134 179 237 289 350 421
#     4  10  22  41  64  96 134 176 233 286 353 424
#     4  10  22  45  69 102 141 187 234 291 367 430
#
# _framework density 22.686731999999999
#
# number of rings (size 3 to 8) (size 9 to 14) (size 15 to 20)
#    0.000    1.714    1.429    2.143    0.000    4.571 
#   23.143    0.714    0.000    0.000    0.000    0.000 
#    0.000    0.000    0.000    0.000    0.000    0.000 
#
# Total GULP energy -77940.588229 kJ/mol
# GULP energy per Si atom -5567.184874 kJ/mol
# Density = 2.263510 g / cm^3
# Si number density = 22.686732 Si / 1000 Ang^3
#
#
#
# Elastic Constant Matrix: (Units=GPa)
#
#
# Indices 1 2 3 4 5 6 
#
# 1 195.6159 19.0031 54.0131 -2.9995 10.0325 -22.1997
# 2 19.0031 47.6405 16.9880 -8.8359 -4.8768 8.9933
# 3 54.0131 16.9880 74.6487 -5.7740 17.6357 0.2659
# 4 -2.9995 -8.8359 -5.7740 17.1817 2.1689 -8.6327
# 5 10.0325 -4.8768 17.6357 2.1689 32.5999 8.1400
# 6 -22.1997 8.9933 0.2659 -8.6327 8.1400 41.7589
#
#
#
# Elastic Compliance Matrix: (Units=1/GPa)
#
#
# Indices 1 2 3 4 5 6 
#
# 1 0.007141 -0.002170 -0.004221 0.001355 -0.001546 0.004872
# 2 -0.002170 0.027888 -0.006563 0.006663 0.009860 -0.007663
# 3 -0.004221 -0.006563 0.021287 0.005918 -0.012253 0.002646
# 4 0.001355 0.006663 0.005918 0.073764 -0.011719 0.016781
# 5 -0.001546 0.009860 -0.012253 -0.011719 0.043471 -0.013764
# 6 0.004872 -0.007663 0.002646 0.016781 -0.013764 0.034323
#
#
# Mechanical properties :
#
#
# Convention : Reuss Voigt Hill
#
# Bulk Modulus (GPa) = 32.88594 55.32372 44.10483
# Shear Modulus (GPa) = 20.49875 33.50148 27.00012
#
# Velocity S-wave (km/s) = 3.00918 3.84695 3.45357
# Velocity P-wave (km/s) = 5.15759 6.64612 5.94860
#
# Compressibility (1/GPa) = 0.03040813
#
# Stress axis : x y z
#
# Youngs Moduli (GPa) = 140.03157 35.85750 46.97792
#
# Poissons Ratio (x) = 0.07782 0.19828
# Poissons Ratio (y) = 0.30389 0.30833
# Poissons Ratio (z) = 0.59102 0.23534
#
# Static dielectric constant tensor:
#      x y z
#    x 1.800860 -0.005750 0.003860 
#    y -0.005750 1.900360 0.014370 
#    z 0.003860 0.014370 1.968460 
# 
# From -- ./inp_files/544306.got.cif
#   From: 2010.05.17/outbox.cif.g08.bks.cpg/sg2_273_cif.got.tgz:544306.got - 2010.06.03 11:33:40.
