data_PCOD9015434
_publ_section_title
;
Structure prediction by ZEFSAII (Michael W. Deem and Ramdas Pophale) SiO2 
 PCOD9015434
Probable space group: P -1
;
_chemical_formula_sum "Si O2"
_cell_formula_units_Z 16
_cell_length_a 14.209292
_cell_length_b 14.333093
_cell_length_c 9.587970
_cell_angle_alpha 70.148144
_cell_angle_beta 86.895451
_cell_angle_gamma 147.444550
_cell_volume 731.450452
_symmetry_space_group_name_H-M "P -1"
_symmetry_group_IT_number 2
_symmetry_cell_setting 'triclinic'
loop_
_space_group_symop_operation_xyz
x,y,z
-x,-y,-z
loop_
_atom_site_type_symbol
_atom_site_label
_atom_site_fract_x
_atom_site_fract_y
_atom_site_fract_z
Si Si1 0.024916 0.813051 0.148233
Si Si2 0.892439 0.635541 0.932115
Si Si3 0.981115 0.273138 0.516986
Si Si4 0.890097 0.000874 0.476897
Si Si5 0.564767 0.463184 0.433236
Si Si6 0.660425 0.060343 0.284451
Si Si7 0.493226 0.869162 0.687752
Si Si8 0.502636 0.233119 0.786747
O O1 0.980450 0.693228 0.337605
O O2 0.841521 0.725174 0.237893
O O3 0.957717 0.716195 0.047550
O O4 0.309191 0.092644 0.977008
O O5 0.631922 0.339509 0.112523
O O6 0.954534 0.793078 0.759038
O O7 0.080400 0.734474 0.816170
O O8 0.236603 0.535827 0.294059
O O9 0.902213 0.087852 0.562385
O O10 0.768526 0.141107 0.567254
O O11 0.622797 0.732260 0.577360
O O12 0.000000 0.000000 0.500000
O O13 0.500000 0.500000 0.500000
O O14 0.522716 0.334166 0.611581
O O15 0.497867 0.859346 0.524810
O O16 0.582520 0.947241 0.196236
O O17 0.639360 0.157129 0.253913
#
# Coordination Sequence:
#
# PCOD9015434 Si02
#       8
#     2   2   2   2   2   2   2   2
#     4  10  22  40  69  89 126 183 211 267 330 399
#     4  11  22  44  67  94 137 174 228 268 325 413
#     4  11  23  40  64  97 140 162 221 283 325 385
#     4  12  24  44  67  98 134 173 212 287 331 377
#     4  11  22  44  67  92 130 169 223 267 328 399
#     4  10  21  42  68  94 135 179 223 270 332 406
#     4  11  22  38  69 102 129 180 219 276 341 379
#     4  10  21  42  62  92 130 177 212 269 330 391
#
# _framework density 21.874347
#
# number of rings (size 3 to 8) (size 9 to 14) (size 15 to 20)
#    0.000    1.250    3.750    4.125    1.750    1.000 
#    2.250    3.750    0.000    0.000    0.000    0.000 
#    0.000    0.000    0.000    0.000    0.000    0.000 
#
# Total GULP energy -89311.348796 kJ/mol
# GULP energy per Si atom -5581.959300 kJ/mol
# Density = 2.182456 g / cm^3
# Si number density = 21.874347 Si / 1000 Ang^3
#
#
#
# Elastic Constant Matrix: (Units=GPa)
#
#
# Indices 1 2 3 4 5 6 
#
# 1 79.0784 10.8666 51.4495 -7.9233 -20.9022 9.4285
# 2 10.8666 64.4514 33.8472 -13.8564 -7.4502 12.7815
# 3 51.4495 33.8472 119.3787 -9.8663 -20.5122 6.0825
# 4 -7.9233 -13.8564 -9.8663 39.9134 9.2922 -10.9137
# 5 -20.9022 -7.4502 -20.5122 9.2922 40.1371 3.1371
# 6 9.4285 12.7815 6.0825 -10.9137 3.1371 26.1064
#
#
#
# Elastic Compliance Matrix: (Units=1/GPa)
#
#
# Indices 1 2 3 4 5 6 
#
# 1 0.020427 0.003123 -0.007960 -0.001009 0.008042 -0.008440
# 2 0.003123 0.020976 -0.006173 0.003448 0.002254 -0.008788
# 3 -0.007960 -0.006173 0.013688 0.000001 0.001506 0.002527
# 4 -0.001009 0.003448 0.000001 0.031455 -0.008168 0.012807
# 5 0.008042 0.002254 0.001506 -0.008168 0.033100 -0.011751
# 6 -0.008440 -0.008788 0.002527 0.012807 -0.011751 0.051833
#
#
# Mechanical properties :
#
#
# Convention : Reuss Voigt Hill
#
# Bulk Modulus (GPa) = 30.23988 50.58167 40.41077
# Shear Modulus (GPa) = 24.44732 32.34773 28.39753
#
# Velocity S-wave (km/s) = 3.34672 3.84969 3.60698
# Velocity P-wave (km/s) = 5.36548 6.55241 5.98842
#
# Compressibility (1/GPa) = 0.03306892
#
# Stress axis : x y z
#
# Youngs Moduli (GPa) = 48.95590 47.67453 73.05817
#
# Poissons Ratio (x) = -0.14888 0.58157
# Poissons Ratio (y) = -0.15289 0.45099
# Poissons Ratio (z) = 0.38970 0.29430
#
# Static dielectric constant tensor:
#      x y z
#    x 1.780610 -0.001360 -0.007190 
#    y -0.001360 1.868320 -0.020850 
#    z -0.007190 -0.020850 1.859040 
# 
# From -- ./inp_files/314977.got.cif
#   From: 2010.05.17/outbox.cif.g08.bks.cpg/sg2_158_cif.got.tgz:314977.got - 2010.06.03 11:33:40.
