data_PCOD9015289
_publ_section_title
;
Structure prediction by ZEFSAII (Michael W. Deem and Ramdas Pophale) SiO2 
 PCOD9015289
Probable space group: P -1
;
_chemical_formula_sum "Si O2"
_cell_formula_units_Z 12
_cell_length_a 15.605079
_cell_length_b 8.141149
_cell_length_c 9.472273
_cell_angle_alpha 75.792050
_cell_angle_beta 36.191425
_cell_angle_gamma 101.546582
_cell_volume 494.805244
_symmetry_space_group_name_H-M "P -1"
_symmetry_group_IT_number 2
_symmetry_cell_setting 'triclinic'
loop_
_space_group_symop_operation_xyz
x,y,z
-x,-y,-z
loop_
_atom_site_type_symbol
_atom_site_label
_atom_site_fract_x
_atom_site_fract_y
_atom_site_fract_z
Si Si1 0.738387 0.939972 0.454084
Si Si2 0.112022 0.446404 0.769918
Si Si3 0.628452 0.748199 0.352425
Si Si4 0.910533 0.351893 0.507453
Si Si5 0.986221 0.071289 0.349689
Si Si6 0.498579 0.896323 0.278285
O O1 0.628862 0.742165 0.521969
O O2 0.613244 0.014031 0.604880
O O3 0.783305 0.907200 0.557800
O O4 0.962827 0.169044 0.048420
O O5 0.118694 0.516788 0.587046
O O6 0.340418 0.632535 0.481118
O O7 0.000000 0.500000 0.000000
O O8 0.500000 0.500000 0.500000
O O9 0.555748 0.871093 0.361838
O O10 0.850651 0.895441 0.965818
O O11 0.000000 0.500000 0.500000
O O12 0.036771 0.310738 0.263980
O O13 0.703364 0.087781 0.877962
O O14 0.000000 0.000000 0.500000
#
# Coordination Sequence:
#
# PCOD9015289 Si02
#       6
#     2   2   2   2   2   2
#     4  11  25  48  74 101 137 188 239 283 339 421
#     4  10  21  41  75  97 132 177 239 284 330 399
#     4  12  27  44  71 105 144 181 230 292 354 408
#     4  12  25  43  70 102 141 184 228 285 345 419
#     4  12  26  48  66  99 148 184 225 290 354 405
#     4  11  23  44  73 103 137 180 243 276 342 418
#
# _framework density 24.251965999999999
#
# number of rings (size 3 to 8) (size 9 to 14) (size 15 to 20)
#    0.000    0.667    5.000    3.500    4.667    0.000 
#    0.000    0.833    0.000    0.000    0.000    0.000 
#    0.000    0.000    0.000    0.000    0.000    0.000 
#
# Total GULP energy -67109.482426 kJ/mol
# GULP energy per Si atom -5592.456869 kJ/mol
# Density = 2.419677 g / cm^3
# Si number density = 24.251966 Si / 1000 Ang^3
#
#
#
# Elastic Constant Matrix: (Units=GPa)
#
#
# Indices 1 2 3 4 5 6 
#
# 1 220.5326 56.0309 24.4407 19.0680 -5.8489 22.3008
# 2 56.0309 104.6593 12.4170 4.7120 -12.9825 22.7551
# 3 24.4407 12.4170 63.2615 -8.9829 -5.2904 4.4464
# 4 19.0680 4.7120 -8.9829 24.7234 -3.3378 -0.2835
# 5 -5.8489 -12.9825 -5.2904 -3.3378 33.0860 6.2108
# 6 22.3008 22.7551 4.4464 -0.2835 6.2108 50.5602
#
#
#
# Elastic Compliance Matrix: (Units=1/GPa)
#
#
# Indices 1 2 3 4 5 6 
#
# 1 0.006004 -0.002481 -0.002529 -0.005172 -0.000601 -0.001264
# 2 -0.002481 0.012797 -0.000745 -0.000122 0.005440 -0.005269
# 3 -0.002529 -0.000745 0.018557 0.009269 0.003262 -0.000530
# 4 -0.005172 -0.000122 0.009269 0.048543 0.005200 0.001155
# 5 -0.000601 0.005440 0.003262 0.005200 0.034554 -0.006686
# 6 -0.001264 -0.005269 -0.000530 0.001155 -0.006686 0.023582
#
#
# Mechanical properties :
#
#
# Convention : Reuss Voigt Hill
#
# Bulk Modulus (GPa) = 38.68717 63.80342 51.24529
# Shear Modulus (GPa) = 30.45742 41.37822 35.91782
#
# Velocity S-wave (km/s) = 3.54768 4.13507 3.85259
# Velocity P-wave (km/s) = 5.72435 7.01171 6.40048
#
# Compressibility (1/GPa) = 0.02584836
#
# Stress axis : x y z
#
# Youngs Moduli (GPa) = 166.54886 78.14033 53.88860
#
# Poissons Ratio (x) = 0.19388 0.13626
# Poissons Ratio (y) = 0.41325 0.04017
# Poissons Ratio (z) = 0.42112 0.05824
#
# Static dielectric constant tensor:
#      x y z
#    x 1.991680 -0.045440 -0.034220 
#    y -0.045440 1.962080 -0.002660 
#    z -0.034220 -0.002660 1.961770 
# 
# From -- ./inp_files/150572.got.cif
#   From: 2010.05.17/outbox.cif.g08.bks.cpg/sg2_76_cif.got.tgz:150572.got - 2010.06.03 11:33:40.
