data_PCOD9015394
_publ_section_title
;
Structure prediction by ZEFSAII (Michael W. Deem and Ramdas Pophale) SiO2 
 PCOD9015394
Probable space group: P -1
;
_chemical_formula_sum "Si O2"
_cell_formula_units_Z 16
_cell_length_a 15.531648
_cell_length_b 16.301493
_cell_length_c 9.032580
_cell_angle_alpha 106.067814
_cell_angle_beta 90.359287
_cell_angle_gamma 154.021559
_cell_volume 765.731507
_symmetry_space_group_name_H-M "P -1"
_symmetry_group_IT_number 2
_symmetry_cell_setting 'triclinic'
loop_
_space_group_symop_operation_xyz
x,y,z
-x,-y,-z
loop_
_atom_site_type_symbol
_atom_site_label
_atom_site_fract_x
_atom_site_fract_y
_atom_site_fract_z
Si Si1 0.477822 0.049923 0.701723
Si Si2 0.626502 0.316103 0.307905
Si Si3 0.819913 0.378340 0.592472
Si Si4 0.723164 0.423589 0.030711
Si Si5 0.359068 0.236451 0.366061
Si Si6 0.795679 0.684674 0.118073
Si Si7 0.186510 0.774512 0.034613
Si Si8 0.458634 0.464382 0.234401
O O1 0.591532 0.176593 0.605527
O O2 0.673946 0.168930 0.843536
O O3 0.232551 0.765421 0.541192
O O4 0.490481 0.149055 0.842023
O O5 0.778886 0.409667 0.482167
O O6 0.759788 0.450922 0.220122
O O7 0.536236 0.323155 0.370120
O O8 0.386868 0.033517 0.135592
O O9 0.067374 0.622322 0.810610
O O10 0.687745 0.488849 0.019701
O O11 0.960951 0.605790 0.040114
O O12 0.343822 0.284655 0.247646
O O13 0.458221 0.383889 0.577841
O O14 0.089390 0.951419 0.260226
O O15 0.686047 0.634101 0.231169
O O16 0.717401 0.661471 0.957002
#
# Coordination Sequence:
#
# PCOD9015394 Si02
#       8
#     2   2   2   2   2   2   2   2
#     4   9  20  39  62  86 118 160 201 246 292 347
#     4  11  23  37  59  91 121 156 198 246 291 352
#     4   9  19  37  60  85 117 155 203 239 292 348
#     4  11  21  38  61  87 124 155 196 247 292 347
#     4  11  22  41  63  89 121 155 195 243 300 350
#     4  11  22  42  64  89 119 158 196 241 299 354
#     4  10  21  42  62  83 120 163 199 243 300 341
#     4  10  24  41  65  90 118 153 199 245 295 355
#
# _framework density 20.895052
#
# number of rings (size 3 to 8) (size 9 to 14) (size 15 to 20)
#    0.000    1.750    2.500    2.250    3.500    2.000 
#    0.000   11.875    0.000    0.000    0.000    0.000 
#    0.000    0.000    0.000    0.000    0.000    0.000 
#
# Total GULP energy -89488.698827 kJ/mol
# GULP energy per Si atom -5593.043677 kJ/mol
# Density = 2.084749 g / cm^3
# Si number density = 20.895052 Si / 1000 Ang^3
#
#
#
# Elastic Constant Matrix: (Units=GPa)
#
#
# Indices 1 2 3 4 5 6 
#
# 1 55.9460 45.3880 33.6570 9.9637 -14.1153 -7.1778
# 2 45.3880 53.3611 36.5940 -18.9961 -4.3150 -1.5214
# 3 33.6570 36.5940 99.4110 -4.6729 -10.1236 3.0559
# 4 9.9637 -18.9961 -4.6729 24.2235 -1.4903 -4.0502
# 5 -14.1153 -4.3150 -10.1236 -1.4903 25.1068 1.2454
# 6 -7.1778 -1.5214 3.0559 -4.0502 1.2454 30.0167
#
#
#
# Elastic Compliance Matrix: (Units=1/GPa)
#
#
# Indices 1 2 3 4 5 6 
#
# 1 -0.039662 0.059435 -0.006809 0.061410 -0.011331 0.002978
# 2 0.059435 -0.051056 -0.002364 -0.063305 0.019805 0.002502
# 3 -0.006809 -0.002364 0.013633 0.003212 0.001590 -0.002769
# 4 0.061410 -0.063305 0.003212 -0.030581 0.022824 0.006076
# 5 -0.011331 0.019805 0.001590 0.022824 0.038879 -0.000401
# 6 0.002978 0.002502 -0.002769 0.006076 -0.000401 0.035272
#
#
# Mechanical properties :
#
#
# Convention : Reuss Voigt Hill
#
# Bulk Modulus (GPa) = 42.66470 48.88846 45.77658
# Shear Modulus (GPa) = -39.61171 22.07468 -8.76852
#
# Velocity S-wave (km/s) = -4.35874 3.25384 -2.05075
# Velocity P-wave (km/s) = 2.20649 6.12900 4.04327
#
# Compressibility (1/GPa) = 0.02343858
#
# Stress axis : x y z
#
# Youngs Moduli (GPa) = -25.21321 -19.58632 73.35117
#
# Poissons Ratio (x) = 1.16412 0.49948
# Poissons Ratio (y) = 1.49856 0.17343
# Poissons Ratio (z) = -0.17169 -0.04631
#
# Static dielectric constant tensor:
#      x y z
#    x 1.717330 0.006020 -0.021900 
#    y 0.006020 1.773760 0.004060 
#    z -0.021900 0.004060 1.739350 
# 
# From -- ./inp_files/315463.got.cif
#   From: 2010.05.17/outbox.cif.g08.bks.cpg/sg2_158_cif.got.tgz:315463.got - 2010.06.03 11:33:40.
