data_PCOD9015210
_publ_section_title
;
Structure prediction by ZEFSAII (Michael W. Deem and Ramdas Pophale) SiO2 
 PCOD9015210
Probable space group: P -1
;
_chemical_formula_sum "Si O2"
_cell_formula_units_Z 16
_cell_length_a 6.395106
_cell_length_b 13.422861
_cell_length_c 7.630029
_cell_angle_alpha 91.236447
_cell_angle_beta 72.710996
_cell_angle_gamma 76.614132
_cell_volume 605.497332
_symmetry_space_group_name_H-M "P -1"
_symmetry_group_IT_number 2
_symmetry_cell_setting 'triclinic'
loop_
_space_group_symop_operation_xyz
x,y,z
-x,-y,-z
loop_
_atom_site_type_symbol
_atom_site_label
_atom_site_fract_x
_atom_site_fract_y
_atom_site_fract_z
Si Si1 0.896523 0.116846 0.097163
Si Si2 0.258595 0.289021 0.430071
Si Si3 0.586466 0.628265 0.099784
Si Si4 0.976477 0.689140 0.882397
Si Si5 0.985054 0.857621 0.527709
Si Si6 0.503927 0.964794 0.796095
Si Si7 0.473078 0.566937 0.738556
Si Si8 0.535764 0.164412 0.669683
O O1 0.634070 0.121351 0.156430
O O2 0.985428 0.213173 0.012557
O O3 0.500000 0.000000 0.000000
O O4 0.000000 0.000000 0.000000
O O5 0.196766 0.275648 0.236959
O O6 0.037913 0.251886 0.548852
O O7 0.325896 0.397760 0.408866
O O8 0.449944 0.225374 0.514387
O O9 0.517353 0.552858 0.255068
O O10 0.508718 0.747124 0.172317
O O11 0.857244 0.615190 0.018222
O O12 0.491165 0.602731 0.937010
O O13 0.061036 0.870315 0.708137
O O14 0.222356 0.630006 0.747038
O O15 0.193250 0.885820 0.379657
O O16 0.725402 0.918526 0.623079
O O17 0.409381 0.074173 0.727955
#
# Coordination Sequence:
#
# PCOD9015210 Si02
#       8
#     2   2   2   2   2   2   2   2
#     4  11  22  40  68  99 130 180 231 284 334 407
#     4  10  23  44  67  96 139 186 223 286 346 411
#     4  10  24  41  70 106 140 180 228 294 345 416
#     4  10  21  41  72  97 138 184 233 285 348 407
#     4  11  24  44  67  97 138 185 222 283 346 405
#     4  12  26  43  70 101 136 179 238 284 336 416
#     4  10  21  44  72 103 137 180 237 286 348 411
#     4  12  27  45  65 102 144 180 228 288 355 412
#
# _framework density 26.424558999999999
#
# number of rings (size 3 to 8) (size 9 to 14) (size 15 to 20)
#    0.000    1.250    1.250    4.500    5.250    4.500 
#    0.000    3.125    0.000    0.000    0.000    0.000 
#    0.000    0.000    0.000    0.000    0.000    0.000 
#
# Total GULP energy -89093.942366 kJ/mol
# GULP energy per Si atom -5568.371398 kJ/mol
# Density = 2.636442 g / cm^3
# Si number density = 26.424559 Si / 1000 Ang^3
#
#
#
# Elastic Constant Matrix: (Units=GPa)
#
#
# Indices 1 2 3 4 5 6 
#
# 1 123.7212 52.5521 24.9498 -4.1778 -6.9216 32.1733
# 2 52.5521 101.9546 20.9384 -31.1690 5.6571 16.0302
# 3 24.9498 20.9384 58.3887 1.7549 14.2716 10.3030
# 4 -4.1778 -31.1690 1.7549 43.7004 6.6663 -11.7058
# 5 -6.9216 5.6571 14.2716 6.6663 38.8149 1.7285
# 6 32.1733 16.0302 10.3030 -11.7058 1.7285 39.0330
#
#
#
# Elastic Compliance Matrix: (Units=1/GPa)
#
#
# Indices 1 2 3 4 5 6 
#
# 1 0.015340 -0.008550 -0.002971 -0.008599 0.007051 -0.011240
# 2 -0.008550 0.019014 -0.003003 0.015069 -0.005994 0.004816
# 3 -0.002971 -0.003003 0.021858 -0.002855 -0.007522 -0.002611
# 4 -0.008599 0.015069 -0.002855 0.038035 -0.009813 0.013494
# 5 0.007051 -0.005994 -0.007522 -0.009813 0.032602 -0.005751
# 6 -0.011240 0.004816 -0.002611 0.013494 -0.005751 0.037897
#
#
# Mechanical properties :
#
#
# Convention : Reuss Voigt Hill
#
# Bulk Modulus (GPa) = 36.81053 53.43835 45.12444
# Shear Modulus (GPa) = 24.64898 36.68461 30.66679
#
# Velocity S-wave (km/s) = 3.05750 3.73000 3.41037
# Velocity P-wave (km/s) = 5.14053 6.23036 5.71150
#
# Compressibility (1/GPa) = 0.02716614
#
# Stress axis : x y z
#
# Youngs Moduli (GPa) = 65.18713 52.59209 45.74992
#
# Poissons Ratio (x) = 0.44965 0.13591
# Poissons Ratio (y) = 0.55734 0.13737
# Poissons Ratio (z) = 0.19366 0.15792
#
# Static dielectric constant tensor:
#      x y z
#    x 2.165930 -0.053990 -0.040200 
#    y -0.053990 2.227140 -0.015490 
#    z -0.040200 -0.015490 2.140920 
# 
# From -- ./inp_files/135259.got.cif
#   From: 2010.05.17/outbox.cif.g08.bks.cpg/sg2_68_cif.got.tgz:135259.got - 2010.06.03 11:33:40.
