data_PCOD9015397
_publ_section_title
;
Structure prediction by ZEFSAII (Michael W. Deem and Ramdas Pophale) SiO2 
 PCOD9015397
Probable space group: P -1
;
_chemical_formula_sum "Si O2"
_cell_formula_units_Z 16
_cell_length_a 8.595114
_cell_length_b 16.839722
_cell_length_c 19.241519
_cell_angle_alpha 21.541796
_cell_angle_beta 121.309101
_cell_angle_gamma 108.328440
_cell_volume 736.257915
_symmetry_space_group_name_H-M "P -1"
_symmetry_group_IT_number 2
_symmetry_cell_setting 'triclinic'
loop_
_space_group_symop_operation_xyz
x,y,z
-x,-y,-z
loop_
_atom_site_type_symbol
_atom_site_label
_atom_site_fract_x
_atom_site_fract_y
_atom_site_fract_z
Si Si1 0.734721 0.469917 0.910687
Si Si2 0.703368 0.350586 0.407116
Si Si3 0.497437 0.744826 0.769288
Si Si4 0.010609 0.112614 0.056011
Si Si5 0.746772 0.883303 0.167955
Si Si6 0.938831 0.627175 0.274152
Si Si7 0.086042 0.425865 0.929753
Si Si8 0.072515 0.915931 0.470278
O O1 0.546061 0.532976 0.761391
O O2 0.618794 0.660633 0.792280
O O3 0.931356 0.473652 0.919334
O O4 0.845304 0.180126 0.200066
O O5 0.763158 0.564235 0.257388
O O6 0.835063 0.179642 0.508704
O O7 0.793837 0.165522 0.645631
O O8 0.247497 0.943227 0.532551
O O9 0.500000 0.500000 0.000000
O O10 0.658966 0.776555 0.829530
O O11 0.033608 0.197628 0.916124
O O12 0.010634 0.315542 0.941843
O O13 0.803176 0.091392 0.032972
O O14 0.871549 0.761410 0.223900
O O15 0.846417 0.654379 0.433799
O O16 0.500000 0.000000 0.000000
O O17 0.060086 0.688860 0.686404
#
# Coordination Sequence:
#
# PCOD9015397 Si02
#       8
#     2   2   2   2   2   2   2   2
#     4  11  23  40  63  91 126 166 216 256 307 361
#     4  10  22  40  61  93 126 164 203 257 308 362
#     4   9  22  42  60  88 125 169 213 256 312 362
#     4  11  22  42  65  93 129 160 205 253 310 370
#     4  10  24  43  67  94 125 161 201 250 308 369
#     4  10  22  43  67  90 128 163 200 249 310 372
#     4  11  22  39  63  94 122 162 213 259 309 366
#     4  10  21  42  62  85 128 166 207 261 307 361
#
# _framework density 21.731515000000002
#
# number of rings (size 3 to 8) (size 9 to 14) (size 15 to 20)
#    0.000    1.750    2.500    0.750    1.750    4.000 
#    4.500    0.000    0.000    0.000    0.000    0.000 
#    0.000    0.000    0.000    0.000    0.000    0.000 
#
# Total GULP energy -89479.075307 kJ/mol
# GULP energy per Si atom -5592.442207 kJ/mol
# Density = 2.168205 g / cm^3
# Si number density = 21.731515 Si / 1000 Ang^3
#
#
#
# Elastic Constant Matrix: (Units=GPa)
#
#
# Indices 1 2 3 4 5 6 
#
# 1 61.8518 22.6800 39.2167 16.9424 -15.1788 24.8172
# 2 22.6800 98.3241 29.0109 13.9903 4.3873 31.9200
# 3 39.2167 29.0109 101.7197 21.1459 -17.8317 28.7342
# 4 16.9424 13.9903 21.1459 37.0323 -0.0440 4.4502
# 5 -15.1788 4.3873 -17.8317 -0.0440 35.2952 7.1812
# 6 24.8172 31.9200 28.7342 4.4502 7.1812 42.2747
#
#
#
# Elastic Compliance Matrix: (Units=1/GPa)
#
#
# Indices 1 2 3 4 5 6 
#
# 1 0.032425 0.000340 -0.001527 -0.011674 0.017173 -0.019942
# 2 0.000340 0.014073 -0.000381 -0.004030 0.000272 -0.010189
# 3 -0.001527 -0.000381 0.017150 -0.007563 0.010373 -0.011439
# 4 -0.011674 -0.004030 -0.007563 0.036605 -0.010949 0.013043
# 5 0.017173 0.000272 0.010373 -0.010949 0.045787 -0.023963
# 6 -0.019942 -0.010189 -0.011439 0.013043 -0.023963 0.053527
#
#
# Mechanical properties :
#
#
# Convention : Reuss Voigt Hill
#
# Bulk Modulus (GPa) = 16.52567 49.30122 32.91344
# Shear Modulus (GPa) = 22.43402 34.31965 28.37684
#
# Velocity S-wave (km/s) = 3.21647 3.97830 3.61749
# Velocity P-wave (km/s) = 4.62766 6.62104 5.71198
#
# Compressibility (1/GPa) = 0.06051193
#
# Stress axis : x y z
#
# Youngs Moduli (GPa) = 30.84036 71.05570 58.30735
#
# Poissons Ratio (x) = -0.02416 0.08906
# Poissons Ratio (y) = -0.01049 0.02223
# Poissons Ratio (z) = 0.04710 0.02709
#
# Static dielectric constant tensor:
#      x y z
#    x 1.767040 -0.002770 -0.012290 
#    y -0.002770 1.807370 0.001250 
#    z -0.012290 0.001250 1.814950 
# 
# From -- ./inp_files/582413.got.cif
#   From: 2010.05.17/outbox.cif.g08.bks.cpg/sg2_292_cif.got.tgz:582413.got - 2010.06.03 11:33:40.
