data_PCOD9015256
_publ_section_title
;
Structure prediction by ZEFSAII (Michael W. Deem and Ramdas Pophale) SiO2 
 PCOD9015256
Probable space group: P -1
;
_chemical_formula_sum "Si O2"
_cell_formula_units_Z 16
_cell_length_a 5.654504
_cell_length_b 18.196477
_cell_length_c 14.641001
_cell_angle_alpha 32.741025
_cell_angle_beta 119.858887
_cell_angle_gamma 104.446406
_cell_volume 658.965406
_symmetry_space_group_name_H-M "P -1"
_symmetry_group_IT_number 2
_symmetry_cell_setting 'triclinic'
loop_
_space_group_symop_operation_xyz
x,y,z
-x,-y,-z
loop_
_atom_site_type_symbol
_atom_site_label
_atom_site_fract_x
_atom_site_fract_y
_atom_site_fract_z
Si Si1 0.379502 0.630450 0.414653
Si Si2 0.847827 0.902353 0.821950
Si Si3 0.766927 0.713036 0.160925
Si Si4 0.729117 0.318759 0.991558
Si Si5 0.305426 0.879696 0.656545
Si Si6 0.741621 0.609172 0.691895
Si Si7 0.652064 0.344761 0.246921
Si Si8 0.658621 0.081612 0.004965
O O1 0.500000 0.500000 0.500000
O O2 0.561373 0.632771 0.537781
O O3 0.363141 0.775577 0.205270
O O4 0.041881 0.647507 0.347605
O O5 0.534659 0.947775 0.668593
O O6 0.871504 0.762619 0.035766
O O7 0.064777 0.829599 0.858197
O O8 0.004691 0.990349 0.820740
O O9 0.562419 0.623772 0.187500
O O10 0.547951 0.861676 0.006699
O O11 0.885676 0.433057 0.910740
O O12 0.644861 0.268954 0.122185
O O13 0.342516 0.806317 0.641019
O O14 0.000000 0.000000 0.500000
O O15 0.522596 0.646413 0.699142
O O16 0.003714 0.670399 0.669276
O O17 0.500000 0.500000 0.000000
O O18 0.500000 0.000000 0.000000
#
# Coordination Sequence:
#
# PCOD9015256 Si02
#       8
#     2   2   2   2   2   2   2   2
#     4  11  25  42  70 105 149 190 246 306 375 455
#     4   9  20  41  67 100 129 187 243 290 364 466
#     4   9  20  40  66  99 134 187 232 294 360 459
#     4  10  21  41  73  97 133 187 246 294 374 453
#     4  11  25  46  70 101 142 193 250 311 374 451
#     4  12  27  45  74 111 144 191 251 315 382 448
#     4  12  27  50  75 104 148 198 252 318 386 437
#     4  10  22  43  69 101 142 188 237 302 386 448
#
# _framework density 24.280487000000001
#
# number of rings (size 3 to 8) (size 9 to 14) (size 15 to 20)
#    0.000    1.500    1.250    3.375    7.000    3.500 
#    9.000    0.000    0.000    0.000    0.000    0.000 
#    0.000    0.000    0.000    0.000    0.000    0.000 
#
# Total GULP energy -89236.621431 kJ/mol
# GULP energy per Si atom -5577.288839 kJ/mol
# Density = 2.422522 g / cm^3
# Si number density = 24.280487 Si / 1000 Ang^3
#
#
#
# Elastic Constant Matrix: (Units=GPa)
#
#
# Indices 1 2 3 4 5 6 
#
# 1 117.6586 65.9216 48.0717 27.5113 15.4544 12.0365
# 2 65.9216 167.2141 62.3080 17.0382 16.7319 18.6998
# 3 48.0717 62.3080 88.2001 28.7595 20.6977 12.9106
# 4 27.5113 17.0382 28.7595 35.6737 8.7971 0.0481
# 5 15.4544 16.7319 20.6977 8.7971 48.7919 10.5989
# 6 12.0365 18.6998 12.9106 0.0481 10.5989 54.6094
#
#
#
# Elastic Compliance Matrix: (Units=1/GPa)
#
#
# Indices 1 2 3 4 5 6 
#
# 1 0.013062 -0.003470 -0.002281 -0.006429 -0.000597 -0.001030
# 2 -0.003470 0.009173 -0.005240 0.002529 -0.000034 -0.001133
# 3 -0.002281 -0.005240 0.021429 -0.012032 -0.003969 -0.001988
# 4 -0.006429 0.002529 -0.012032 0.041999 -0.002118 0.003770
# 5 -0.000597 -0.000034 -0.003969 -0.002118 0.023518 -0.003481
# 6 -0.001030 -0.001133 -0.001988 0.003770 -0.003481 0.020069
#
#
# Mechanical properties :
#
#
# Convention : Reuss Voigt Hill
#
# Bulk Modulus (GPa) = 46.12003 80.63059 63.37531
# Shear Modulus (GPa) = 31.55390 40.93309 36.24350
#
# Velocity S-wave (km/s) = 3.60885 4.11036 3.86774
# Velocity P-wave (km/s) = 6.03332 7.47039 6.78998
#
# Compressibility (1/GPa) = 0.02168255
#
# Stress axis : x y z
#
# Youngs Moduli (GPa) = 76.55773 109.01347 46.66637
#
# Poissons Ratio (x) = 0.37823 0.10645
# Poissons Ratio (y) = 0.26562 0.24453
# Poissons Ratio (z) = 0.17464 0.57124
#
# Static dielectric constant tensor:
#      x y z
#    x 1.915700 0.045980 -0.007850 
#    y 0.045980 1.978890 0.065880 
#    z -0.007850 0.065880 2.050880 
# 
# From -- ./inp_files/485224.got.cif
#   From: 2010.05.17/outbox.cif.g08.bks.cpg/sg2_243_cif.got.tgz:485224.got - 2010.06.03 11:33:40.
