data_PCOD9015576
_publ_section_title
;
Structure prediction by ZEFSAII (Michael W. Deem and Ramdas Pophale) SiO2 
 PCOD9015576
Probable space group: P -1
;
_chemical_formula_sum "Si O2"
_cell_formula_units_Z 16
_cell_length_a 12.462598
_cell_length_b 8.548846
_cell_length_c 11.206045
_cell_angle_alpha 50.076870
_cell_angle_beta 105.599833
_cell_angle_gamma 123.384934
_cell_volume 757.887056
_symmetry_space_group_name_H-M "P -1"
_symmetry_group_IT_number 2
_symmetry_cell_setting 'triclinic'
loop_
_space_group_symop_operation_xyz
x,y,z
-x,-y,-z
loop_
_atom_site_type_symbol
_atom_site_label
_atom_site_fract_x
_atom_site_fract_y
_atom_site_fract_z
Si Si1 0.352718 0.412500 0.538701
Si Si2 0.016052 0.775508 0.115726
Si Si3 0.894242 0.722590 0.614164
Si Si4 0.450368 0.925251 0.388006
Si Si5 0.231619 0.019184 0.231990
Si Si6 0.290269 0.918018 0.755675
Si Si7 0.894091 0.315173 0.413014
Si Si8 0.149678 0.408847 0.064668
O O1 0.500000 0.500000 0.500000
O O2 0.250575 0.356516 0.428950
O O3 0.363379 0.637181 0.500394
O O4 0.298774 0.149314 0.705909
O O5 0.159970 0.883614 0.155988
O O6 0.913384 0.575190 0.275025
O O7 0.971151 0.667571 0.023795
O O8 0.000000 0.000000 0.000000
O O9 0.893692 0.646840 0.785664
O O10 0.958853 0.620481 0.595708
O O11 0.000000 0.000000 0.500000
O O12 0.372900 0.053787 0.262857
O O13 0.500000 0.000000 0.500000
O O14 0.570197 0.000928 0.298767
O O15 0.160444 0.840715 0.409762
O O16 0.214309 0.247469 0.131513
O O17 0.193929 0.834839 0.652643
O O18 0.243891 0.687554 0.934909
#
# Coordination Sequence:
#
# PCOD9015576 Si02
#       8
#     2   2   2   2   2   2   2   2
#     4  10  23  43  67  96 135 170 227 274 327 400
#     4   9  21  37  56  93 131 167 204 272 344 383
#     4  12  22  41  69  99 124 176 230 267 331 395
#     4  11  23  41  70  96 127 182 230 266 328 406
#     4  11  20  39  64  93 134 172 223 273 326 400
#     4  10  21  42  63  97 132 171 217 278 335 383
#     4  11  20  37  64  92 127 172 223 273 322 388
#     4  10  23  40  66  93 137 168 217 283 335 388
#
# _framework density 21.111325000000001
#
# number of rings (size 3 to 8) (size 9 to 14) (size 15 to 20)
#    0.000    1.500    3.750    1.125    1.750    2.500 
#    0.000    2.500    5.500    0.000    0.000    0.000 
#    0.000    0.000    0.000    0.000    0.000    0.000 
#
# Total GULP energy -89255.527996 kJ/mol
# GULP energy per Si atom -5578.470500 kJ/mol
# Density = 2.106327 g / cm^3
# Si number density = 21.111325 Si / 1000 Ang^3
#
#
#
# Elastic Constant Matrix: (Units=GPa)
#
#
# Indices 1 2 3 4 5 6 
#
# 1 75.4554 14.0950 26.8192 3.9558 18.9906 17.2369
# 2 14.0950 107.1473 60.2535 -15.3157 13.2608 6.6113
# 3 26.8192 60.2535 146.2851 -17.9453 6.2287 -1.4492
# 4 3.9558 -15.3157 -17.9453 43.2849 -3.3538 16.8018
# 5 18.9906 13.2608 6.2287 -3.3538 33.3063 0.4745
# 6 17.2369 6.6113 -1.4492 16.8018 0.4745 33.7433
#
#
#
# Elastic Compliance Matrix: (Units=1/GPa)
#
#
# Indices 1 2 3 4 5 6 
#
# 1 0.019388 0.001645 -0.003820 0.000451 -0.010801 -0.010463
# 2 0.001645 0.013656 -0.005236 0.004412 -0.004868 -0.005869
# 3 -0.003820 -0.005236 0.009831 0.001817 0.002573 0.002459
# 4 0.000451 0.004412 0.001817 0.032060 0.001117 -0.016996
# 5 -0.010801 -0.004868 0.002573 0.001117 0.037674 0.005496
# 6 -0.010463 -0.005869 0.002459 -0.016996 0.005496 0.044621
#
#
# Mechanical properties :
#
#
# Convention : Reuss Voigt Hill
#
# Bulk Modulus (GPa) = 35.64847 59.02480 47.33664
# Shear Modulus (GPa) = 27.56268 37.24825 32.40546
#
# Velocity S-wave (km/s) = 3.61721 4.20500 3.92213
# Velocity P-wave (km/s) = 5.86244 7.18301 6.55606
#
# Compressibility (1/GPa) = 0.02805169
#
# Stress axis : x y z
#
# Youngs Moduli (GPa) = 51.57730 73.22618 101.72105
#
# Poissons Ratio (x) = -0.12043 0.38862
# Poissons Ratio (y) = -0.08483 0.53262
# Poissons Ratio (z) = 0.19705 0.38342
#
# Static dielectric constant tensor:
#      x y z
#    x 1.805230 -0.027640 0.054570 
#    y -0.027640 1.802680 -0.024860 
#    z 0.054570 -0.024860 1.808110 
# 
# From -- ./inp_files/418951.got.cif
#   From: 2010.05.17/outbox.cif.g08.bks.cpg/sg2_210_cif.got.tgz:418951.got - 2010.06.03 11:33:40.
