data_PCOD9015736
_publ_section_title
;
Structure prediction by ZEFSAII (Michael W. Deem and Ramdas Pophale) SiO2 
 PCOD9015736
Probable space group: P -1
;
_chemical_formula_sum "Si O2"
_cell_formula_units_Z 16
_cell_length_a 13.261670
_cell_length_b 11.859373
_cell_length_c 6.914435
_cell_angle_alpha 105.843738
_cell_angle_beta 137.753306
_cell_angle_gamma 75.595783
_cell_volume 701.522748
_symmetry_space_group_name_H-M "P -1"
_symmetry_group_IT_number 2
_symmetry_cell_setting 'triclinic'
loop_
_space_group_symop_operation_xyz
x,y,z
-x,-y,-z
loop_
_atom_site_type_symbol
_atom_site_label
_atom_site_fract_x
_atom_site_fract_y
_atom_site_fract_z
Si Si1 0.148017 0.042569 0.828464
Si Si2 0.141523 0.905206 0.113056
Si Si3 0.763651 0.575323 0.732956
Si Si4 0.819165 0.521415 0.232691
Si Si5 0.663130 0.958634 0.278619
Si Si6 0.016507 0.737181 0.113382
Si Si7 0.620773 0.716052 0.287363
Si Si8 0.287500 0.650045 0.702252
O O1 0.250821 0.072410 0.811473
O O2 0.103086 0.159523 0.939257
O O3 0.000000 0.000000 0.500000
O O4 0.200562 0.937635 0.001429
O O5 0.084438 0.778961 0.026494
O O6 0.262515 0.937179 0.456833
O O7 0.000000 0.000000 0.000000
O O8 0.644624 0.675474 0.524342
O O9 0.716900 0.458465 0.505598
O O10 0.773813 0.550772 0.962420
O O11 0.926296 0.621057 0.925041
O O12 0.739981 0.629070 0.296475
O O13 0.751337 0.406388 0.173648
O O14 0.000000 0.500000 0.500000
O O15 0.661229 0.847253 0.363747
O O16 0.500000 0.000000 0.000000
O O17 0.148170 0.731458 0.458284
O O18 0.450986 0.698819 0.968850
#
# Coordination Sequence:
#
# PCOD9015736 Si02
#       8
#     2   2   2   2   2   2   2   2
#     4  11  23  42  69  97 131 174 222 277 328 392
#     4  10  21  42  64  98 130 169 224 273 322 397
#     4  11  23  43  68  95 135 172 218 275 325 389
#     4  11  23  43  67  99 128 170 230 272 320 398
#     4  12  25  45  69  98 138 176 217 277 334 391
#     4  11  21  41  69  97 133 171 225 271 331 393
#     4  11  26  42  68  95 137 179 212 270 340 384
#     4  11  25  44  63 100 136 171 217 274 328 391
#
# _framework density 22.807528000000001
#
# number of rings (size 3 to 8) (size 9 to 14) (size 15 to 20)
#    0.000    1.000    3.750    4.875    1.750    2.500 
#    2.250    1.250    0.000    0.000    0.000    0.000 
#    0.000    0.000    0.000    0.000    0.000    0.000 
#
# Total GULP energy -89467.698056 kJ/mol
# GULP energy per Si atom -5591.731129 kJ/mol
# Density = 2.275562 g / cm^3
# Si number density = 22.807528 Si / 1000 Ang^3
#
#
#
# Elastic Constant Matrix: (Units=GPa)
#
#
# Indices 1 2 3 4 5 6 
#
# 1 57.4948 16.3729 33.0155 -5.8020 1.4192 17.0899
# 2 16.3729 67.4698 12.1637 -7.9736 -8.4799 26.4190
# 3 33.0155 12.1637 134.7058 -16.6762 0.2949 13.5917
# 4 -5.8020 -7.9736 -16.6762 42.8165 14.0087 -4.8128
# 5 1.4192 -8.4799 0.2949 14.0087 50.4036 -10.1345
# 6 17.0899 26.4190 13.5917 -4.8128 -10.1345 30.5397
#
#
#
# Elastic Compliance Matrix: (Units=1/GPa)
#
#
# Indices 1 2 3 4 5 6 
#
# 1 0.023827 -0.000685 -0.004442 0.001181 -0.003445 -0.011721
# 2 -0.000685 0.022638 0.000352 0.002324 -0.000684 -0.019217
# 3 -0.004442 0.000352 0.009045 0.003150 -0.001088 -0.001709
# 4 0.001181 0.002324 0.003150 0.027452 -0.007757 -0.002321
# 5 -0.003445 -0.000684 -0.001088 -0.007757 0.023940 0.009725
# 6 -0.011721 -0.019217 -0.001709 -0.002321 0.009725 0.059550
#
#
# Mechanical properties :
#
#
# Convention : Reuss Voigt Hill
#
# Bulk Modulus (GPa) = 21.75798 42.53052 32.14425
# Shear Modulus (GPa) = 26.13409 37.95986 32.04697
#
# Velocity S-wave (km/s) = 3.38872 4.08408 3.75254
# Velocity P-wave (km/s) = 4.98716 6.39747 5.73583
#
# Compressibility (1/GPa) = 0.04596016
#
# Stress axis : x y z
#
# Youngs Moduli (GPa) = 41.96984 44.17394 110.55537
#
# Poissons Ratio (x) = 0.03027 0.49103
# Poissons Ratio (y) = 0.02876 -0.03891
# Poissons Ratio (z) = 0.18641 -0.01555
#
# Static dielectric constant tensor:
#      x y z
#    x 1.838030 -0.009870 -0.004590 
#    y -0.009870 1.906310 -0.033230 
#    z -0.004590 -0.033230 1.826640 
# 
# From -- ./inp_files/76227.got.cif
#   From: 2010.05.17/outbox.cif.g08.bks.cpg/sg2_39_cif.got.tgz:76227.got - 2010.06.03 11:33:40.
