data_PCOD9015732
_publ_section_title
;
Structure prediction by ZEFSAII (Michael W. Deem and Ramdas Pophale) SiO2 
 PCOD9015732
Probable space group: P -1
;
_chemical_formula_sum "Si O2"
_cell_formula_units_Z 12
_cell_length_a 10.890351
_cell_length_b 14.029456
_cell_length_c 16.540701
_cell_angle_alpha 157.066280
_cell_angle_beta 145.041142
_cell_angle_gamma 32.136330
_cell_volume 514.123687
_symmetry_space_group_name_H-M "P -1"
_symmetry_group_IT_number 2
_symmetry_cell_setting 'triclinic'
loop_
_space_group_symop_operation_xyz
x,y,z
-x,-y,-z
loop_
_atom_site_type_symbol
_atom_site_label
_atom_site_fract_x
_atom_site_fract_y
_atom_site_fract_z
Si Si1 0.970200 0.938930 0.802669
Si Si2 0.830428 0.390719 0.779165
Si Si3 0.296490 0.491536 0.940803
Si Si4 0.351408 0.999794 0.173958
Si Si5 0.338108 0.560361 0.594728
Si Si6 0.012659 0.800195 0.467782
O O1 0.114768 0.675649 0.624170
O O2 0.156728 0.986545 0.998530
O O3 0.767492 0.936814 0.751079
O O4 0.865456 0.196953 0.888417
O O5 0.557862 0.590585 0.778267
O O6 0.914404 0.310000 0.669283
O O7 0.862361 0.116565 0.627274
O O8 0.000000 0.500000 0.000000
O O9 0.142990 0.355501 0.707456
O O10 0.428710 0.287622 0.924675
O O11 0.500000 0.500000 0.000000
O O12 0.415346 0.244295 0.375542
O O13 0.240368 0.720265 0.584377
#
# Coordination Sequence:
#
# PCOD9015732 Si02
#       6
#     2   2   2   2   2   2
#     4  10  23  38  66 103 135 174 216 266 332 397
#     4  11  28  47  68  94 131 179 228 279 332 392
#     4  10  21  43  69  96 137 178 210 268 334 397
#     4  10  21  42  64  97 142 175 211 268 330 395
#     4  12  24  42  71  99 131 174 226 279 327 394
#     4  11  25  46  68  99 134 172 227 274 334 394
#
# _framework density 23.340686999999999
#
# number of rings (size 3 to 8) (size 9 to 14) (size 15 to 20)
#    0.000    1.333    3.333    1.000    4.667    0.667 
#    0.000    1.667    0.000    0.000    0.000    0.000 
#    0.000    0.000    0.000    0.000    0.000    0.000 
#
# Total GULP energy -67121.432681 kJ/mol
# GULP energy per Si atom -5593.452723 kJ/mol
# Density = 2.328756 g / cm^3
# Si number density = 23.340687 Si / 1000 Ang^3
#
#
#
# Elastic Constant Matrix: (Units=GPa)
#
#
# Indices 1 2 3 4 5 6 
#
# 1 62.4782 26.6107 15.8437 -8.2311 -6.7457 5.6146
# 2 26.6107 181.5624 33.3352 -1.6556 -0.4665 11.5848
# 3 15.8437 33.3352 58.7729 -0.8291 10.6849 10.5136
# 4 -8.2311 -1.6556 -0.8291 41.0261 1.6221 -0.8791
# 5 -6.7457 -0.4665 10.6849 1.6221 27.4989 -9.5364
# 6 5.6146 11.5848 10.5136 -0.8791 -9.5364 27.4511
#
#
#
# Elastic Compliance Matrix: (Units=1/GPa)
#
#
# Indices 1 2 3 4 5 6 
#
# 1 0.019340 -0.001834 -0.005758 0.003436 0.007330 0.001680
# 2 -0.001834 0.006400 -0.003057 -0.000213 0.000519 -0.000981
# 3 -0.005758 -0.003057 0.025441 -0.000415 -0.015750 -0.012761
# 4 0.003436 -0.000213 -0.000415 0.025068 -0.000406 0.000208
# 5 0.007330 0.000519 -0.015750 -0.000406 0.052082 0.022394
# 6 0.001680 -0.000981 -0.012761 0.000208 0.022394 0.049173
#
#
# Mechanical properties :
#
#
# Convention : Reuss Voigt Hill
#
# Bulk Modulus (GPa) = 33.46487 50.48807 41.97647
# Shear Modulus (GPa) = 23.95058 34.33015 29.14037
#
# Velocity S-wave (km/s) = 3.20680 3.83930 3.53722
# Velocity P-wave (km/s) = 5.29907 6.42896 5.89116
#
# Compressibility (1/GPa) = 0.02988208
#
# Stress axis : x y z
#
# Youngs Moduli (GPa) = 51.70580 156.25171 39.30652
#
# Poissons Ratio (x) = 0.28664 0.22632
# Poissons Ratio (y) = 0.09485 0.12017
# Poissons Ratio (z) = 0.29772 0.47769
#
# Static dielectric constant tensor:
#      x y z
#    x 1.900270 0.000640 0.013570 
#    y 0.000640 1.886320 -0.005200 
#    z 0.013570 -0.005200 1.833890 
# 
# From -- ./inp_files/26582.got.cif
#   From: 2010.05.17/outbox.cif.g08.bks.cpg/sg2_14_cif.got.tgz:26582.got - 2010.06.03 11:33:40.
