data_PCOD9015852
_publ_section_title
;
Structure prediction by ZEFSAII (Michael W. Deem and Ramdas Pophale) SiO2 
 PCOD9015852
Probable space group: P -1
;
_chemical_formula_sum "Si O2"
_cell_formula_units_Z 16
_cell_length_a 26.963113
_cell_length_b 8.758073
_cell_length_c 7.490729
_cell_angle_alpha 127.750662
_cell_angle_beta 142.608311
_cell_angle_gamma 41.294418
_cell_volume 708.366730
_symmetry_space_group_name_H-M "P -1"
_symmetry_group_IT_number 2
_symmetry_cell_setting 'triclinic'
loop_
_space_group_symop_operation_xyz
x,y,z
-x,-y,-z
loop_
_atom_site_type_symbol
_atom_site_label
_atom_site_fract_x
_atom_site_fract_y
_atom_site_fract_z
Si Si1 0.390841 0.083874 0.792889
Si Si2 0.847457 0.759760 0.169834
Si Si3 0.201785 0.749292 0.234865
Si Si4 0.733331 0.736763 0.108971
Si Si5 0.766896 0.385499 0.371170
Si Si6 0.021914 0.768029 0.697651
Si Si7 0.078613 0.557305 0.328353
Si Si8 0.259763 0.926259 0.208877
O O1 0.364177 0.114933 0.949936
O O2 0.315841 0.342592 0.689387
O O3 0.358831 0.918954 0.503766
O O4 0.500000 0.000000 0.000000
O O5 0.750456 0.855103 0.076548
O O6 0.914271 0.485006 0.203117
O O7 0.911421 0.857077 0.488029
O O8 0.818079 0.827783 0.930838
O O9 0.237720 0.686294 0.493262
O O10 0.247379 0.503144 0.084306
O O11 0.231039 0.886936 0.292566
O O12 0.083647 0.877176 0.990559
O O13 0.825097 0.652807 0.445368
O O14 0.871848 0.350296 0.597315
O O15 0.743400 0.250537 0.062312
O O16 0.027691 0.733202 0.475307
O O17 0.000000 0.500000 0.000000
#
# Coordination Sequence:
#
# PCOD9015852 Si02
#       8
#     2   2   2   2   2   2   2   2
#     4  11  25  47  75  96 125 174 221 279 350 408
#     4   9  20  34  63  93 129 179 219 263 318 383
#     4  10  21  42  65  93 145 177 212 275 325 384
#     4   9  20  41  63  94 134 171 220 272 333 389
#     4  11  24  46  66  99 141 175 217 282 333 383
#     4   9  18  37  57  93 137 180 227 260 310 387
#     4   9  18  31  62  92 128 184 219 257 321 376
#     4  12  24  44  68  99 132 175 220 280 336 397
#
# _framework density 22.58717
#
# number of rings (size 3 to 8) (size 9 to 14) (size 15 to 20)
#    0.000    2.250    3.750    1.500   12.250    1.000 
#    0.000    3.750    0.000    0.000    0.000    0.000 
#    0.000    0.000    0.000    0.000    0.000    0.000 
#
# Total GULP energy -89409.189644 kJ/mol
# GULP energy per Si atom -5588.074353 kJ/mol
# Density = 2.253576 g / cm^3
# Si number density = 22.587170 Si / 1000 Ang^3
#
#
#
# Elastic Constant Matrix: (Units=GPa)
#
#
# Indices 1 2 3 4 5 6 
#
# 1 178.1310 56.3781 75.5867 -1.6064 13.9304 24.9660
# 2 56.3781 57.8197 47.3401 10.7483 4.9671 2.3658
# 3 75.5867 47.3401 134.3314 24.0994 24.9090 2.9509
# 4 -1.6064 10.7483 24.0994 30.3359 -9.2324 -2.3623
# 5 13.9304 4.9671 24.9090 -9.2324 50.2277 -5.6128
# 6 24.9660 2.3658 2.9509 -2.3623 -5.6128 39.5001
#
#
#
# Elastic Compliance Matrix: (Units=1/GPa)
#
#
# Indices 1 2 3 4 5 6 
#
# 1 0.010823 -0.007956 -0.004484 0.006713 0.000624 -0.005539
# 2 -0.007956 0.030400 -0.005376 -0.006329 0.001081 0.003385
# 3 -0.004484 -0.005376 0.015899 -0.013591 -0.008615 -0.000068
# 4 0.006713 -0.006329 -0.013591 0.051161 0.015172 0.002367
# 5 0.000624 0.001081 -0.008615 0.015172 0.027245 0.004963
# 6 -0.005539 0.003385 -0.000068 0.002367 0.004963 0.029466
#
#
# Mechanical properties :
#
#
# Convention : Reuss Voigt Hill
#
# Bulk Modulus (GPa) = 46.53556 80.98800 63.76178
# Shear Modulus (GPa) = 24.06272 36.74457 30.40365
#
# Velocity S-wave (km/s) = 3.26748 4.03772 3.67285
# Velocity P-wave (km/s) = 5.90615 7.59416 6.80271
#
# Compressibility (1/GPa) = 0.02148894
#
# Stress axis : x y z
#
# Youngs Moduli (GPa) = 92.39613 32.89518 62.89571
#
# Poissons Ratio (x) = 0.26173 0.28205
# Poissons Ratio (y) = 0.73514 0.33811
# Poissons Ratio (z) = 0.41435 0.17683
#
# Static dielectric constant tensor:
#      x y z
#    x 1.896270 -0.001860 -0.019350 
#    y -0.001860 1.917110 0.074000 
#    z -0.019350 0.074000 1.845010 
# 
# From -- ./inp_files/356568.got.cif
#   From: 2010.05.17/outbox.cif.g08.bks.cpg/sg2_179_cif.got.tgz:356568.got - 2010.06.03 11:33:40.
