data_PCOD9015566
_publ_section_title
;
Structure prediction by ZEFSAII (Michael W. Deem and Ramdas Pophale) SiO2 
 PCOD9015566
Probable space group: P -1
;
_chemical_formula_sum "Si O2"
_cell_formula_units_Z 12
_cell_length_a 8.751664
_cell_length_b 11.555478
_cell_length_c 13.820630
_cell_angle_alpha 148.629295
_cell_angle_beta 136.602720
_cell_angle_gamma 50.320001
_cell_volume 499.253351
_symmetry_space_group_name_H-M "P -1"
_symmetry_group_IT_number 2
_symmetry_cell_setting 'triclinic'
loop_
_space_group_symop_operation_xyz
x,y,z
-x,-y,-z
loop_
_atom_site_type_symbol
_atom_site_label
_atom_site_fract_x
_atom_site_fract_y
_atom_site_fract_z
Si Si1 0.523417 0.596841 0.371749
Si Si2 0.104242 0.240241 0.225550
Si Si3 0.495330 0.192773 0.215495
Si Si4 0.698750 0.329752 0.003493
Si Si5 0.181208 0.475296 0.982165
Si Si6 0.328346 0.012815 0.665718
O O1 0.766389 0.692792 0.570091
O O2 0.521298 0.418089 0.329665
O O3 0.424523 0.477175 0.147997
O O4 0.344891 0.806422 0.453120
O O5 0.277962 0.234556 0.212324
O O6 0.885220 0.397449 0.213484
O O7 0.000000 0.000000 0.000000
O O8 0.674451 0.103582 0.313875
O O9 0.500000 0.000000 0.000000
O O10 0.833034 0.325169 0.959670
O O11 0.566625 0.121077 0.829908
O O12 0.500000 0.500000 0.000000
O O13 0.165456 0.232862 0.749991
O O14 0.000000 0.500000 0.000000
#
# Coordination Sequence:
#
# PCOD9015566 Si02
#       6
#     2   2   2   2   2   2
#     4  11  23  41  72  99 133 180 232 274 345 402
#     4  11  21  42  70  96 134 180 225 280 333 402
#     4  11  21  39  68  97 134 168 232 282 325 394
#     4  10  22  42  67  95 142 175 213 288 338 393
#     4  11  24  42  67  99 140 177 227 279 340 407
#     4  10  21  42  63  95 137 174 224 279 332 400
#
# _framework density 24.035893000000002
#
# number of rings (size 3 to 8) (size 9 to 14) (size 15 to 20)
#    0.000    1.333    5.000    3.000    0.000    1.333 
#    0.000    9.167    0.000    0.000    0.000    0.000 
#    0.000    0.000    0.000    0.000    0.000    0.000 
#
# Total GULP energy -66829.868639 kJ/mol
# GULP energy per Si atom -5569.155720 kJ/mol
# Density = 2.398119 g / cm^3
# Si number density = 24.035893 Si / 1000 Ang^3
#
#
#
# Elastic Constant Matrix: (Units=GPa)
#
#
# Indices 1 2 3 4 5 6 
#
# 1 56.3279 3.6801 22.0839 3.7120 -9.8738 -6.5346
# 2 3.6801 77.7235 38.7163 -9.2279 5.9499 -1.0329
# 3 22.0839 38.7163 113.0716 3.4438 -4.8518 -0.6972
# 4 3.7120 -9.2279 3.4438 51.7915 -7.9113 1.8967
# 5 -9.8738 5.9499 -4.8518 -7.9113 26.3506 -1.0807
# 6 -6.5346 -1.0329 -0.6972 1.8967 -1.0807 46.9309
#
#
#
# Elastic Compliance Matrix: (Units=1/GPa)
#
#
# Indices 1 2 3 4 5 6 
#
# 1 0.020853 0.000428 -0.003892 -0.000191 0.007068 0.003026
# 2 0.000428 0.016428 -0.005954 0.002702 -0.003828 0.000135
# 3 -0.003892 -0.005954 0.011750 -0.001297 0.001644 -0.000408
# 4 -0.000191 0.002702 -0.001297 0.020721 0.005272 -0.000702
# 5 0.007068 -0.003828 0.001644 0.005272 0.043418 0.001711
# 6 0.003026 0.000135 -0.000408 -0.000702 0.001711 0.021794
#
#
# Mechanical properties :
#
#
# Convention : Reuss Voigt Hill
#
# Bulk Modulus (GPa) = 33.11796 41.78708 37.45252
# Shear Modulus (GPa) = 30.51292 37.19078 33.85185
#
# Velocity S-wave (km/s) = 3.56683 3.93784 3.75692
# Velocity P-wave (km/s) = 5.54721 6.17240 5.86813
#
# Compressibility (1/GPa) = 0.03019510
#
# Stress axis : x y z
#
# Youngs Moduli (GPa) = 47.95364 60.87338 85.10449
#
# Poissons Ratio (x) = -0.02603 0.33119
# Poissons Ratio (y) = -0.02051 0.50672
# Poissons Ratio (z) = 0.18661 0.36245
#
# Static dielectric constant tensor:
#      x y z
#    x 2.024660 -0.072110 0.022370 
#    y -0.072110 2.050240 0.017000 
#    z 0.022370 0.017000 1.962110 
# 
# From -- ./inp_files/294697.got.cif
#   From: 2010.05.17/outbox.cif.g08.bks.cpg/sg2_148_cif.got.tgz:294697.got - 2010.06.03 11:33:40.
