data_PCOD9015740
_publ_section_title
;
Structure prediction by ZEFSAII (Michael W. Deem and Ramdas Pophale) SiO2 
 PCOD9015740
Probable space group: P -1
;
_chemical_formula_sum "Si O2"
_cell_formula_units_Z 16
_cell_length_a 9.493971
_cell_length_b 20.852813
_cell_length_c 5.340335
_cell_angle_alpha 74.760490
_cell_angle_beta 95.702914
_cell_angle_gamma 44.667686
_cell_volume 650.089427
_symmetry_space_group_name_H-M "P -1"
_symmetry_group_IT_number 2
_symmetry_cell_setting 'triclinic'
loop_
_space_group_symop_operation_xyz
x,y,z
-x,-y,-z
loop_
_atom_site_type_symbol
_atom_site_label
_atom_site_fract_x
_atom_site_fract_y
_atom_site_fract_z
Si Si1 0.069281 0.922968 0.302064
Si Si2 0.560806 0.281552 0.719683
Si Si3 0.847010 0.607910 0.721557
Si Si4 0.534355 0.181531 0.230497
Si Si5 0.806217 0.809924 0.876366
Si Si6 0.248375 0.088063 0.757625
Si Si7 0.845497 0.396413 0.138416
Si Si8 0.438395 0.582333 0.578910
O O1 0.271626 0.801036 0.383540
O O2 0.218521 0.916987 0.515701
O O3 0.870287 0.940796 0.275863
O O4 0.000000 0.000000 0.000000
O O5 0.298601 0.374787 0.528759
O O6 0.612696 0.339422 0.696318
O O7 0.588950 0.215399 0.995070
O O8 0.654992 0.714205 0.740415
O O9 0.002093 0.611589 0.656547
O O10 0.000000 0.500000 0.000000
O O11 0.410634 0.158559 0.151382
O O12 0.763841 0.868746 0.555327
O O13 0.005408 0.688583 0.965573
O O14 0.861513 0.833366 0.106292
O O15 0.500000 0.000000 0.000000
O O16 0.748827 0.371952 0.309207
O O17 0.652123 0.511843 0.870448
O O18 0.500000 0.500000 0.500000
#
# Coordination Sequence:
#
# PCOD9015740 Si02
#       8
#     2   2   2   2   2   2   2   2
#     4  11  27  49  76 106 146 196 249 316 384 458
#     4  11  25  44  70 104 143 191 248 309 374 450
#     4  10  21  42  64  98 137 190 245 299 361 437
#     4  10  26  44  74 104 147 194 251 309 378 454
#     4  11  27  49  76 110 152 196 253 315 383 457
#     4  12  28  50  80 111 151 195 256 320 391 457
#     4  10  24  43  66 101 143 197 245 304 367 449
#     4  11  25  40  68 103 148 192 248 305 370 448
#
# _framework density 24.611998
#
# number of rings (size 3 to 8) (size 9 to 14) (size 15 to 20)
#    0.000    1.250    1.250    1.875   14.000    3.000 
#    0.000    0.000    0.000    0.000    0.000    0.000 
#    0.000    0.000    0.000    0.000    0.000    0.000 
#
# Total GULP energy -89316.726721 kJ/mol
# GULP energy per Si atom -5582.295420 kJ/mol
# Density = 2.455598 g / cm^3
# Si number density = 24.611998 Si / 1000 Ang^3
#
#
#
# Elastic Constant Matrix: (Units=GPa)
#
#
# Indices 1 2 3 4 5 6 
#
# 1 199.9853 49.8643 52.5019 -3.2935 1.8233 0.2461
# 2 49.8643 59.3546 5.6262 -6.8607 11.3135 -4.7167
# 3 52.5019 5.6262 113.4219 -11.5961 2.0860 -5.3233
# 4 -3.2935 -6.8607 -11.5961 35.3419 -8.8999 8.6190
# 5 1.8233 11.3135 2.0860 -8.8999 41.2481 -10.5245
# 6 0.2461 -4.7167 -5.3233 8.6190 -10.5245 43.4683
#
#
#
# Elastic Compliance Matrix: (Units=1/GPa)
#
#
# Indices 1 2 3 4 5 6 
#
# 1 0.007410 -0.006319 -0.003286 -0.001172 0.001162 -0.000617
# 2 -0.006319 0.023398 0.002225 0.003110 -0.005341 0.000937
# 3 -0.003286 0.002225 0.010615 0.003383 -0.000048 0.000878
# 4 -0.001172 0.003110 0.003383 0.032205 0.004840 -0.004456
# 5 0.001162 -0.005341 -0.000048 0.004840 0.028040 0.005237
# 6 -0.000617 0.000937 0.000878 -0.004456 0.005237 0.025370
#
#
# Mechanical properties :
#
#
# Convention : Reuss Voigt Hill
#
# Bulk Modulus (GPa) = 37.50838 65.41628 51.46233
# Shear Modulus (GPa) = 33.18152 41.66296 37.42224
#
# Velocity S-wave (km/s) = 3.67575 4.11882 3.90357
# Velocity P-wave (km/s) = 5.76956 7.01828 6.42433
#
# Compressibility (1/GPa) = 0.02666071
#
# Stress axis : x y z
#
# Youngs Moduli (GPa) = 134.95841 42.73902 94.20205
#
# Poissons Ratio (x) = 0.27008 0.30960
# Poissons Ratio (y) = 0.85284 -0.20957
# Poissons Ratio (z) = 0.44354 -0.09508
#
# Static dielectric constant tensor:
#      x y z
#    x 1.954920 -0.014610 0.053590 
#    y -0.014610 2.031370 0.044090 
#    z 0.053590 0.044090 2.052520 
# 
# From -- ./inp_files/46304.got.cif
#   From: 2010.05.17/outbox.cif.g08.bks.cpg/sg2_24_cif.got.tgz:46304.got - 2010.06.03 11:33:40.
