data_PCOD9015998
_publ_section_title
;
Structure prediction by ZEFSAII (Michael W. Deem and Ramdas Pophale) SiO2 
 PCOD9015998
Probable space group: P -1
;
_chemical_formula_sum "Si O2"
_cell_formula_units_Z 16
_cell_length_a 15.395161
_cell_length_b 15.338974
_cell_length_c 24.181818
_cell_angle_alpha 26.446805
_cell_angle_beta 20.159347
_cell_angle_gamma 27.322978
_cell_volume 832.640417
_symmetry_space_group_name_H-M "P -1"
_symmetry_group_IT_number 2
_symmetry_cell_setting 'triclinic'
loop_
_space_group_symop_operation_xyz
x,y,z
-x,-y,-z
loop_
_atom_site_type_symbol
_atom_site_label
_atom_site_fract_x
_atom_site_fract_y
_atom_site_fract_z
Si Si1 0.804738 0.726876 0.498632
Si Si2 0.033250 0.111775 0.470829
Si Si3 0.581565 0.892192 0.327273
Si Si4 0.098139 0.060873 0.158942
Si Si5 0.411357 0.799082 0.221816
Si Si6 0.535561 0.334465 0.366043
Si Si7 0.898598 0.458833 0.816562
Si Si8 0.450516 0.334459 0.196713
O O1 0.594912 0.740278 0.567138
O O2 0.678312 0.717134 0.640697
O O3 0.000000 0.500000 0.500000
O O4 0.967524 0.893611 0.305320
O O5 0.787396 0.165429 0.628683
O O6 0.047051 0.332926 0.319494
O O7 0.000000 0.000000 0.500000
O O8 0.300867 0.964050 0.422801
O O9 0.542016 0.780609 0.470385
O O10 0.838477 0.737195 0.232597
O O11 0.603799 0.116035 0.200632
O O12 0.847637 0.252872 0.215004
O O13 0.246021 0.954045 0.186254
O O14 0.324864 0.145055 0.949290
O O15 0.459720 0.574260 0.292452
O O16 0.764357 0.519001 0.800806
O O17 0.683584 0.435133 0.002688
#
# Coordination Sequence:
#
# PCOD9015998 Si02
#       8
#     2   2   2   2   2   2   2   2
#     4  12  23  39  64 100 134 163 211 261 318 374
#     4  11  24  43  64  91 122 165 216 265 307 372
#     4  11  21  40  69  87 123 167 211 251 330 373
#     4  11  23  42  64  94 129 172 208 262 312 385
#     4  11  23  44  66  90 130 170 214 257 326 376
#     4  12  22  41  69  93 127 173 208 261 321 386
#     4  10  21  42  66  89 125 167 207 259 315 367
#     4  10  22  40  63  95 127 163 206 256 314 377
#
# _framework density 19.215978
#
# number of rings (size 3 to 8) (size 9 to 14) (size 15 to 20)
#    0.000    1.000    5.000    2.625    0.000    1.500 
#    2.250    1.250    0.000    0.000    0.000    0.000 
#    0.000    0.000    0.000    0.000    0.000    0.000 
#
# Total GULP energy -89169.960717 kJ/mol
# GULP energy per Si atom -5573.122545 kJ/mol
# Density = 1.917224 g / cm^3
# Si number density = 19.215978 Si / 1000 Ang^3
#
#
#
# Elastic Constant Matrix: (Units=GPa)
#
#
# Indices 1 2 3 4 5 6 
#
# 1 121.8387 -32.5189 32.0022 -32.9681 -82.2911 30.3823
# 2 -32.5189 161.0323 43.2256 43.8529 38.2108 -6.8425
# 3 32.0022 43.2256 124.1445 -17.6058 -39.1932 20.3939
# 4 -32.9681 43.8529 -17.6058 -1.1513 -16.4796 17.3515
# 5 -82.2911 38.2108 -39.1932 -16.4796 41.9515 7.4699
# 6 30.3823 -6.8425 20.3939 17.3515 7.4699 11.5630
#
#
#
# Elastic Compliance Matrix: (Units=1/GPa)
#
#
# Indices 1 2 3 4 5 6 
#
# 1 0.010280 0.005999 -0.005482 -0.012442 0.004320 0.002086
# 2 0.005999 0.007461 -0.002256 -0.001867 0.003325 -0.006714
# 3 -0.005482 -0.002256 0.008912 -0.002596 -0.001824 0.002425
# 4 -0.012442 -0.001867 -0.002596 0.020678 -0.020251 0.018217
# 5 0.004320 0.003325 -0.001824 -0.020251 0.017302 0.013043
# 6 0.002086 -0.006714 0.002425 0.018217 0.013043 0.036989
#
#
# Mechanical properties :
#
#
# Convention : Reuss Voigt Hill
#
# Bulk Modulus (GPa) = 43.15141 54.71482 48.93311
# Shear Modulus (GPa) = 44.31668 34.75975 39.53821
#
# Velocity S-wave (km/s) = 4.80754 4.25773 4.54097
# Velocity P-wave (km/s) = 7.30215 7.25992 7.28106
#
# Compressibility (1/GPa) = 0.02317422
#
# Stress axis : x y z
#
# Youngs Moduli (GPa) = 97.27696 134.02608 112.21284
#
# Poissons Ratio (x) = -0.80402 0.61514
# Poissons Ratio (y) = -0.58357 0.25320
# Poissons Ratio (z) = 0.53326 0.30242
#
# Static dielectric constant tensor:
#      x y z
#    x 1.665730 -0.019310 -0.010660 
#    y -0.019310 1.661230 -0.031220 
#    z -0.010660 -0.031220 1.612030 
# 
# From -- ./inp_files/458397.got.cif
#   From: 2010.05.17/outbox.cif.g08.bks.cpg/sg2_230_cif.got.tgz:458397.got - 2010.06.03 11:33:40.
