data_PCOD9015675
_publ_section_title
;
Structure prediction by ZEFSAII (Michael W. Deem and Ramdas Pophale) SiO2 
 PCOD9015675
Probable space group: P -1
;
_chemical_formula_sum "Si O2"
_cell_formula_units_Z 12
_cell_length_a 7.765209
_cell_length_b 9.306829
_cell_length_c 14.032782
_cell_angle_alpha 125.318976
_cell_angle_beta 137.736584
_cell_angle_gamma 78.819427
_cell_volume 503.408835
_symmetry_space_group_name_H-M "P -1"
_symmetry_group_IT_number 2
_symmetry_cell_setting 'triclinic'
loop_
_space_group_symop_operation_xyz
x,y,z
-x,-y,-z
loop_
_atom_site_type_symbol
_atom_site_label
_atom_site_fract_x
_atom_site_fract_y
_atom_site_fract_z
Si Si1 0.682148 0.477534 0.381138
Si Si2 0.748100 0.985974 0.300685
Si Si3 0.874615 0.402998 0.610626
Si Si4 0.939544 0.342697 0.830284
Si Si5 0.386446 0.171912 0.620174
Si Si6 0.509296 0.719728 0.947590
O O1 0.683978 0.475097 0.494425
O O2 0.629314 0.648443 0.374344
O O3 0.485098 0.287461 0.167681
O O4 0.000000 0.500000 0.500000
O O5 0.596154 0.820699 0.254785
O O6 0.796798 0.190206 0.448560
O O7 0.572945 0.917542 0.105868
O O8 0.065180 0.010060 0.416673
O O9 0.842377 0.387250 0.704806
O O10 0.203289 0.554443 0.788337
O O11 0.667024 0.159985 0.691827
O O12 0.235837 0.331322 0.935162
O O13 0.000000 0.500000 0.000000
#
# Coordination Sequence:
#
# PCOD9015675 Si02
#       6
#     2   2   2   2   2   2
#     4  10  21  42  64  93 132 165 211 262 323 377
#     4  11  23  41  70  94 125 169 225 259 311 381
#     4  11  24  44  66  97 130 170 212 264 320 383
#     4  12  22  39  69  95 131 166 216 266 315 380
#     4  11  22  40  62 101 124 166 213 266 323 362
#     4  11  23  40  67  96 128 168 221 255 316 383
#
# _framework density 23.837485000000001
#
# number of rings (size 3 to 8) (size 9 to 14) (size 15 to 20)
#    0.000    1.000    5.000    3.500    0.000    4.000 
#    0.000    0.000    0.000    2.000    0.000    0.000 
#    0.000    0.000    0.000    0.000    0.000    0.000 
#
# Total GULP energy -66898.826107 kJ/mol
# GULP energy per Si atom -5574.902176 kJ/mol
# Density = 2.378323 g / cm^3
# Si number density = 23.837485 Si / 1000 Ang^3
#
#
#
# Elastic Constant Matrix: (Units=GPa)
#
#
# Indices 1 2 3 4 5 6 
#
# 1 111.1594 33.0175 35.8024 -6.0978 -0.4296 37.2010
# 2 33.0175 96.4335 39.5603 -23.4083 -0.7999 6.4023
# 3 35.8024 39.5603 174.5260 -19.2482 -26.6529 19.8571
# 4 -6.0978 -23.4083 -19.2482 43.9627 5.8064 -10.0202
# 5 -0.4296 -0.7999 -26.6529 5.8064 32.1334 -2.1699
# 6 37.2010 6.4023 19.8571 -10.0202 -2.1699 33.2085
#
#
#
# Elastic Compliance Matrix: (Units=1/GPa)
#
#
# Indices 1 2 3 4 5 6 
#
# 1 0.016988 -0.005486 -0.000772 -0.005140 -0.000912 -0.019122
# 2 -0.005486 0.014737 -0.002569 0.007938 -0.002796 0.007052
# 3 -0.000772 -0.002569 0.007767 0.000497 0.006094 -0.002736
# 4 -0.005140 0.007938 0.000497 0.029899 -0.004004 0.012691
# 5 -0.000912 -0.002796 0.006094 -0.004004 0.036756 -0.000889
# 6 -0.019122 0.007052 -0.002736 0.012691 -0.000889 0.055581
#
#
# Mechanical properties :
#
#
# Convention : Reuss Voigt Hill
#
# Bulk Modulus (GPa) = 45.78951 66.54213 56.16582
# Shear Modulus (GPa) = 26.78632 40.11018 33.44825
#
# Velocity S-wave (km/s) = 3.35581 4.10646 3.74997
# Velocity P-wave (km/s) = 5.85372 7.10349 6.50867
#
# Compressibility (1/GPa) = 0.02183906
#
# Stress axis : x y z
#
# Youngs Moduli (GPa) = 58.86521 67.85454 128.74510
#
# Poissons Ratio (x) = 0.37222 0.09941
# Poissons Ratio (y) = 0.32291 0.33076
# Poissons Ratio (z) = 0.04545 0.17433
#
# Static dielectric constant tensor:
#      x y z
#    x 1.964600 -0.001490 -0.074940 
#    y -0.001490 2.008940 0.017700 
#    z -0.074940 0.017700 1.984840 
# 
# From -- ./inp_files/374886.got.cif
#   From: 2010.05.17/outbox.cif.g08.bks.cpg/sg2_188_cif.got.tgz:374886.got - 2010.06.03 11:33:40.
