data_PCOD9015955
_publ_section_title
;
Structure prediction by ZEFSAII (Michael W. Deem and Ramdas Pophale) SiO2 
 PCOD9015955
Probable space group: P -1
;
_chemical_formula_sum "Si O2"
_cell_formula_units_Z 15
_cell_length_a 13.002983
_cell_length_b 5.501426
_cell_length_c 13.791660
_cell_angle_alpha 114.389505
_cell_angle_beta 46.065007
_cell_angle_gamma 114.435354
_cell_volume 634.788101
_symmetry_space_group_name_H-M "P -1"
_symmetry_group_IT_number 2
_symmetry_cell_setting 'triclinic'
loop_
_space_group_symop_operation_xyz
x,y,z
-x,-y,-z
loop_
_atom_site_type_symbol
_atom_site_label
_atom_site_fract_x
_atom_site_fract_y
_atom_site_fract_z
Si Si1 0.426043 0.262927 0.582820
Si Si2 0.298667 0.858761 0.205113
Si Si3 0.868617 0.605965 0.886487
Si Si4 0.092958 0.034622 0.731431
Si Si5 0.620601 0.862276 0.988404
Si Si6 0.000000 0.500000 0.000000
Si Si7 0.928734 0.178459 0.501375
Si Si8 0.285947 0.596742 0.867721
O O1 0.500000 0.500000 0.500000
O O2 0.263156 0.137824 0.637358
O O3 0.398937 0.424565 0.725544
O O4 0.500000 0.000000 0.500000
O O5 0.173388 0.669559 0.192542
O O6 0.449122 0.746435 0.093509
O O7 0.234971 0.865508 0.355050
O O8 0.339806 0.117467 0.148580
O O9 0.740946 0.749689 0.952004
O O10 0.848373 0.589986 0.013591
O O11 0.028502 0.756367 0.783101
O O12 0.018739 0.253062 0.870329
O O13 0.052729 0.955746 0.635201
O O14 0.639000 0.169770 0.071039
O O15 0.173069 0.680754 0.880331
O O16 0.000000 0.500000 0.500000
O O17 0.000000 0.000000 0.500000
#
# Coordination Sequence:
#
# PCOD9015955 Si02
#       8
#     2   2   2   2   2   1   2   2
#     4  11  29  50  70 104 147 190 244 297 368 439
#     4  10  23  40  65 102 140 188 232 288 358 433
#     4  11  21  41  70 103 133 175 245 294 359 423
#     4  11  25  45  75 106 144 196 241 314 361 435
#     4  10  21  42  66 100 142 182 233 298 355 426
#     4  10  22  44  66  98 132 174 244 298 352 412
#     4  12  27  46  72 107 149 191 240 296 367 442
#     4  10  24  39  71  99 131 186 235 300 359 421
#
# _framework density 23.629933000000001
#
# number of rings (size 3 to 8) (size 9 to 14) (size 15 to 20)
#    0.000    1.333    2.667    1.200    5.600    5.333 
#    0.000    0.000    0.000    0.000    0.000    0.000 
#    0.000    0.000    0.000    0.000    0.000    0.000 
#
# Total GULP energy -83533.454985 kJ/mol
# GULP energy per Si atom -5568.896999 kJ/mol
# Density = 2.357615 g / cm^3
# Si number density = 23.629933 Si / 1000 Ang^3
#
#
#
# Elastic Constant Matrix: (Units=GPa)
#
#
# Indices 1 2 3 4 5 6 
#
# 1 80.4366 40.0213 42.0659 5.5566 0.0080 -2.0952
# 2 40.0213 98.0972 60.9951 -6.8436 -9.7397 5.4973
# 3 42.0659 60.9951 156.2780 6.0445 -3.8049 -7.6906
# 4 5.5566 -6.8436 6.0445 52.8264 7.5883 -0.3558
# 5 0.0080 -9.7397 -3.8049 7.5883 52.3333 6.8238
# 6 -2.0952 5.4973 -7.6906 -0.3558 6.8238 43.7745
#
#
#
# Elastic Compliance Matrix: (Units=1/GPa)
#
#
# Indices 1 2 3 4 5 6 
#
# 1 0.016586 -0.005801 -0.002082 -0.002091 -0.001101 0.001311
# 2 -0.005801 0.016381 -0.005056 0.002893 0.002735 -0.003626
# 3 -0.002082 -0.005056 0.009085 -0.001409 -0.000359 0.002176
# 4 -0.002091 0.002893 -0.001409 0.020036 -0.002447 -0.000167
# 5 -0.001101 0.002735 -0.000359 -0.002447 0.020424 -0.003663
# 6 0.001311 -0.003626 0.002176 -0.000167 -0.003663 0.024314
#
#
# Mechanical properties :
#
#
# Convention : Reuss Voigt Hill
#
# Bulk Modulus (GPa) = 61.82345 68.99739 65.41042
# Shear Modulus (GPa) = 36.20703 42.56883 39.38793
#
# Velocity S-wave (km/s) = 3.91865 4.24899 4.08716
# Velocity P-wave (km/s) = 6.83333 7.30304 7.07209
#
# Compressibility (1/GPa) = 0.01617509
#
# Stress axis : x y z
#
# Youngs Moduli (GPa) = 60.29255 61.04736 110.06812
#
# Poissons Ratio (x) = 0.35413 0.22914
# Poissons Ratio (y) = 0.34975 0.55647
# Poissons Ratio (z) = 0.12552 0.30864
#
# Static dielectric constant tensor:
#      x y z
#    x 1.383680 0.182510 0.010640 
#    y 0.182510 2.050440 -0.015090 
#    z 0.010640 -0.015090 1.955270 
# 
# From -- ./inp_files/525992.got.cif
#   From: 2010.05.17/outbox.cif.g08.bks.cpg/sg2_263_cif.got.tgz:525992.got - 2010.06.03 11:33:40.
