data_PCOD9015292
_publ_section_title
;
Structure prediction by ZEFSAII (Michael W. Deem and Ramdas Pophale) SiO2 
 PCOD9015292
Probable space group: P -1
;
_chemical_formula_sum "Si O2"
_cell_formula_units_Z 16
_cell_length_a 23.425860
_cell_length_b 5.300421
_cell_length_c 15.423350
_cell_angle_alpha 59.810387
_cell_angle_beta 24.650303
_cell_angle_gamma 55.138386
_cell_volume 654.614702
_symmetry_space_group_name_H-M "P -1"
_symmetry_group_IT_number 2
_symmetry_cell_setting 'triclinic'
loop_
_space_group_symop_operation_xyz
x,y,z
-x,-y,-z
loop_
_atom_site_type_symbol
_atom_site_label
_atom_site_fract_x
_atom_site_fract_y
_atom_site_fract_z
Si Si1 0.370434 0.612180 0.345227
Si Si2 0.056563 0.786129 0.374986
Si Si3 0.339935 0.632402 0.100985
Si Si4 0.060403 0.815696 0.178147
Si Si5 0.215409 0.324989 0.479945
Si Si6 0.670629 0.794635 0.078238
Si Si7 0.539940 0.551939 0.562376
Si Si8 0.726567 0.883451 0.181035
O O1 0.498585 0.578600 0.105086
O O2 0.255694 0.463763 0.488850
O O3 0.443257 0.421659 0.362300
O O4 0.304518 0.964948 0.403882
O O5 0.003175 0.950016 0.328890
O O6 0.000000 0.500000 0.500000
O O7 0.226909 0.641613 0.179410
O O8 0.000000 0.000000 0.500000
O O9 0.730419 0.479856 0.701000
O O10 0.344188 0.981107 0.022369
O O11 0.946219 0.688768 0.309266
O O12 0.199733 0.522364 0.058375
O O13 0.127641 0.058305 0.999385
O O14 0.519586 0.733757 0.314251
O O15 0.718821 0.902098 0.084386
O O16 0.687178 0.580810 0.314702
O O17 0.409567 0.826236 0.652378
#
# Coordination Sequence:
#
# PCOD9015292 Si02
#       8
#     2   2   2   2   2   2   2   2
#     4  12  27  49  65  99 140 198 238 285 327 419
#     4  12  25  40  69 101 138 177 219 294 351 401
#     4  12  24  44  71 100 138 182 236 283 349 411
#     4  11  25  44  65 107 141 183 232 290 357 420
#     4  12  30  44  71  94 150 195 240 273 333 425
#     4  11  21  41  75 105 141 172 228 309 360 412
#     4  10  22  43  70 106 136 173 235 297 365 409
#     4  10  21  41  76 105 133 172 227 308 371 407
#
# _framework density 24.441859000000001
#
# number of rings (size 3 to 8) (size 9 to 14) (size 15 to 20)
#    0.000    0.750    3.750    3.375    3.500    3.000 
#    0.000    1.250    0.000    0.000    0.000    0.000 
#    0.000    0.000    0.000    0.000    0.000    0.000 
#
# Total GULP energy -89398.360730 kJ/mol
# GULP energy per Si atom -5587.397546 kJ/mol
# Density = 2.438623 g / cm^3
# Si number density = 24.441859 Si / 1000 Ang^3
#
#
#
# Elastic Constant Matrix: (Units=GPa)
#
#
# Indices 1 2 3 4 5 6 
#
# 1 82.5318 11.0201 33.4014 -16.2327 -21.8779 20.6757
# 2 11.0201 108.3935 38.6202 -16.9031 -9.5974 13.1859
# 3 33.4014 38.6202 140.4537 -49.7595 -23.2676 4.0914
# 4 -16.2327 -16.9031 -49.7595 49.4063 8.9612 -7.2568
# 5 -21.8779 -9.5974 -23.2676 8.9612 32.1989 -4.5745
# 6 20.6757 13.1859 4.0914 -7.2568 -4.5745 30.3944
#
#
#
# Elastic Compliance Matrix: (Units=1/GPa)
#
#
# Indices 1 2 3 4 5 6 
#
# 1 0.018383 0.001356 -0.002744 0.000421 0.009198 -0.011239
# 2 0.001356 0.010871 -0.002824 0.000350 0.001316 -0.004977
# 3 -0.002744 -0.002824 0.013106 0.011236 0.004299 0.004658
# 4 0.000421 0.000350 0.011236 0.032631 0.000264 0.005880
# 5 0.009198 0.001316 0.004299 0.000264 0.040556 -0.001239
# 6 -0.011239 -0.004977 0.004658 0.005880 -0.001239 0.043295
#
#
# Mechanical properties :
#
#
# Convention : Reuss Voigt Hill
#
# Bulk Modulus (GPa) = 29.46892 55.27359 42.37125
# Shear Modulus (GPa) = 27.99897 38.95575 33.47736
#
# Velocity S-wave (km/s) = 3.38825 3.99659 3.70492
# Velocity P-wave (km/s) = 5.23353 6.63026 5.97287
#
# Compressibility (1/GPa) = 0.03393406
#
# Stress axis : x y z
#
# Youngs Moduli (GPa) = 54.39952 91.99069 76.29895
#
# Poissons Ratio (x) = -0.12474 0.20939
# Poissons Ratio (y) = -0.07377 0.21550
# Poissons Ratio (z) = 0.14929 0.25982
#
# Static dielectric constant tensor:
#      x y z
#    x 1.942490 0.011480 0.033610 
#    y 0.011480 1.950570 0.090470 
#    z 0.033610 0.090470 1.976660 
# 
# From -- ./inp_files/579531.got.cif
#   From: 2010.05.17/outbox.cif.g08.bks.cpg/sg2_290_cif.got.tgz:579531.got - 2010.06.03 11:33:40.
