data_PCOD9015703
_publ_section_title
;
Structure prediction by ZEFSAII (Michael W. Deem and Ramdas Pophale) SiO2 
 PCOD9015703
Probable space group: P -1
;
_chemical_formula_sum "Si O2"
_cell_formula_units_Z 16
_cell_length_a 8.735402
_cell_length_b 12.991076
_cell_length_c 12.772873
_cell_angle_alpha 134.834748
_cell_angle_beta 128.290687
_cell_angle_gamma 49.292884
_cell_volume 743.972650
_symmetry_space_group_name_H-M "P -1"
_symmetry_group_IT_number 2
_symmetry_cell_setting 'triclinic'
loop_
_space_group_symop_operation_xyz
x,y,z
-x,-y,-z
loop_
_atom_site_type_symbol
_atom_site_label
_atom_site_fract_x
_atom_site_fract_y
_atom_site_fract_z
Si Si1 0.060498 0.036703 0.167070
Si Si2 0.017262 0.370760 0.328009
Si Si3 0.809557 0.922485 0.343687
Si Si4 0.861357 0.407267 0.833745
Si Si5 0.499314 0.131744 0.677145
Si Si6 0.259585 0.520373 0.400566
Si Si7 0.556463 0.536533 0.166503
Si Si8 0.888887 0.120677 0.370593
O O1 0.898607 0.064786 0.215682
O O2 0.103022 0.196086 0.285296
O O3 0.267113 0.903069 0.207023
O O4 0.000000 0.000000 0.000000
O O5 0.174548 0.399935 0.332273
O O6 0.000000 0.500000 0.500000
O O7 0.779734 0.408926 0.210589
O O8 0.629858 0.871461 0.275946
O O9 0.983960 0.775390 0.250950
O O10 0.910325 0.954448 0.518548
O O11 0.729110 0.072622 0.340039
O O12 0.784089 0.477065 0.737726
O O13 0.651591 0.434562 0.831510
O O14 0.000000 0.500000 0.000000
O O15 0.407078 0.301019 0.706070
O O16 0.500000 0.000000 0.500000
O O17 0.500000 0.500000 0.500000
O O18 0.137758 0.699184 0.516959
O O19 0.500000 0.500000 0.000000
#
# Coordination Sequence:
#
# PCOD9015703 Si02
#       8
#     2   2   2   2   2   2   2   2
#     4  12  26  43  66 101 145 178 221 286 352 404
#     4  12  24  44  68 100 138 180 228 282 341 410
#     4  10  22  41  69  96 131 172 229 283 326 401
#     4  11  24  42  68  99 132 173 225 284 342 396
#     4  12  24  42  71 102 131 182 238 276 334 414
#     4  11  24  41  66  95 135 178 227 273 335 409
#     4  12  25  45  71 100 136 182 230 281 340 410
#     4  10  21  42  64  95 133 175 220 279 334 397
#
# _framework density 21.506167000000001
#
# number of rings (size 3 to 8) (size 9 to 14) (size 15 to 20)
#    0.000    0.750    2.500    6.000    5.250    1.000 
#    0.000    0.625    0.000    0.000    0.000    0.000 
#    0.000    0.000    0.000    0.000    0.000    0.000 
#
# Total GULP energy -89342.256241 kJ/mol
# GULP energy per Si atom -5583.891015 kJ/mol
# Density = 2.145722 g / cm^3
# Si number density = 21.506167 Si / 1000 Ang^3
#
#
#
# Elastic Constant Matrix: (Units=GPa)
#
#
# Indices 1 2 3 4 5 6 
#
# 1 126.5153 1.8552 9.5901 5.6865 -13.0149 15.6134
# 2 1.8552 49.0902 -1.9417 4.4324 -1.4405 11.4701
# 3 9.5901 -1.9417 117.1509 -15.0101 -13.7461 -3.2408
# 4 5.6865 4.4324 -15.0101 35.6984 8.1902 11.0458
# 5 -13.0149 -1.4405 -13.7461 8.1902 35.3069 -5.4446
# 6 15.6134 11.4701 -3.2408 11.0458 -5.4446 34.0363
#
#
#
# Elastic Compliance Matrix: (Units=1/GPa)
#
#
# Indices 1 2 3 4 5 6 
#
# 1 0.008707 0.000640 -0.000640 -0.001319 0.002768 -0.003400
# 2 0.000640 0.022168 0.000053 -0.000514 0.000112 -0.007574
# 3 -0.000640 0.000053 0.009339 0.003221 0.002741 0.000559
# 4 -0.001319 -0.000514 0.003221 0.035465 -0.009317 -0.011915
# 5 0.002768 0.000112 0.002741 -0.009317 0.033713 0.007370
# 6 -0.003400 -0.007574 0.000559 -0.011915 0.007370 0.038592
#
#
# Mechanical properties :
#
#
# Convention : Reuss Voigt Hill
#
# Bulk Modulus (GPa) = 24.80185 34.64038 29.72112
# Shear Modulus (GPa) = 30.99465 39.89185 35.44325
#
# Velocity S-wave (km/s) = 3.80043 4.31153 4.06402
# Velocity P-wave (km/s) = 5.55114 6.39749 5.98928
#
# Compressibility (1/GPa) = 0.04031957
#
# Stress axis : x y z
#
# Youngs Moduli (GPa) = 114.85051 45.10989 107.07765
#
# Poissons Ratio (x) = -0.02889 0.06857
# Poissons Ratio (y) = -0.07355 -0.00565
# Poissons Ratio (z) = 0.07355 -0.00238
#
# Static dielectric constant tensor:
#      x y z
#    x 1.907710 -0.007870 0.009120 
#    y -0.007870 1.773880 0.048360 
#    z 0.009120 0.048360 1.773780 
# 
# From -- ./inp_files/393176.got.cif
#   From: 2010.05.17/outbox.cif.g08.bks.cpg/sg2_197_cif.got.tgz:393176.got - 2010.06.03 11:33:40.
