data_PCOD9015207
_publ_section_title
;
Structure prediction by ZEFSAII (Michael W. Deem and Ramdas Pophale) SiO2 
 PCOD9015207
Probable space group: P -1
;
_chemical_formula_sum "Si O2"
_cell_formula_units_Z 12
_cell_length_a 12.156950
_cell_length_b 9.206489
_cell_length_c 12.297058
_cell_angle_alpha 126.933852
_cell_angle_beta 130.216949
_cell_angle_gamma 94.633763
_cell_volume 538.010337
_symmetry_space_group_name_H-M "P -1"
_symmetry_group_IT_number 2
_symmetry_cell_setting 'triclinic'
loop_
_space_group_symop_operation_xyz
x,y,z
-x,-y,-z
loop_
_atom_site_type_symbol
_atom_site_label
_atom_site_fract_x
_atom_site_fract_y
_atom_site_fract_z
Si Si1 0.068727 0.732107 0.574113
Si Si2 0.747940 0.653654 0.697446
Si Si3 0.933176 0.644368 0.018165
Si Si4 0.417913 0.228054 0.902122
Si Si5 0.754222 0.551350 0.099046
Si Si6 0.805452 0.745612 0.536762
O O1 0.000000 0.500000 0.500000
O O2 0.922450 0.613051 0.316925
O O3 0.030652 0.868610 0.689969
O O4 0.317324 0.971806 0.794003
O O5 0.500000 0.500000 0.500000
O O6 0.726087 0.580537 0.524566
O O7 0.795176 0.559208 0.782462
O O8 0.000000 0.000000 0.000000
O O9 0.801706 0.557559 0.007456
O O10 0.141631 0.989738 0.303195
O O11 0.000000 0.500000 0.000000
O O12 0.510473 0.258197 0.858684
O O13 0.621320 0.513274 0.226839
O O14 0.245618 0.229571 0.784318
#
# Coordination Sequence:
#
# PCOD9015207 Si02
#       6
#     2   2   2   2   2   2
#     4  11  24  41  67  98 133 171 223 294 354 414
#     4  10  23  45  70 100 141 195 237 287 353 428
#     4  11  24  44  69 103 143 187 237 288 351 430
#     4  10  21  41  72  97 127 177 228 292 360 410
#     4  10  22  39  67  98 133 175 224 286 354 421
#     4  10  23  42  69  95 134 181 224 287 352 422
#
# _framework density 22.304404000000002
#
# number of rings (size 3 to 8) (size 9 to 14) (size 15 to 20)
#    0.000    1.667    1.667    1.500    9.333    2.667 
#    0.000   12.500    0.000    0.000    0.000    0.000 
#    0.000    0.000    0.000    0.000    0.000    0.000 
#
# Total GULP energy -66844.674549 kJ/mol
# GULP energy per Si atom -5570.389546 kJ/mol
# Density = 2.225364 g / cm^3
# Si number density = 22.304404 Si / 1000 Ang^3
#
#
#
# Elastic Constant Matrix: (Units=GPa)
#
#
# Indices 1 2 3 4 5 6 
#
# 1 112.1498 81.6476 22.5185 -2.7106 7.5331 38.1816
# 2 81.6476 207.3640 46.5263 -3.8927 0.6141 33.3990
# 3 22.5185 46.5263 61.2906 -4.1365 12.3632 2.4152
# 4 -2.7106 -3.8927 -4.1365 42.7366 9.8927 -2.9657
# 5 7.5331 0.6141 12.3632 9.8927 24.2716 2.1839
# 6 38.1816 33.3990 2.4152 -2.9657 2.1839 55.8422
#
#
#
# Elastic Compliance Matrix: (Units=1/GPa)
#
#
# Indices 1 2 3 4 5 6 
#
# 1 0.015247 -0.004535 -0.001058 0.000796 -0.003730 -0.007478
# 2 -0.004535 0.008063 -0.005406 -0.001269 0.004631 -0.001736
# 3 -0.001058 -0.005406 0.023881 0.005299 -0.014198 0.003760
# 4 0.000796 -0.001269 0.005299 0.027274 -0.014210 0.001990
# 5 -0.003730 0.004631 -0.014198 -0.014210 0.055492 -0.002530
# 6 -0.007478 -0.001736 0.003760 0.001990 -0.002530 0.024101
#
#
# Mechanical properties :
#
#
# Convention : Reuss Voigt Hill
#
# Bulk Modulus (GPa) = 39.69387 75.79880 57.74634
# Shear Modulus (GPa) = 27.10685 39.91090 33.50887
#
# Velocity S-wave (km/s) = 3.48992 4.23469 3.88021
# Velocity P-wave (km/s) = 5.83733 7.61365 6.78388
#
# Compressibility (1/GPa) = 0.02519281
#
# Stress axis : x y z
#
# Youngs Moduli (GPa) = 65.58779 124.01997 41.87353
#
# Poissons Ratio (x) = 0.56248 0.04431
# Poissons Ratio (y) = 0.29746 0.22636
# Poissons Ratio (z) = 0.06940 0.67043
#
# Static dielectric constant tensor:
#      x y z
#    x 1.906750 -0.012400 0.085650 
#    y -0.012400 1.872290 0.007540 
#    z 0.085650 0.007540 1.965110 
# 
# From -- ./inp_files/409780.got.cif
#   From: 2010.05.17/outbox.cif.g08.bks.cpg/sg2_205_cif.got.tgz:409780.got - 2010.06.03 11:33:40.
