data_PCOD9015308
_publ_section_title
;
Structure prediction by ZEFSAII (Michael W. Deem and Ramdas Pophale) SiO2 
 PCOD9015308
Probable space group: P -1
;
_chemical_formula_sum "Si O2"
_cell_formula_units_Z 12
_cell_length_a 10.246257
_cell_length_b 16.024380
_cell_length_c 7.972482
_cell_angle_alpha 116.853886
_cell_angle_beta 139.809177
_cell_angle_gamma 42.208540
_cell_volume 547.517287
_symmetry_space_group_name_H-M "P -1"
_symmetry_group_IT_number 2
_symmetry_cell_setting 'triclinic'
loop_
_space_group_symop_operation_xyz
x,y,z
-x,-y,-z
loop_
_atom_site_type_symbol
_atom_site_label
_atom_site_fract_x
_atom_site_fract_y
_atom_site_fract_z
Si Si1 0.786450 0.937950 0.635637
Si Si2 0.117684 0.280608 0.671556
Si Si3 0.763744 0.152151 0.720273
Si Si4 0.484025 0.536993 0.769376
Si Si5 0.682703 0.630399 0.282421
Si Si6 0.162212 0.706868 0.302145
O O1 0.873925 0.821228 0.506581
O O2 0.500000 0.000000 0.500000
O O3 0.754186 0.043781 0.595122
O O4 0.015007 0.889862 0.956514
O O5 0.809795 0.421945 0.466619
O O6 0.100530 0.257062 0.829114
O O7 0.328273 0.284313 0.794323
O O8 0.469321 0.281685 0.623055
O O9 0.857227 0.181784 0.678360
O O10 0.412761 0.619697 0.606045
O O11 0.738616 0.388751 0.842296
O O12 0.531120 0.589093 0.017787
O O13 0.000000 0.500000 0.500000
#
# Coordination Sequence:
#
# PCOD9015308 Si02
#       6
#     2   2   2   2   2   2
#     4  11  23  42  66  87 124 164 214 259 294 365
#     4  10  21  42  58  89 125 162 204 252 310 357
#     4  11  23  41  64  93 119 164 214 255 303 362
#     4   9  21  42  60  89 136 157 200 256 309 371
#     4  12  24  36  67  96 122 167 207 249 317 369
#     4   9  21  42  63  88 128 167 194 262 315 357
#
# _framework density 21.917116
#
# number of rings (size 3 to 8) (size 9 to 14) (size 15 to 20)
#    1.000    0.667    3.333    1.000    2.333    2.667 
#    3.000    0.833    0.000    0.000    0.000    0.000 
#    0.000    0.000    0.000    0.000    0.000    0.000 
#
# Total GULP energy -66926.220158 kJ/mol
# GULP energy per Si atom -5577.185013 kJ/mol
# Density = 2.186723 g / cm^3
# Si number density = 21.917116 Si / 1000 Ang^3
#
#
#
# Elastic Constant Matrix: (Units=GPa)
#
#
# Indices 1 2 3 4 5 6 
#
# 1 116.0276 25.0648 -12.9766 4.9423 16.9270 27.7719
# 2 25.0648 63.2020 -0.0141 1.2653 2.9143 13.6770
# 3 -12.9766 -0.0141 12.0373 -3.9739 6.1196 -0.4387
# 4 4.9423 1.2653 -3.9739 24.9200 0.8798 4.9719
# 5 16.9270 2.9143 6.1196 0.8798 22.4728 1.1922
# 6 27.7719 13.6770 -0.4387 4.9719 1.1922 49.4028
#
#
#
# Elastic Compliance Matrix: (Units=1/GPa)
#
#
# Indices 1 2 3 4 5 6 
#
# 1 0.018035 -0.004400 0.031271 0.004087 -0.021236 -0.008542
# 2 -0.004400 0.018001 -0.006520 -0.000671 0.002918 -0.002571
# 3 0.031271 -0.006520 0.157842 0.024670 -0.065846 -0.015266
# 4 0.004087 -0.000671 0.024670 0.044905 -0.011142 -0.006143
# 5 -0.021236 0.002918 -0.065846 -0.011142 0.077963 0.009785
# 6 -0.008542 -0.002571 -0.015266 -0.006143 0.009785 0.026002
#
#
# Mechanical properties :
#
#
# Convention : Reuss Voigt Hill
#
# Bulk Modulus (GPa) = 4.26294 23.93501 14.09897
# Shear Modulus (GPa) = 13.14965 31.30530 22.22747
#
# Velocity S-wave (km/s) = 2.45209 3.78345 3.18804
# Velocity P-wave (km/s) = 3.15694 5.48000 4.47195
#
# Compressibility (1/GPa) = 0.23457968
#
# Stress axis : x y z
#
# Youngs Moduli (GPa) = 55.44818 55.55281 6.33546
#
# Poissons Ratio (x) = 0.24441 -0.19812
# Poissons Ratio (y) = 0.24395 0.04131
# Poissons Ratio (z) = -1.73392 0.36223
#
# Static dielectric constant tensor:
#      x y z
#    x 1.880910 0.022640 -0.009700 
#    y 0.022640 1.816640 -0.029060 
#    z -0.009700 -0.029060 1.784630 
# 
# From -- ./inp_files/59245.got.cif
#   From: 2010.05.17/outbox.cif.g08.bks.cpg/sg2_30_cif.got.tgz:59245.got - 2010.06.03 11:33:40.
