data_PCOD9015046
_publ_section_title
;
Structure prediction by ZEFSAII (Michael W. Deem and Ramdas Pophale) SiO2 
 PCOD9015046
Probable space group: P -1
;
_chemical_formula_sum "Si O2"
_cell_formula_units_Z 16
_cell_length_a 7.990608
_cell_length_b 12.349562
_cell_length_c 9.133097
_cell_angle_alpha 109.909782
_cell_angle_beta 70.074656
_cell_angle_gamma 120.056326
_cell_volume 717.217957
_symmetry_space_group_name_H-M "P -1"
_symmetry_group_IT_number 2
_symmetry_cell_setting 'triclinic'
loop_
_space_group_symop_operation_xyz
x,y,z
-x,-y,-z
loop_
_atom_site_type_symbol
_atom_site_label
_atom_site_fract_x
_atom_site_fract_y
_atom_site_fract_z
Si Si1 0.921531 0.363642 0.881192
Si Si2 0.220229 0.011832 0.979173
Si Si3 0.363491 0.388065 0.098992
Si Si4 0.171487 0.554692 0.357157
Si Si5 0.380134 0.803992 0.566827
Si Si6 0.264527 0.008322 0.641451
Si Si7 0.549279 0.244557 0.142001
Si Si8 0.918890 0.811303 0.133225
O O1 0.069588 0.298427 0.822193
O O2 0.890991 0.388139 0.735754
O O3 0.000000 0.500000 0.000000
O O4 0.714702 0.279640 0.983697
O O5 0.358436 0.114253 0.098982
O O6 0.336488 0.033510 0.802324
O O7 0.132466 0.875204 0.019512
O O8 0.000000 0.000000 0.000000
O O9 0.218173 0.440543 0.234922
O O10 0.475167 0.354169 0.181211
O O11 0.500000 0.500000 0.000000
O O12 0.247650 0.262700 0.974213
O O13 0.350522 0.676153 0.431218
O O14 0.000000 0.500000 0.500000
O O15 0.581501 0.918169 0.497888
O O16 0.383338 0.770729 0.721684
O O17 0.219165 0.857527 0.588076
O O18 0.117298 0.077957 0.720042
#
# Coordination Sequence:
#
# PCOD9015046 Si02
#       8
#     2   2   2   2   2   2   2   2
#     4  12  24  44  72 105 135 185 244 289 341 426
#     4  10  21  41  70  99 129 176 236 290 339 402
#     4  12  23  45  74 101 138 186 239 291 349 414
#     4  12  27  42  68 101 149 183 221 298 361 410
#     4  11  26  42  65 104 147 181 230 281 364 427
#     4  10  22  44  67  93 144 184 222 295 351 406
#     4  12  24  43  75 103 136 187 240 286 351 428
#     4  11  23  42  75 102 135 174 248 295 339 415
#
# _framework density 22.308420000000002
#
# number of rings (size 3 to 8) (size 9 to 14) (size 15 to 20)
#    0.000    0.750    5.000    3.000    1.750    5.500 
#    0.000    3.125    0.000    0.000    0.000    0.000 
#    0.000    0.000    0.000    0.000    0.000    0.000 
#
# Total GULP energy -89167.346597 kJ/mol
# GULP energy per Si atom -5572.959162 kJ/mol
# Density = 2.225765 g / cm^3
# Si number density = 22.308420 Si / 1000 Ang^3
#
#
#
# Elastic Constant Matrix: (Units=GPa)
#
#
# Indices 1 2 3 4 5 6 
#
# 1 64.2516 31.9590 28.4210 -9.5865 1.1466 -21.5973
# 2 31.9590 97.9957 25.4282 -19.8206 1.7640 -9.0837
# 3 28.4210 25.4282 113.0697 -29.8898 -5.3014 -10.1676
# 4 -9.5865 -19.8206 -29.8898 45.0112 -5.4744 3.3956
# 5 1.1466 1.7640 -5.3014 -5.4744 32.8726 3.2447
# 6 -21.5973 -9.0837 -10.1676 3.3956 3.2447 54.9709
#
#
#
# Elastic Compliance Matrix: (Units=1/GPa)
#
#
# Indices 1 2 3 4 5 6 
#
# 1 0.022625 -0.005848 -0.004159 -0.001328 -0.002094 0.007359
# 2 -0.005848 0.013028 -0.000351 0.004321 0.000216 -0.000490
# 3 -0.004159 -0.000351 0.012069 0.007390 0.003352 -0.000114
# 4 -0.001328 0.004321 0.007390 0.029518 0.005983 -0.000617
# 5 -0.002094 0.000216 0.003352 0.005983 0.032260 -0.002441
# 6 0.007359 -0.000490 -0.000114 -0.000617 -0.002441 0.021163
#
#
# Mechanical properties :
#
#
# Convention : Reuss Voigt Hill
#
# Bulk Modulus (GPa) = 37.03154 49.65927 43.34541
# Shear Modulus (GPa) = 31.17539 39.20489 35.19014
#
# Velocity S-wave (km/s) = 3.74233 4.19669 3.97601
# Velocity P-wave (km/s) = 5.94216 6.76695 6.36792
#
# Compressibility (1/GPa) = 0.02700401
#
# Stress axis : x y z
#
# Youngs Moduli (GPa) = 44.19794 76.75958 82.85590
#
# Poissons Ratio (x) = 0.44891 0.34463
# Poissons Ratio (y) = 0.25848 0.02912
# Poissons Ratio (z) = 0.18384 0.02697
#
# Static dielectric constant tensor:
#      x y z
#    x 1.896050 -0.129780 -0.052940 
#    y -0.129780 1.632320 -0.109040 
#    z -0.052940 -0.109040 1.802910 
# 
# From -- ./inp_files/180083.got.cif
#   From: 2010.05.17/outbox.cif.g08.bks.cpg/sg2_91_cif.got.tgz:180083.got - 2010.06.03 11:33:40.
