data_PCOD9015553
_publ_section_title
;
Structure prediction by ZEFSAII (Michael W. Deem and Ramdas Pophale) SiO2 
 PCOD9015553
Probable space group: P -1
;
_chemical_formula_sum "Si O2"
_cell_formula_units_Z 16
_cell_length_a 8.936310
_cell_length_b 13.478772
_cell_length_c 27.339546
_cell_angle_alpha 21.516930
_cell_angle_beta 137.629019
_cell_angle_gamma 126.109673
_cell_volume 747.306778
_symmetry_space_group_name_H-M "P -1"
_symmetry_group_IT_number 2
_symmetry_cell_setting 'triclinic'
loop_
_space_group_symop_operation_xyz
x,y,z
-x,-y,-z
loop_
_atom_site_type_symbol
_atom_site_label
_atom_site_fract_x
_atom_site_fract_y
_atom_site_fract_z
Si Si1 0.100903 0.243667 0.511188
Si Si2 0.260702 0.326106 0.618794
Si Si3 0.080733 0.264940 0.298622
Si Si4 0.599839 0.697553 0.029363
Si Si5 0.575645 0.829786 0.656925
Si Si6 0.460771 0.720516 0.434500
Si Si7 0.727363 0.665347 0.876460
Si Si8 0.378751 0.332460 0.834825
O O1 0.864459 0.535760 0.315570
O O2 0.214554 0.213001 0.606332
O O3 0.280561 0.267037 0.503066
O O4 0.027000 0.975896 0.604995
O O5 0.367598 0.574085 0.521886
O O6 0.000000 0.500000 0.500000
O O7 0.443245 0.040739 0.822309
O O8 0.167433 0.228948 0.279572
O O9 0.857881 0.562179 0.124979
O O10 0.350555 0.131741 0.449076
O O11 0.420220 0.526157 0.052758
O O12 0.655344 0.653489 0.121060
O O13 0.597008 0.819778 0.724301
O O14 0.516578 0.546758 0.758222
O O15 0.500000 0.500000 0.500000
O O16 0.290029 0.053548 0.224821
O O17 0.000000 0.500000 0.000000
O O18 0.500000 0.000000 0.000000
#
# Coordination Sequence:
#
# PCOD9015553 Si02
#       8
#     2   2   2   2   2   2   2   2
#     4  10  22  40  66  84 125 177 203 261 321 388
#     4  11  24  41  61  97 133 163 212 271 331 376
#     4  10  21  42  63  95 121 161 228 266 318 370
#     4  11  24  40  68  97 125 169 223 274 305 398
#     4   9  23  39  65  91 129 166 210 279 315 384
#     4  10  23  42  60  93 130 172 209 260 333 388
#     4  11  23  40  66  94 127 177 217 260 324 397
#     4  10  22  42  63  92 128 172 212 258 331 390
#
# _framework density 21.410216999999999
#
# number of rings (size 3 to 8) (size 9 to 14) (size 15 to 20)
#    0.000    1.750    1.250    1.500    5.250    8.000 
#    2.250    1.250    0.000    0.000    0.000    0.000 
#    0.000    0.000    0.000    0.000    0.000    0.000 
#
# Total GULP energy -89200.647662 kJ/mol
# GULP energy per Si atom -5575.040479 kJ/mol
# Density = 2.136149 g / cm^3
# Si number density = 21.410217 Si / 1000 Ang^3
#
#
#
# Elastic Constant Matrix: (Units=GPa)
#
#
# Indices 1 2 3 4 5 6 
#
# 1 114.0587 19.1397 23.3135 -11.8999 13.7514 33.5465
# 2 19.1397 30.5386 5.1060 -7.9695 5.5413 7.3195
# 3 23.3135 5.1060 93.7355 -13.9989 16.4184 9.9778
# 4 -11.8999 -7.9695 -13.9989 29.5712 -6.9415 -2.8725
# 5 13.7514 5.5413 16.4184 -6.9415 42.0138 -1.5230
# 6 33.5465 7.3195 9.9778 -2.8725 -1.5230 33.8534
#
#
#
# Elastic Compliance Matrix: (Units=1/GPa)
#
#
# Indices 1 2 3 4 5 6 
#
# 1 0.014119 -0.004445 -0.000961 0.001895 -0.003808 -0.012757
# 2 -0.004445 0.038909 0.001117 0.008179 -0.002899 -0.003774
# 3 -0.000961 0.001117 0.012547 0.004628 -0.004072 -0.002777
# 4 0.001895 0.008179 0.004628 0.039523 0.002967 -0.001524
# 5 -0.003808 -0.002899 -0.004072 0.002967 0.027769 0.007102
# 6 -0.012757 -0.003774 -0.002777 -0.001524 0.007102 0.044005
#
#
# Mechanical properties :
#
#
# Convention : Reuss Voigt Hill
#
# Bulk Modulus (GPa) = 17.54492 37.05012 27.29752
# Shear Modulus (GPa) = 24.45596 33.80593 29.13095
#
# Velocity S-wave (km/s) = 3.38340 3.97793 3.69265
# Velocity P-wave (km/s) = 4.84516 6.20008 5.56402
#
# Compressibility (1/GPa) = 0.05699656
#
# Stress axis : x y z
#
# Youngs Moduli (GPa) = 70.82819 25.70075 79.70294
#
# Poissons Ratio (x) = 0.11423 0.07662
# Poissons Ratio (y) = 0.31481 -0.08903
# Poissons Ratio (z) = 0.06809 -0.02871
#
# Static dielectric constant tensor:
#      x y z
#    x 1.816000 -0.016140 0.030730 
#    y -0.016140 1.876880 -0.017430 
#    z 0.030730 -0.017430 1.833690 
# 
# From -- ./inp_files/622615.got.cif
#   From: 2010.05.17/outbox.cif.g08.bks.cpg/sg2_312_cif.got.tgz:622615.got - 2010.06.03 11:33:40.
