data_PCOD9015881
_publ_section_title
;
Structure prediction by ZEFSAII (Michael W. Deem and Ramdas Pophale) SiO2 
 PCOD9015881
Probable space group: P -1
;
_chemical_formula_sum "Si O2"
_cell_formula_units_Z 16
_cell_length_a 9.514264
_cell_length_b 13.470516
_cell_length_c 13.537896
_cell_angle_alpha 46.449570
_cell_angle_beta 40.645159
_cell_angle_gamma 43.475294
_cell_volume 739.600279
_symmetry_space_group_name_H-M "P -1"
_symmetry_group_IT_number 2
_symmetry_cell_setting 'triclinic'
loop_
_space_group_symop_operation_xyz
x,y,z
-x,-y,-z
loop_
_atom_site_type_symbol
_atom_site_label
_atom_site_fract_x
_atom_site_fract_y
_atom_site_fract_z
Si Si1 0.233292 0.539766 0.731088
Si Si2 0.827765 0.449967 0.026168
Si Si3 0.719731 0.039282 0.631204
Si Si4 0.514393 0.798215 0.923090
Si Si5 0.725902 0.282047 0.591955
Si Si6 0.364664 0.757651 0.811545
Si Si7 0.979322 0.095485 0.771893
Si Si8 0.415190 0.139763 0.527989
O O1 0.172213 0.615627 0.819530
O O2 0.513483 0.430088 0.649507
O O3 0.166177 0.657114 0.596206
O O4 0.085172 0.439741 0.869478
O O5 0.720491 0.374498 0.057129
O O6 0.664547 0.629534 0.998501
O O7 0.621632 0.174226 0.670550
O O8 0.589252 0.098790 0.555767
O O9 0.654975 0.902036 0.789042
O O10 0.000000 0.000000 0.500000
O O11 0.466452 0.781007 0.845016
O O12 0.259731 0.869967 0.064125
O O13 0.908865 0.181454 0.645905
O O14 0.559082 0.731785 0.639534
O O15 0.132908 0.915061 0.803568
O O16 0.154553 0.159108 0.685870
O O17 0.500000 0.000000 0.500000
#
# Coordination Sequence:
#
# PCOD9015881 Si02
#       8
#     2   2   2   2   2   2   2   2
#     4  10  24  45  67  95 143 176 224 294 330 410
#     4  11  24  44  67  99 138 183 228 271 353 401
#     4  12  24  40  71 104 134 178 232 276 341 403
#     4  12  25  43  67 103 140 177 225 287 337 400
#     4  11  24  43  70 100 132 182 230 277 347 397
#     4  11  24  42  70  96 137 181 224 277 340 413
#     4  11  24  44  69  98 139 174 227 286 337 395
#     4  10  21  42  65  95 135 175 219 278 335 395
#
# _framework density 21.633306000000001
#
# number of rings (size 3 to 8) (size 9 to 14) (size 15 to 20)
#    0.000    1.000    3.750    3.750    3.500    3.500 
#    0.000    0.625    0.000    0.000    0.000    0.000 
#    0.000    0.000    0.000    0.000    0.000    0.000 
#
# Total GULP energy -89452.963999 kJ/mol
# GULP energy per Si atom -5590.810250 kJ/mol
# Density = 2.158407 g / cm^3
# Si number density = 21.633306 Si / 1000 Ang^3
#
#
#
# Elastic Constant Matrix: (Units=GPa)
#
#
# Indices 1 2 3 4 5 6 
#
# 1 121.8244 9.8464 42.2135 -8.1976 -7.4633 -11.0876
# 2 9.8464 44.1189 30.5233 7.1822 -4.1305 -5.4507
# 3 42.2135 30.5233 129.6112 3.5081 -5.5758 -9.9251
# 4 -8.1976 7.1822 3.5081 29.1455 -4.8818 -8.2594
# 5 -7.4633 -4.1305 -5.5758 -4.8818 34.3696 -4.3492
# 6 -11.0876 -5.4507 -9.9251 -8.2594 -4.3492 21.1376
#
#
#
# Elastic Compliance Matrix: (Units=1/GPa)
#
#
# Indices 1 2 3 4 5 6 
#
# 1 0.010475 -0.000120 -0.002841 0.005949 0.003553 0.007185
# 2 -0.000120 0.028348 -0.006203 -0.005169 0.001985 0.002723
# 3 -0.002841 -0.006203 0.010267 0.000125 0.000561 0.001895
# 4 0.005949 -0.005169 0.000125 0.044954 0.009787 0.021425
# 5 0.003553 0.001985 0.000561 0.009787 0.033271 0.013309
# 6 0.007185 0.002723 0.001895 0.021425 0.013309 0.063780
#
#
# Mechanical properties :
#
#
# Convention : Reuss Voigt Hill
#
# Bulk Modulus (GPa) = 32.50822 51.19118 41.84970
# Shear Modulus (GPa) = 22.76061 31.12862 26.94462
#
# Velocity S-wave (km/s) = 3.24714 3.79743 3.53301
# Velocity P-wave (km/s) = 5.39612 6.55300 6.00250
#
# Compressibility (1/GPa) = 0.03076145
#
# Stress axis : x y z
#
# Youngs Moduli (GPa) = 95.46816 35.27584 97.39557
#
# Poissons Ratio (x) = 0.00424 0.27672
# Poissons Ratio (y) = 0.01147 0.60414
# Poissons Ratio (z) = 0.27124 0.21881
#
# Static dielectric constant tensor:
#      x y z
#    x 1.772320 -0.015650 -0.000470 
#    y -0.015650 1.795250 0.000200 
#    z -0.000470 0.000200 1.844820 
# 
# From -- ./inp_files/505216.got.cif
#   From: 2010.05.17/outbox.cif.g08.bks.cpg/sg2_253_cif.got.tgz:505216.got - 2010.06.03 11:33:40.
