data_PCOD9015958
_publ_section_title
;
Structure prediction by ZEFSAII (Michael W. Deem and Ramdas Pophale) SiO2 
 PCOD9015958
Probable space group: P -1
;
_chemical_formula_sum "Si O2"
_cell_formula_units_Z 10
_cell_length_a 9.573428
_cell_length_b 16.393181
_cell_length_c 5.396970
_cell_angle_alpha 121.063800
_cell_angle_beta 104.240510
_cell_angle_gamma 36.048063
_cell_volume 401.569740
_symmetry_space_group_name_H-M "P -1"
_symmetry_group_IT_number 2
_symmetry_cell_setting 'triclinic'
loop_
_space_group_symop_operation_xyz
x,y,z
-x,-y,-z
loop_
_atom_site_type_symbol
_atom_site_label
_atom_site_fract_x
_atom_site_fract_y
_atom_site_fract_z
Si Si1 0.404960 0.445326 0.339348
Si Si2 0.841414 0.069447 0.788173
Si Si3 0.277509 0.362880 0.526298
Si Si4 0.558660 0.057860 0.866681
Si Si5 0.847496 0.729990 0.358182
O O1 0.500000 0.500000 0.500000
O O2 0.358179 0.421730 0.552519
O O3 0.142841 0.583932 0.290925
O O4 0.612599 0.268918 0.014276
O O5 0.731800 0.022058 0.688666
O O6 0.000000 0.000000 0.500000
O O7 0.000000 0.000000 0.000000
O O8 0.228959 0.337885 0.726294
O O9 0.000000 0.500000 0.500000
O O10 0.489235 0.177344 0.216522
O O11 0.292588 0.173360 0.807674
O O12 0.714361 0.878912 0.717468
#
# Coordination Sequence:
#
# PCOD9015958 Si02
#       5
#     2   2   2   2   2
#     4  10  22  44  70 101 139 181 235 292 350 421
#     4  11  26  47  72 103 145 187 234 292 358 419
#     4   9  20  37  64  92 130 172 221 283 340 412
#     4  10  22  40  68  96 134 179 229 286 343 422
#     4  10  21  42  66 101 130 176 233 283 352 411
#
# _framework density 24.902274999999999
#
# number of rings (size 3 to 8) (size 9 to 14) (size 15 to 20)
#    0.000    2.000    0.000    1.800    5.600    7.200 
#   18.000    2.000    0.000    0.000    0.000    0.000 
#    0.000    0.000    0.000    0.000    0.000    0.000 
#
# Total GULP energy -55892.290335 kJ/mol
# GULP energy per Si atom -5589.229033 kJ/mol
# Density = 2.484560 g / cm^3
# Si number density = 24.902275 Si / 1000 Ang^3
#
#
#
# Elastic Constant Matrix: (Units=GPa)
#
#
# Indices 1 2 3 4 5 6 
#
# 1 217.5761 62.9124 47.4465 10.7139 6.0709 20.4456
# 2 62.9124 167.3333 51.9340 19.5615 -7.4927 -18.3419
# 3 47.4465 51.9340 110.1964 24.9947 -16.7393 1.6211
# 4 10.7139 19.5615 24.9947 44.0658 3.7826 2.1038
# 5 6.0709 -7.4927 -16.7393 3.7826 37.7315 2.4246
# 6 20.4456 -18.3419 1.6211 2.1038 2.4246 50.4421
#
#
#
# Elastic Compliance Matrix: (Units=1/GPa)
#
#
# Indices 1 2 3 4 5 6 
#
# 1 0.005973 -0.002156 -0.002079 0.001021 -0.002216 -0.003074
# 2 -0.002156 0.008255 -0.002432 -0.002025 0.000853 0.003997
# 3 -0.002079 -0.002432 0.013647 -0.006699 0.006611 -0.000519
# 4 0.001021 -0.002025 -0.006699 0.027762 -0.006206 -0.001794
# 5 -0.002216 0.000853 0.006611 -0.006206 0.030598 -0.000216
# 6 -0.003074 0.003997 -0.000519 -0.001794 -0.000216 0.022626
#
#
# Mechanical properties :
#
#
# Convention : Reuss Voigt Hill
#
# Bulk Modulus (GPa) = 68.76868 91.07683 79.92276
# Shear Modulus (GPa) = 39.35721 48.63540 43.99630
#
# Velocity S-wave (km/s) = 3.97982 4.42413 4.20784
# Velocity P-wave (km/s) = 6.98527 7.92151 7.46808
#
# Compressibility (1/GPa) = 0.01454150
#
# Stress axis : x y z
#
# Youngs Moduli (GPa) = 167.41030 121.14514 73.27629
#
# Poissons Ratio (x) = 0.26122 0.15232
# Poissons Ratio (y) = 0.36098 0.17819
# Poissons Ratio (z) = 0.34800 0.29459
#
# Static dielectric constant tensor:
#      x y z
#    x 1.967200 -0.003710 -0.011160 
#    y -0.003710 2.017920 -0.099930 
#    z -0.011160 -0.099930 2.183550 
# 
# From -- ./inp_files/16382.got.cif
#   From: 2010.05.17/outbox.cif.g08.bks.cpg/sg2_9_cif.got.tgz:16382.got - 2010.06.03 11:33:40.
