data_PCOD9015666
_publ_section_title
;
Structure prediction by ZEFSAII (Michael W. Deem and Ramdas Pophale) SiO2 
 PCOD9015666
Probable space group: P -1
;
_chemical_formula_sum "Si O2"
_cell_formula_units_Z 14
_cell_length_a 13.943335
_cell_length_b 14.116086
_cell_length_c 17.112962
_cell_angle_alpha 30.357049
_cell_angle_beta 156.690786
_cell_angle_gamma 152.752207
_cell_volume 589.838049
_symmetry_space_group_name_H-M "P -1"
_symmetry_group_IT_number 2
_symmetry_cell_setting 'triclinic'
loop_
_space_group_symop_operation_xyz
x,y,z
-x,-y,-z
loop_
_atom_site_type_symbol
_atom_site_label
_atom_site_fract_x
_atom_site_fract_y
_atom_site_fract_z
Si Si1 0.758071 0.650778 0.227545
Si Si2 0.192746 0.293714 0.417698
Si Si3 0.841237 0.049407 0.580608
Si Si4 0.126707 0.499191 0.894426
Si Si5 0.765671 0.641841 0.772092
Si Si6 0.919590 0.486841 0.321510
Si Si7 0.352777 0.143508 0.782583
O O1 0.771271 0.578346 0.201686
O O2 0.017149 0.883983 0.275144
O O3 0.830549 0.504333 0.444896
O O4 0.458332 0.615140 0.050394
O O5 0.500000 0.500000 0.500000
O O6 0.101979 0.275808 0.272745
O O7 0.251390 0.128546 0.627928
O O8 0.993350 0.344329 0.285224
O O9 0.747075 0.226200 0.366038
O O10 0.106048 0.099979 0.688522
O O11 0.646546 0.801491 0.593338
O O12 0.014798 0.409494 0.788442
O O13 0.053984 0.347788 0.024402
O O14 0.433864 0.608107 0.214120
O O15 0.500000 0.000000 0.000000
#
# Coordination Sequence:
#
# PCOD9015666 Si02
#       7
#     2   2   2   2   2   2   2
#     4   9  20  42  71  94 131 171 225 277 327 395
#     4  10  24  42  62  97 137 175 219 274 324 399
#     4  10  21  42  64  92 134 172 212 279 328 379
#     4  12  21  40  71  97 132 180 219 268 338 391
#     4  11  25  40  63 101 133 172 222 266 325 408
#     4   9  20  42  70  95 130 176 225 273 333 387
#     4  11  24  43  65  91 134 179 221 273 330 391
#
# _framework density 23.735329
#
# number of rings (size 3 to 8) (size 9 to 14) (size 15 to 20)
#    0.857    0.857    2.857    0.857    8.000    1.714 
#    0.000    1.429    0.000    0.000    0.000    0.000 
#    0.000    0.000    0.000    0.000    0.000    0.000 
#
# Total GULP energy -78045.115546 kJ/mol
# GULP energy per Si atom -5574.651110 kJ/mol
# Density = 2.368131 g / cm^3
# Si number density = 23.735329 Si / 1000 Ang^3
#
#
#
# Elastic Constant Matrix: (Units=GPa)
#
#
# Indices 1 2 3 4 5 6 
#
# 1 174.0278 38.9393 63.6788 -6.3824 -28.6179 -20.7984
# 2 38.9393 77.7483 19.5440 -11.9874 4.4689 -16.0701
# 3 63.6788 19.5440 118.1389 0.2675 -24.6043 5.2026
# 4 -6.3824 -11.9874 0.2675 31.8873 2.3397 -0.3591
# 5 -28.6179 4.4689 -24.6043 2.3397 57.1582 -2.7223
# 6 -20.7984 -16.0701 5.2026 -0.3591 -2.7223 25.9039
#
#
#
# Elastic Compliance Matrix: (Units=1/GPa)
#
#
# Indices 1 2 3 4 5 6 
#
# 1 0.009218 -0.002067 -0.004276 0.000948 0.003247 0.007332
# 2 -0.002067 0.017925 -0.003038 0.006721 -0.003553 0.009790
# 3 -0.004276 -0.003038 0.012255 -0.002413 0.003115 -0.007485
# 4 0.000948 0.006721 -0.002413 0.034324 -0.002225 0.005658
# 5 0.003247 -0.003553 0.003115 -0.002225 0.020923 0.001945
# 6 0.007332 0.009790 -0.007485 0.005658 0.001945 0.052351
#
#
# Mechanical properties :
#
#
# Convention : Reuss Voigt Hill
#
# Bulk Modulus (GPa) = 48.45342 68.24879 58.35111
# Shear Modulus (GPa) = 28.96255 39.50673 34.23464
#
# Velocity S-wave (km/s) = 3.49697 4.08422 3.80195
# Velocity P-wave (km/s) = 6.06328 7.14546 6.62650
#
# Compressibility (1/GPa) = 0.02063838
#
# Stress axis : x y z
#
# Youngs Moduli (GPa) = 108.48121 55.78832 81.59604
#
# Poissons Ratio (x) = 0.11531 0.34888
# Poissons Ratio (y) = 0.22422 0.24785
# Poissons Ratio (z) = 0.46383 0.16946
#
# Static dielectric constant tensor:
#      x y z
#    x 1.892880 -0.020450 -0.059190 
#    y -0.020450 2.130490 0.037630 
#    z -0.059190 0.037630 1.954770 
# 
# From -- ./inp_files/520765.got.cif
#   From: 2010.05.17/outbox.cif.g08.bks.cpg/sg2_261_cif.got.tgz:520765.got - 2010.06.03 11:33:40.
