data_PCOD9015979
_publ_section_title
;
Structure prediction by ZEFSAII (Michael W. Deem and Ramdas Pophale) SiO2 
 PCOD9015979
Probable space group: P -1
;
_chemical_formula_sum "Si O2"
_cell_formula_units_Z 14
_cell_length_a 6.368198
_cell_length_b 8.792178
_cell_length_c 15.216952
_cell_angle_alpha 45.396260
_cell_angle_beta 80.711574
_cell_angle_gamma 57.665496
_cell_volume 478.964824
_symmetry_space_group_name_H-M "P -1"
_symmetry_group_IT_number 2
_symmetry_cell_setting 'triclinic'
loop_
_space_group_symop_operation_xyz
x,y,z
-x,-y,-z
loop_
_atom_site_type_symbol
_atom_site_label
_atom_site_fract_x
_atom_site_fract_y
_atom_site_fract_z
Si Si1 0.766253 0.371851 0.329949
Si Si2 0.500000 0.000000 0.000000
Si Si3 0.215026 0.813254 0.903319
Si Si4 0.276914 0.706066 0.333445
Si Si5 0.174301 0.466259 0.904027
Si Si6 0.427643 0.055903 0.272630
Si Si7 0.876201 0.850176 0.451908
Si Si8 0.000000 0.000000 0.000000
O O1 0.524735 0.445614 0.377260
O O2 0.661948 0.609832 0.170179
O O3 0.993485 0.323003 0.398748
O O4 0.858535 0.113943 0.371099
O O5 0.680216 0.837354 0.959865
O O6 0.781103 0.936914 0.047378
O O7 0.215179 0.616867 0.914852
O O8 0.395659 0.880317 0.818265
O O9 0.922334 0.103243 0.809050
O O10 0.218730 0.725093 0.036943
O O11 0.089386 0.701576 0.418379
O O12 0.398313 0.837925 0.321804
O O13 0.873399 0.678661 0.809852
O O14 0.592246 0.946304 0.397562
#
# Coordination Sequence:
#
# PCOD9015979 Si02
#       8
#     2   1   2   2   2   2   2   1
#     4  11  21  41  70  99 149 191 242 303 374 442
#     4  12  32  50  78 114 144 192 266 306 386 458
#     4  10  24  47  74 101 146 192 245 316 384 451
#     4  10  21  42  66 103 146 191 242 303 369 450
#     4  11  25  48  72 104 146 198 246 317 377 451
#     4  10  21  44  71  99 148 188 240 306 374 445
#     4  10  22  42  64 107 143 193 245 300 367 450
#     4  12  30  50  76 112 142 188 256 316 380 456
#
# _framework density 29.229703000000001
#
# number of rings (size 3 to 8) (size 9 to 14) (size 15 to 20)
#    0.000    1.429    4.286    1.286    8.000    3.429 
#    2.571    0.000    0.000    0.000    0.000    0.000 
#    0.000    0.000    0.000    0.000    0.000    0.000 
#
# Total GULP energy -78062.260870 kJ/mol
# GULP energy per Si atom -5575.875776 kJ/mol
# Density = 2.916317 g / cm^3
# Si number density = 29.229703 Si / 1000 Ang^3
#
#
#
# Elastic Constant Matrix: (Units=GPa)
#
#
# Indices 1 2 3 4 5 6 
#
# 1 207.5672 56.6374 52.0968 -0.8810 16.7391 -0.8730
# 2 56.6374 185.5118 18.7592 -4.9400 -7.5897 -36.3761
# 3 52.0968 18.7592 90.8478 10.4924 7.7782 -4.5381
# 4 -0.8810 -4.9400 10.4924 29.6305 -7.8001 1.7680
# 5 16.7391 -7.5897 7.7782 -7.8001 46.1657 -6.1727
# 6 -0.8730 -36.3761 -4.5381 1.7680 -6.1727 53.8750
#
#
#
# Elastic Compliance Matrix: (Units=1/GPa)
#
#
# Indices 1 2 3 4 5 6 
#
# 1 0.006352 -0.002058 -0.003170 0.000480 -0.002271 -0.001829
# 2 -0.002058 0.007244 -0.000530 0.001824 0.003016 0.005099
# 3 -0.003170 -0.000530 0.013807 -0.005674 -0.002130 0.000696
# 4 0.000480 0.001824 -0.005674 0.038044 0.007560 0.000379
# 5 -0.002271 0.003016 -0.002130 0.007560 0.025213 0.004461
# 6 -0.001829 0.005099 0.000696 0.000379 0.004461 0.022532
#
#
# Mechanical properties :
#
#
# Convention : Reuss Voigt Hill
#
# Bulk Modulus (GPa) = 62.94143 82.10149 72.52146
# Shear Modulus (GPa) = 38.46012 49.69648 44.07830
#
# Velocity S-wave (km/s) = 3.63132 4.12783 3.88751
# Velocity P-wave (km/s) = 6.25796 7.13218 6.70932
#
# Compressibility (1/GPa) = 0.01588779
#
# Stress axis : x y z
#
# Youngs Moduli (GPa) = 157.42210 138.04331 72.42561
#
# Poissons Ratio (x) = 0.28405 0.22961
# Poissons Ratio (y) = 0.32392 0.03839
# Poissons Ratio (z) = 0.49906 0.07317
#
# Static dielectric constant tensor:
#      x y z
#    x 2.505640 0.146710 -0.507370 
#    y 0.146710 2.608970 -0.990380 
#    z -0.507370 -0.990380 3.964830 
# 
# From -- ./inp_files/32288.got.cif
#   From: 2010.05.17/outbox.cif.g08.bks.cpg/sg2_17_cif.got.tgz:32288.got - 2010.06.03 11:33:40.
