data_PCOD9015702
_publ_section_title
;
Structure prediction by ZEFSAII (Michael W. Deem and Ramdas Pophale) SiO2 
 PCOD9015702
Probable space group: P -1
;
_chemical_formula_sum "Si O2"
_cell_formula_units_Z 16
_cell_length_a 8.880135
_cell_length_b 19.772460
_cell_length_c 5.293760
_cell_angle_alpha 77.906368
_cell_angle_beta 124.813465
_cell_angle_gamma 89.750030
_cell_volume 737.237378
_symmetry_space_group_name_H-M "P -1"
_symmetry_group_IT_number 2
_symmetry_cell_setting 'triclinic'
loop_
_space_group_symop_operation_xyz
x,y,z
-x,-y,-z
loop_
_atom_site_type_symbol
_atom_site_label
_atom_site_fract_x
_atom_site_fract_y
_atom_site_fract_z
Si Si1 0.540492 0.832322 0.443548
Si Si2 0.680351 0.034553 0.697370
Si Si3 0.790229 0.811014 0.206144
Si Si4 0.302894 0.709189 0.343887
Si Si5 0.496530 0.560783 0.650422
Si Si6 0.088010 0.685293 0.669734
Si Si7 0.177223 0.527650 0.754162
Si Si8 0.992139 0.062508 0.648968
O O1 0.398638 0.904758 0.233781
O O2 0.649209 0.821434 0.295189
O O3 0.414687 0.772912 0.408666
O O4 0.682172 0.830329 0.821562
O O5 0.783911 0.071903 0.549741
O O6 0.500000 0.000000 0.500000
O O7 0.844049 0.973863 0.981463
O O8 0.942278 0.862159 0.380750
O O9 0.892000 0.730641 0.369647
O O10 0.443988 0.639785 0.453690
O O11 0.219535 0.699360 0.549209
O O12 0.149008 0.714718 0.972130
O O13 0.500000 0.500000 0.500000
O O14 0.331824 0.549059 0.693454
O O15 0.705280 0.541987 0.960361
O O16 0.107873 0.600469 0.779334
O O17 0.000000 0.500000 0.500000
O O18 0.000000 0.000000 0.500000
#
# Coordination Sequence:
#
# PCOD9015702 Si02
#       8
#     2   2   2   2   2   2   2   2
#     4  12  27  44  71  99 136 182 223 281 332 401
#     4  11  24  46  69 101 137 174 229 272 337 400
#     4  12  27  45  67 103 138 174 233 274 333 405
#     4  11  24  44  69  94 134 182 222 279 341 394
#     4  10  21  42  64  95 133 169 227 275 333 403
#     4  11  24  45  66  96 137 176 227 277 336 404
#     4  10  23  40  66  97 131 177 219 279 337 396
#     4  11  26  42  73 100 136 181 217 284 334 396
#
# _framework density 21.702641
#
# number of rings (size 3 to 8) (size 9 to 14) (size 15 to 20)
#    0.000    1.000    2.500    3.000    7.000    2.500 
#    0.000    0.000    0.000    0.000    0.000    0.000 
#    0.000    0.000    0.000    0.000    0.000    0.000 
#
# Total GULP energy -89227.876032 kJ/mol
# GULP energy per Si atom -5576.742252 kJ/mol
# Density = 2.165324 g / cm^3
# Si number density = 21.702641 Si / 1000 Ang^3
#
#
#
# Elastic Constant Matrix: (Units=GPa)
#
#
# Indices 1 2 3 4 5 6 
#
# 1 71.9169 4.1566 1.8744 1.6001 19.1103 -10.0852
# 2 4.1566 88.3235 -7.3104 -5.9128 16.0347 -3.5225
# 3 1.8744 -7.3104 76.4965 4.5366 15.8987 9.2646
# 4 1.6001 -5.9128 4.5366 43.8685 -2.9290 12.2875
# 5 19.1103 16.0347 15.8987 -2.9290 35.5665 1.9896
# 6 -10.0852 -3.5225 9.2646 12.2875 1.9896 33.9881
#
#
#
# Elastic Compliance Matrix: (Units=1/GPa)
#
#
# Indices 1 2 3 4 5 6 
#
# 1 0.017912 0.001436 0.001463 -0.003331 -0.011588 0.006947
# 2 0.001436 0.012984 0.002643 0.000532 -0.007837 0.001318
# 3 0.001463 0.002643 0.015513 -0.001171 -0.008865 -0.002578
# 4 -0.003331 0.000532 -0.001171 0.026351 0.004826 -0.010423
# 5 -0.011588 -0.007837 -0.008865 0.004826 0.042576 -0.006072
# 6 0.006947 0.001318 -0.002578 -0.010423 -0.006072 0.036447
#
#
# Mechanical properties :
#
#
# Convention : Reuss Voigt Hill
#
# Bulk Modulus (GPa) = 17.39328 26.01979 21.70653
# Shear Modulus (GPa) = 31.27686 38.55238 34.91462
#
# Velocity S-wave (km/s) = 3.80037 4.21930 4.01530
# Velocity P-wave (km/s) = 5.22387 5.97929 5.61430
#
# Compressibility (1/GPa) = 0.05749348
#
# Stress axis : x y z
#
# Youngs Moduli (GPa) = 55.83004 77.01722 64.46059
#
# Poissons Ratio (x) = -0.11060 -0.09430
# Poissons Ratio (y) = -0.08017 -0.17039
# Poissons Ratio (z) = -0.08168 -0.20358
#
# Static dielectric constant tensor:
#      x y z
#    x 1.786950 -0.002710 -0.073450 
#    y -0.002710 1.792500 0.037280 
#    z -0.073450 0.037280 1.353130 
# 
# From -- ./inp_files/10756.got.cif
#   From: 2010.05.17/outbox.cif.g08.bks.cpg/sg2_6_cif.got.tgz:10756.got - 2010.06.03 11:33:40.
