data_PCOD9015277
_publ_section_title
;
Structure prediction by ZEFSAII (Michael W. Deem and Ramdas Pophale) SiO2 
 PCOD9015277
Probable space group: P -1
;
_chemical_formula_sum "Si O2"
_cell_formula_units_Z 15
_cell_length_a 8.833821
_cell_length_b 12.202562
_cell_length_c 21.702596
_cell_angle_alpha 28.565720
_cell_angle_beta 38.341365
_cell_angle_gamma 56.852484
_cell_volume 609.191779
_symmetry_space_group_name_H-M "P -1"
_symmetry_group_IT_number 2
_symmetry_cell_setting 'triclinic'
loop_
_space_group_symop_operation_xyz
x,y,z
-x,-y,-z
loop_
_atom_site_type_symbol
_atom_site_label
_atom_site_fract_x
_atom_site_fract_y
_atom_site_fract_z
Si Si1 0.311717 0.835978 0.473114
Si Si2 0.577422 0.807358 0.532393
Si Si3 0.724204 0.919569 0.189958
Si Si4 0.928474 0.653711 0.039278
Si Si5 0.436946 0.560523 0.922588
Si Si6 0.841233 0.924383 0.826042
Si Si7 0.500000 0.000000 0.000000
Si Si8 0.882597 0.302823 0.841943
O O1 0.449303 0.785957 0.515171
O O2 0.472833 0.839566 0.356877
O O3 0.998627 0.599234 0.683254
O O4 0.373822 0.138333 0.307024
O O5 0.396024 0.530037 0.759516
O O6 0.500000 0.000000 0.500000
O O7 0.901206 0.889524 0.390271
O O8 0.823913 0.711197 0.245737
O O9 0.704003 0.068600 0.062870
O O10 0.982667 0.140854 0.036115
O O11 0.986177 0.796761 0.885813
O O12 0.122106 0.521204 0.046831
O O13 0.500000 0.500000 0.000000
O O14 0.401981 0.326790 0.005258
O O15 0.729636 0.059485 0.842355
O O16 0.741311 0.219389 0.861783
#
# Coordination Sequence:
#
# PCOD9015277 Si02
#       8
#     2   2   2   2   2   2   1   2
#     4  11  23  42  73 105 142 187 246 306 371 433
#     4  12  22  40  77 111 138 191 252 300 362 442
#     4  10  21  41  74  99 140 190 240 303 356 442
#     4  11  21  44  74 108 137 191 243 302 375 424
#     4  11  25  45  74 106 150 191 238 312 377 427
#     4  12  25  49  71 105 157 191 249 305 368 445
#     4  12  28  48  72 104 154 202 234 310 372 428
#     4  11  23  45  69 103 141 193 248 292 367 446
#
# _framework density 24.622789000000001
#
# number of rings (size 3 to 8) (size 9 to 14) (size 15 to 20)
#    0.000    0.800    6.667    1.600    3.733    0.000 
#    2.400    2.667    0.000    0.000    0.000    0.000 
#    0.000    0.000    0.000    0.000    0.000    0.000 
#
# Total GULP energy -83618.095078 kJ/mol
# GULP energy per Si atom -5574.539672 kJ/mol
# Density = 2.456675 g / cm^3
# Si number density = 24.622789 Si / 1000 Ang^3
#
#
#
# Elastic Constant Matrix: (Units=GPa)
#
#
# Indices 1 2 3 4 5 6 
#
# 1 81.2005 12.8290 10.0307 -14.3080 -10.9818 26.4210
# 2 12.8290 99.0825 19.1708 8.2965 -1.5717 19.5136
# 3 10.0307 19.1708 128.5144 -2.7592 -31.4848 13.1627
# 4 -14.3080 8.2965 -2.7592 37.1224 1.4645 -7.9819
# 5 -10.9818 -1.5717 -31.4848 1.4645 33.9747 -2.3609
# 6 26.4210 19.5136 13.1627 -7.9819 -2.3609 51.0020
#
#
#
# Elastic Compliance Matrix: (Units=1/GPa)
#
#
# Indices 1 2 3 4 5 6 
#
# 1 0.016344 -0.001220 0.001113 0.004873 0.005543 -0.007268
# 2 -0.001220 0.011701 -0.001691 -0.004034 -0.001532 -0.004110
# 3 0.001113 -0.001691 0.010612 0.000754 0.009938 -0.002090
# 4 0.004873 -0.004034 0.000754 0.030518 0.001026 0.003648
# 5 0.005543 -0.001532 0.009938 0.001026 0.040123 -0.002832
# 6 -0.007268 -0.004110 -0.002090 0.003648 -0.002832 0.025924
#
#
# Mechanical properties :
#
#
# Convention : Reuss Voigt Hill
#
# Bulk Modulus (GPa) = 28.52269 43.65093 36.08681
# Shear Modulus (GPa) = 33.22178 42.20428 37.71303
#
# Velocity S-wave (km/s) = 3.67717 4.14458 3.91785
# Velocity P-wave (km/s) = 5.44406 6.37728 5.92906
#
# Compressibility (1/GPa) = 0.03505981
#
# Stress axis : x y z
#
# Youngs Moduli (GPa) = 61.18584 85.46382 94.23703
#
# Poissons Ratio (x) = 0.10430 -0.10493
# Poissons Ratio (y) = 0.07467 0.15937
# Poissons Ratio (z) = -0.06813 0.14453
#
# Static dielectric constant tensor:
#      x y z
#    x 1.947650 -0.135350 -0.002640 
#    y -0.135350 2.246140 -0.086900 
#    z -0.002640 -0.086900 1.971690 
# 
# From -- ./inp_files/589343.got.cif
#   From: 2010.05.17/outbox.cif.g08.bks.cpg/sg2_295_cif.got.tgz:589343.got - 2010.06.03 11:33:40.
