data_PCOD9015724
_publ_section_title
;
Structure prediction by ZEFSAII (Michael W. Deem and Ramdas Pophale) SiO2 
 PCOD9015724
Probable space group: P -1
;
_chemical_formula_sum "Si O2"
_cell_formula_units_Z 14
_cell_length_a 8.661060
_cell_length_b 8.061447
_cell_length_c 15.174358
_cell_angle_alpha 111.005887
_cell_angle_beta 75.644052
_cell_angle_gamma 145.508749
_cell_volume 557.827447
_symmetry_space_group_name_H-M "P -1"
_symmetry_group_IT_number 2
_symmetry_cell_setting 'triclinic'
loop_
_space_group_symop_operation_xyz
x,y,z
-x,-y,-z
loop_
_atom_site_type_symbol
_atom_site_label
_atom_site_fract_x
_atom_site_fract_y
_atom_site_fract_z
Si Si1 0.237067 0.924667 0.520045
Si Si2 0.386094 0.865898 0.831881
Si Si3 0.832271 0.775739 0.771437
Si Si4 0.683724 0.599489 0.572765
Si Si5 0.649810 0.522789 0.119319
Si Si6 0.040307 0.575375 0.658951
Si Si7 0.099744 0.465153 0.059878
O O1 0.191340 0.767039 0.583777
O O2 0.998106 0.856061 0.550966
O O3 0.169181 0.764706 0.408214
O O4 0.534620 0.277226 0.550522
O O5 0.389749 0.695770 0.861040
O O6 0.253505 0.703887 0.726103
O O7 0.174804 0.813301 0.898744
O O8 0.683201 0.223537 0.855699
O O9 0.684446 0.697532 0.685483
O O10 0.630809 0.627790 0.852852
O O11 0.904195 0.633987 0.723664
O O12 0.105634 0.137502 0.811480
O O13 0.500000 0.500000 0.500000
O O14 0.745533 0.554151 0.014311
O O15 0.000000 0.500000 0.000000
#
# Coordination Sequence:
#
# PCOD9015724 Si02
#       7
#     2   2   2   2   2   2   2
#     4  10  24  44  65  89 135 182 205 268 319 381
#     4  11  23  39  71  95 123 169 227 261 309 403
#     4  11  24  40  61  95 130 171 205 272 325 379
#     4  11  24  40  66  95 131 164 225 267 319 375
#     4  11  22  41  66  91 129 167 213 270 333 368
#     4  10  25  44  66  96 134 176 221 255 327 388
#     4  10  21  42  64  97 128 164 211 277 325 373
#
# _framework density 25.097366999999998
#
# number of rings (size 3 to 8) (size 9 to 14) (size 15 to 20)
#    0.000    1.429    0.000    6.429    4.000   10.857 
#    0.000    4.286    0.000    0.000    0.000    0.000 
#    0.000    0.000    0.000    0.000    0.000    0.000 
#
# Total GULP energy -78413.344283 kJ/mol
# GULP energy per Si atom -5600.953163 kJ/mol
# Density = 2.504024 g / cm^3
# Si number density = 25.097367 Si / 1000 Ang^3
#
#
#
# Elastic Constant Matrix: (Units=GPa)
#
#
# Indices 1 2 3 4 5 6 
#
# 1 39.1295 15.7613 23.6090 -15.4850 1.2306 17.4700
# 2 15.7613 86.5705 5.6872 8.5696 -11.8074 17.9566
# 3 23.6090 5.6872 69.7837 6.5476 -4.2859 -2.3981
# 4 -15.4850 8.5696 6.5476 38.9381 5.2680 -5.4688
# 5 1.2306 -11.8074 -4.2859 5.2680 54.4332 -8.7609
# 6 17.4700 17.9566 -2.3981 -5.4688 -8.7609 30.3723
#
#
#
# Elastic Compliance Matrix: (Units=1/GPa)
#
#
# Indices 1 2 3 4 5 6 
#
# 1 0.086299 -0.010496 -0.034584 0.038628 -0.017827 -0.044351
# 2 -0.010496 0.015395 0.003300 -0.009140 0.004200 -0.003238
# 3 -0.034584 0.003300 0.028622 -0.017719 0.008603 0.019493
# 4 0.038628 -0.009140 -0.017719 0.045652 -0.010778 -0.013103
# 5 -0.017827 0.004200 0.008603 -0.010778 0.023546 0.013302
# 6 -0.044351 -0.003238 0.019493 -0.013103 0.013302 0.063367
#
#
# Mechanical properties :
#
#
# Convention : Reuss Voigt Hill
#
# Bulk Modulus (GPa) = 21.38732 31.73319 26.56025
# Shear Modulus (GPa) = 13.81120 34.77715 24.29418
#
# Velocity S-wave (km/s) = 2.34840 3.72652 3.11464
# Velocity P-wave (km/s) = 3.98667 5.58457 4.85186
#
# Compressibility (1/GPa) = 0.04675668
#
# Stress axis : x y z
#
# Youngs Moduli (GPa) = 11.58767 64.95794 34.93786
#
# Poissons Ratio (x) = 0.68177 1.20830
# Poissons Ratio (y) = 0.12162 -0.11531
# Poissons Ratio (z) = 0.40075 -0.21439
#
# Static dielectric constant tensor:
#      x y z
#    x 2.091510 -0.037430 -0.004220 
#    y -0.037430 1.930110 -0.047320 
#    z -0.004220 -0.047320 1.972290 
# 
# From -- ./inp_files/45477.got.cif
#   From: 2010.05.17/outbox.cif.g08.bks.cpg/sg2_23_cif.got.tgz:45477.got - 2010.06.03 11:33:40.
