data_PCOD9015404
_publ_section_title
;
Structure prediction by ZEFSAII (Michael W. Deem and Ramdas Pophale) SiO2 
 PCOD9015404
Probable space group: P -1
;
_chemical_formula_sum "Si O2"
_cell_formula_units_Z 16
_cell_length_a 18.531068
_cell_length_b 9.611837
_cell_length_c 11.653726
_cell_angle_alpha 46.032529
_cell_angle_beta 136.703268
_cell_angle_gamma 100.819828
_cell_volume 784.321305
_symmetry_space_group_name_H-M "P -1"
_symmetry_group_IT_number 2
_symmetry_cell_setting 'triclinic'
loop_
_space_group_symop_operation_xyz
x,y,z
-x,-y,-z
loop_
_atom_site_type_symbol
_atom_site_label
_atom_site_fract_x
_atom_site_fract_y
_atom_site_fract_z
Si Si1 0.278176 0.407237 0.693817
Si Si2 0.827565 0.026442 0.474626
Si Si3 0.103384 0.867858 0.867754
Si Si4 0.240498 0.328782 0.436967
Si Si5 0.357702 0.652985 0.117868
Si Si6 0.854410 0.067641 0.752973
Si Si7 0.019842 0.284788 0.716718
Si Si8 0.497660 0.846028 0.298631
O O1 0.267332 0.323266 0.605240
O O2 0.275975 0.641823 0.533779
O O3 0.136095 0.563087 0.508702
O O4 0.392128 0.141573 0.039317
O O5 0.828728 0.795526 0.590898
O O6 0.952959 0.989377 0.579409
O O7 0.842957 0.045554 0.617130
O O8 0.690965 0.263544 0.116853
O O9 0.079888 0.057405 0.828096
O O10 0.150035 0.615328 0.127551
O O11 0.221852 0.792449 0.961173
O O12 0.380032 0.189655 0.606091
O O13 0.434633 0.755785 0.192096
O O14 0.445464 0.356762 0.416746
O O15 0.876222 0.847297 0.978727
O O16 0.000000 0.000000 0.000000
O O17 0.000000 0.500000 0.500000
#
# Coordination Sequence:
#
# PCOD9015404 Si02
#       8
#     2   2   2   2   2   2   2   2
#     4  11  19  40  65  87 123 174 216 259 304 382
#     4  12  22  41  65 102 131 161 214 274 324 372
#     4  11  21  41  62 100 131 163 206 269 328 385
#     4  11  23  38  69  95 126 168 219 269 310 374
#     4  10  23  39  66  94 132 168 211 276 314 372
#     4  10  21  42  62  88 134 169 206 258 320 393
#     4  11  22  38  64  93 127 169 210 250 327 390
#     4  10  22  43  62  95 127 173 226 253 319 377
#
# _framework density 20.399802999999999
#
# number of rings (size 3 to 8) (size 9 to 14) (size 15 to 20)
#    0.000    1.250    5.000    2.625    0.000    0.000 
#    4.500    1.250    0.000    0.000    0.000    0.000 
#    0.000    0.000    0.000    0.000    0.000    0.000 
#
# Total GULP energy -89160.905912 kJ/mol
# GULP energy per Si atom -5572.556620 kJ/mol
# Density = 2.035337 g / cm^3
# Si number density = 20.399803 Si / 1000 Ang^3
#
#
#
# Elastic Constant Matrix: (Units=GPa)
#
#
# Indices 1 2 3 4 5 6 
#
# 1 17.1250 20.0308 7.3143 13.7158 -12.3892 -18.1791
# 2 20.0308 47.1365 39.4712 -19.9069 -15.8108 -8.7085
# 3 7.3143 39.4712 131.0711 -9.3172 -18.1522 -32.0819
# 4 13.7158 -19.9069 -9.3172 22.4829 -10.6512 18.9681
# 5 -12.3892 -15.8108 -18.1522 -10.6512 30.0996 9.1879
# 6 -18.1791 -8.7085 -32.0819 18.9681 9.1879 6.0958
#
#
#
# Elastic Compliance Matrix: (Units=1/GPa)
#
#
# Indices 1 2 3 4 5 6 
#
# 1 0.030478 0.002502 -0.004539 0.019093 0.026799 -0.029224
# 2 0.002502 0.029399 -0.000242 0.001888 0.007553 0.030930
# 3 -0.004539 -0.000242 0.009804 0.008521 0.006506 0.001397
# 4 0.019093 0.001888 0.008521 0.018493 0.011493 0.029614
# 5 0.026799 0.007553 0.006506 0.011493 0.053688 0.008269
# 6 -0.029224 0.030930 0.001397 0.029614 0.008269 0.023821
#
#
# Mechanical properties :
#
#
# Convention : Reuss Voigt Hill
#
# Bulk Modulus (GPa) = 15.35506 36.55168 25.95337
# Shear Modulus (GPa) = 26.04842 20.30343 23.17592
#
# Velocity S-wave (km/s) = 3.57724 3.15822 3.37424
# Velocity P-wave (km/s) = 4.96041 5.59068 5.28495
#
# Compressibility (1/GPa) = 0.06512509
#
# Stress axis : x y z
#
# Youngs Moduli (GPa) = 32.81012 34.01423 101.99495
#
# Poissons Ratio (x) = -0.08512 0.46294
# Poissons Ratio (y) = -0.08210 0.02470
# Poissons Ratio (z) = 0.14892 0.00824
#
# Static dielectric constant tensor:
#      x y z
#    x 1.900790 0.097430 -0.106350 
#    y 0.097430 1.758510 -0.048410 
#    z -0.106350 -0.048410 1.861100 
# 
# From -- ./inp_files/469854.got.cif
#   From: 2010.05.17/outbox.cif.g08.bks.cpg/sg2_235_cif.got.tgz:469854.got - 2010.06.03 11:33:40.
