data_PCOD9015367
_publ_section_title
;
Structure prediction by ZEFSAII (Michael W. Deem and Ramdas Pophale) SiO2 
 PCOD9015367
Probable space group: P -1
;
_chemical_formula_sum "Si O2"
_cell_formula_units_Z 16
_cell_length_a 8.973677
_cell_length_b 8.974675
_cell_length_c 11.519240
_cell_angle_alpha 82.847922
_cell_angle_beta 52.871810
_cell_angle_gamma 86.121858
_cell_volume 733.864229
_symmetry_space_group_name_H-M "P -1"
_symmetry_group_IT_number 2
_symmetry_cell_setting 'triclinic'
loop_
_space_group_symop_operation_xyz
x,y,z
-x,-y,-z
loop_
_atom_site_type_symbol
_atom_site_label
_atom_site_fract_x
_atom_site_fract_y
_atom_site_fract_z
Si Si1 0.035398 0.728236 0.576535
Si Si2 0.064861 0.905897 0.779055
Si Si3 0.672860 0.532036 0.771276
Si Si4 0.541444 0.064762 0.347104
Si Si5 0.152351 0.190966 0.561973
Si Si6 0.347926 0.498194 0.471857
Si Si7 0.686190 0.944364 0.064100
Si Si8 0.562460 0.247524 0.977428
O O1 0.000648 0.823002 0.699495
O O2 0.232693 0.651027 0.508001
O O3 0.878620 0.599023 0.651232
O O4 0.009782 0.813504 0.458483
O O5 0.263367 0.843990 0.737706
O O6 0.105755 0.075181 0.697600
O O7 0.902018 0.901444 0.950888
O O8 0.575196 0.516930 0.693670
O O9 0.686933 0.370659 0.840763
O O10 0.561365 0.650373 0.889512
O O11 0.343429 0.142082 0.408100
O O12 0.595655 0.946728 0.233801
O O13 0.500000 0.000000 0.500000
O O14 0.208285 0.354978 0.567321
O O15 0.500000 0.500000 0.500000
O O16 0.567839 0.836447 0.046590
O O17 0.663974 0.115361 0.011431
#
# Coordination Sequence:
#
# PCOD9015367 Si02
#       8
#     2   2   2   2   2   2   2   2
#     4  11  22  39  63  94 126 167 214 263 305 377
#     4  11  23  38  63  96 131 165 210 265 318 373
#     4  10  21  42  61  91 125 166 214 259 315 367
#     4  10  23  42  63  93 131 166 202 262 325 376
#     4  10  22  40  64  93 129 168 216 262 312 371
#     4  11  24  40  64  93 131 166 212 258 318 379
#     4  11  22  39  65  95 126 163 217 257 320 374
#     4  10  23  38  66  90 124 166 210 267 309 373
#
# _framework density 21.802396999999999
#
# number of rings (size 3 to 8) (size 9 to 14) (size 15 to 20)
#    0.000    1.500    1.250    4.500    5.250    4.000 
#    0.000    0.000    0.000    2.250    0.000    0.000 
#    0.000    0.000    0.000    0.000    0.000    0.000 
#
# Total GULP energy -89383.066891 kJ/mol
# GULP energy per Si atom -5586.441681 kJ/mol
# Density = 2.175277 g / cm^3
# Si number density = 21.802397 Si / 1000 Ang^3
#
#
#
# Elastic Constant Matrix: (Units=GPa)
#
#
# Indices 1 2 3 4 5 6 
#
# 1 119.8188 10.6882 19.7916 19.8853 10.4958 -2.6640
# 2 10.6882 74.0304 17.2551 6.0373 11.9742 1.4280
# 3 19.7916 17.2551 90.0908 20.2491 10.9303 -0.2355
# 4 19.8853 6.0373 20.2491 32.7975 2.4318 1.2087
# 5 10.4958 11.9742 10.9303 2.4318 37.8814 9.4051
# 6 -2.6640 1.4280 -0.2355 1.2087 9.4051 26.1882
#
#
#
# Elastic Compliance Matrix: (Units=1/GPa)
#
#
# Indices 1 2 3 4 5 6 
#
# 1 0.009629 -0.000463 -0.000512 -0.005326 -0.002571 0.002169
# 2 -0.000463 0.014765 -0.002029 -0.000907 -0.004051 0.000626
# 3 -0.000512 -0.002029 0.013688 -0.007598 -0.003086 0.001640
# 4 -0.005326 -0.000907 -0.007598 0.038526 0.002264 -0.003152
# 5 -0.002571 -0.004051 -0.003086 0.002264 0.032035 -0.011678
# 6 0.002169 0.000626 0.001640 -0.003152 -0.011678 0.042726
#
#
# Mechanical properties :
#
#
# Convention : Reuss Voigt Hill
#
# Bulk Modulus (GPa) = 31.17821 42.15664 36.66743
# Shear Modulus (GPa) = 29.74996 35.12042 32.43519
#
# Velocity S-wave (km/s) = 3.69796 4.01790 3.86124
# Velocity P-wave (km/s) = 5.70654 6.39550 6.06082
#
# Compressibility (1/GPa) = 0.03207368
#
# Stress axis : x y z
#
# Youngs Moduli (GPa) = 103.85149 67.72856 73.05901
#
# Poissons Ratio (x) = 0.03133 0.03741
# Poissons Ratio (y) = 0.04804 0.14826
# Poissons Ratio (z) = 0.05318 0.13744
#
# Static dielectric constant tensor:
#      x y z
#    x 1.820310 -0.029170 -0.009940 
#    y -0.029170 1.827020 0.010110 
#    z -0.009940 0.010110 1.817380 
# 
# From -- ./inp_files/382208.got.cif
#   From: 2010.05.17/outbox.cif.g08.bks.cpg/sg2_192_cif.got.tgz:382208.got - 2010.06.03 11:33:40.
