data_PCOD9015317
_publ_section_title
;
Structure prediction by ZEFSAII (Michael W. Deem and Ramdas Pophale) SiO2 
 PCOD9015317
Probable space group: P -1
;
_chemical_formula_sum "Si O2"
_cell_formula_units_Z 16
_cell_length_a 18.987390
_cell_length_b 22.406375
_cell_length_c 8.348031
_cell_angle_alpha 134.896647
_cell_angle_beta 50.225429
_cell_angle_gamma 162.585954
_cell_volume 743.355635
_symmetry_space_group_name_H-M "P -1"
_symmetry_group_IT_number 2
_symmetry_cell_setting 'triclinic'
loop_
_space_group_symop_operation_xyz
x,y,z
-x,-y,-z
loop_
_atom_site_type_symbol
_atom_site_label
_atom_site_fract_x
_atom_site_fract_y
_atom_site_fract_z
Si Si1 0.243053 0.218424 0.161451
Si Si2 0.634172 0.495713 0.342465
Si Si3 0.102505 0.648232 0.996351
Si Si4 0.485602 0.110373 0.322868
Si Si5 0.056170 0.276663 0.998021
Si Si6 0.419241 0.200724 0.329683
Si Si7 0.140719 0.536051 0.308309
Si Si8 0.469499 0.572463 0.154483
O O1 0.359717 0.282296 0.279052
O O2 0.280837 0.350741 0.387441
O O3 0.411882 0.312791 0.971179
O O4 0.000000 0.000000 0.000000
O O5 0.804799 0.628303 0.191320
O O6 0.624282 0.405334 0.297986
O O7 0.309585 0.774704 0.835891
O O8 0.886980 0.485398 0.881598
O O9 0.000000 0.500000 0.000000
O O10 0.244965 0.854376 0.223713
O O11 0.457396 0.159164 0.324330
O O12 0.599449 0.241182 0.569178
O O13 0.023421 0.349598 0.185031
O O14 0.200351 0.371883 0.127964
O O15 0.808165 0.018953 0.856525
O O16 0.393949 0.261441 0.593262
O O17 0.000000 0.500000 0.500000
O O18 0.500000 0.500000 0.000000
#
# Coordination Sequence:
#
# PCOD9015317 Si02
#       8
#     2   2   2   2   2   2   2   2
#     4  10  21  42  60  85 125 162 209 265 310 367
#     4  10  24  39  60  92 122 160 213 260 306 373
#     4  10  22  41  66  93 122 163 204 257 319 378
#     4  10  22  40  63  92 126 159 207 258 312 376
#     4  11  24  42  62  94 131 163 211 262 314 375
#     4  12  23  39  66  91 124 168 208 260 314 369
#     4  10  21  42  66  90 129 164 203 260 316 371
#     4  11  23  40  63  92 126 169 213 256 313 377
#
# _framework density 21.524017000000001
#
# number of rings (size 3 to 8) (size 9 to 14) (size 15 to 20)
#    0.000    1.500    3.750    0.750    3.500    1.000 
#    0.000    2.500    0.000    0.000    0.000    0.000 
#    0.000    0.000    0.000    0.000    0.000    0.000 
#
# Total GULP energy -89109.787839 kJ/mol
# GULP energy per Si atom -5569.361740 kJ/mol
# Density = 2.147503 g / cm^3
# Si number density = 21.524017 Si / 1000 Ang^3
#
#
#
# Elastic Constant Matrix: (Units=GPa)
#
#
# Indices 1 2 3 4 5 6 
#
# 1 110.5354 11.4858 39.2524 32.0853 -0.0986 -7.6248
# 2 11.4858 36.1517 29.1230 16.2688 7.2725 -8.8189
# 3 39.2524 29.1230 141.2069 36.4734 -1.4627 2.5359
# 4 32.0853 16.2688 36.4734 34.9069 10.5275 -3.7665
# 5 -0.0986 7.2725 -1.4627 10.5275 39.4760 -0.5977
# 6 -7.6248 -8.8189 2.5359 -3.7665 -0.5977 29.1542
#
#
#
# Elastic Compliance Matrix: (Units=1/GPa)
#
#
# Indices 1 2 3 4 5 6 
#
# 1 0.012991 0.002292 -0.000784 -0.012830 0.003042 0.002564
# 2 0.002292 0.041260 -0.006262 -0.012176 -0.004399 0.011962
# 3 -0.000784 -0.006262 0.011245 -0.009813 0.004121 -0.004261
# 4 -0.012830 -0.012176 -0.009813 0.060848 -0.014359 0.001382
# 5 0.003042 -0.004399 0.004121 -0.014359 0.030100 -0.002132
# 6 0.002564 0.011962 -0.004261 0.001382 -0.002132 0.039095
#
#
# Mechanical properties :
#
#
# Convention : Reuss Voigt Hill
#
# Bulk Modulus (GPa) = 17.86136 49.73517 33.79827
# Shear Modulus (GPa) = 22.35038 34.57626 28.46332
#
# Velocity S-wave (km/s) = 3.22591 4.01235 3.64042
# Velocity P-wave (km/s) = 4.71080 6.67999 5.77987
#
# Compressibility (1/GPa) = 0.05598676
#
# Stress axis : x y z
#
# Youngs Moduli (GPa) = 76.97588 24.23662 88.92674
#
# Poissons Ratio (x) = -0.05555 0.06976
# Poissons Ratio (y) = -0.17642 0.55687
# Poissons Ratio (z) = 0.06039 0.15177
#
# Static dielectric constant tensor:
#      x y z
#    x 1.829820 0.006340 0.072920 
#    y 0.006340 1.738600 0.118650 
#    z 0.072920 0.118650 1.673700 
# 
# From -- ./inp_files/315104.got.cif
#   From: 2010.05.17/outbox.cif.g08.bks.cpg/sg2_158_cif.got.tgz:315104.got - 2010.06.03 11:33:40.
