data_PCOD9015533
_publ_section_title
;
Structure prediction by ZEFSAII (Michael W. Deem and Ramdas Pophale) SiO2 
 PCOD9015533
Probable space group: P -1
;
_chemical_formula_sum "Si O2"
_cell_formula_units_Z 16
_cell_length_a 15.536167
_cell_length_b 8.701957
_cell_length_c 15.570361
_cell_angle_alpha 104.799393
_cell_angle_beta 26.966412
_cell_angle_gamma 88.436709
_cell_volume 750.822146
_symmetry_space_group_name_H-M "P -1"
_symmetry_group_IT_number 2
_symmetry_cell_setting 'triclinic'
loop_
_space_group_symop_operation_xyz
x,y,z
-x,-y,-z
loop_
_atom_site_type_symbol
_atom_site_label
_atom_site_fract_x
_atom_site_fract_y
_atom_site_fract_z
Si Si1 0.874199 0.721292 0.109140
Si Si2 0.707200 0.295895 0.033448
Si Si3 0.310489 0.702849 0.743550
Si Si4 0.514714 0.033402 0.373430
Si Si5 0.779901 0.499583 0.722942
Si Si6 0.527423 0.851338 0.881848
Si Si7 0.227621 0.104785 0.477931
Si Si8 0.560567 0.346408 0.799623
O O1 0.703588 0.871323 0.355229
O O2 0.701461 0.801943 0.191975
O O3 0.000000 0.500000 0.000000
O O4 0.072596 0.753101 0.923626
O O5 0.963923 0.221901 0.762138
O O6 0.695541 0.310167 0.149138
O O7 0.657966 0.140355 0.017570
O O8 0.515484 0.511736 0.194824
O O9 0.500000 0.500000 0.500000
O O10 0.362919 0.859541 0.700204
O O11 0.397074 0.102743 0.396024
O O12 0.576889 0.679001 0.873608
O O13 0.765182 0.331214 0.672548
O O14 0.000000 0.500000 0.500000
O O15 0.676814 0.551805 0.917497
O O16 0.736109 0.816129 0.631291
O O17 0.500000 0.000000 0.000000
O O18 0.338178 0.875767 0.339878
#
# Coordination Sequence:
#
# PCOD9015533 Si02
#       8
#     2   2   2   2   2   2   2   2
#     4  11  24  45  71  98 132 177 221 280 341 403
#     4  11  26  44  65 101 140 174 226 281 332 399
#     4  12  24  46  72  99 140 181 225 279 345 404
#     4  11  25  43  68 102 135 175 226 278 340 409
#     4  10  21  42  63  93 131 171 225 277 332 399
#     4  11  23  42  67  97 134 175 224 276 333 402
#     4  12  24  42  69  97 138 176 224 279 336 397
#     4  10  24  41  63  96 131 174 224 274 332 401
#
# _framework density 21.309972999999999
#
# number of rings (size 3 to 8) (size 9 to 14) (size 15 to 20)
#    0.000    1.000    5.000    1.125    3.500    0.500 
#    2.250    0.000    0.000    0.000    0.000    0.000 
#    0.000    0.000    0.000    0.000    0.000    0.000 
#
# Total GULP energy -89167.111767 kJ/mol
# GULP energy per Si atom -5572.944485 kJ/mol
# Density = 2.126147 g / cm^3
# Si number density = 21.309973 Si / 1000 Ang^3
#
#
#
# Elastic Constant Matrix: (Units=GPa)
#
#
# Indices 1 2 3 4 5 6 
#
# 1 64.2041 0.4777 35.2077 -0.9633 7.9014 -0.5546
# 2 0.4777 67.0352 28.0949 -3.2733 -3.4483 7.3716
# 3 35.2077 28.0949 97.9370 -19.6322 -3.5449 1.3554
# 4 -0.9633 -3.2733 -19.6322 39.8934 -2.1654 -1.9672
# 5 7.9014 -3.4483 -3.5449 -2.1654 29.8539 -10.2142
# 6 -0.5546 7.3716 1.3554 -1.9672 -10.2142 43.0362
#
#
#
# Elastic Compliance Matrix: (Units=1/GPa)
#
#
# Indices 1 2 3 4 5 6 
#
# 1 0.021959 0.003698 -0.010139 -0.004672 -0.007631 -0.002056
# 2 0.003698 0.017973 -0.006883 -0.002028 -0.000938 -0.003129
# 3 -0.010139 -0.006883 0.017651 0.008270 0.005314 0.002131
# 4 -0.004672 -0.002028 0.008270 0.029253 0.004977 0.002545
# 5 -0.007631 -0.000938 0.005314 0.004977 0.039662 0.009536
# 6 -0.002056 -0.003129 0.002131 0.002545 0.009536 0.026058
#
#
# Mechanical properties :
#
#
# Convention : Reuss Voigt Hill
#
# Bulk Modulus (GPa) = 32.32528 39.63745 35.98137
# Shear Modulus (GPa) = 26.38315 33.58309 29.98312
#
# Velocity S-wave (km/s) = 3.52243 3.97411 3.75507
# Velocity P-wave (km/s) = 5.63431 6.30070 5.97680
#
# Compressibility (1/GPa) = 0.03093554
#
# Stress axis : x y z
#
# Youngs Moduli (GPa) = 45.53895 55.64043 56.65499
#
# Poissons Ratio (x) = -0.20578 0.57445
# Poissons Ratio (y) = -0.16842 0.38993
# Poissons Ratio (z) = 0.46174 0.38295
#
# Static dielectric constant tensor:
#      x y z
#    x 1.992560 0.056120 0.019960 
#    y 0.056120 1.736650 0.027770 
#    z 0.019960 0.027770 1.785200 
# 
# From -- ./inp_files/314957.got.cif
#   From: 2010.05.17/outbox.cif.g08.bks.cpg/sg2_158_cif.got.tgz:314957.got - 2010.06.03 11:33:40.
