data_PCOD9015247
_publ_section_title
;
Structure prediction by ZEFSAII (Michael W. Deem and Ramdas Pophale) SiO2 
 PCOD9015247
Probable space group: P -1
;
_chemical_formula_sum "Si O2"
_cell_formula_units_Z 16
_cell_length_a 9.701847
_cell_length_b 15.239309
_cell_length_c 9.203473
_cell_angle_alpha 146.755968
_cell_angle_beta 74.531933
_cell_angle_gamma 119.591397
_cell_volume 617.362567
_symmetry_space_group_name_H-M "P -1"
_symmetry_group_IT_number 2
_symmetry_cell_setting 'triclinic'
loop_
_space_group_symop_operation_xyz
x,y,z
-x,-y,-z
loop_
_atom_site_type_symbol
_atom_site_label
_atom_site_fract_x
_atom_site_fract_y
_atom_site_fract_z
Si Si1 0.968098 0.257964 0.842570
Si Si2 0.790774 0.946975 0.014098
Si Si3 0.807688 0.327089 0.533846
Si Si4 0.412921 0.820374 0.874126
Si Si5 0.629744 0.192223 0.803079
Si Si6 0.864364 0.923866 0.637136
Si Si7 0.579507 0.626570 0.796216
Si Si8 0.483871 0.639622 0.301270
O O1 0.813949 0.246677 0.780333
O O2 0.070485 0.205658 0.627978
O O3 0.932806 0.109987 0.778492
O O4 0.059468 0.465129 0.170070
O O5 0.841701 0.159679 0.321029
O O6 0.588988 0.833433 0.881717
O O7 0.761875 0.810802 0.970254
O O8 0.118863 0.058785 0.167120
O O9 0.752077 0.308118 0.353405
O O10 0.640331 0.291552 0.615514
O O11 0.406525 0.513608 0.291680
O O12 0.500000 0.000000 0.000000
O O13 0.500000 0.000000 0.500000
O O14 0.647655 0.165788 0.932970
O O15 0.548537 0.323134 0.018029
O O16 0.665685 0.810548 0.513145
O O17 0.500000 0.500000 0.500000
O O18 0.500000 0.500000 0.000000
#
# Coordination Sequence:
#
# PCOD9015247 Si02
#       8
#     2   2   2   2   2   2   2   2
#     4  11  26  44  71 113 154 191 242 308 366 431
#     4  10  21  41  73 110 145 189 245 298 361 436
#     4  11  22  41  77 116 142 186 252 305 357 432
#     4   9  18  36  69 102 131 176 238 288 337 419
#     4  11  26  45  71 103 144 192 242 294 366 434
#     4  11  23  43  73 108 151 192 243 300 366 436
#     4  11  24  45  74 110 140 188 251 300 359 433
#     4  12  24  41  78 109 142 193 245 296 366 443
#
# _framework density 25.916701
#
# number of rings (size 3 to 8) (size 9 to 14) (size 15 to 20)
#    0.000    1.250    3.750    2.250    5.250    2.000 
#    0.000    1.875    2.750    9.000    0.000    0.000 
#    0.000    0.000    0.000    0.000    0.000    0.000 
#
# Total GULP energy -89340.052344 kJ/mol
# GULP energy per Si atom -5583.753271 kJ/mol
# Density = 2.585771 g / cm^3
# Si number density = 25.916701 Si / 1000 Ang^3
#
#
#
# Elastic Constant Matrix: (Units=GPa)
#
#
# Indices 1 2 3 4 5 6 
#
# 1 107.7696 12.2974 45.4996 7.9300 -2.8498 8.5160
# 2 12.2974 97.6160 45.3812 2.8527 -7.0883 6.5904
# 3 45.4996 45.3812 198.4357 8.1230 0.1957 -2.0701
# 4 7.9300 2.8527 8.1230 51.2818 -3.0765 -2.3218
# 5 -2.8498 -7.0883 0.1957 -3.0765 49.5166 -6.0700
# 6 8.5160 6.5904 -2.0701 -2.3218 -6.0700 35.6477
#
#
#
# Elastic Compliance Matrix: (Units=1/GPa)
#
#
# Indices 1 2 3 4 5 6 
#
# 1 0.010617 0.000024 -0.002412 -0.001373 0.000203 -0.002736
# 2 0.000024 0.011752 -0.002707 -0.000239 0.001421 -0.002109
# 3 -0.002412 -0.002707 0.006244 -0.000429 -0.000413 0.001341
# 4 -0.001373 -0.000239 -0.000429 0.019960 0.001359 0.001879
# 5 0.000203 0.001421 -0.000413 0.001359 0.020903 0.003312
# 6 -0.002736 -0.002109 0.001341 0.001879 0.003312 0.029860
#
#
# Mechanical properties :
#
#
# Convention : Reuss Voigt Hill
#
# Bulk Modulus (GPa) = 54.28290 67.79751 61.04020
# Shear Modulus (GPa) = 43.22731 47.33210 45.27971
#
# Velocity S-wave (km/s) = 4.08846 4.27818 4.18440
# Velocity P-wave (km/s) = 6.57860 7.11480 6.85195
#
# Compressibility (1/GPa) = 0.01842201
#
# Stress axis : x y z
#
# Youngs Moduli (GPa) = 94.18477 85.09092 160.16562
#
# Poissons Ratio (x) = -0.00200 0.38639
# Poissons Ratio (y) = -0.00222 0.43352
# Poissons Ratio (z) = 0.22721 0.23031
#
# Static dielectric constant tensor:
#      x y z
#    x 1.604800 0.558850 0.376540 
#    y 0.558850 1.410350 -0.346590 
#    z 0.376540 -0.346590 1.822070 
# 
# From -- ./inp_files/508196.got.cif
#   From: 2010.05.17/outbox.cif.g08.bks.cpg/sg2_255_cif.got.tgz:508196.got - 2010.06.03 11:33:40.
