data_PCOD9015111
_publ_section_title
;
Structure prediction by ZEFSAII (Michael W. Deem and Ramdas Pophale) SiO2 
 PCOD9015111
Probable space group: P -1
;
_chemical_formula_sum "Si O2"
_cell_formula_units_Z 14
_cell_length_a 17.992048
_cell_length_b 7.734970
_cell_length_c 10.444512
_cell_angle_alpha 134.886933
_cell_angle_beta 144.037828
_cell_angle_gamma 49.937054
_cell_volume 595.539185
_symmetry_space_group_name_H-M "P -1"
_symmetry_group_IT_number 2
_symmetry_cell_setting 'triclinic'
loop_
_space_group_symop_operation_xyz
x,y,z
-x,-y,-z
loop_
_atom_site_type_symbol
_atom_site_label
_atom_site_fract_x
_atom_site_fract_y
_atom_site_fract_z
Si Si1 0.438369 0.275685 0.515390
Si Si2 0.292457 0.482682 0.180455
Si Si3 0.930625 0.742850 0.156358
Si Si4 0.842364 0.676560 0.735698
Si Si5 0.261595 0.028852 0.488575
Si Si6 0.494570 0.322366 0.020130
Si Si7 0.238806 0.041869 0.746590
O O1 0.397911 0.321115 0.335269
O O2 0.303877 0.331946 0.434390
O O3 0.518172 0.484985 0.778734
O O4 0.500000 0.000000 0.500000
O O5 0.308042 0.764877 0.347144
O O6 0.156835 0.473075 0.058394
O O7 0.273666 0.319471 0.946213
O O8 0.867910 0.935800 0.278050
O O9 0.073010 0.595597 0.295046
O O10 0.898652 0.821571 0.006642
O O11 0.835378 0.808562 0.658440
O O12 0.201994 0.991031 0.524523
O O13 0.383566 0.161898 0.757993
O O14 0.631165 0.142896 0.134067
O O15 0.500000 0.500000 0.000000
#
# Coordination Sequence:
#
# PCOD9015111 Si02
#       7
#     2   2   2   2   2   2   2
#     4  11  22  42  68  93 131 176 217 264 327 387
#     4   9  22  42  66  90 135 174 209 267 334 377
#     4   8  21  46  67  91 129 174 226 262 317 399
#     4  10  21  41  71  93 127 176 220 268 325 379
#     4  12  24  39  68 100 133 171 213 273 337 376
#     4  12  24  41  64  98 138 167 223 270 315 403
#     4  10  23  44  64  97 136 170 216 268 326 393
#
# _framework density 23.508109999999999
#
# number of rings (size 3 to 8) (size 9 to 14) (size 15 to 20)
#    0.857    0.857    2.857    1.286    0.000    2.857 
#    0.000    0.714    3.143    0.000    0.000    0.000 
#    0.000    0.000    0.000    0.000    0.000    0.000 
#
# Total GULP energy -78202.647841 kJ/mol
# GULP energy per Si atom -5585.903417 kJ/mol
# Density = 2.345460 g / cm^3
# Si number density = 23.508110 Si / 1000 Ang^3
#
#
#
# Elastic Constant Matrix: (Units=GPa)
#
#
# Indices 1 2 3 4 5 6 
#
# 1 68.1433 34.4679 38.0018 -12.9789 -15.4692 -15.0673
# 2 34.4679 121.8246 74.7223 -2.3195 -7.9786 -17.3955
# 3 38.0018 74.7223 80.1657 3.2326 -4.1402 -10.7044
# 4 -12.9789 -2.3195 3.2326 53.7084 7.5221 -6.5909
# 5 -15.4692 -7.9786 -4.1402 7.5221 44.6450 0.7642
# 6 -15.0673 -17.3955 -10.7044 -6.5909 0.7642 31.6819
#
#
#
# Elastic Compliance Matrix: (Units=1/GPa)
#
#
# Indices 1 2 3 4 5 6 
#
# 1 0.026324 0.003391 -0.014118 0.007745 0.006924 0.011055
# 2 0.003391 0.020743 -0.020040 0.003441 0.002326 0.006891
# 3 -0.014118 -0.020040 0.037054 -0.006777 -0.003784 -0.006517
# 4 0.007745 0.003441 -0.006777 0.022189 -0.001204 0.007928
# 5 0.006924 0.002326 -0.003784 -0.001204 0.025024 0.002437
# 6 0.011055 0.006891 -0.006517 0.007928 0.002437 0.039993
#
#
# Mechanical properties :
#
#
# Convention : Reuss Voigt Hill
#
# Bulk Modulus (GPa) = 44.27465 62.72417 53.49941
# Shear Modulus (GPa) = 20.79946 34.20316 27.50131
#
# Velocity S-wave (km/s) = 2.97775 3.81852 3.42404
# Velocity P-wave (km/s) = 5.54052 6.79568 6.19994
#
# Compressibility (1/GPa) = 0.02258629
#
# Stress axis : x y z
#
# Youngs Moduli (GPa) = 37.98766 48.20941 26.98763
#
# Poissons Ratio (x) = -0.16348 0.38101
# Poissons Ratio (y) = -0.12882 0.54084
# Poissons Ratio (z) = 0.53631 0.96614
#
# Static dielectric constant tensor:
#      x y z
#    x 2.056180 0.028560 0.006150 
#    y 0.028560 1.839190 0.041140 
#    z 0.006150 0.041140 1.971930 
# 
# From -- ./inp_files/474046.got.cif
#   From: 2010.05.17/outbox.cif.g08.bks.cpg/sg2_238_cif.got.tgz:474046.got - 2010.06.03 11:33:40.
