data_PCOD9015798
_publ_section_title
;
Structure prediction by ZEFSAII (Michael W. Deem and Ramdas Pophale) SiO2 
 PCOD9015798
Probable space group: P -1
;
_chemical_formula_sum "Si O2"
_cell_formula_units_Z 14
_cell_length_a 14.148768
_cell_length_b 10.878095
_cell_length_c 13.434968
_cell_angle_alpha 100.349702
_cell_angle_beta 138.964947
_cell_angle_gamma 47.119934
_cell_volume 716.714697
_symmetry_space_group_name_H-M "P -1"
_symmetry_group_IT_number 2
_symmetry_cell_setting 'triclinic'
loop_
_space_group_symop_operation_xyz
x,y,z
-x,-y,-z
loop_
_atom_site_type_symbol
_atom_site_label
_atom_site_fract_x
_atom_site_fract_y
_atom_site_fract_z
Si Si1 0.736606 0.542832 0.806500
Si Si2 0.303449 0.725495 0.944034
Si Si3 0.851673 0.226104 0.962093
Si Si4 0.794866 0.953793 0.616559
Si Si5 0.848483 0.682305 0.055769
Si Si6 0.555170 0.802801 0.160411
Si Si7 0.101375 0.405040 0.410612
O O1 0.709313 0.419934 0.799256
O O2 0.003714 0.362954 0.927330
O O3 0.493959 0.774869 0.583410
O O4 0.750063 0.620846 0.926564
O O5 0.003272 0.891958 0.714465
O O6 0.500000 0.500000 0.000000
O O7 0.338249 0.673804 0.082476
O O8 0.361660 0.827940 0.987481
O O9 0.087080 0.132471 0.190753
O O10 0.000000 0.000000 0.000000
O O11 0.808542 0.803807 0.565441
O O12 0.054449 0.508028 0.283989
O O13 0.608968 0.948193 0.937374
O O14 0.808272 0.617753 0.260557
O O15 0.687294 0.691333 0.358706
#
# Coordination Sequence:
#
# PCOD9015798 Si02
#       7
#     2   2   2   2   2   2   2
#     4  11  23  40  63  92 125 166 209 253 316 372
#     4  10  21  42  65  89 128 165 206 256 320 367
#     4  10  22  41  64  86 128 169 206 259 308 373
#     4  10  22  42  65  87 129 165 203 260 315 369
#     4  11  23  38  63  94 125 162 210 259 307 375
#     4  11  22  41  65  94 124 161 214 258 308 374
#     4  11  22  41  67  91 125 164 207 261 314 366
#
# _framework density 19.533574000000002
#
# number of rings (size 3 to 8) (size 9 to 14) (size 15 to 20)
#    0.857    0.571    4.286    1.286    0.000    3.429 
#    2.571    0.714    0.000    0.000    0.000    0.000 
#    0.000    0.000    0.000    0.000    0.000    0.000 
#
# Total GULP energy -78084.574567 kJ/mol
# GULP energy per Si atom -5577.469612 kJ/mol
# Density = 1.948912 g / cm^3
# Si number density = 19.533574 Si / 1000 Ang^3
#
#
#
# Elastic Constant Matrix: (Units=GPa)
#
#
# Indices 1 2 3 4 5 6 
#
# 1 53.9413 36.3544 -4.2313 -1.2289 -8.3026 5.7462
# 2 36.3544 93.4228 -0.9690 -8.4829 -7.0618 14.1189
# 3 -4.2313 -0.9690 25.1428 -7.1799 -12.1068 2.2593
# 4 -1.2289 -8.4829 -7.1799 33.3570 2.8706 -4.7146
# 5 -8.3026 -7.0618 -12.1068 2.8706 25.2026 -0.1665
# 6 5.7462 14.1189 2.2593 -4.7146 -0.1665 22.3619
#
#
#
# Elastic Compliance Matrix: (Units=1/GPa)
#
#
# Indices 1 2 3 4 5 6 
#
# 1 0.027663 -0.009560 0.009668 -0.000584 0.011131 -0.002089
# 2 -0.009560 0.015873 0.001156 0.002805 0.001487 -0.007080
# 3 0.009668 0.001156 0.059862 0.009877 0.031094 -0.006949
# 4 -0.000584 0.002805 0.009877 0.033284 0.001576 0.004411
# 5 0.011131 0.001487 0.031094 0.001576 0.058479 -0.006173
# 6 -0.002089 -0.007080 -0.006949 0.004411 -0.006173 0.051312
#
#
# Mechanical properties :
#
#
# Convention : Reuss Voigt Hill
#
# Bulk Modulus (GPa) = 9.44061 26.09057 17.76559
# Shear Modulus (GPa) = 17.90481 25.60782 21.75631
#
# Velocity S-wave (km/s) = 3.03085 3.62465 3.34097
# Velocity P-wave (km/s) = 4.13420 5.55907 4.89872
#
# Compressibility (1/GPa) = 0.10592536
#
# Stress axis : x y z
#
# Youngs Moduli (GPa) = 36.14949 62.99849 16.70511
#
# Poissons Ratio (x) = 0.60229 -0.16150
# Poissons Ratio (y) = 0.34560 -0.01931
# Poissons Ratio (z) = -0.34948 -0.07284
#
# Static dielectric constant tensor:
#      x y z
#    x 1.617080 0.012230 0.027040 
#    y 0.012230 1.647840 0.012630 
#    z 0.027040 0.012630 1.670930 
# 
# From -- ./inp_files/451562.got.cif
#   From: 2010.05.17/outbox.cif.g08.bks.cpg/sg2_226_cif.got.tgz:451562.got - 2010.06.03 11:33:40.
