data_PCOD9015449
_publ_section_title
;
Structure prediction by ZEFSAII (Michael W. Deem and Ramdas Pophale) SiO2 
 PCOD9015449
Probable space group: P -1
;
_chemical_formula_sum "Si O2"
_cell_formula_units_Z 16
_cell_length_a 9.845407
_cell_length_b 9.184814
_cell_length_c 25.880407
_cell_angle_alpha 153.608911
_cell_angle_beta 133.569795
_cell_angle_gamma 57.908559
_cell_volume 726.250000
_symmetry_space_group_name_H-M "P -1"
_symmetry_group_IT_number 2
_symmetry_cell_setting 'triclinic'
loop_
_space_group_symop_operation_xyz
x,y,z
-x,-y,-z
loop_
_atom_site_type_symbol
_atom_site_label
_atom_site_fract_x
_atom_site_fract_y
_atom_site_fract_z
Si Si1 0.713299 0.519091 0.041292
Si Si2 0.533301 0.264295 0.387277
Si Si3 0.638247 0.867191 0.532889
Si Si4 0.994417 0.714901 0.275601
Si Si5 0.192382 0.127819 0.624591
Si Si6 0.803468 0.844829 0.867064
Si Si7 0.774049 0.481891 0.935687
Si Si8 0.411730 0.544210 0.223479
O O1 0.866191 0.658100 0.171565
O O2 0.500000 0.500000 0.000000
O O3 0.736994 0.672842 0.038744
O O4 0.751523 0.152290 0.922993
O O5 0.500000 0.500000 0.500000
O O6 0.553799 0.490695 0.413028
O O7 0.731679 0.171695 0.424766
O O8 0.370254 0.903481 0.227669
O O9 0.500000 0.000000 0.500000
O O10 0.844857 0.927600 0.577791
O O11 0.658433 0.130577 0.670389
O O12 0.131885 0.460305 0.239984
O O13 0.856985 0.676579 0.276562
O O14 0.368648 0.330108 0.698848
O O15 0.000000 0.000000 0.500000
O O16 0.630702 0.701361 0.816844
O O17 0.000000 0.000000 0.000000
O O18 0.718804 0.629682 0.914284
O O19 0.000000 0.500000 0.000000
#
# Coordination Sequence:
#
# PCOD9015449 Si02
#       8
#     2   2   2   2   2   2   2   2
#     4  11  23  42  65  95 133 172 219 279 337 396
#     4  11  24  42  69 102 136 176 233 280 340 407
#     4  11  22  41  68  95 131 179 225 280 337 400
#     4  10  23  42  64  93 134 168 228 276 330 405
#     4  11  23  43  65  98 139 175 220 286 343 398
#     4   9  20  40  65  88 124 174 218 265 333 399
#     4  11  22  39  68  98 134 173 222 279 338 397
#     4  10  21  42  62  95 133 168 226 277 329 405
#
# _framework density 22.030982000000002
#
# number of rings (size 3 to 8) (size 9 to 14) (size 15 to 20)
#    0.000    1.500    2.500    4.500    3.500    0.500 
#    2.250    6.875    0.000    0.000    0.000    0.000 
#    0.000    0.000    0.000    0.000    0.000    0.000 
#
# Total GULP energy -89283.681862 kJ/mol
# GULP energy per Si atom -5580.230116 kJ/mol
# Density = 2.198084 g / cm^3
# Si number density = 22.030982 Si / 1000 Ang^3
#
#
#
# Elastic Constant Matrix: (Units=GPa)
#
#
# Indices 1 2 3 4 5 6 
#
# 1 121.5763 11.6925 0.7058 -13.0971 -2.0951 -10.2507
# 2 11.6925 97.2950 12.6987 -20.0163 2.0831 -6.5751
# 3 0.7058 12.6987 44.6347 -19.5412 4.9431 -6.1498
# 4 -13.0971 -20.0163 -19.5412 39.8595 4.6728 5.5816
# 5 -2.0951 2.0831 4.9431 4.6728 40.4069 -8.1200
# 6 -10.2507 -6.5751 -6.1498 5.5816 -8.1200 36.2738
#
#
#
# Elastic Compliance Matrix: (Units=1/GPa)
#
#
# Indices 1 2 3 4 5 6 
#
# 1 0.008793 -0.000490 0.001616 0.003070 0.000387 0.002284
# 2 -0.000490 0.011600 -0.000754 0.005298 -0.000983 0.000801
# 3 0.001616 -0.000754 0.030059 0.015188 -0.004913 0.001979
# 4 0.003070 0.005298 0.015188 0.037415 -0.006880 -0.002895
# 5 0.000387 -0.000983 -0.004913 -0.006880 0.027484 0.006309
# 6 0.002284 0.000801 0.001979 -0.002895 0.006309 0.030552
#
#
# Mechanical properties :
#
#
# Convention : Reuss Voigt Hill
#
# Bulk Modulus (GPa) = 19.53219 34.85557 27.19388
# Shear Modulus (GPa) = 30.82149 39.20199 35.01174
#
# Velocity S-wave (km/s) = 3.74439 4.22287 3.99081
# Velocity P-wave (km/s) = 5.25157 6.29543 5.79704
#
# Compressibility (1/GPa) = 0.05119753
#
# Stress axis : x y z
#
# Youngs Moduli (GPa) = 113.72600 86.20395 33.26774
#
# Poissons Ratio (x) = 0.04224 -0.05377
# Poissons Ratio (y) = 0.05572 0.02508
# Poissons Ratio (z) = -0.18382 0.06500
#
# Static dielectric constant tensor:
#      x y z
#    x 1.780150 0.015670 0.015010 
#    y 0.015670 1.797720 0.013950 
#    z 0.015010 0.013950 1.858210 
# 
# From -- ./inp_files/606953.got.cif
#   From: 2010.05.17/outbox.cif.g08.bks.cpg/sg2_304_cif.got.tgz:606953.got - 2010.06.03 11:33:40.
