data_PCOD9015897
_publ_section_title
;
Structure prediction by ZEFSAII (Michael W. Deem and Ramdas Pophale) SiO2 
 PCOD9015897
Probable space group: P -1
;
_chemical_formula_sum "Si O2"
_cell_formula_units_Z 16
_cell_length_a 10.054969
_cell_length_b 11.148638
_cell_length_c 8.098734
_cell_angle_alpha 83.628210
_cell_angle_beta 78.515150
_cell_angle_gamma 53.967994
_cell_volume 719.455555
_symmetry_space_group_name_H-M "P -1"
_symmetry_group_IT_number 2
_symmetry_cell_setting 'triclinic'
loop_
_space_group_symop_operation_xyz
x,y,z
-x,-y,-z
loop_
_atom_site_type_symbol
_atom_site_label
_atom_site_fract_x
_atom_site_fract_y
_atom_site_fract_z
Si Si1 0.873973 0.456336 0.496088
Si Si2 0.844242 0.831863 0.674097
Si Si3 0.533711 0.178070 0.055421
Si Si4 0.218000 0.959928 0.590173
Si Si5 0.292343 0.163421 0.931664
Si Si6 0.009451 0.731149 0.196641
Si Si7 0.394127 0.238905 0.414797
Si Si8 0.843821 0.159657 0.076729
O O1 0.869953 0.385489 0.679618
O O2 0.701515 0.611349 0.478099
O O3 0.000000 0.500000 0.500000
O O4 0.972800 0.320195 0.366537
O O5 0.776573 0.842855 0.871186
O O6 0.722345 0.818357 0.580615
O O7 0.837253 0.973979 0.591458
O O8 0.610726 0.007994 0.121298
O O9 0.425562 0.199798 0.920688
O O10 0.414198 0.279505 0.217374
O O11 0.684937 0.191374 0.010673
O O12 0.417679 0.878434 0.554588
O O13 0.191111 0.850959 0.719907
O O14 0.100890 0.110918 0.703521
O O15 0.137143 0.276831 0.839105
O O16 0.108070 0.734260 0.016572
O O17 0.000000 0.000000 0.000000
#
# Coordination Sequence:
#
# PCOD9015897 Si02
#       8
#     2   2   2   2   2   2   2   2
#     4   9  19  34  49  73  99 132 173 204 241 296
#     4   9  18  28  47  72 103 130 159 206 253 292
#     4   9  17  29  48  76 105 123 160 212 245 286
#     4   9  16  29  48  72  95 130 168 200 239 290
#     4  10  17  30  50  78 106 124 162 209 258 286
#     4  10  18  32  55  73  99 135 167 205 243 297
#     4   9  15  30  49  70  98 127 174 206 236 289
#     4   9  15  29  50  73 100 129 172 201 235 299
#
# _framework density 22.239038999999998
#
# number of rings (size 3 to 8) (size 9 to 14) (size 15 to 20)
#    0.000    2.750    3.750    0.375    0.000    0.000 
#    0.000    8.750    0.000    0.000    0.000    4.375 
#    0.000    0.000    0.000    0.000    0.000    0.000 
#
# Total GULP energy -89102.101382 kJ/mol
# GULP energy per Si atom -5568.881336 kJ/mol
# Density = 2.218842 g / cm^3
# Si number density = 22.239039 Si / 1000 Ang^3
#
#
#
# Elastic Constant Matrix: (Units=GPa)
#
#
# Indices 1 2 3 4 5 6 
#
# 1 78.3039 8.8622 6.4444 -1.0174 -8.5716 -16.9091
# 2 8.8622 89.8520 30.4955 14.4942 -9.5483 -10.1183
# 3 6.4444 30.4955 79.9156 1.5179 -17.0252 -3.2395
# 4 -1.0174 14.4942 1.5179 19.5462 -1.1522 -4.0193
# 5 -8.5716 -9.5483 -17.0252 -1.1522 24.3739 1.1074
# 6 -16.9091 -10.1183 -3.2395 -4.0193 1.1074 14.5853
#
#
#
# Elastic Compliance Matrix: (Units=1/GPa)
#
#
# Indices 1 2 3 4 5 6 
#
# 1 0.018347 0.000299 0.000535 0.005725 0.006182 0.022705
# 2 0.000299 0.015310 -0.005008 -0.009373 0.001838 0.007133
# 3 0.000535 -0.005008 0.016452 0.003238 0.009828 0.000946
# 4 0.005725 -0.009373 0.003238 0.061963 0.002727 0.017721
# 5 0.006182 0.001838 0.009828 0.002727 0.050573 0.007536
# 6 0.022705 0.007133 0.000946 0.017721 0.007536 0.104354
#
#
# Mechanical properties :
#
#
# Convention : Reuss Voigt Hill
#
# Bulk Modulus (GPa) = 23.94560 37.74174 30.84367
# Shear Modulus (GPa) = 17.28513 25.18570 21.23541
#
# Velocity S-wave (km/s) = 2.79093 3.36891 3.09345
# Velocity P-wave (km/s) = 4.60179 5.66926 5.16319
#
# Compressibility (1/GPa) = 0.04176132
#
# Stress axis : x y z
#
# Youngs Moduli (GPa) = 54.50526 65.31640 60.78439
#
# Poissons Ratio (x) = -0.01953 -0.03252
# Poissons Ratio (y) = -0.01630 0.30439
# Poissons Ratio (z) = -0.02916 0.32709
#
# Static dielectric constant tensor:
#      x y z
#    x 1.892170 0.010200 0.019340 
#    y 0.010200 1.834520 -0.023050 
#    z 0.019340 -0.023050 1.921780 
# 
# From -- ./inp_files/267359.got.cif
#   From: 2010.05.17/outbox.cif.g08.bks.cpg/sg2_134_cif.got.tgz:267359.got - 2010.06.03 11:33:40.
