data_PCOD9015155
_publ_section_title
;
Structure prediction by ZEFSAII (Michael W. Deem and Ramdas Pophale) SiO2 
 PCOD9015155
Probable space group: P -1
;
_chemical_formula_sum "Si O2"
_cell_formula_units_Z 14
_cell_length_a 5.537873
_cell_length_b 8.667663
_cell_length_c 17.926553
_cell_angle_alpha 52.386553
_cell_angle_beta 119.344660
_cell_angle_gamma 93.919607
_cell_volume 560.010198
_symmetry_space_group_name_H-M "P -1"
_symmetry_group_IT_number 2
_symmetry_cell_setting 'triclinic'
loop_
_space_group_symop_operation_xyz
x,y,z
-x,-y,-z
loop_
_atom_site_type_symbol
_atom_site_label
_atom_site_fract_x
_atom_site_fract_y
_atom_site_fract_z
Si Si1 0.472410 0.429671 0.600089
Si Si2 0.710400 0.924318 0.290142
Si Si3 0.516228 0.697985 0.047728
Si Si4 0.680145 0.661872 0.909039
Si Si5 0.864314 0.167018 0.363840
Si Si6 0.414510 0.235538 0.390922
Si Si7 0.903792 0.871010 0.163968
O O1 0.500000 0.500000 0.500000
O O2 0.261329 0.293842 0.606471
O O3 0.416420 0.634800 0.578187
O O4 0.758053 0.268724 0.733019
O O5 0.785192 0.886121 0.226307
O O6 0.393571 0.104823 0.198854
O O7 0.898488 0.037888 0.330255
O O8 0.503446 0.467698 0.121241
O O9 0.738399 0.758907 0.117282
O O10 0.601354 0.693799 0.974986
O O11 0.207214 0.890051 0.952479
O O12 0.000000 0.500000 0.000000
O O13 0.527532 0.248841 0.320358
O O14 0.069072 0.309171 0.340673
O O15 0.000000 0.000000 0.500000
O O16 0.500000 0.000000 0.500000
#
# Coordination Sequence:
#
# PCOD9015155 Si02
#       7
#     2   2   2   2   2   2   2
#     4  12  27  43  67 100 141 189 238 298 361 425
#     4  11  26  41  68 102 137 187 238 290 363 429
#     4   9  21  44  67 103 133 180 222 293 367 425
#     4  10  21  41  72 100 136 172 234 292 361 431
#     4  10  23  44  68  96 138 185 240 295 351 427
#     4  10  24  44  67  94 134 190 239 295 352 421
#     4  10  24  43  68  97 144 177 232 293 363 433
#
# _framework density 24.999545999999999
#
# number of rings (size 3 to 8) (size 9 to 14) (size 15 to 20)
#    0.000    1.714    0.000    2.571   10.000    2.857 
#    0.000    4.286    0.000    0.000    0.000    0.000 
#    0.000    0.000    0.000    0.000    0.000    0.000 
#
# Total GULP energy -78098.426083 kJ/mol
# GULP energy per Si atom -5578.459006 kJ/mol
# Density = 2.494265 g / cm^3
# Si number density = 24.999546 Si / 1000 Ang^3
#
#
#
# Elastic Constant Matrix: (Units=GPa)
#
#
# Indices 1 2 3 4 5 6 
#
# 1 66.2780 7.7328 -3.4004 -8.3971 -7.7769 4.1436
# 2 7.7328 186.0277 37.2848 -4.7050 -19.4178 0.0139
# 3 -3.4004 37.2848 84.6508 -17.5309 -3.2019 -1.2788
# 4 -8.3971 -4.7050 -17.5309 60.0416 -1.8943 1.3365
# 5 -7.7769 -19.4178 -3.2019 -1.8943 53.8798 -3.7565
# 6 4.1436 0.0139 -1.2788 1.3365 -3.7565 34.4968
#
#
#
# Elastic Compliance Matrix: (Units=1/GPa)
#
#
# Indices 1 2 3 4 5 6 
#
# 1 0.015953 -0.000686 0.001564 0.002740 0.002124 -0.001733
# 2 -0.000686 0.006147 -0.002731 -0.000355 0.001956 0.000205
# 3 0.001564 -0.002731 0.013935 0.004076 0.000227 0.000197
# 4 0.002740 -0.000355 0.004076 0.018252 0.001098 -0.000765
# 5 0.002124 0.001956 0.000227 0.001098 0.019753 0.001861
# 6 -0.001733 0.000205 0.000197 -0.000765 0.001861 0.029436
#
#
# Mechanical properties :
#
#
# Convention : Reuss Voigt Hill
#
# Bulk Modulus (GPa) = 30.93158 46.68788 38.80973
# Shear Modulus (GPa) = 42.38843 49.37292 45.88068
#
# Velocity S-wave (km/s) = 4.12219 4.44887 4.28864
# Velocity P-wave (km/s) = 5.92084 6.71609 6.33097
#
# Compressibility (1/GPa) = 0.03232942
#
# Stress axis : x y z
#
# Youngs Moduli (GPa) = 62.68464 162.69139 71.76310
#
# Poissons Ratio (x) = 0.11153 -0.11226
# Poissons Ratio (y) = 0.04297 0.19600
# Poissons Ratio (z) = -0.09806 0.44434
#
# Static dielectric constant tensor:
#      x y z
#    x 2.095140 -0.007570 0.149910 
#    y -0.007570 2.009340 0.032140 
#    z 0.149910 0.032140 2.124070 
# 
# From -- ./inp_files/547818.got.cif
#   From: 2010.05.17/outbox.cif.g08.bks.cpg/sg2_274_cif.got.tgz:547818.got - 2010.06.03 11:33:40.
