data_PCOD9015871
_publ_section_title
;
Structure prediction by ZEFSAII (Michael W. Deem and Ramdas Pophale) SiO2 
 PCOD9015871
Probable space group: P -1
;
_chemical_formula_sum "Si O2"
_cell_formula_units_Z 14
_cell_length_a 10.458069
_cell_length_b 4.987328
_cell_length_c 13.817306
_cell_angle_alpha 79.497266
_cell_angle_beta 117.025745
_cell_angle_gamma 114.027677
_cell_volume 586.352055
_symmetry_space_group_name_H-M "P -1"
_symmetry_group_IT_number 2
_symmetry_cell_setting 'triclinic'
loop_
_space_group_symop_operation_xyz
x,y,z
-x,-y,-z
loop_
_atom_site_type_symbol
_atom_site_label
_atom_site_fract_x
_atom_site_fract_y
_atom_site_fract_z
Si Si1 0.812150 0.256444 0.420737
Si Si2 0.146225 0.393053 0.052131
Si Si3 0.995961 0.101469 0.830034
Si Si4 0.792030 0.830935 0.283355
Si Si5 0.483148 0.708389 0.068749
Si Si6 0.825070 0.381952 0.630519
Si Si7 0.354676 0.201391 0.469635
O O1 0.867379 0.092348 0.368068
O O2 0.662785 0.976991 0.424846
O O3 0.778045 0.524690 0.347190
O O4 0.892068 0.354745 0.547337
O O5 0.320646 0.606933 0.077811
O O6 0.108017 0.203432 0.953218
O O7 0.134533 0.192262 0.155125
O O8 0.000000 0.500000 0.000000
O O9 0.096325 0.079965 0.776039
O O10 0.927807 0.342090 0.755042
O O11 0.623151 0.781361 0.187911
O O12 0.500000 0.500000 0.000000
O O13 0.500000 0.000000 0.000000
O O14 0.779802 0.664578 0.596631
O O15 0.677003 0.066437 0.599247
O O16 0.500000 0.500000 0.500000
#
# Coordination Sequence:
#
# PCOD9015871 Si02
#       7
#     2   2   2   2   2   2   2
#     4  10  23  42  65 106 137 179 235 288 346 426
#     4  11  27  50  72 106 146 187 249 301 361 430
#     4  11  27  45  73 103 144 191 236 298 362 425
#     4  12  24  45  74 105 140 188 232 296 356 424
#     4  12  26  49  77 106 140 192 242 300 362 424
#     4  10  23  43  65 103 137 185 232 289 352 417
#     4  10  21  42  65  94 146 186 235 280 346 426
#
# _framework density 23.876439000000001
#
# number of rings (size 3 to 8) (size 9 to 14) (size 15 to 20)
#    0.857    0.286    2.857    2.143    6.000    3.429 
#    0.000    0.000    0.000    0.000    0.000    0.000 
#    0.000    0.000    0.000    0.000    0.000    0.000 
#
# Total GULP energy -78174.061343 kJ/mol
# GULP energy per Si atom -5583.861524 kJ/mol
# Density = 2.382210 g / cm^3
# Si number density = 23.876439 Si / 1000 Ang^3
#
#
#
# Elastic Constant Matrix: (Units=GPa)
#
#
# Indices 1 2 3 4 5 6 
#
# 1 121.9686 63.4370 59.8675 -19.8411 4.2005 16.6730
# 2 63.4370 161.4138 64.0224 -29.6615 -0.8120 -0.6197
# 3 59.8675 64.0224 148.9686 -41.0562 -12.8369 14.1375
# 4 -19.8411 -29.6615 -41.0562 51.0624 -5.5053 2.2031
# 5 4.2005 -0.8120 -12.8369 -5.5053 34.3440 5.9687
# 6 16.6730 -0.6197 14.1375 2.2031 5.9687 51.6393
#
#
#
# Elastic Compliance Matrix: (Units=1/GPa)
#
#
# Indices 1 2 3 4 5 6 
#
# 1 0.012078 -0.003469 -0.003346 -0.000148 -0.002356 -0.002747
# 2 -0.003469 0.008717 -0.001944 0.002074 -0.000055 0.001675
# 3 -0.003346 -0.001944 0.012030 0.008115 0.006745 -0.003362
# 4 -0.000148 0.002074 0.008115 0.028348 0.008397 -0.004329
# 5 -0.002356 -0.000055 0.006745 0.008397 0.034210 -0.005399
# 6 -0.002747 0.001675 -0.003362 -0.004329 -0.005399 0.022001
#
#
# Mechanical properties :
#
#
# Convention : Reuss Voigt Hill
#
# Bulk Modulus (GPa) = 65.33287 89.66722 77.50004
# Shear Modulus (GPa) = 35.71280 43.74410 39.72845
#
# Velocity S-wave (km/s) = 3.87167 4.28495 4.08354
# Velocity P-wave (km/s) = 6.88540 7.88145 7.40020
#
# Compressibility (1/GPa) = 0.01530623
#
# Stress axis : x y z
#
# Youngs Moduli (GPa) = 82.79387 114.71661 83.12492
#
# Poissons Ratio (x) = 0.39798 0.27816
# Poissons Ratio (y) = 0.28723 0.16161
# Poissons Ratio (z) = 0.27705 0.22303
#
# Static dielectric constant tensor:
#      x y z
#    x 2.027900 0.081350 0.000280 
#    y 0.081350 2.035150 0.045090 
#    z 0.000280 0.045090 1.858040 
# 
# From -- ./inp_files/510759.got.cif
#   From: 2010.05.17/outbox.cif.g08.bks.cpg/sg2_256_cif.got.tgz:510759.got - 2010.06.03 11:33:40.
