data_PCOD9015646
_publ_section_title
;
Structure prediction by ZEFSAII (Michael W. Deem and Ramdas Pophale) SiO2 
 PCOD9015646
Probable space group: P -1
;
_chemical_formula_sum "Si O2"
_cell_formula_units_Z 16
_cell_length_a 9.172145
_cell_length_b 6.775307
_cell_length_c 20.565167
_cell_angle_alpha 52.385783
_cell_angle_beta 75.723262
_cell_angle_gamma 50.942147
_cell_volume 766.072803
_symmetry_space_group_name_H-M "P -1"
_symmetry_group_IT_number 2
_symmetry_cell_setting 'triclinic'
loop_
_space_group_symop_operation_xyz
x,y,z
-x,-y,-z
loop_
_atom_site_type_symbol
_atom_site_label
_atom_site_fract_x
_atom_site_fract_y
_atom_site_fract_z
Si Si1 0.315945 0.478789 0.316683
Si Si2 0.113075 0.765348 0.407768
Si Si3 0.321897 0.607605 0.144408
Si Si4 0.639420 0.385131 0.069603
Si Si5 0.252619 0.176925 0.599385
Si Si6 0.814017 0.714199 0.021999
Si Si7 0.036307 0.335115 0.846484
Si Si8 0.993389 0.398851 0.342141
O O1 0.240917 0.703659 0.342984
O O2 0.299334 0.640875 0.217667
O O3 0.166690 0.402695 0.343521
O O4 0.533060 0.152228 0.361901
O O5 0.220639 0.427454 0.499702
O O6 0.904512 0.875430 0.387316
O O7 0.073542 0.036791 0.404689
O O8 0.539231 0.347771 0.148487
O O9 0.182750 0.533443 0.148797
O O10 0.265601 0.928299 0.054190
O O11 0.674674 0.635246 0.032708
O O12 0.840765 0.044182 0.101301
O O13 0.500000 0.500000 0.000000
O O14 0.184380 0.365739 0.637580
O O15 0.879305 0.622673 0.107774
O O16 0.000000 0.500000 0.000000
O O17 0.055542 0.480235 0.751007
#
# Coordination Sequence:
#
# PCOD9015646 Si02
#       8
#     2   2   2   2   2   2   2   2
#     4  10  23  40  61  92 127 158 203 260 304 363
#     4  10  22  40  65  93 123 164 204 248 308 375
#     4  11  23  42  60  89 124 160 207 256 304 362
#     4  12  24  42  62  87 120 161 211 256 301 361
#     4  10  21  42  64  91 128 160 202 254 307 366
#     4  12  24  40  65  87 119 169 205 250 310 359
#     4  11  24  42  60  87 126 160 205 258 303 360
#     4  10  23  39  62  93 123 162 204 253 309 365
#
# _framework density 20.885743000000002
#
# number of rings (size 3 to 8) (size 9 to 14) (size 15 to 20)
#    0.000    1.250    2.500    3.000    1.750    3.500 
#    0.000    0.000    0.000    0.000    0.000    0.000 
#    0.000    0.000    0.000    0.000    0.000    0.000 
#
# Total GULP energy -89447.305207 kJ/mol
# GULP energy per Si atom -5590.456575 kJ/mol
# Density = 2.083821 g / cm^3
# Si number density = 20.885743 Si / 1000 Ang^3
#
#
#
# Elastic Constant Matrix: (Units=GPa)
#
#
# Indices 1 2 3 4 5 6 
#
# 1 57.8178 15.2842 24.1525 17.9087 0.8967 -3.9335
# 2 15.2842 72.8837 -0.6109 17.5282 -0.9455 -8.0266
# 3 24.1525 -0.6109 49.2463 17.4642 8.7842 -3.9392
# 4 17.9087 17.5282 17.4642 31.4066 -5.3262 2.3783
# 5 0.8967 -0.9455 8.7842 -5.3262 25.9779 0.0163
# 6 -3.9335 -8.0266 -3.9392 2.3783 0.0163 30.8353
#
#
#
# Elastic Compliance Matrix: (Units=1/GPa)
#
#
# Indices 1 2 3 4 5 6 
#
# 1 0.024381 -0.003462 -0.009764 -0.006481 0.001004 0.001461
# 2 -0.003462 0.018685 0.008529 -0.014559 -0.005074 0.006637
# 3 -0.009764 0.008529 0.036962 -0.023127 -0.016597 0.007489
# 4 -0.006481 -0.014559 -0.023127 0.060843 0.019996 -0.012274
# 5 0.001004 -0.005074 -0.016597 0.019996 0.047990 -0.004880
# 6 0.001461 0.006637 0.007489 -0.012274 -0.004880 0.036250
#
#
# Mechanical properties :
#
#
# Convention : Reuss Voigt Hill
#
# Bulk Modulus (GPa) = 14.15782 28.62216 21.38999
# Shear Modulus (GPa) = 19.37604 27.05208 23.21406
#
# Velocity S-wave (km/s) = 3.04915 3.60285 3.33750
# Velocity P-wave (km/s) = 4.38062 5.57147 5.01154
#
# Compressibility (1/GPa) = 0.07063235
#
# Stress axis : x y z
#
# Youngs Moduli (GPa) = 41.01527 53.51984 27.05480
#
# Poissons Ratio (x) = 0.18529 0.26418
# Poissons Ratio (y) = 0.14200 -0.23075
# Poissons Ratio (z) = 0.40049 -0.45647
#
# Static dielectric constant tensor:
#      x y z
#    x 1.728390 -0.015760 0.012390 
#    y -0.015760 1.784570 0.014440 
#    z 0.012390 0.014440 1.744610 
# 
# From -- ./inp_files/117307.got.cif
#   From: 2010.05.17/outbox.cif.g08.bks.cpg/sg2_59_cif.got.tgz:117307.got - 2010.06.03 11:33:40.
