data_PCOD9015858
_publ_section_title
;
Structure prediction by ZEFSAII (Michael W. Deem and Ramdas Pophale) SiO2 
 PCOD9015858
Probable space group: P -1
;
_chemical_formula_sum "Si O2"
_cell_formula_units_Z 14
_cell_length_a 13.666123
_cell_length_b 14.906418
_cell_length_c 9.350519
_cell_angle_alpha 39.384461
_cell_angle_beta 41.448350
_cell_angle_gamma 30.226651
_cell_volume 588.206718
_symmetry_space_group_name_H-M "P -1"
_symmetry_group_IT_number 2
_symmetry_cell_setting 'triclinic'
loop_
_space_group_symop_operation_xyz
x,y,z
-x,-y,-z
loop_
_atom_site_type_symbol
_atom_site_label
_atom_site_fract_x
_atom_site_fract_y
_atom_site_fract_z
Si Si1 0.794806 0.624097 0.260032
Si Si2 0.132689 0.855489 0.849046
Si Si3 0.269883 0.783858 0.313601
Si Si4 0.431172 0.671279 0.973404
Si Si5 0.954638 0.329926 0.199579
Si Si6 0.645438 0.091961 0.666254
Si Si7 0.164949 0.513545 0.317765
O O1 0.842851 0.510964 0.201748
O O2 0.568838 0.828603 0.245522
O O3 0.808629 0.501386 0.521311
O O4 0.964082 0.636566 0.067002
O O5 0.220315 0.855570 0.905444
O O6 0.302265 0.809167 0.614284
O O7 0.112456 0.701081 0.084071
O O8 0.931069 0.033909 0.770950
O O9 0.193596 0.706802 0.594974
O O10 0.356824 0.847374 0.243841
O O11 0.405756 0.652089 0.191885
O O12 0.613955 0.663511 0.769394
O O13 0.500000 0.500000 0.000000
O O14 0.165709 0.136239 0.273019
O O15 0.000000 0.500000 0.500000
#
# Coordination Sequence:
#
# PCOD9015858 Si02
#       7
#     2   2   2   2   2   2   2
#     4  11  24  44  67  97 137 181 216 276 339 397
#     4  10  21  43  67  93 134 173 216 276 329 393
#     4  11  24  41  70 102 129 169 226 279 327 390
#     4  10  21  42  65  94 129 173 217 261 328 399
#     4  10  23  42  67  98 134 174 217 276 338 387
#     4  11  24  43  69 101 134 173 227 278 330 394
#     4  11  25  41  66  95 131 176 223 270 331 397
#
# _framework density 23.801157
#
# number of rings (size 3 to 8) (size 9 to 14) (size 15 to 20)
#    0.000    1.429    1.429    4.286    6.000    4.000 
#    2.571    0.714    0.000    0.000    0.000    0.000 
#    0.000    0.000    0.000    0.000    0.000    0.000 
#
# Total GULP energy -78129.427535 kJ/mol
# GULP energy per Si atom -5580.673395 kJ/mol
# Density = 2.374698 g / cm^3
# Si number density = 23.801157 Si / 1000 Ang^3
#
#
#
# Elastic Constant Matrix: (Units=GPa)
#
#
# Indices 1 2 3 4 5 6 
#
# 1 69.4846 2.7861 21.9742 16.9731 -12.1724 -8.9379
# 2 2.7861 57.4804 24.5594 7.8922 -1.9030 -12.9665
# 3 21.9742 24.5594 156.9022 15.0096 -8.8595 -5.0700
# 4 16.9731 7.8922 15.0096 38.1690 -5.1973 -0.9070
# 5 -12.1724 -1.9030 -8.8595 -5.1973 40.0634 8.2297
# 6 -8.9379 -12.9665 -5.0700 -0.9070 8.2297 14.5272
#
#
#
# Elastic Compliance Matrix: (Units=1/GPa)
#
#
# Indices 1 2 3 4 5 6 
#
# 1 0.018742 0.003981 -0.001982 -0.007829 0.001781 0.012895
# 2 0.003981 0.025084 -0.003360 -0.005618 -0.004368 0.025790
# 3 -0.001982 -0.003360 0.007279 -0.001182 0.001193 -0.002428
# 4 -0.007829 -0.005618 -0.001182 0.031510 0.003260 -0.010123
# 5 0.001781 -0.004368 0.001193 0.003260 0.029910 -0.019128
# 6 0.012895 0.025790 -0.002428 -0.010123 -0.019128 0.109147
#
#
# Mechanical properties :
#
#
# Convention : Reuss Voigt Hill
#
# Bulk Modulus (GPa) = 20.66790 42.50072 31.58431
# Shear Modulus (GPa) = 20.78820 34.18842 27.48831
#
# Velocity S-wave (km/s) = 2.95856 3.79412 3.40209
# Velocity P-wave (km/s) = 4.51367 6.09009 5.36015
#
# Compressibility (1/GPa) = 0.04838422
#
# Stress axis : x y z
#
# Youngs Moduli (GPa) = 53.35638 39.86551 137.38506
#
# Poissons Ratio (x) = -0.15871 0.27227
# Poissons Ratio (y) = -0.21242 0.46159
# Poissons Ratio (z) = 0.10574 0.13394
#
# Static dielectric constant tensor:
#      x y z
#    x 1.959500 -0.025520 -0.031630 
#    y -0.025520 1.977300 -0.004830 
#    z -0.031630 -0.004830 1.942090 
# 
# From -- ./inp_files/279236.got.cif
#   From: 2010.05.17/outbox.cif.g08.bks.cpg/sg2_140_cif.got.tgz:279236.got - 2010.06.03 11:33:40.
