data_PCOD9015475
_publ_section_title
;
Structure prediction by ZEFSAII (Michael W. Deem and Ramdas Pophale) SiO2 
 PCOD9015475
Probable space group: P -1
;
_chemical_formula_sum "Si O2"
_cell_formula_units_Z 14
_cell_length_a 7.883816
_cell_length_b 11.465107
_cell_length_c 8.608320
_cell_angle_alpha 78.015252
_cell_angle_beta 51.878226
_cell_angle_gamma 97.123757
_cell_volume 565.716129
_symmetry_space_group_name_H-M "P -1"
_symmetry_group_IT_number 2
_symmetry_cell_setting 'triclinic'
loop_
_space_group_symop_operation_xyz
x,y,z
-x,-y,-z
loop_
_atom_site_type_symbol
_atom_site_label
_atom_site_fract_x
_atom_site_fract_y
_atom_site_fract_z
Si Si1 0.952642 0.869059 0.745278
Si Si2 0.524752 0.641356 0.495222
Si Si3 0.502297 0.184665 0.817623
Si Si4 0.254816 0.344805 0.314361
Si Si5 0.413365 0.029506 0.373852
Si Si6 0.804905 0.275005 0.131597
Si Si7 0.748211 0.394123 0.852175
O O1 0.146066 0.000368 0.561208
O O2 0.044009 0.796952 0.849833
O O3 0.905169 0.773595 0.654892
O O4 0.715126 0.879191 0.932822
O O5 0.500000 0.500000 0.500000
O O6 0.570772 0.734453 0.297381
O O7 0.707750 0.679254 0.520685
O O8 0.297322 0.656081 0.699143
O O9 0.568080 0.074768 0.727859
O O10 0.693451 0.286760 0.781697
O O11 0.177471 0.466909 0.299743
O O12 0.504779 0.379333 0.079856
O O13 0.500000 0.000000 0.500000
O O14 0.587723 0.166950 0.206500
O O15 0.905138 0.369719 0.907419
#
# Coordination Sequence:
#
# PCOD9015475 Si02
#       7
#     2   2   2   2   2   2   2
#     4  10  22  40  63  93 121 162 205 253 297 366
#     4  11  20  39  64  90 122 168 196 249 311 365
#     4  11  21  40  65  90 122 161 206 246 309 360
#     4   9  19  36  60  88 129 155 201 251 307 356
#     4  10  21  42  63  86 127 161 202 256 300 357
#     4  10  22  41  63  86 127 163 201 253 310 348
#     4   9  19  37  60  90 120 164 197 251 307 363
#
# _framework density 24.747395000000001
#
# number of rings (size 3 to 8) (size 9 to 14) (size 15 to 20)
#    0.000    2.000    4.286    0.000    2.000    3.429 
#    2.571    7.857    0.000    0.000    0.000    0.000 
#    0.000    0.000    0.000    0.000    0.000    0.000 
#
# Total GULP energy -78394.287970 kJ/mol
# GULP energy per Si atom -5599.591998 kJ/mol
# Density = 2.469107 g / cm^3
# Si number density = 24.747395 Si / 1000 Ang^3
#
#
#
# Elastic Constant Matrix: (Units=GPa)
#
#
# Indices 1 2 3 4 5 6 
#
# 1 101.1400 26.0920 21.4585 -14.6901 27.3537 3.8765
# 2 26.0920 119.2487 42.6961 9.2149 11.8923 -4.7936
# 3 21.4585 42.6961 75.9633 21.3328 -5.3458 9.7774
# 4 -14.6901 9.2149 21.3328 33.9368 1.0080 5.5252
# 5 27.3537 11.8923 -5.3458 1.0080 35.4470 -1.4239
# 6 3.8765 -4.7936 9.7774 5.5252 -1.4239 44.1177
#
#
#
# Elastic Compliance Matrix: (Units=1/GPa)
#
#
# Indices 1 2 3 4 5 6 
#
# 1 0.019141 0.000104 -0.010895 0.015902 -0.016973 -0.001795
# 2 0.000104 0.011597 -0.007639 0.001425 -0.005059 0.002602
# 3 -0.010895 -0.007639 0.027630 -0.019986 0.015585 -0.002990
# 4 0.015902 0.001425 -0.019986 0.049625 -0.017318 -0.003587
# 5 -0.016973 -0.005059 0.015585 -0.017318 0.045894 0.001138
# 6 -0.001795 0.002602 -0.002990 -0.003587 0.001138 0.024256
#
#
# Mechanical properties :
#
#
# Convention : Reuss Voigt Hill
#
# Bulk Modulus (GPa) = 46.49192 52.98279 49.73735
# Shear Modulus (GPa) = 22.50530 36.44068 29.47299
#
# Velocity S-wave (km/s) = 3.01890 3.84149 3.45476
# Velocity P-wave (km/s) = 5.56588 6.41342 6.00462
#
# Compressibility (1/GPa) = 0.02150911
#
# Stress axis : x y z
#
# Youngs Moduli (GPa) = 52.24490 86.22870 36.19314
#
# Poissons Ratio (x) = -0.00900 0.39431
# Poissons Ratio (y) = -0.00545 0.27647
# Poissons Ratio (z) = 0.56919 0.65868
#
# Static dielectric constant tensor:
#      x y z
#    x 1.949920 -0.033610 0.034970 
#    y -0.033610 1.887200 0.010590 
#    z 0.034970 0.010590 1.855450 
# 
# From -- ./inp_files/178596.got.cif
#   From: 2010.05.17/outbox.cif.g08.bks.cpg/sg2_90_cif.got.tgz:178596.got - 2010.06.03 11:33:40.
