data_PCOD9015819
_publ_section_title
;
Structure prediction by ZEFSAII (Michael W. Deem and Ramdas Pophale) SiO2 
 PCOD9015819
Probable space group: P -1
;
_chemical_formula_sum "Si O2"
_cell_formula_units_Z 13
_cell_length_a 16.856891
_cell_length_b 5.344791
_cell_length_c 6.506587
_cell_angle_alpha 77.093852
_cell_angle_beta 65.466635
_cell_angle_gamma 63.299573
_cell_volume 475.942106
_symmetry_space_group_name_H-M "P -1"
_symmetry_group_IT_number 2
_symmetry_cell_setting 'triclinic'
loop_
_space_group_symop_operation_xyz
x,y,z
-x,-y,-z
loop_
_atom_site_type_symbol
_atom_site_label
_atom_site_fract_x
_atom_site_fract_y
_atom_site_fract_z
Si Si1 0.849930 0.121635 0.076140
Si Si2 0.819704 0.699332 0.522899
Si Si3 0.454990 0.803482 0.180659
Si Si4 0.643207 0.789565 0.438915
Si Si5 0.719462 0.035632 0.941910
Si Si6 0.500000 0.500000 0.500000
Si Si7 0.961894 0.306057 0.201773
O O1 0.764439 0.212034 0.992327
O O2 0.948596 0.985421 0.865734
O O3 0.833006 0.912381 0.300116
O O4 0.869501 0.331281 0.166033
O O5 0.723677 0.670853 0.550912
O O6 0.803255 0.822556 0.745566
O O7 0.916490 0.423597 0.446728
O O8 0.531283 0.505297 0.217879
O O9 0.427116 0.904815 0.435128
O O10 0.362945 0.824685 0.159436
O O11 0.500000 0.000000 0.000000
O O12 0.589970 0.592995 0.475169
O O13 0.683146 0.871275 0.176128
O O14 0.000000 0.500000 0.000000
#
# Coordination Sequence:
#
# PCOD9015819 Si02
#       7
#     2   2   2   2   2   1   2
#     4   9  19  38  64  91 129 177 218 277 333 390
#     4   9  20  38  60  91 132 172 218 277 329 399
#     4  11  24  45  65  95 135 172 224 286 332 401
#     4  10  23  43  63  95 133 169 225 283 329 401
#     4  10  21  42  65  91 137 177 219 282 334 394
#     4  12  24  42  70  94 126 182 222 276 348 394
#     4   9  18  38  63  92 130 170 221 276 330 397
#
# _framework density 27.314246000000001
#
# number of rings (size 3 to 8) (size 9 to 14) (size 15 to 20)
#    0.000    2.154    1.538    0.462    0.000    4.923 
#    0.000   19.231    0.000    0.000    0.000    0.000 
#    0.000    0.000    0.000    0.000    0.000    0.000 
#
# Total GULP energy -72582.988411 kJ/mol
# GULP energy per Si atom -5583.306801 kJ/mol
# Density = 2.725208 g / cm^3
# Si number density = 27.314246 Si / 1000 Ang^3
#
#
#
# Elastic Constant Matrix: (Units=GPa)
#
#
# Indices 1 2 3 4 5 6 
#
# 1 148.9597 33.3868 38.3947 -14.1007 8.8209 46.1256
# 2 33.3868 73.4580 43.4377 10.1709 -9.2752 19.2324
# 3 38.3947 43.4377 160.9882 8.4831 1.8116 -9.4484
# 4 -14.1007 10.1709 8.4831 60.0670 -14.6734 -6.9217
# 5 8.8209 -9.2752 1.8116 -14.6734 32.2742 0.7621
# 6 46.1256 19.2324 -9.4484 -6.9217 0.7621 49.8883
#
#
#
# Elastic Compliance Matrix: (Units=1/GPa)
#
#
# Indices 1 2 3 4 5 6 
#
# 1 0.011194 -0.001112 -0.003025 0.001504 -0.002283 -0.010250
# 2 -0.001112 0.020852 -0.005791 -0.002579 0.005651 -0.008552
# 3 -0.003025 -0.005791 0.008941 -0.000665 -0.001799 0.006658
# 4 0.001504 -0.002579 -0.000665 0.019673 0.007780 0.002088
# 5 -0.002283 0.005651 -0.001799 0.007780 0.036868 0.000108
# 6 -0.010250 -0.008552 0.006658 0.002088 0.000108 0.034367
#
#
# Mechanical properties :
#
#
# Convention : Reuss Voigt Hill
#
# Bulk Modulus (GPa) = 47.32012 68.20494 57.76253
# Shear Modulus (GPa) = 31.48718 46.32500 38.90609
#
# Velocity S-wave (km/s) = 3.39894 4.12272 3.77820
# Velocity P-wave (km/s) = 5.72413 6.90559 6.34243
#
# Compressibility (1/GPa) = 0.02113266
#
# Stress axis : x y z
#
# Youngs Moduli (GPa) = 89.33690 47.95617 111.83829
#
# Poissons Ratio (x) = 0.05332 0.33828
# Poissons Ratio (y) = 0.09933 0.64763
# Poissons Ratio (z) = 0.27022 0.27770
#
# Static dielectric constant tensor:
#      x y z
#    x 2.191880 -0.424390 0.106420 
#    y -0.424390 3.359720 -0.335460 
#    z 0.106420 -0.335460 2.284620 
# 
# From -- ./inp_files/6260.got.cif
#   From: 2010.05.17/outbox.cif.g08.bks.cpg/sg2_4_cif.got.tgz:6260.got - 2010.06.03 11:33:40.
