data_PCOD9015231
_publ_section_title
;
Structure prediction by ZEFSAII (Michael W. Deem and Ramdas Pophale) SiO2 
 PCOD9015231
Probable space group: P -1
;
_chemical_formula_sum "Si O2"
_cell_formula_units_Z 14
_cell_length_a 16.587865
_cell_length_b 7.863963
_cell_length_c 10.650911
_cell_angle_alpha 134.841756
_cell_angle_beta 53.952836
_cell_angle_gamma 139.335136
_cell_volume 637.623690
_symmetry_space_group_name_H-M "P -1"
_symmetry_group_IT_number 2
_symmetry_cell_setting 'triclinic'
loop_
_space_group_symop_operation_xyz
x,y,z
-x,-y,-z
loop_
_atom_site_type_symbol
_atom_site_label
_atom_site_fract_x
_atom_site_fract_y
_atom_site_fract_z
Si Si1 0.770005 0.822361 0.329754
Si Si2 0.073841 0.633331 0.370766
Si Si3 0.516327 0.264624 0.038519
Si Si4 0.653107 0.202022 0.242733
Si Si5 0.915177 0.338405 0.116355
Si Si6 0.477434 0.325931 0.561231
Si Si7 0.188859 0.288422 0.028308
O O1 0.695917 0.475073 0.250967
O O2 0.673285 0.890949 0.409770
O O3 0.838345 0.015874 0.491533
O O4 0.847613 0.853129 0.153251
O O5 0.150433 0.501860 0.205553
O O6 0.000000 0.500000 0.500000
O O7 0.988847 0.532639 0.273563
O O8 0.478846 0.437789 0.245655
O O9 0.661165 0.503688 0.995240
O O10 0.500000 0.000000 0.000000
O O11 0.427490 0.106266 0.919277
O O12 0.781755 0.278097 0.210351
O O13 0.556160 0.197397 0.420074
O O14 0.000000 0.500000 0.000000
O O15 0.879504 0.006055 0.978415
O O16 0.500000 0.500000 0.500000
#
# Coordination Sequence:
#
# PCOD9015231 Si02
#       7
#     2   2   2   2   2   2   2
#     4  10  21  41  73 103 131 180 236 283 333 415
#     4  12  26  45  75  97 130 192 246 276 333 415
#     4  11  20  39  73 102 130 182 226 280 349 410
#     4  11  23  41  66 104 144 170 225 288 347 408
#     4  12  29  47  67 101 148 187 223 292 352 396
#     4   9  18  34  64 101 130 169 225 274 332 407
#     4  11  24  47  71  99 140 178 241 286 335 418
#
# _framework density 21.956524999999999
#
# number of rings (size 3 to 8) (size 9 to 14) (size 15 to 20)
#    0.000    1.143    5.714    2.143    4.000    1.143 
#    2.571    2.857    0.000    0.000    0.000    0.000 
#    0.000    0.000    0.000    0.000    0.000    0.000 
#
# Total GULP energy -78207.794348 kJ/mol
# GULP energy per Si atom -5586.271025 kJ/mol
# Density = 2.190655 g / cm^3
# Si number density = 21.956525 Si / 1000 Ang^3
#
#
#
# Elastic Constant Matrix: (Units=GPa)
#
#
# Indices 1 2 3 4 5 6 
#
# 1 103.8808 34.8106 76.4082 1.7021 9.7454 31.2757
# 2 34.8106 94.8686 37.2971 4.2647 23.4542 7.0205
# 3 76.4082 37.2971 188.4571 0.7818 24.6684 30.6481
# 4 1.7021 4.2647 0.7818 38.8827 12.1529 8.6159
# 5 9.7454 23.4542 24.6684 12.1529 31.9792 1.6724
# 6 31.2757 7.0205 30.6481 8.6159 1.6724 28.8605
#
#
#
# Elastic Compliance Matrix: (Units=1/GPa)
#
#
# Indices 1 2 3 4 5 6 
#
# 1 0.018918 -0.004305 -0.004300 0.003132 0.000348 -0.015843
# 2 -0.004305 0.014401 -0.000051 0.001369 -0.009803 0.001376
# 3 -0.004300 -0.000051 0.008705 0.003122 -0.006285 -0.005140
# 4 0.003132 0.001369 0.003122 0.034127 -0.016485 -0.016276
# 5 0.000348 -0.009803 -0.006285 -0.016485 0.048904 0.010770
# 6 -0.015843 0.001376 -0.005140 -0.016276 0.010770 0.061177
#
#
# Mechanical properties :
#
#
# Convention : Reuss Voigt Hill
#
# Bulk Modulus (GPa) = 40.46674 76.02647 58.24661
# Shear Modulus (GPa) = 23.60917 35.85718 29.73318
#
# Velocity S-wave (km/s) = 3.28269 4.04555 3.68392
# Velocity P-wave (km/s) = 5.73048 7.51818 6.68436
#
# Compressibility (1/GPa) = 0.02471165
#
# Stress axis : x y z
#
# Youngs Moduli (GPa) = 52.86004 69.44023 114.87051
#
# Poissons Ratio (x) = 0.29897 0.49396
# Poissons Ratio (y) = 0.22759 0.00582
# Poissons Ratio (z) = 0.22730 0.00352
#
# Static dielectric constant tensor:
#      x y z
#    x 1.886400 0.001480 -0.008260 
#    y 0.001480 1.896840 -0.017760 
#    z -0.008260 -0.017760 1.753110 
# 
# From -- ./inp_files/460859.got.cif
#   From: 2010.05.17/outbox.cif.g08.bks.cpg/sg2_231_cif.got.tgz:460859.got - 2010.06.03 11:33:40.
