data_PCOD9015969
_publ_section_title
;
Structure prediction by ZEFSAII (Michael W. Deem and Ramdas Pophale) SiO2 
 PCOD9015969
Probable space group: P -1
;
_chemical_formula_sum "Si O2"
_cell_formula_units_Z 16
_cell_length_a 7.589692
_cell_length_b 11.820729
_cell_length_c 12.317167
_cell_angle_alpha 106.755313
_cell_angle_beta 97.198813
_cell_angle_gamma 37.189294
_cell_volume 629.105706
_symmetry_space_group_name_H-M "P -1"
_symmetry_group_IT_number 2
_symmetry_cell_setting 'triclinic'
loop_
_space_group_symop_operation_xyz
x,y,z
-x,-y,-z
loop_
_atom_site_type_symbol
_atom_site_label
_atom_site_fract_x
_atom_site_fract_y
_atom_site_fract_z
Si Si1 0.535277 0.082027 0.810918
Si Si2 0.108296 0.880082 0.156374
Si Si3 0.905638 0.382003 0.941936
Si Si4 0.989718 0.684468 0.832872
Si Si5 0.873879 0.966304 0.404530
Si Si6 0.594762 0.318977 0.175846
Si Si7 0.212225 0.261952 0.390934
Si Si8 0.745136 0.440366 0.572685
O O1 0.677450 0.933983 0.679285
O O2 0.194768 0.238731 0.849388
O O3 0.623508 0.170558 0.833142
O O4 0.711113 0.923586 0.878992
O O5 0.850315 0.085965 0.129961
O O6 0.993799 0.922319 0.281021
O O7 0.161997 0.721224 0.072286
O O8 0.633373 0.578947 0.909827
O O9 0.972486 0.394705 0.070131
O O10 0.915914 0.640990 0.712435
O O11 0.264234 0.624241 0.807132
O O12 0.020187 0.769830 0.407699
O O13 0.518035 0.156358 0.423825
O O14 0.000000 0.000000 0.500000
O O15 0.433725 0.400540 0.301864
O O16 0.051462 0.595137 0.504218
O O17 0.500000 0.500000 0.500000
#
# Coordination Sequence:
#
# PCOD9015969 Si02
#       8
#     2   2   2   2   2   2   2   2
#     4   9  20  40  67 100 136 180 227 286 338 415
#     4  11  23  45  68 103 145 176 239 286 346 422
#     4  12  22  44  74 102 137 193 232 284 356 403
#     4   9  21  41  70  97 140 189 228 282 355 413
#     4  12  24  40  70 103 134 187 237 285 351 428
#     4  11  23  41  68 106 139 180 236 293 339 418
#     4  10  21  42  66 101 144 182 231 293 345 419
#     4  12  21  42  70  96 143 182 221 296 356 401
#
# _framework density 25.432928
#
# number of rings (size 3 to 8) (size 9 to 14) (size 15 to 20)
#    0.750    0.500    3.750    2.625    0.000    3.000 
#    0.000    7.500    0.000    5.250    0.000    0.000 
#    0.000    0.000    0.000    0.000    0.000    0.000 
#
# Total GULP energy -89706.652886 kJ/mol
# GULP energy per Si atom -5606.665805 kJ/mol
# Density = 2.537504 g / cm^3
# Si number density = 25.432928 Si / 1000 Ang^3
#
#
#
# Elastic Constant Matrix: (Units=GPa)
#
#
# Indices 1 2 3 4 5 6 
#
# 1 131.3461 37.4990 48.3815 -6.4845 9.0402 -28.2525
# 2 37.4990 102.8538 38.1944 -20.0796 -2.0682 -14.0722
# 3 48.3815 38.1944 141.6812 -14.6031 -5.7808 -18.5916
# 4 -6.4845 -20.0796 -14.6031 48.2775 -4.6925 4.1323
# 5 9.0402 -2.0682 -5.7808 -4.6925 36.7850 1.7986
# 6 -28.2525 -14.0722 -18.5916 4.1323 1.7986 41.4106
#
#
#
# Elastic Compliance Matrix: (Units=1/GPa)
#
#
# Indices 1 2 3 4 5 6 
#
# 1 0.010626 -0.002490 -0.002496 -0.001186 -0.003567 0.005556
# 2 -0.002490 0.012335 -0.001816 0.004292 0.001510 0.001184
# 3 -0.002496 -0.001816 0.008837 0.001662 0.002044 0.001393
# 4 -0.001186 0.004292 0.001662 0.023307 0.003821 -0.001096
# 5 -0.003567 0.001510 0.002044 0.003821 0.029084 -0.002647
# 6 0.005556 0.001184 0.001393 -0.001096 -0.002647 0.029191
#
#
# Mechanical properties :
#
#
# Convention : Reuss Voigt Hill
#
# Bulk Modulus (GPa) = 54.96089 69.33677 62.14883
# Shear Modulus (GPa) = 37.58012 42.08171 39.83092
#
# Velocity S-wave (km/s) = 3.84815 4.07211 3.96171
# Velocity P-wave (km/s) = 6.43439 7.03073 6.73916
#
# Compressibility (1/GPa) = 0.01819476
#
# Stress axis : x y z
#
# Youngs Moduli (GPa) = 94.11061 81.07107 113.15585
#
# Poissons Ratio (x) = 0.20188 0.28242
# Poissons Ratio (y) = 0.23435 0.20544
# Poissons Ratio (z) = 0.23489 0.14719
#
# Static dielectric constant tensor:
#      x y z
#    x 2.025960 0.033700 0.043490 
#    y 0.033700 1.978020 0.018710 
#    z 0.043490 0.018710 1.984640 
# 
# From -- ./inp_files/504203.got.cif
#   From: 2010.05.17/outbox.cif.g08.bks.cpg/sg2_253_cif.got.tgz:504203.got - 2010.06.03 11:33:40.
