data_PCOD9015234
_publ_section_title
;
Structure prediction by ZEFSAII (Michael W. Deem and Ramdas Pophale) SiO2 
 PCOD9015234
Probable space group: P -1
;
_chemical_formula_sum "Si O2"
_cell_formula_units_Z 15
_cell_length_a 26.863759
_cell_length_b 14.984499
_cell_length_c 5.526337
_cell_angle_alpha 107.389753
_cell_angle_beta 97.508245
_cell_angle_gamma 19.759292
_cell_volume 634.687177
_symmetry_space_group_name_H-M "P -1"
_symmetry_group_IT_number 2
_symmetry_cell_setting 'triclinic'
loop_
_space_group_symop_operation_xyz
x,y,z
-x,-y,-z
loop_
_atom_site_type_symbol
_atom_site_label
_atom_site_fract_x
_atom_site_fract_y
_atom_site_fract_z
Si Si1 0.500000 0.000000 0.000000
Si Si2 0.900689 0.154555 0.309478
Si Si3 0.581119 0.214261 0.262410
Si Si4 0.731961 0.284727 0.826125
Si Si5 0.690781 0.826727 0.183227
Si Si6 0.665047 0.247379 0.142304
Si Si7 0.939812 0.877733 0.237279
Si Si8 0.400843 0.288700 0.704792
O O1 0.400089 0.077693 0.992687
O O2 0.413592 0.185061 0.826535
O O3 0.716449 0.530042 0.461874
O O4 0.874142 0.090253 0.251039
O O5 0.000000 0.000000 0.500000
O O6 0.000000 0.000000 0.000000
O O7 0.410696 0.470226 0.269744
O O8 0.656565 0.150784 0.060999
O O9 0.514085 0.399093 0.585585
O O10 0.692833 0.931053 0.188816
O O11 0.916338 0.943724 0.558604
O O12 0.698303 0.254084 0.942025
O O13 0.697612 0.448882 0.033568
O O14 0.573180 0.024922 0.503201
O O15 0.878923 0.459828 0.021578
O O16 0.819072 0.005202 0.213802
#
# Coordination Sequence:
#
# PCOD9015234 Si02
#       8
#     1   2   2   2   2   2   2   2
#     4  12  28  46  72 108 148 190 254 304 376 442
#     4  12  27  47  77 107 146 202 265 314 375 452
#     4  10  21  41  73 104 136 189 244 309 370 451
#     4  11  20  45  72 101 139 188 252 303 366 450
#     4  12  26  45  67 102 147 192 241 309 383 450
#     4  10  21  42  73 102 136 186 250 305 369 446
#     4  11  26  43  66 103 146 188 245 312 368 446
#     4  12  25  48  76 102 146 201 252 307 375 457
#
# _framework density 23.633689
#
# number of rings (size 3 to 8) (size 9 to 14) (size 15 to 20)
#    0.000    0.800    4.000    3.200    3.733    1.600 
#    0.000    0.667    0.000    0.000    0.000    0.000 
#    0.000    0.000    0.000    0.000    0.000    0.000 
#
# Total GULP energy -83565.631942 kJ/mol
# GULP energy per Si atom -5571.042129 kJ/mol
# Density = 2.357990 g / cm^3
# Si number density = 23.633689 Si / 1000 Ang^3
#
#
#
# Elastic Constant Matrix: (Units=GPa)
#
#
# Indices 1 2 3 4 5 6 
#
# 1 148.1328 34.6020 20.3941 0.7502 -12.2353 24.0420
# 2 34.6020 108.7185 34.7464 5.1673 -2.4107 16.3823
# 3 20.3941 34.7464 72.2056 3.4370 -22.9007 9.5890
# 4 0.7502 5.1673 3.4370 36.2922 0.8516 -8.1542
# 5 -12.2353 -2.4107 -22.9007 0.8516 33.2148 -7.1583
# 6 24.0420 16.3823 9.5890 -8.1542 -7.1583 48.4563
#
#
#
# Elastic Compliance Matrix: (Units=1/GPa)
#
#
# Indices 1 2 3 4 5 6 
#
# 1 0.007886 -0.001896 -0.000267 -0.000594 0.001945 -0.003031
# 2 -0.001896 0.012270 -0.006435 -0.001642 -0.004833 -0.002924
# 3 -0.000267 -0.006435 0.021671 -0.001492 0.014392 -0.000105
# 4 -0.000594 -0.001642 -0.001492 0.029298 -0.000835 0.005952
# 5 0.001945 -0.004833 0.014392 -0.000835 0.041230 0.003771
# 6 -0.003031 -0.002924 -0.000105 0.005952 0.003771 0.024709
#
#
# Mechanical properties :
#
#
# Convention : Reuss Voigt Hill
#
# Bulk Modulus (GPa) = 40.60134 56.50465 48.55300
# Shear Modulus (GPa) = 30.77469 39.54696 35.16082
#
# Velocity S-wave (km/s) = 3.61245 4.09507 3.86131
# Velocity P-wave (km/s) = 5.88358 6.80587 6.36146
#
# Compressibility (1/GPa) = 0.02462973
#
# Stress axis : x y z
#
# Youngs Moduli (GPa) = 126.80499 81.50091 46.14491
#
# Poissons Ratio (x) = 0.15456 0.01232
# Poissons Ratio (y) = 0.24047 0.29695
# Poissons Ratio (z) = 0.03386 0.52447
#
# Static dielectric constant tensor:
#      x y z
#    x 1.880390 -0.035170 0.013960 
#    y -0.035170 1.993330 -0.054970 
#    z 0.013960 -0.054970 1.925480 
# 
# From -- ./inp_files/127182.got.cif
#   From: 2010.05.17/outbox.cif.g08.bks.cpg/sg2_64_cif.got.tgz:127182.got - 2010.06.03 11:33:40.
