data_PCOD9015636
_publ_section_title
;
Structure prediction by ZEFSAII (Michael W. Deem and Ramdas Pophale) SiO2 
 PCOD9015636
Probable space group: P -1
;
_chemical_formula_sum "Si O2"
_cell_formula_units_Z 16
_cell_length_a 14.013134
_cell_length_b 17.869438
_cell_length_c 8.807612
_cell_angle_alpha 39.793479
_cell_angle_beta 30.906772
_cell_angle_gamma 41.171411
_cell_volume 695.100240
_symmetry_space_group_name_H-M "P -1"
_symmetry_group_IT_number 2
_symmetry_cell_setting 'triclinic'
loop_
_space_group_symop_operation_xyz
x,y,z
-x,-y,-z
loop_
_atom_site_type_symbol
_atom_site_label
_atom_site_fract_x
_atom_site_fract_y
_atom_site_fract_z
Si Si1 0.933523 0.217310 0.548184
Si Si2 0.296537 0.513306 0.664446
Si Si3 0.177714 0.454759 0.215898
Si Si4 0.271327 0.966902 0.034344
Si Si5 0.274820 0.834877 0.807008
Si Si6 0.268524 0.038517 0.267559
Si Si7 0.388631 0.169689 0.400384
Si Si8 0.539680 0.412182 0.228207
O O1 0.804586 0.349538 0.466209
O O2 0.851353 0.119464 0.722664
O O3 0.157089 0.175926 0.256798
O O4 0.889277 0.197673 0.815609
O O5 0.500000 0.500000 0.500000
O O6 0.356867 0.432747 0.556932
O O7 0.153695 0.475542 0.036068
O O8 0.281082 0.311620 0.317617
O O9 0.000000 0.500000 0.500000
O O10 0.308803 0.538962 0.960222
O O11 0.218290 0.008041 0.213246
O O12 0.495095 0.886256 0.823651
O O13 0.255793 0.086739 0.766745
O O14 0.442010 0.845489 0.680208
O O15 0.371657 0.723782 0.736853
O O16 0.211930 0.954339 0.604576
O O17 0.500000 0.000000 0.000000
O O18 0.500000 0.500000 0.000000
#
# Coordination Sequence:
#
# PCOD9015636 Si02
#       8
#     2   2   2   2   2   2   2   2
#     4  11  24  44  66  95 133 170 219 263 322 393
#     4  10  22  42  69  96 129 168 215 268 320 393
#     4  11  25  40  63  97 130 164 213 268 320 384
#     4  10  22  41  67  90 123 175 213 263 318 380
#     4  11  22  41  68  91 131 169 212 269 321 392
#     4  12  26  41  63  98 131 170 219 271 323 373
#     4  10  21  42  64  90 132 166 211 262 327 379
#     4  11  20  42  68  92 122 174 216 258 330 377
#
# _framework density 23.018263999999999
#
# number of rings (size 3 to 8) (size 9 to 14) (size 15 to 20)
#    0.000    1.250    3.750    3.000    7.000    1.000 
#    2.250    0.625    0.000    0.000    0.000    0.000 
#    0.000    0.000    0.000    0.000    0.000    0.000 
#
# Total GULP energy -89451.573041 kJ/mol
# GULP energy per Si atom -5590.723315 kJ/mol
# Density = 2.296587 g / cm^3
# Si number density = 23.018264 Si / 1000 Ang^3
#
#
#
# Elastic Constant Matrix: (Units=GPa)
#
#
# Indices 1 2 3 4 5 6 
#
# 1 46.0453 36.1638 34.5527 18.3360 28.9107 3.9996
# 2 36.1638 171.2171 48.5803 25.7879 21.3786 7.5564
# 3 34.5527 48.5803 99.9266 32.1450 33.3384 0.9181
# 4 18.3360 25.7879 32.1450 41.1132 14.6426 6.9497
# 5 28.9107 21.3786 33.3384 14.6426 43.8840 2.8307
# 6 3.9996 7.5564 0.9181 6.9497 2.8307 33.5542
#
#
#
# Elastic Compliance Matrix: (Units=1/GPa)
#
#
# Indices 1 2 3 4 5 6 
#
# 1 0.044608 -0.004619 -0.003884 -0.005888 -0.022152 -0.001082
# 2 -0.004619 0.007467 -0.002085 -0.001375 0.001507 -0.000916
# 3 -0.003884 -0.002085 0.017427 -0.008574 -0.006985 0.002821
# 4 -0.005888 -0.001375 -0.008574 0.035712 -0.000459 -0.006112
# 5 -0.022152 0.001507 -0.006985 -0.000459 0.042169 -0.000970
# 6 -0.001082 -0.000916 0.002821 -0.006112 -0.000970 0.031408
#
#
# Mechanical properties :
#
#
# Convention : Reuss Voigt Hill
#
# Bulk Modulus (GPa) = 20.69335 61.75362 41.22348
# Shear Modulus (GPa) = 23.13984 36.90309 30.02147
#
# Velocity S-wave (km/s) = 3.17406 4.00835 3.61535
# Velocity P-wave (km/s) = 4.73733 6.95046 5.94774
#
# Compressibility (1/GPa) = 0.04832471
#
# Stress axis : x y z
#
# Youngs Moduli (GPa) = 22.41755 133.91953 57.38215
#
# Poissons Ratio (x) = 0.61861 0.22289
# Poissons Ratio (y) = 0.10355 0.11965
# Poissons Ratio (z) = 0.08708 0.27923
#
# Static dielectric constant tensor:
#      x y z
#    x 1.917360 -0.023980 -0.028880 
#    y -0.023980 1.868070 0.080070 
#    z -0.028880 0.080070 1.976290 
# 
# From -- ./inp_files/186166.got.cif
#   From: 2010.05.17/outbox.cif.g08.bks.cpg/sg2_94_cif.got.tgz:186166.got - 2010.06.03 11:33:40.
