data_PCOD9015460
_publ_section_title
;
Structure prediction by ZEFSAII (Michael W. Deem and Ramdas Pophale) SiO2 
 PCOD9015460
Probable space group: P -1
;
_chemical_formula_sum "Si O2"
_cell_formula_units_Z 16
_cell_length_a 15.526570
_cell_length_b 8.967949
_cell_length_c 15.208115
_cell_angle_alpha 105.451451
_cell_angle_beta 37.562791
_cell_angle_gamma 133.099305
_cell_volume 740.898610
_symmetry_space_group_name_H-M "P -1"
_symmetry_group_IT_number 2
_symmetry_cell_setting 'triclinic'
loop_
_space_group_symop_operation_xyz
x,y,z
-x,-y,-z
loop_
_atom_site_type_symbol
_atom_site_label
_atom_site_fract_x
_atom_site_fract_y
_atom_site_fract_z
Si Si1 0.210054 0.837270 0.831933
Si Si2 0.990565 0.777847 0.322184
Si Si3 0.803922 0.273073 0.987537
Si Si4 0.481047 0.256063 0.210864
Si Si5 0.671353 0.655773 0.803577
Si Si6 0.493003 0.685120 0.451597
Si Si7 0.011278 0.339725 0.504933
Si Si8 0.256431 0.403168 0.774746
O O1 0.045700 0.571128 0.870331
O O2 0.395908 0.073823 0.651919
O O3 0.317158 0.868094 0.841789
O O4 0.015097 0.790703 0.017943
O O5 0.724706 0.568337 0.470837
O O6 0.994364 0.667920 0.385757
O O7 0.135616 0.824081 0.133409
O O8 0.108464 0.039663 0.300531
O O9 0.649620 0.257442 0.053433
O O10 0.459292 0.369824 0.173691
O O11 0.598807 0.427916 0.229149
O O12 0.220731 0.956784 0.386384
O O13 0.765001 0.569128 0.688686
O O14 0.500000 0.500000 0.000000
O O15 0.376544 0.602119 0.628457
O O16 0.697413 0.735831 0.304241
O O17 0.000000 0.500000 0.500000
#
# Coordination Sequence:
#
# PCOD9015460 Si02
#       8
#     2   2   2   2   2   2   2   2
#     4  10  22  42  61  98 144 173 228 274 347 394
#     4  11  24  43  68  95 140 174 234 275 344 402
#     4  10  23  41  65 100 135 182 223 289 325 418
#     4  10  23  45  67  89 143 172 223 283 342 398
#     4  11  26  47  71  98 133 180 227 285 344 406
#     4  11  22  38  69  95 133 181 224 281 342 402
#     4  11  26  43  69 101 131 173 231 283 341 408
#     4  10  21  42  62  99 131 178 226 279 336 417
#
# _framework density 21.595396999999998
#
# number of rings (size 3 to 8) (size 9 to 14) (size 15 to 20)
#    0.000    1.500    1.250    3.375    5.250    3.500 
#   11.250    0.000    0.000    0.000    0.000    0.000 
#    0.000    0.000    0.000    0.000    0.000    0.000 
#
# Total GULP energy -89450.538427 kJ/mol
# GULP energy per Si atom -5590.658652 kJ/mol
# Density = 2.154624 g / cm^3
# Si number density = 21.595397 Si / 1000 Ang^3
#
#
#
# Elastic Constant Matrix: (Units=GPa)
#
#
# Indices 1 2 3 4 5 6 
#
# 1 147.3400 41.5681 50.8745 -0.5653 11.6544 -17.0362
# 2 41.5681 37.9268 17.5370 14.4695 9.1313 -10.7476
# 3 50.8745 17.5370 62.8341 3.3911 11.3698 -12.8567
# 4 -0.5653 14.4695 3.3911 30.3972 -14.7562 -3.1117
# 5 11.6544 9.1313 11.3698 -14.7562 48.7319 2.1330
# 6 -17.0362 -10.7476 -12.8567 -3.1117 2.1330 41.0795
#
#
#
# Elastic Compliance Matrix: (Units=1/GPa)
#
#
# Indices 1 2 3 4 5 6 
#
# 1 0.014350 -0.018304 -0.008416 0.012667 0.005833 -0.000815
# 2 -0.018304 0.070087 0.003949 -0.044600 -0.023612 0.009830
# 3 -0.008416 0.003949 0.024296 -0.007598 -0.006912 0.004931
# 4 0.012667 -0.044600 -0.007598 0.068283 0.027999 -0.005075
# 5 0.005833 -0.023612 -0.006912 0.027999 0.033884 -0.005561
# 6 -0.000815 0.009830 0.004931 -0.005075 -0.005561 0.028024
#
#
# Mechanical properties :
#
#
# Convention : Reuss Voigt Hill
#
# Bulk Modulus (GPa) = 15.82450 52.00667 33.91558
# Shear Modulus (GPa) = 16.36502 33.24982 24.80742
#
# Velocity S-wave (km/s) = 2.75581 3.92812 3.39298
# Velocity P-wave (km/s) = 4.17966 6.68641 5.57574
#
# Compressibility (1/GPa) = 0.06319316
#
# Stress axis : x y z
#
# Youngs Moduli (GPa) = 69.68756 14.26794 41.15868
#
# Poissons Ratio (x) = 0.26116 0.34638
# Poissons Ratio (y) = 1.27555 -0.16255
# Poissons Ratio (z) = 0.58647 -0.05635
#
# Static dielectric constant tensor:
#      x y z
#    x 1.796800 -0.040040 -0.023190 
#    y -0.040040 1.794460 0.025270 
#    z -0.023190 0.025270 1.797650 
# 
# From -- ./inp_files/529893.got.cif
#   From: 2010.05.17/outbox.cif.g08.bks.cpg/sg2_265_cif.got.tgz:529893.got - 2010.06.03 11:33:40.
