data_PCOD9015568
_publ_section_title
;
Structure prediction by ZEFSAII (Michael W. Deem and Ramdas Pophale) SiO2 
 PCOD9015568
Probable space group: P -1
;
_chemical_formula_sum "Si O2"
_cell_formula_units_Z 12
_cell_length_a 8.237895
_cell_length_b 9.830176
_cell_length_c 6.991955
_cell_angle_alpha 89.363489
_cell_angle_beta 69.974443
_cell_angle_gamma 73.634899
_cell_volume 508.128450
_symmetry_space_group_name_H-M "P -1"
_symmetry_group_IT_number 2
_symmetry_cell_setting 'triclinic'
loop_
_space_group_symop_operation_xyz
x,y,z
-x,-y,-z
loop_
_atom_site_type_symbol
_atom_site_label
_atom_site_fract_x
_atom_site_fract_y
_atom_site_fract_z
Si Si1 0.393722 0.168102 0.037646
Si Si2 0.537685 0.327154 0.257337
Si Si3 0.951953 0.788113 0.553823
Si Si4 0.778228 0.488883 0.365881
Si Si5 0.895964 0.726686 0.155593
Si Si6 0.107507 0.875992 0.819975
O O1 0.295526 0.207042 0.873339
O O2 0.498574 0.281638 0.059060
O O3 0.235165 0.193490 0.259472
O O4 0.500000 0.000000 0.000000
O O5 0.645725 0.438891 0.273805
O O6 0.354185 0.390812 0.447538
O O7 0.676928 0.175713 0.269315
O O8 0.920053 0.801964 0.342205
O O9 0.101472 0.636513 0.545326
O O10 0.036352 0.893682 0.634889
O O11 0.906276 0.567439 0.210609
O O12 0.042061 0.748335 0.946344
O O13 0.000000 0.000000 0.000000
#
# Coordination Sequence:
#
# PCOD9015568 Si02
#       6
#     2   2   2   2   2   2
#     4  11  24  42  64  96 134 168 220 269 312 381
#     4  10  21  42  63  95 139 157 210 290 302 370
#     4  10  22  43  67  92 134 167 213 272 313 400
#     4  10  22  43  68  97 130 170 216 264 331 380
#     4  11  23  42  69  94 123 184 209 252 349 376
#     4  10  23  44  64  93 132 172 220 267 314 381
#
# _framework density 23.616077000000001
#
# number of rings (size 3 to 8) (size 9 to 14) (size 15 to 20)
#    0.000    1.667    1.667    2.500    0.000    8.000 
#   12.000    0.000    0.000    0.000    0.000    0.000 
#    0.000    0.000    0.000    0.000    0.000    0.000 
#
# Total GULP energy -66924.433977 kJ/mol
# GULP energy per Si atom -5577.036165 kJ/mol
# Density = 2.356233 g / cm^3
# Si number density = 23.616077 Si / 1000 Ang^3
#
#
#
# Elastic Constant Matrix: (Units=GPa)
#
#
# Indices 1 2 3 4 5 6 
#
# 1 84.1307 41.2537 58.5809 21.2719 32.4878 -14.7207
# 2 41.2537 102.2601 53.1402 26.6318 12.0338 -8.5883
# 3 58.5809 53.1402 148.5088 13.4822 48.9728 -14.2626
# 4 21.2719 26.6318 13.4822 45.1817 0.5929 -5.3258
# 5 32.4878 12.0338 48.9728 0.5929 59.3527 1.2866
# 6 -14.7207 -8.5883 -14.2626 -5.3258 1.2866 21.4385
#
#
#
# Elastic Compliance Matrix: (Units=1/GPa)
#
#
# Indices 1 2 3 4 5 6 
#
# 1 0.023203 -0.004212 -0.002775 -0.006135 -0.009744 0.011460
# 2 -0.004212 0.014639 -0.004129 -0.005609 0.002829 -0.001338
# 3 -0.002775 -0.004129 0.012381 0.000781 -0.007984 0.005351
# 4 -0.006135 -0.005609 0.000781 0.028146 0.003551 0.000840
# 5 -0.009744 0.002829 -0.007984 0.003551 0.028414 -0.011692
# 6 0.011460 -0.001338 0.005351 0.000840 -0.011692 0.058448
#
#
# Mechanical properties :
#
#
# Convention : Reuss Voigt Hill
#
# Bulk Modulus (GPa) = 35.72452 71.20548 53.46500
# Shear Modulus (GPa) = 25.40734 37.32289 31.36511
#
# Velocity S-wave (km/s) = 3.28357 3.97974 3.64830
# Velocity P-wave (km/s) = 5.43469 7.16481 6.35887
#
# Compressibility (1/GPa) = 0.02799198
#
# Stress axis : x y z
#
# Youngs Moduli (GPa) = 43.09869 68.30961 80.76597
#
# Poissons Ratio (x) = 0.28770 0.22410
# Poissons Ratio (y) = 0.18152 0.33350
# Poissons Ratio (z) = 0.11959 0.28207
#
# Static dielectric constant tensor:
#      x y z
#    x 1.963560 0.058550 0.030180 
#    y 0.058550 2.011940 0.040360 
#    z 0.030180 0.040360 1.862620 
# 
# From -- ./inp_files/24636.got.cif
#   From: 2010.05.17/outbox.cif.g08.bks.cpg/sg2_13_cif.got.tgz:24636.got - 2010.06.03 11:33:40.
