data_PCOD9015013
_publ_section_title
;
Structure prediction by ZEFSAII (Michael W. Deem and Ramdas Pophale) SiO2 
 PCOD9015013
Probable space group: P -1
;
_chemical_formula_sum "Si O2"
_cell_formula_units_Z 16
_cell_length_a 6.548358
_cell_length_b 21.554575
_cell_length_c 15.672069
_cell_angle_alpha 23.376458
_cell_angle_beta 77.108323
_cell_angle_gamma 90.454097
_cell_volume 714.537419
_symmetry_space_group_name_H-M "P -1"
_symmetry_group_IT_number 2
_symmetry_cell_setting 'triclinic'
loop_
_space_group_symop_operation_xyz
x,y,z
-x,-y,-z
loop_
_atom_site_type_symbol
_atom_site_label
_atom_site_fract_x
_atom_site_fract_y
_atom_site_fract_z
Si Si1 0.513272 0.500051 0.324639
Si Si2 0.066117 0.362780 0.019586
Si Si3 0.221564 0.648072 0.096397
Si Si4 0.051413 0.909292 0.336824
Si Si5 0.874997 0.720341 0.142806
Si Si6 0.790670 0.871008 0.115850
Si Si7 0.335404 0.918343 0.465493
Si Si8 0.506114 0.359264 0.243052
O O1 0.597844 0.601618 0.279558
O O2 0.452951 0.292537 0.606090
O O3 0.743884 0.630365 0.075725
O O4 0.288570 0.502743 0.302004
O O5 0.888650 0.393536 0.936243
O O6 0.885456 0.174764 0.326279
O O7 0.253927 0.522522 0.866770
O O8 0.461618 0.863098 0.810901
O O9 0.023337 0.636957 0.196494
O O10 0.765983 0.740702 0.559843
O O11 0.204024 0.886678 0.425170
O O12 0.013841 0.072900 0.165514
O O13 0.214269 0.999677 0.120947
O O14 0.878359 0.755259 0.198392
O O15 0.000000 0.000000 0.000000
O O16 0.457270 0.794922 0.609595
O O17 0.500000 0.500000 0.000000
#
# Coordination Sequence:
#
# PCOD9015013 Si02
#       8
#     2   2   2   2   2   2   2   2
#     4  11  23  42  67  96 136 175 217 274 324 384
#     4  11  27  39  63 101 133 173 223 264 328 395
#     4  11  23  42  65  99 136 171 221 274 324 393
#     4  10  22  41  69  94 131 170 222 265 328 388
#     4   9  21  42  65  97 128 171 220 265 329 388
#     4  10  21  41  70  96 130 174 216 276 327 383
#     4  12  23  44  69  96 131 179 216 271 336 384
#     4  12  25  43  66  95 135 174 219 268 327 397
#
# _framework density 22.392109999999999
#
# number of rings (size 3 to 8) (size 9 to 14) (size 15 to 20)
#    0.750    0.500    3.750    1.875    1.750    2.000 
#    0.000    3.750    0.000   11.250    0.000    0.000 
#    0.000    0.000    0.000    0.000    0.000    0.000 
#
# Total GULP energy -89213.146139 kJ/mol
# GULP energy per Si atom -5575.821634 kJ/mol
# Density = 2.234114 g / cm^3
# Si number density = 22.392110 Si / 1000 Ang^3
#
#
#
# Elastic Constant Matrix: (Units=GPa)
#
#
# Indices 1 2 3 4 5 6 
#
# 1 85.9995 29.6267 39.6224 13.1153 3.0565 24.2385
# 2 29.6267 95.0456 34.5320 9.2136 0.6254 30.9210
# 3 39.6224 34.5320 94.4398 9.2181 -3.9085 20.4595
# 4 13.1153 9.2136 9.2181 33.6160 15.8867 0.5967
# 5 3.0565 0.6254 -3.9085 15.8867 31.8495 -9.6567
# 6 24.2385 30.9210 20.4595 0.5967 -9.6567 36.8324
#
#
#
# Elastic Compliance Matrix: (Units=1/GPa)
#
#
# Indices 1 2 3 4 5 6 
#
# 1 0.017242 -0.000207 -0.004942 -0.003616 -0.003249 -0.009221
# 2 -0.000207 0.015921 -0.003039 -0.001470 -0.003721 -0.012493
# 3 -0.004942 -0.003039 0.014462 -0.002724 0.003264 -0.001330
# 4 -0.003616 -0.001470 -0.002724 0.042502 -0.021524 -0.001206
# 5 -0.003249 -0.003721 0.003264 -0.021524 0.047877 0.016350
# 6 -0.009221 -0.012493 -0.001330 -0.001206 0.016350 0.048751
#
#
# Mechanical properties :
#
#
# Convention : Reuss Voigt Hill
#
# Bulk Modulus (GPa) = 32.00036 53.67188 42.83612
# Shear Modulus (GPa) = 23.41395 31.90650 27.66023
#
# Velocity S-wave (km/s) = 3.23713 3.77888 3.51845
# Velocity P-wave (km/s) = 5.31921 6.56209 5.97307
#
# Compressibility (1/GPa) = 0.03124965
#
# Stress axis : x y z
#
# Youngs Moduli (GPa) = 57.99771 62.80918 69.14442
#
# Poissons Ratio (x) = 0.01302 0.34172
# Poissons Ratio (y) = 0.01203 0.21010
# Poissons Ratio (z) = 0.28663 0.19085
#
# Static dielectric constant tensor:
#      x y z
#    x 1.840710 -0.010380 -0.043680 
#    y -0.010380 1.862340 0.025880 
#    z -0.043680 0.025880 1.876870 
# 
# From -- ./inp_files/551204.got.cif
#   From: 2010.05.17/outbox.cif.g08.bks.cpg/sg2_276_cif.got.tgz:551204.got - 2010.06.03 11:33:40.
