data_PCOD9015542
_publ_section_title
;
Structure prediction by ZEFSAII (Michael W. Deem and Ramdas Pophale) SiO2 
 PCOD9015542
Probable space group: P -1
;
_chemical_formula_sum "Si O2"
_cell_formula_units_Z 14
_cell_length_a 8.333326
_cell_length_b 13.458759
_cell_length_c 17.384391
_cell_angle_alpha 153.745308
_cell_angle_beta 132.410098
_cell_angle_gamma 38.587999
_cell_volume 535.454804
_symmetry_space_group_name_H-M "P -1"
_symmetry_group_IT_number 2
_symmetry_cell_setting 'triclinic'
loop_
_space_group_symop_operation_xyz
x,y,z
-x,-y,-z
loop_
_atom_site_type_symbol
_atom_site_label
_atom_site_fract_x
_atom_site_fract_y
_atom_site_fract_z
Si Si1 0.270613 0.175057 0.426176
Si Si2 0.168735 0.618095 0.338724
Si Si3 0.239089 0.117692 0.049037
Si Si4 0.435131 0.629648 0.153332
Si Si5 0.255421 0.632733 0.661809
Si Si6 0.999094 0.818267 0.256492
Si Si7 0.441933 0.896864 0.123544
O O1 0.314816 0.415665 0.597201
O O2 0.961661 0.326505 0.439843
O O3 0.434670 0.902718 0.339575
O O4 0.331343 0.059097 0.278624
O O5 0.062632 0.432887 0.197152
O O6 0.467536 0.473642 0.359433
O O7 0.151614 0.633896 0.251386
O O8 0.037412 0.904590 0.534061
O O9 0.309872 0.071500 0.128196
O O10 0.500000 0.000000 0.000000
O O11 0.143817 0.926988 0.862682
O O12 0.147471 0.742290 0.171302
O O13 0.500000 0.500000 0.000000
O O14 0.585176 0.359008 0.064420
O O15 0.737519 0.822827 0.167178
#
# Coordination Sequence:
#
# PCOD9015542 Si02
#       7
#     2   2   2   2   2   2   2
#     4  10  23  41  67  95 137 184 219 278 336 409
#     4  10  23  42  69 105 138 171 228 288 340 394
#     4  10  23  40  66 100 136 172 226 287 331 393
#     4  10  23  40  64  99 130 176 228 272 337 398
#     4  10  21  42  63  93 141 175 220 273 337 401
#     4  11  23  42  72 101 134 178 227 286 337 406
#     4  11  23  43  69 100 130 178 236 274 338 405
#
# _framework density 26.145999
#
# number of rings (size 3 to 8) (size 9 to 14) (size 15 to 20)
#    0.000    1.714    1.429    2.143    6.000    3.429 
#    0.000    2.857    0.000    0.000    0.000    0.000 
#    0.000    0.000    0.000    0.000    0.000    0.000 
#
# Total GULP energy -78257.569958 kJ/mol
# GULP energy per Si atom -5589.826426 kJ/mol
# Density = 2.608649 g / cm^3
# Si number density = 26.145999 Si / 1000 Ang^3
#
#
#
# Elastic Constant Matrix: (Units=GPa)
#
#
# Indices 1 2 3 4 5 6 
#
# 1 86.2078 27.0654 26.7236 -3.7061 -9.5617 15.1229
# 2 27.0654 71.7678 51.0973 19.7270 3.3830 24.6539
# 3 26.7236 51.0973 175.6614 37.5750 33.2263 28.2223
# 4 -3.7061 19.7270 37.5750 53.9738 15.2023 8.3279
# 5 -9.5617 3.3830 33.2263 15.2023 41.1598 7.6894
# 6 15.1229 24.6539 28.2223 8.3279 7.6894 34.9641
#
#
#
# Elastic Compliance Matrix: (Units=1/GPa)
#
#
# Indices 1 2 3 4 5 6 
#
# 1 0.014835 -0.003839 -0.002142 0.003076 0.005070 -0.003828
# 2 -0.003839 0.023509 -0.004139 -0.005551 0.004675 -0.011282
# 3 -0.002142 -0.004139 0.009322 -0.003126 -0.006236 -0.001564
# 4 0.003076 -0.005551 -0.003126 0.024391 -0.005405 0.000486
# 5 0.005070 0.004675 -0.006236 -0.005405 0.033334 -0.006499
# 6 -0.003828 -0.011282 -0.001564 0.000486 -0.006499 0.040787
#
#
# Mechanical properties :
#
#
# Convention : Reuss Voigt Hill
#
# Bulk Modulus (GPa) = 36.46053 60.37884 48.41969
# Shear Modulus (GPa) = 28.48018 41.26960 34.87489
#
# Velocity S-wave (km/s) = 3.30400 3.97725 3.65616
# Velocity P-wave (km/s) = 5.34139 6.65090 6.03179
#
# Compressibility (1/GPa) = 0.02742692
#
# Stress axis : x y z
#
# Youngs Moduli (GPa) = 67.40660 42.53656 107.27233
#
# Poissons Ratio (x) = 0.16329 0.22979
# Poissons Ratio (y) = 0.25877 0.44398
# Poissons Ratio (z) = 0.14439 0.17605
#
# Static dielectric constant tensor:
#      x y z
#    x 2.050920 -0.039520 0.042310 
#    y -0.039520 2.083950 0.015320 
#    z 0.042310 0.015320 2.138570 
# 
# From -- ./inp_files/243868.got.cif
#   From: 2010.05.17/outbox.cif.g08.bks.cpg/sg2_122_cif.got.tgz:243868.got - 2010.06.03 11:33:40.
