data_PCOD9015471
_publ_section_title
;
Structure prediction by ZEFSAII (Michael W. Deem and Ramdas Pophale) SiO2 
 PCOD9015471
Probable space group: P -1
;
_chemical_formula_sum "Si O2"
_cell_formula_units_Z 16
_cell_length_a 12.965121
_cell_length_b 15.337961
_cell_length_c 8.991669
_cell_angle_alpha 135.049007
_cell_angle_beta 133.537239
_cell_angle_gamma 43.380834
_cell_volume 809.659117
_symmetry_space_group_name_H-M "P -1"
_symmetry_group_IT_number 2
_symmetry_cell_setting 'triclinic'
loop_
_space_group_symop_operation_xyz
x,y,z
-x,-y,-z
loop_
_atom_site_type_symbol
_atom_site_label
_atom_site_fract_x
_atom_site_fract_y
_atom_site_fract_z
Si Si1 0.139836 0.540741 0.146179
Si Si2 0.970757 0.812747 0.835328
Si Si3 0.657135 0.963810 0.514785
Si Si4 0.651104 0.765232 0.007867
Si Si5 0.832989 0.065581 0.631750
Si Si6 0.881751 0.235323 0.386631
Si Si7 0.117472 0.232612 0.020532
Si Si8 0.277333 0.900438 0.760293
O O1 0.167475 0.621019 0.406193
O O2 0.057100 0.662057 0.089535
O O3 0.292202 0.395122 0.084130
O O4 0.000000 0.500000 0.000000
O O5 0.083296 0.743390 0.721868
O O6 0.805686 0.922803 0.726046
O O7 0.072637 0.871992 0.101934
O O8 0.908623 0.731288 0.786511
O O9 0.679909 0.843749 0.272329
O O10 0.500000 0.000000 0.500000
O O11 0.671154 0.080989 0.569024
O O12 0.755441 0.757416 0.954888
O O13 0.465593 0.850417 0.882734
O O14 0.788521 0.123853 0.491755
O O15 0.954700 0.897163 0.546267
O O16 0.755124 0.180617 0.235558
O O17 0.179372 0.066602 0.883586
#
# Coordination Sequence:
#
# PCOD9015471 Si02
#       8
#     2   2   2   2   2   2   2   2
#     4  10  21  42  63  85 125 172 213 253 305 386
#     4  11  23  36  62  96 124 161 210 266 314 369
#     4  11  23  38  59  92 132 163 198 266 324 364
#     4  11  25  41  62  94 132 166 207 258 322 373
#     4  11  21  36  59  95 123 158 212 259 313 371
#     4  11  21  38  61  93 124 162 212 258 315 364
#     4  11  20  39  65  91 122 166 216 257 300 375
#     4  12  22  37  67  95 124 160 217 269 305 366
#
# _framework density 19.761403999999999
#
# number of rings (size 3 to 8) (size 9 to 14) (size 15 to 20)
#    0.000    1.000    3.750    6.000    3.500    0.500 
#    0.000    5.625    0.000    1.500    0.000    0.000 
#    0.000    0.000    0.000    0.000    0.000    0.000 
#
# Total GULP energy -89124.899989 kJ/mol
# GULP energy per Si atom -5570.306249 kJ/mol
# Density = 1.971643 g / cm^3
# Si number density = 19.761404 Si / 1000 Ang^3
#
#
#
# Elastic Constant Matrix: (Units=GPa)
#
#
# Indices 1 2 3 4 5 6 
#
# 1 136.9467 24.0393 12.8538 -4.7064 -8.4343 10.3411
# 2 24.0393 76.3708 38.6340 3.5437 -7.1145 0.6488
# 3 12.8538 38.6340 69.6427 -7.0534 -1.6760 -4.5855
# 4 -4.7064 3.5437 -7.0534 23.0468 7.4434 0.2848
# 5 -8.4343 -7.1145 -1.6760 7.4434 28.1357 -5.5992
# 6 10.3411 0.6488 -4.5855 0.2848 -5.5992 13.8918
#
#
#
# Elastic Compliance Matrix: (Units=1/GPa)
#
#
# Indices 1 2 3 4 5 6 
#
# 1 0.008312 -0.002462 -0.000371 0.002013 0.000080 -0.006204
# 2 -0.002462 0.020966 -0.012005 -0.009418 0.006262 -0.000392
# 3 -0.000371 -0.012005 0.022430 0.009507 -0.002962 0.006852
# 4 0.002013 -0.009418 0.009507 0.053561 -0.016511 -0.005674
# 5 0.000080 0.006262 -0.002962 -0.016511 0.044732 0.017038
# 6 -0.006204 -0.000392 0.006852 -0.005674 0.017038 0.085867
#
#
# Mechanical properties :
#
#
# Convention : Reuss Voigt Hill
#
# Bulk Modulus (GPa) = 45.39026 48.22382 46.80704
# Shear Modulus (GPa) = 18.32258 26.84374 22.58316
#
# Velocity S-wave (km/s) = 3.04828 3.68964 3.38419
# Velocity P-wave (km/s) = 5.95049 6.52742 6.24562
#
# Compressibility (1/GPa) = 0.02203116
#
# Stress axis : x y z
#
# Youngs Moduli (GPa) = 120.31309 47.69676 44.58300
#
# Poissons Ratio (x) = 0.11742 0.01654
# Poissons Ratio (y) = 0.29619 0.53523
# Poissons Ratio (z) = 0.04464 0.57261
#
# Static dielectric constant tensor:
#      x y z
#    x 1.793780 0.021080 -0.023820 
#    y 0.021080 1.713000 0.005290 
#    z -0.023820 0.005290 1.758060 
# 
# From -- ./inp_files/274488.got.cif
#   From: 2010.05.17/outbox.cif.g08.bks.cpg/sg2_138_cif.got.tgz:274488.got - 2010.06.03 11:33:40.
