data_PCOD9015809
_publ_section_title
;
Structure prediction by ZEFSAII (Michael W. Deem and Ramdas Pophale) SiO2 
 PCOD9015809
Probable space group: P -1
;
_chemical_formula_sum "Si O2"
_cell_formula_units_Z 16
_cell_length_a 5.240726
_cell_length_b 8.652898
_cell_length_c 20.629390
_cell_angle_alpha 77.477145
_cell_angle_beta 99.247958
_cell_angle_gamma 55.116624
_cell_volume 700.195952
_symmetry_space_group_name_H-M "P -1"
_symmetry_group_IT_number 2
_symmetry_cell_setting 'triclinic'
loop_
_space_group_symop_operation_xyz
x,y,z
-x,-y,-z
loop_
_atom_site_type_symbol
_atom_site_label
_atom_site_fract_x
_atom_site_fract_y
_atom_site_fract_z
Si Si1 0.754996 0.056317 0.847725
Si Si2 0.995934 0.398705 0.284785
Si Si3 0.504992 0.343666 0.077956
Si Si4 0.448325 0.012679 0.420496
Si Si5 0.580436 0.839304 0.786592
Si Si6 0.641786 0.228588 0.960178
Si Si7 0.237206 0.656507 0.265807
Si Si8 0.005957 0.092369 0.641981
O O1 0.533476 0.033500 0.794344
O O2 0.088440 0.822490 0.895332
O O3 0.548076 0.195039 0.889141
O O4 0.885830 0.158891 0.805081
O O5 0.625585 0.504641 0.279572
O O6 0.238096 0.243216 0.365119
O O7 0.091122 0.276892 0.232903
O O8 0.077260 0.548625 0.260524
O O9 0.397904 0.287615 0.141365
O O10 0.368138 0.575143 0.058213
O O11 0.422307 0.286414 0.011197
O O12 0.792664 0.888890 0.405851
O O13 0.230676 0.946204 0.395822
O O14 0.500000 0.000000 0.500000
O O15 0.289788 0.908746 0.717748
O O16 0.000000 0.000000 0.000000
O O17 0.193395 0.724608 0.332143
#
# Coordination Sequence:
#
# PCOD9015809 Si02
#       8
#     2   2   2   2   2   2   2   2
#     4  11  23  38  66  95 135 176 235 290 360 413
#     4  11  25  39  68 101 137 175 233 282 348 414
#     4  10  21  42  65  90 133 181 235 286 358 420
#     4  11  24  46  71  99 139 190 234 277 343 423
#     4  11  23  39  65  99 127 182 231 293 350 415
#     4   9  21  41  62  92 134 183 229 296 343 429
#     4  12  23  42  65 104 139 175 227 299 345 402
#     4  11  23  43  69 100 141 179 229 289 350 406
#
# _framework density 22.850745
#
# number of rings (size 3 to 8) (size 9 to 14) (size 15 to 20)
#    0.000    1.250    1.250    5.625    3.500    0.500 
#    0.000    9.375    0.000    0.000    0.000    0.000 
#    0.000    0.000    0.000    0.000    0.000    0.000 
#
# Total GULP energy -89448.983579 kJ/mol
# GULP energy per Si atom -5590.561474 kJ/mol
# Density = 2.279874 g / cm^3
# Si number density = 22.850745 Si / 1000 Ang^3
#
#
#
# Elastic Constant Matrix: (Units=GPa)
#
#
# Indices 1 2 3 4 5 6 
#
# 1 121.4114 48.9949 60.1107 24.4297 -4.7287 -6.6167
# 2 48.9949 146.1877 68.0818 24.7225 -5.1003 -7.0599
# 3 60.1107 68.0818 156.7123 41.7279 -20.8617 0.1660
# 4 24.4297 24.7225 41.7279 42.4067 0.7201 -5.8999
# 5 -4.7287 -5.1003 -20.8617 0.7201 34.6186 16.8428
# 6 -6.6167 -7.0599 0.1660 -5.8999 16.8428 37.2429
#
#
#
# Elastic Compliance Matrix: (Units=1/GPa)
#
#
# Indices 1 2 3 4 5 6 
#
# 1 0.010951 -0.001865 -0.003117 -0.001843 -0.001613 0.002043
# 2 -0.001865 0.009181 -0.003385 -0.000602 -0.002020 0.002243
# 3 -0.003117 -0.003385 0.013428 -0.010761 0.011323 -0.008081
# 4 -0.001843 -0.000602 -0.010761 0.037407 -0.013199 0.011502
# 5 -0.001613 -0.002020 0.011323 -0.013199 0.047225 -0.024168
# 6 0.002043 0.002243 -0.008081 0.011502 -0.024168 0.040427
#
#
# Mechanical properties :
#
#
# Convention : Reuss Voigt Hill
#
# Bulk Modulus (GPa) = 59.42034 86.52070 72.97052
# Shear Modulus (GPa) = 27.63021 39.32855 33.47938
#
# Velocity S-wave (km/s) = 3.48107 4.15312 3.83186
# Velocity P-wave (km/s) = 6.49748 7.80663 7.18195
#
# Compressibility (1/GPa) = 0.01682925
#
# Stress axis : x y z
#
# Youngs Moduli (GPa) = 91.31193 108.91718 74.46999
#
# Poissons Ratio (x) = 0.20311 0.23209
# Poissons Ratio (y) = 0.17028 0.25204
# Poissons Ratio (z) = 0.28458 0.36863
#
# Static dielectric constant tensor:
#      x y z
#    x 1.866660 -0.048780 0.030260 
#    y -0.048780 1.910230 -0.041250 
#    z 0.030260 -0.041250 1.888080 
# 
# From -- ./inp_files/548113.got.cif
#   From: 2010.05.17/outbox.cif.g08.bks.cpg/sg2_275_cif.got.tgz:548113.got - 2010.06.03 11:33:40.
