data_PCOD9015346
_publ_section_title
;
Structure prediction by ZEFSAII (Michael W. Deem and Ramdas Pophale) SiO2 
 PCOD9015346
Probable space group: P -1
;
_chemical_formula_sum "Si O2"
_cell_formula_units_Z 16
_cell_length_a 11.269418
_cell_length_b 17.811309
_cell_length_c 11.016855
_cell_angle_alpha 132.918105
_cell_angle_beta 77.838392
_cell_angle_gamma 140.541803
_cell_volume 757.437626
_symmetry_space_group_name_H-M "P -1"
_symmetry_group_IT_number 2
_symmetry_cell_setting 'triclinic'
loop_
_space_group_symop_operation_xyz
x,y,z
-x,-y,-z
loop_
_atom_site_type_symbol
_atom_site_label
_atom_site_fract_x
_atom_site_fract_y
_atom_site_fract_z
Si Si1 0.542538 0.286234 0.492503
Si Si2 0.824633 0.135003 0.797765
Si Si3 0.451836 0.133599 0.684772
Si Si4 0.502897 0.367391 0.088963
Si Si5 0.983534 0.281848 0.544606
Si Si6 0.940047 0.486095 0.807846
Si Si7 0.389747 0.533696 0.566590
Si Si8 0.618388 0.528396 0.893784
O O1 0.787755 0.415903 0.645487
O O2 0.582099 0.377141 0.460300
O O3 0.339240 0.044830 0.263419
O O4 0.466147 0.319188 0.641852
O O5 0.111715 0.313004 0.949373
O O6 0.703333 0.005729 0.557149
O O7 0.839438 0.268707 0.945022
O O8 0.741144 0.335870 0.798789
O O9 0.428849 0.228752 0.853561
O O10 0.304053 0.953817 0.616316
O O11 0.810109 0.610850 0.285565
O O12 0.472184 0.313385 0.176677
O O13 0.363682 0.370718 0.100619
O O14 0.094570 0.317008 0.435291
O O15 0.025297 0.434458 0.707513
O O16 0.500000 0.500000 0.500000
O O17 0.500000 0.500000 0.000000
#
# Coordination Sequence:
#
# PCOD9015346 Si02
#       8
#     2   2   2   2   2   2   2   2
#     4  10  21  42  61  87 124 164 205 253 306 359
#     4  10  23  37  62  89 126 165 197 253 320 355
#     4  11  21  40  62  98 127 156 202 257 317 373
#     4  10  23  37  59  93 125 157 210 249 303 369
#     4  10  23  40  64  93 123 166 203 252 316 358
#     4  10  22  40  65  94 126 156 206 259 308 370
#     4  10  22  45  64  85 127 166 208 257 294 367
#     4  11  20  36  61  91 123 157 205 257 309 373
#
# _framework density 21.123850999999998
#
# number of rings (size 3 to 8) (size 9 to 14) (size 15 to 20)
#    0.750    1.000    1.250    4.125    0.000    8.500 
#    4.500    1.875    0.000    0.000    0.000    0.000 
#    0.000    0.000    0.000    0.000    0.000    0.000 
#
# Total GULP energy -89174.141199 kJ/mol
# GULP energy per Si atom -5573.383825 kJ/mol
# Density = 2.107577 g / cm^3
# Si number density = 21.123851 Si / 1000 Ang^3
#
#
#
# Elastic Constant Matrix: (Units=GPa)
#
#
# Indices 1 2 3 4 5 6 
#
# 1 89.1451 42.8148 21.4572 4.2571 -14.6545 6.9675
# 2 42.8148 129.0239 35.4316 4.7891 -5.4569 -18.1834
# 3 21.4572 35.4316 67.9905 18.3428 -16.3986 0.8496
# 4 4.2571 4.7891 18.3428 25.3402 -4.3786 -4.4407
# 5 -14.6545 -5.4569 -16.3986 -4.3786 28.2602 -4.2884
# 6 6.9675 -18.1834 0.8496 -4.4407 -4.2884 22.2919
#
#
#
# Elastic Compliance Matrix: (Units=1/GPa)
#
#
# Indices 1 2 3 4 5 6 
#
# 1 0.016004 -0.006489 0.000455 -0.002568 0.005428 -0.009780
# 2 -0.006489 0.013609 -0.007283 0.005959 -0.001880 0.014232
# 3 0.000455 -0.007283 0.025341 -0.016882 0.009620 -0.008561
# 4 -0.002568 0.005959 -0.016882 0.054202 0.001047 0.017306
# 5 0.005428 -0.001880 0.009620 0.001047 0.044362 0.005146
# 6 -0.009780 0.014232 -0.008561 0.017306 0.005146 0.064288
#
#
# Mechanical properties :
#
#
# Convention : Reuss Voigt Hill
#
# Bulk Modulus (GPa) = 35.31093 53.95187 44.63140
# Shear Modulus (GPa) = 19.69427 27.60887 23.65157
#
# Velocity S-wave (km/s) = 3.05671 3.61917 3.34976
# Velocity P-wave (km/s) = 5.40466 6.56206 6.01128
#
# Compressibility (1/GPa) = 0.02831985
#
# Stress axis : x y z
#
# Youngs Moduli (GPa) = 62.48413 73.48183 39.46125
#
# Poissons Ratio (x) = 0.47683 -0.01795
# Poissons Ratio (y) = 0.40546 0.28740
# Poissons Ratio (z) = -0.02843 0.53517
#
# Static dielectric constant tensor:
#      x y z
#    x 1.785690 -0.037570 0.014800 
#    y -0.037570 1.840040 0.013080 
#    z 0.014800 0.013080 1.787050 
# 
# From -- ./inp_files/436885.got.cif
#   From: 2010.05.17/outbox.cif.g08.bks.cpg/sg2_219_cif.got.tgz:436885.got - 2010.06.03 11:33:40.
