data_PCOD9015061
_publ_section_title
;
Structure prediction by ZEFSAII (Michael W. Deem and Ramdas Pophale) SiO2 
 PCOD9015061
Probable space group: P -1
;
_chemical_formula_sum "Si O2"
_cell_formula_units_Z 16
_cell_length_a 6.951298
_cell_length_b 17.036786
_cell_length_c 8.591774
_cell_angle_alpha 132.363748
_cell_angle_beta 55.564168
_cell_angle_gamma 114.051583
_cell_volume 619.480268
_symmetry_space_group_name_H-M "P -1"
_symmetry_group_IT_number 2
_symmetry_cell_setting 'triclinic'
loop_
_space_group_symop_operation_xyz
x,y,z
-x,-y,-z
loop_
_atom_site_type_symbol
_atom_site_label
_atom_site_fract_x
_atom_site_fract_y
_atom_site_fract_z
Si Si1 0.553267 0.590979 0.307427
Si Si2 0.181847 0.505729 0.565578
Si Si3 0.589119 0.956621 0.776273
Si Si4 0.864503 0.097153 0.268522
Si Si5 0.032823 0.912981 0.454713
Si Si6 0.323367 0.202265 0.263237
Si Si7 0.742828 0.288341 0.991101
Si Si8 0.815888 0.410490 0.802934
O O1 0.431436 0.503221 0.364194
O O2 0.602162 0.698742 0.522283
O O3 0.369713 0.612289 0.281041
O O4 0.759881 0.528388 0.050470
O O5 0.000000 0.500000 0.500000
O O6 0.074064 0.423101 0.629064
O O7 0.187388 0.619172 0.797968
O O8 0.793399 0.870929 0.617191
O O9 0.379955 0.898846 0.701028
O O10 0.813915 0.999531 0.617494
O O11 0.486673 0.074547 0.035450
O O12 0.813040 0.070628 0.436772
O O13 0.059515 0.191524 0.291762
O O14 0.000000 0.000000 0.000000
O O15 0.080281 0.806560 0.198423
O O16 0.487937 0.239728 0.087701
O O17 0.773657 0.329028 0.854253
#
# Coordination Sequence:
#
# PCOD9015061 Si02
#       8
#     2   2   2   2   2   2   2   2
#     4   9  21  42  65 101 144 195 229 303 367 432
#     4   9  20  41  66  98 143 189 236 292 363 435
#     4  11  22  46  72  96 139 185 239 298 357 432
#     4  11  24  46  73  99 132 195 242 292 372 426
#     4  11  26  45  71 104 147 184 237 309 361 429
#     4  10  23  43  69 101 146 182 247 291 364 440
#     4  11  24  43  65 111 142 190 244 301 364 432
#     4  10  21  41  70  99 151 185 244 297 367 439
#
# _framework density 25.828102000000001
#
# number of rings (size 3 to 8) (size 9 to 14) (size 15 to 20)
#    0.000    1.750    2.500    1.125    5.250    2.500 
#    4.500    5.000    0.000    0.000    0.000    0.000 
#    0.000    0.000    0.000    0.000    0.000    0.000 
#
# Total GULP energy -89329.820829 kJ/mol
# GULP energy per Si atom -5583.113802 kJ/mol
# Density = 2.576932 g / cm^3
# Si number density = 25.828102 Si / 1000 Ang^3
#
#
#
# Elastic Constant Matrix: (Units=GPa)
#
#
# Indices 1 2 3 4 5 6 
#
# 1 149.4048 56.0729 50.9030 -13.9830 7.0124 27.9553
# 2 56.0729 196.8255 57.6627 -40.9341 4.2606 11.6318
# 3 50.9030 57.6627 135.3780 -17.1252 -2.9197 21.9317
# 4 -13.9830 -40.9341 -17.1252 54.7229 9.5723 -10.8427
# 5 7.0124 4.2606 -2.9197 9.5723 51.1313 -13.1536
# 6 27.9553 11.6318 21.9317 -10.8427 -13.1536 43.2685
#
#
#
# Elastic Compliance Matrix: (Units=1/GPa)
#
#
# Indices 1 2 3 4 5 6 
#
# 1 0.009064 -0.001686 -0.001914 -0.000139 -0.002533 -0.005238
# 2 -0.001686 0.007066 -0.001980 0.004626 -0.001072 0.001027
# 3 -0.001914 -0.001980 0.009470 0.000395 0.000152 -0.002887
# 4 -0.000139 0.004626 0.000395 0.023143 -0.003833 0.003280
# 5 -0.002533 -0.001072 0.000152 -0.003833 0.022726 0.007796
# 6 -0.005238 0.001027 -0.002887 0.003280 0.007796 0.030875
#
#
# Mechanical properties :
#
#
# Convention : Reuss Voigt Hill
#
# Bulk Modulus (GPa) = 69.24687 90.09837 79.67262
# Shear Modulus (GPa) = 42.25964 50.95587 46.60775
#
# Velocity S-wave (km/s) = 4.04937 4.44654 4.25259
# Velocity P-wave (km/s) = 6.98084 7.83082 7.41801
#
# Compressibility (1/GPa) = 0.01444109
#
# Stress axis : x y z
#
# Youngs Moduli (GPa) = 110.32699 141.53127 105.59164
#
# Poissons Ratio (x) = 0.23863 0.20206
# Poissons Ratio (y) = 0.18602 0.20905
# Poissons Ratio (z) = 0.21112 0.28021
#
# Static dielectric constant tensor:
#      x y z
#    x 2.089210 -0.124170 -0.085280 
#    y -0.124170 2.116490 -0.006550 
#    z -0.085280 -0.006550 2.034240 
# 
# From -- ./inp_files/210868.got.cif
#   From: 2010.05.17/outbox.cif.g08.bks.cpg/sg2_106_cif.got.tgz:210868.got - 2010.06.03 11:33:40.
