data_PCOD9015891
_publ_section_title
;
Structure prediction by ZEFSAII (Michael W. Deem and Ramdas Pophale) SiO2 
 PCOD9015891
Probable space group: P -1
;
_chemical_formula_sum "Si O2"
_cell_formula_units_Z 16
_cell_length_a 10.424729
_cell_length_b 10.886058
_cell_length_c 12.802636
_cell_angle_alpha 36.190894
_cell_angle_beta 72.758580
_cell_angle_gamma 97.928780
_cell_volume 609.159507
_symmetry_space_group_name_H-M "P -1"
_symmetry_group_IT_number 2
_symmetry_cell_setting 'triclinic'
loop_
_space_group_symop_operation_xyz
x,y,z
-x,-y,-z
loop_
_atom_site_type_symbol
_atom_site_label
_atom_site_fract_x
_atom_site_fract_y
_atom_site_fract_z
Si Si1 0.742057 0.770231 0.399273
Si Si2 0.145847 0.668911 0.756934
Si Si3 0.236007 0.454059 0.270913
Si Si4 0.340154 0.170448 0.039161
Si Si5 0.068211 0.714274 0.133377
Si Si6 0.406451 0.660879 0.605595
Si Si7 0.715240 0.768903 0.761821
Si Si8 0.716150 0.346750 0.583578
O O1 0.856620 0.786097 0.453674
O O2 0.616196 0.818093 0.447313
O O3 0.641286 0.463995 0.584973
O O4 0.836425 0.979778 0.136955
O O5 0.321547 0.698971 0.696089
O O6 0.044916 0.478766 0.808429
O O7 0.226290 0.977963 0.498740
O O8 0.000000 0.500000 0.000000
O O9 0.196657 0.651928 0.164999
O O10 0.194621 0.336959 0.243638
O O11 0.447361 0.624007 0.122118
O O12 0.240429 0.119833 0.207201
O O13 0.296970 0.895642 0.199917
O O14 0.312827 0.336211 0.855469
O O15 0.927547 0.604092 0.335118
O O16 0.375515 0.745279 0.445663
O O17 0.500000 0.500000 0.000000
#
# Coordination Sequence:
#
# PCOD9015891 Si02
#       8
#     2   2   2   2   2   2   2   2
#     4  11  24  43  65  94 130 175 224 268 322 391
#     4  11  24  43  66  99 136 175 218 274 336 393
#     4  10  24  40  62  96 129 169 218 267 328 393
#     4  10  21  42  65  96 126 169 224 271 322 390
#     4  11  24  40  63  95 134 169 214 271 330 392
#     4  10  23  41  68  95 126 173 224 269 324 394
#     4  10  21  42  67  94 133 172 217 272 324 398
#     4  11  23  42  65  94 132 171 220 275 327 380
#
# _framework density 26.265698
#
# number of rings (size 3 to 8) (size 9 to 14) (size 15 to 20)
#    0.000    1.500    2.500    2.250    3.500    7.000 
#    0.000    2.500    0.000    0.000    0.000    0.000 
#    0.000    0.000    0.000    0.000    0.000    0.000 
#
# Total GULP energy -89525.995845 kJ/mol
# GULP energy per Si atom -5595.374740 kJ/mol
# Density = 2.620592 g / cm^3
# Si number density = 26.265698 Si / 1000 Ang^3
#
#
#
# Elastic Constant Matrix: (Units=GPa)
#
#
# Indices 1 2 3 4 5 6 
#
# 1 66.8425 19.5141 27.4486 0.8371 2.8044 -12.0244
# 2 19.5141 112.1775 16.0810 7.2472 -6.3445 -24.4735
# 3 27.4486 16.0810 138.5336 -5.5334 13.0390 -25.1002
# 4 0.8371 7.2472 -5.5334 37.2641 -12.6637 2.9963
# 5 2.8044 -6.3445 13.0390 -12.6637 31.1254 -4.6604
# 6 -12.0244 -24.4735 -25.1002 2.9963 -4.6604 33.7408
#
#
#
# Elastic Compliance Matrix: (Units=1/GPa)
#
#
# Indices 1 2 3 4 5 6 
#
# 1 0.017157 -0.002016 -0.002644 -0.000873 -0.000808 0.002651
# 2 -0.002016 0.011303 0.000232 -0.001798 0.002886 0.008210
# 3 -0.002644 0.000232 0.008966 0.000003 -0.002641 0.005531
# 4 -0.000873 -0.001798 0.000003 0.031550 0.012137 -0.002738
# 5 -0.000808 0.002886 -0.002641 0.012137 0.039465 0.004214
# 6 0.002651 0.008210 0.005531 -0.002738 0.004214 0.041477
#
#
# Mechanical properties :
#
#
# Convention : Reuss Voigt Hill
#
# Bulk Modulus (GPa) = 35.00413 49.29347 42.14880
# Shear Modulus (GPa) = 29.70924 37.39339 33.55132
#
# Velocity S-wave (km/s) = 3.36684 3.77723 3.57792
# Velocity P-wave (km/s) = 5.33573 6.15072 5.75766
#
# Compressibility (1/GPa) = 0.02856805
#
# Stress axis : x y z
#
# Youngs Moduli (GPa) = 58.28662 88.47502 111.52939
#
# Poissons Ratio (x) = 0.17841 0.29487
# Poissons Ratio (y) = 0.11753 -0.02583
# Poissons Ratio (z) = 0.15410 -0.02049
#
# Static dielectric constant tensor:
#      x y z
#    x 2.106600 0.015490 -0.065270 
#    y 0.015490 2.071960 0.016480 
#    z -0.065270 0.016480 2.097770 
# 
# From -- ./inp_files/256030.got.cif
#   From: 2010.05.17/outbox.cif.g08.bks.cpg/sg2_129_cif.got.tgz:256030.got - 2010.06.03 11:33:40.
