data_PCOD9015057
_publ_section_title
;
Structure prediction by ZEFSAII (Michael W. Deem and Ramdas Pophale) SiO2 
 PCOD9015057
Probable space group: P -1
;
_chemical_formula_sum "Si O2"
_cell_formula_units_Z 14
_cell_length_a 6.943643
_cell_length_b 13.188457
_cell_length_c 18.159261
_cell_angle_alpha 21.923718
_cell_angle_beta 89.832581
_cell_angle_gamma 80.006967
_cell_volume 552.106456
_symmetry_space_group_name_H-M "P -1"
_symmetry_group_IT_number 2
_symmetry_cell_setting 'triclinic'
loop_
_space_group_symop_operation_xyz
x,y,z
-x,-y,-z
loop_
_atom_site_type_symbol
_atom_site_label
_atom_site_fract_x
_atom_site_fract_y
_atom_site_fract_z
Si Si1 0.842839 0.839775 0.021298
Si Si2 0.598636 0.628861 0.350251
Si Si3 0.703543 0.568368 0.941253
Si Si4 0.406063 0.367407 0.258440
Si Si5 0.978538 0.360652 0.679656
Si Si6 0.859140 0.349242 0.241860
Si Si7 0.550333 0.711647 0.524150
O O1 0.912622 0.561952 0.152397
O O2 0.904876 0.750004 0.165808
O O3 0.581640 0.025056 0.891621
O O4 0.933977 0.082749 0.839037
O O5 0.500000 0.500000 0.500000
O O6 0.835864 0.585023 0.397441
O O7 0.587825 0.448624 0.399254
O O8 0.751431 0.496236 0.903263
O O9 0.605975 0.931380 0.708560
O O10 0.500000 0.500000 0.000000
O O11 0.871941 0.396513 0.122132
O O12 0.609783 0.432072 0.201506
O O13 0.345855 0.432987 0.299778
O O14 0.500000 0.000000 0.500000
O O15 0.748920 0.639315 0.516911
O O16 0.000000 0.000000 0.500000
#
# Coordination Sequence:
#
# PCOD9015057 Si02
#       7
#     2   2   2   2   2   2   2
#     4  10  23  41  66 104 140 185 242 287 355 427
#     4  11  23  43  69 105 144 177 233 303 370 424
#     4   9  20  40  66  98 141 188 233 294 355 417
#     4   9  20  40  65  95 138 188 234 294 354 421
#     4  10  23  42  72 101 135 193 238 288 359 447
#     4  11  23  40  69 103 144 190 240 295 360 426
#     4  10  21  41  70  99 139 189 234 291 367 429
#
# _framework density 25.357430000000001
#
# number of rings (size 3 to 8) (size 9 to 14) (size 15 to 20)
#    0.000    2.000    0.000    2.143    6.000    4.571 
#    0.000    5.714    3.143    0.000    0.000    0.000 
#    0.000    0.000    0.000    0.000    0.000    0.000 
#
# Total GULP energy -78382.662441 kJ/mol
# GULP energy per Si atom -5598.761603 kJ/mol
# Density = 2.529972 g / cm^3
# Si number density = 25.357430 Si / 1000 Ang^3
#
#
#
# Elastic Constant Matrix: (Units=GPa)
#
#
# Indices 1 2 3 4 5 6 
#
# 1 155.8590 56.8269 13.3917 -5.8546 -1.9097 15.1614
# 2 56.8269 189.3778 60.0808 2.0188 -7.3099 21.1819
# 3 13.3917 60.0808 97.6646 1.0530 8.8566 8.8856
# 4 -5.8546 2.0188 1.0530 48.8752 4.5848 -2.1514
# 5 -1.9097 -7.3099 8.8566 4.5848 40.6816 11.0061
# 6 15.1614 21.1819 8.8856 -2.1514 11.0061 54.1146
#
#
#
# Elastic Compliance Matrix: (Units=1/GPa)
#
#
# Indices 1 2 3 4 5 6 
#
# 1 0.007340 -0.002212 0.000451 0.000898 0.000085 -0.001246
# 2 -0.002212 0.007765 -0.004525 -0.000872 0.003003 -0.002322
# 3 0.000451 -0.004525 0.013278 0.000321 -0.003786 0.000247
# 4 0.000898 -0.000872 0.000321 0.020937 -0.002941 0.001468
# 5 0.000085 0.003003 -0.003786 -0.002941 0.028009 -0.006391
# 6 -0.001246 -0.002322 0.000247 0.001468 -0.006391 0.021055
#
#
# Mechanical properties :
#
#
# Convention : Reuss Voigt Hill
#
# Bulk Modulus (GPa) = 63.25345 78.16670 70.71007
# Shear Modulus (GPa) = 43.01871 49.57441 46.29656
#
# Velocity S-wave (km/s) = 4.12332 4.42636 4.27753
# Velocity P-wave (km/s) = 6.90419 7.55092 7.23479
#
# Compressibility (1/GPa) = 0.01580942
#
# Stress axis : x y z
#
# Youngs Moduli (GPa) = 136.24028 128.78586 75.31043
#
# Poissons Ratio (x) = 0.28492 -0.03393
# Poissons Ratio (y) = 0.30142 0.34078
# Poissons Ratio (z) = -0.06138 0.58276
#
# Static dielectric constant tensor:
#      x y z
#    x 2.197470 -0.077450 0.072050 
#    y -0.077450 2.021030 0.062960 
#    z 0.072050 0.062960 2.063060 
# 
# From -- ./inp_files/590018.got.cif
#   From: 2010.05.17/outbox.cif.g08.bks.cpg/sg2_296_cif.got.tgz:590018.got - 2010.06.03 11:33:40.
