data_PCOD9015567
_publ_section_title
;
Structure prediction by ZEFSAII (Michael W. Deem and Ramdas Pophale) SiO2 
 PCOD9015567
Probable space group: P -1
;
_chemical_formula_sum "Si O2"
_cell_formula_units_Z 14
_cell_length_a 8.967815
_cell_length_b 8.358188
_cell_length_c 12.889076
_cell_angle_alpha 117.167729
_cell_angle_beta 61.022073
_cell_angle_gamma 128.348161
_cell_volume 645.446840
_symmetry_space_group_name_H-M "P -1"
_symmetry_group_IT_number 2
_symmetry_cell_setting 'triclinic'
loop_
_space_group_symop_operation_xyz
x,y,z
-x,-y,-z
loop_
_atom_site_type_symbol
_atom_site_label
_atom_site_fract_x
_atom_site_fract_y
_atom_site_fract_z
Si Si1 0.816094 0.684009 0.258204
Si Si2 0.769682 0.343682 0.544815
Si Si3 0.423741 0.171350 0.970745
Si Si4 0.166804 0.746445 0.042085
Si Si5 0.207642 0.033564 0.479719
Si Si6 0.413253 0.647837 0.605785
Si Si7 0.470984 0.558403 0.183768
O O1 0.753393 0.481524 0.291866
O O2 0.672146 0.603672 0.184897
O O3 0.764337 0.831869 0.386010
O O4 0.042053 0.798641 0.181038
O O5 0.766948 0.153780 0.547535
O O6 0.670015 0.298151 0.451383
O O7 0.668908 0.438307 0.679065
O O8 0.000000 0.500000 0.500000
O O9 0.634481 0.222779 0.963118
O O10 0.374523 0.334876 0.092638
O O11 0.467642 0.253721 0.862632
O O12 0.256104 0.928605 0.977015
O O13 0.000000 0.500000 0.000000
O O14 0.381433 0.150513 0.370341
O O15 0.000000 0.000000 0.500000
O O16 0.500000 0.500000 0.500000
#
# Coordination Sequence:
#
# PCOD9015567 Si02
#       7
#     2   2   2   2   2   2   2
#     4  11  24  43  70  98 142 183 225 296 353 417
#     4  12  25  41  66 102 139 185 232 285 353 430
#     4  10  26  47  72 103 140 183 242 297 348 426
#     4  11  24  48  72 104 133 187 246 289 364 415
#     4  11  25  42  64 100 141 185 236 280 356 424
#     4  10  21  42  63  95 137 176 228 280 349 420
#     4  11  24  47  68 101 145 184 236 295 351 420
#
# _framework density 21.6904
#
# number of rings (size 3 to 8) (size 9 to 14) (size 15 to 20)
#    0.000    1.143    4.286    2.143    6.000    1.714 
#    0.000    0.000    0.000    0.000    0.000    0.000 
#    0.000    0.000    0.000    0.000    0.000    0.000 
#
# Total GULP energy -78120.192641 kJ/mol
# GULP energy per Si atom -5580.013760 kJ/mol
# Density = 2.164103 g / cm^3
# Si number density = 21.690400 Si / 1000 Ang^3
#
#
#
# Elastic Constant Matrix: (Units=GPa)
#
#
# Indices 1 2 3 4 5 6 
#
# 1 98.8733 23.8370 17.3914 -18.6341 -3.7819 -1.2622
# 2 23.8370 106.7923 18.2949 -24.7795 -6.2063 3.8567
# 3 17.3914 18.2949 64.6068 -21.8659 -10.1782 5.6885
# 4 -18.6341 -24.7795 -21.8659 37.1714 2.3251 -0.6405
# 5 -3.7819 -6.2063 -10.1782 2.3251 38.5204 -5.4809
# 6 -1.2622 3.8567 5.6885 -0.6405 -5.4809 34.9209
#
#
#
# Elastic Compliance Matrix: (Units=1/GPa)
#
#
# Indices 1 2 3 4 5 6 
#
# 1 0.011475 -0.001408 -0.001346 0.004010 0.000434 0.000931
# 2 -0.001408 0.011362 -0.000362 0.006572 0.001063 -0.000959
# 3 -0.001346 -0.000362 0.020492 0.010832 0.004217 -0.002486
# 4 0.004010 0.006572 0.010832 0.039534 0.001737 -0.001348
# 5 0.000434 0.001063 0.004217 0.001737 0.027694 0.003590
# 6 0.000931 -0.000959 -0.002486 -0.001348 0.003590 0.029720
#
#
# Mechanical properties :
#
#
# Convention : Reuss Voigt Hill
#
# Bulk Modulus (GPa) = 26.95762 43.25765 35.10763
# Shear Modulus (GPa) = 31.47133 36.17248 33.82191
#
# Velocity S-wave (km/s) = 3.81324 4.08814 3.95309
# Velocity P-wave (km/s) = 5.64297 6.50157 6.08743
#
# Compressibility (1/GPa) = 0.03709527
#
# Stress axis : x y z
#
# Youngs Moduli (GPa) = 87.14884 88.01466 48.79885
#
# Poissons Ratio (x) = 0.12397 0.06570
# Poissons Ratio (y) = 0.12275 0.01766
# Poissons Ratio (z) = 0.11733 0.03185
#
# Static dielectric constant tensor:
#      x y z
#    x 1.737640 0.060980 -0.005790 
#    y 0.060980 1.828100 0.056970 
#    z -0.005790 0.056970 1.806630 
# 
# From -- ./inp_files/382874.got.cif
#   From: 2010.05.17/outbox.cif.g08.bks.cpg/sg2_192_cif.got.tgz:382874.got - 2010.06.03 11:33:40.
