data_PCOD9015062
_publ_section_title
;
Structure prediction by ZEFSAII (Michael W. Deem and Ramdas Pophale) SiO2 
 PCOD9015062
Probable space group: P -1
;
_chemical_formula_sum "Si O2"
_cell_formula_units_Z 16
_cell_length_a 14.510493
_cell_length_b 12.905636
_cell_length_c 9.035557
_cell_angle_alpha 55.891050
_cell_angle_beta 107.685127
_cell_angle_gamma 60.093950
_cell_volume 707.440990
_symmetry_space_group_name_H-M "P -1"
_symmetry_group_IT_number 2
_symmetry_cell_setting 'triclinic'
loop_
_space_group_symop_operation_xyz
x,y,z
-x,-y,-z
loop_
_atom_site_type_symbol
_atom_site_label
_atom_site_fract_x
_atom_site_fract_y
_atom_site_fract_z
Si Si1 0.987310 0.605642 0.772105
Si Si2 0.559428 0.806001 0.095620
Si Si3 0.818205 0.045201 0.451583
Si Si4 0.068640 0.506992 0.392198
Si Si5 0.778047 0.321646 0.050428
Si Si6 0.625517 0.706817 0.862310
Si Si7 0.297617 0.974412 0.317737
Si Si8 0.499670 0.649155 0.405961
O O1 0.857848 0.678263 0.535256
O O2 0.193715 0.406206 0.977556
O O3 0.891040 0.839185 0.579379
O O4 0.000000 0.500000 0.000000
O O5 0.778887 0.566217 0.422638
O O6 0.489409 0.756259 0.179168
O O7 0.546235 0.812087 0.905005
O O8 0.500000 0.000000 0.000000
O O9 0.722443 0.242511 0.132018
O O10 0.707854 0.123835 0.477820
O O11 0.007179 0.907698 0.694907
O O12 0.000000 0.500000 0.500000
O O13 0.901766 0.750323 0.026027
O O14 0.714823 0.476148 0.035386
O O15 0.679129 0.478694 0.730033
O O16 0.453918 0.900951 0.508056
O O17 0.344914 0.859845 0.277243
O O18 0.500000 0.500000 0.500000
#
# Coordination Sequence:
#
# PCOD9015062 Si02
#       8
#     2   2   2   2   2   2   2   2
#     4  11  23  42  71 101 139 184 235 288 349 428
#     4  12  28  47  71 104 151 185 232 296 360 415
#     4  10  21  41  71 100 127 181 236 288 338 411
#     4  12  25  46  65 103 144 183 232 290 358 420
#     4   9  22  45  70  96 138 175 241 280 349 424
#     4  10  25  46  69 102 136 185 233 287 351 421
#     4  11  25  44  72  99 137 182 240 284 345 425
#     4  11  27  46  69 102 144 187 231 293 361 418
#
# _framework density 22.616727000000001
#
# number of rings (size 3 to 8) (size 9 to 14) (size 15 to 20)
#    0.000    1.250    2.500    1.500    8.750    2.500 
#    2.250    1.250    0.000    0.000    0.000    0.000 
#    0.000    0.000    0.000    0.000    0.000    0.000 
#
# Total GULP energy -89307.061936 kJ/mol
# GULP energy per Si atom -5581.691371 kJ/mol
# Density = 2.256525 g / cm^3
# Si number density = 22.616727 Si / 1000 Ang^3
#
#
#
# Elastic Constant Matrix: (Units=GPa)
#
#
# Indices 1 2 3 4 5 6 
#
# 1 91.9475 44.2960 16.9611 0.6795 -8.4663 -2.6614
# 2 44.2960 131.6465 10.7453 7.9131 -11.0805 -3.5098
# 3 16.9611 10.7453 68.3231 0.9748 -3.3238 4.1496
# 4 0.6795 7.9131 0.9748 30.0699 -0.0736 -0.9786
# 5 -8.4663 -11.0805 -3.3238 -0.0736 38.7004 0.6328
# 6 -2.6614 -3.5098 4.1496 -0.9786 0.6328 38.4000
#
#
#
# Elastic Compliance Matrix: (Units=1/GPa)
#
#
# Indices 1 2 3 4 5 6 
#
# 1 0.013579 -0.004256 -0.002693 0.000931 0.001509 0.000842
# 2 -0.004256 0.009352 -0.000329 -0.002334 0.001706 0.000508
# 3 -0.002693 -0.000329 0.015512 -0.000416 0.000680 -0.001915
# 4 0.000931 -0.002334 -0.000416 0.033886 -0.000448 0.000767
# 5 0.001509 0.001706 0.000680 -0.000448 0.026720 -0.000265
# 6 0.000842 0.000508 -0.001915 0.000767 -0.000265 0.026377
#
#
# Mechanical properties :
#
#
# Convention : Reuss Voigt Hill
#
# Bulk Modulus (GPa) = 41.86138 48.43577 45.14858
# Shear Modulus (GPa) = 33.79650 36.09505 34.94578
#
# Velocity S-wave (km/s) = 3.86983 3.99926 3.93508
# Velocity P-wave (km/s) = 6.20618 6.54124 6.37591
#
# Compressibility (1/GPa) = 0.02388836
#
# Stress axis : x y z
#
# Youngs Moduli (GPa) = 73.64224 106.92545 64.46698
#
# Poissons Ratio (x) = 0.45506 0.17359
# Poissons Ratio (y) = 0.31341 0.02120
# Poissons Ratio (z) = 0.19830 0.03517
#
# Static dielectric constant tensor:
#      x y z
#    x 1.907580 0.003260 0.008520 
#    y 0.003260 1.889630 -0.076260 
#    z 0.008520 -0.076260 1.891530 
# 
# From -- ./inp_files/306774.got.cif
#   From: 2010.05.17/outbox.cif.g08.bks.cpg/sg2_154_cif.got.tgz:306774.got - 2010.06.03 11:33:40.
