data_PCOD9015640
_publ_section_title
;
Structure prediction by ZEFSAII (Michael W. Deem and Ramdas Pophale) SiO2 
 PCOD9015640
Probable space group: P -1
;
_chemical_formula_sum "Si O2"
_cell_formula_units_Z 12
_cell_length_a 10.213948
_cell_length_b 7.697997
_cell_length_c 10.389541
_cell_angle_alpha 42.359588
_cell_angle_beta 91.383268
_cell_angle_gamma 80.593957
_cell_volume 529.951218
_symmetry_space_group_name_H-M "P -1"
_symmetry_group_IT_number 2
_symmetry_cell_setting 'triclinic'
loop_
_space_group_symop_operation_xyz
x,y,z
-x,-y,-z
loop_
_atom_site_type_symbol
_atom_site_label
_atom_site_fract_x
_atom_site_fract_y
_atom_site_fract_z
Si Si1 0.065696 0.745249 0.850468
Si Si2 0.502527 0.755247 0.775908
Si Si3 0.228345 0.428560 0.245877
Si Si4 0.891038 0.147635 0.807044
Si Si5 0.618356 0.227603 0.630929
Si Si6 0.227976 0.860397 0.564345
O O1 0.124414 0.757057 0.704046
O O2 0.186099 0.651064 0.011187
O O3 0.971715 0.028211 0.745125
O O4 0.000000 0.500000 0.000000
O O5 0.608478 0.658825 0.712977
O O6 0.352111 0.863366 0.660515
O O7 0.555770 0.982108 0.726286
O O8 0.500000 0.500000 0.000000
O O9 0.155490 0.547494 0.311167
O O10 0.177393 0.169598 0.353764
O O11 0.737396 0.113433 0.803120
O O12 0.000000 0.000000 0.000000
O O13 0.500000 0.500000 0.500000
O O14 0.704435 0.294165 0.475329
#
# Coordination Sequence:
#
# PCOD9015640 Si02
#       6
#     2   2   2   2   2   2
#     4  11  23  41  63  96 132 179 233 274 335 413
#     4  11  21  40  69  99 134 177 227 289 349 404
#     4  10  21  42  64  90 135 172 225 278 344 404
#     4  10  23  42  67  96 141 182 221 283 337 406
#     4  11  23  44  71 106 138 177 236 287 346 415
#     4  11  23  40  70  95 136 182 221 287 348 402
#
# _framework density 22.643592999999999
#
# number of rings (size 3 to 8) (size 9 to 14) (size 15 to 20)
#    0.000    1.333    1.667    6.000    0.000    3.333 
#    3.000    3.333    0.000    0.000    0.000    0.000 
#    0.000    0.000    0.000    0.000    0.000    0.000 
#
# Total GULP energy -66870.118547 kJ/mol
# GULP energy per Si atom -5572.509879 kJ/mol
# Density = 2.259206 g / cm^3
# Si number density = 22.643593 Si / 1000 Ang^3
#
#
#
# Elastic Constant Matrix: (Units=GPa)
#
#
# Indices 1 2 3 4 5 6 
#
# 1 133.8031 38.4611 46.5801 -1.8202 16.6070 -16.9087
# 2 38.4611 155.6741 33.2283 -9.8143 -14.8735 -35.5779
# 3 46.5801 33.2283 112.6064 0.7027 -4.8074 -20.4546
# 4 -1.8202 -9.8143 0.7027 27.6970 -8.5223 5.6545
# 5 16.6070 -14.8735 -4.8074 -8.5223 45.8954 18.9339
# 6 -16.9087 -35.5779 -20.4546 5.6545 18.9339 39.8585
#
#
#
# Elastic Compliance Matrix: (Units=1/GPa)
#
#
# Indices 1 2 3 4 5 6 
#
# 1 0.010655 -0.001619 -0.003239 -0.003240 -0.007579 0.005473
# 2 -0.001619 0.008535 -0.000797 0.002237 0.001397 0.005541
# 3 -0.003239 -0.000797 0.011150 -0.001448 0.000283 0.003708
# 4 -0.003240 0.002237 -0.001448 0.044392 0.015717 -0.013885
# 5 -0.007579 0.001397 0.000283 0.015717 0.036819 -0.021542
# 6 0.005473 0.005541 0.003708 -0.013885 -0.021542 0.046462
#
#
# Mechanical properties :
#
#
# Convention : Reuss Voigt Hill
#
# Bulk Modulus (GPa) = 52.54617 70.95806 61.75211
# Shear Modulus (GPa) = 28.46337 41.61112 35.03724
#
# Velocity S-wave (km/s) = 3.54929 4.29144 3.93789
# Velocity P-wave (km/s) = 6.32872 7.48066 6.92867
#
# Compressibility (1/GPa) = 0.01903088
#
# Stress axis : x y z
#
# Youngs Moduli (GPa) = 93.85619 117.17057 89.68645
#
# Poissons Ratio (x) = 0.18966 0.29049
# Poissons Ratio (y) = 0.15192 0.07144
# Poissons Ratio (z) = 0.30399 0.09333
#
# Static dielectric constant tensor:
#      x y z
#    x 1.918680 0.028220 0.105400 
#    y 0.028220 1.873280 0.030270 
#    z 0.105400 0.030270 1.924830 
# 
# From -- ./inp_files/377492.got.cif
#   From: 2010.05.17/outbox.cif.g08.bks.cpg/sg2_189_cif.got.tgz:377492.got - 2010.06.03 11:33:40.
