data_PCOD9015201
_publ_section_title
;
Structure prediction by ZEFSAII (Michael W. Deem and Ramdas Pophale) SiO2 
 PCOD9015201
Probable space group: P -1
;
_chemical_formula_sum "Si O2"
_cell_formula_units_Z 14
_cell_length_a 17.689974
_cell_length_b 24.323354
_cell_length_c 9.338831
_cell_angle_alpha 149.354774
_cell_angle_beta 150.474365
_cell_angle_gamma 20.534113
_cell_volume 670.127529
_symmetry_space_group_name_H-M "P -1"
_symmetry_group_IT_number 2
_symmetry_cell_setting 'triclinic'
loop_
_space_group_symop_operation_xyz
x,y,z
-x,-y,-z
loop_
_atom_site_type_symbol
_atom_site_label
_atom_site_fract_x
_atom_site_fract_y
_atom_site_fract_z
Si Si1 0.266471 0.064149 0.730848
Si Si2 0.768063 0.329295 0.043383
Si Si3 0.224421 0.850053 0.124375
Si Si4 0.192634 0.181774 0.564047
Si Si5 0.582410 0.809241 0.278578
Si Si6 0.563725 0.582977 0.858861
Si Si7 0.983471 0.719283 0.926946
O O1 0.164945 0.175574 0.672707
O O2 0.336406 0.905641 0.459875
O O3 0.117689 0.153934 0.829397
O O4 0.500000 0.000000 0.000000
O O5 0.871110 0.286771 0.960124
O O6 0.935667 0.320375 0.388632
O O7 0.500000 0.500000 0.000000
O O8 0.815652 0.189658 0.882752
O O9 0.384116 0.692045 0.936498
O O10 0.000000 0.000000 0.000000
O O11 0.333899 0.205581 0.777973
O O12 0.346335 0.998867 0.349984
O O13 0.780926 0.758344 0.597671
O O14 0.544287 0.702240 0.999414
O O15 0.500000 0.500000 0.500000
O O16 0.821364 0.453054 0.057836
#
# Coordination Sequence:
#
# PCOD9015201 Si02
#       7
#     2   2   2   2   2   2   2
#     4  12  23  43  68 105 133 176 236 285 340 412
#     4  11  23  43  68 100 140 182 226 283 351 407
#     4  12  23  44  70  92 141 188 225 282 344 409
#     4  10  21  41  72  94 137 178 233 281 346 405
#     4  10  21  44  70  97 133 183 228 286 343 408
#     4  12  24  41  67 103 141 180 229 284 350 414
#     4  11  24  41  71 100 141 177 231 284 345 415
#
# _framework density 20.891545000000001
#
# number of rings (size 3 to 8) (size 9 to 14) (size 15 to 20)
#    0.000    0.857    5.714    1.286    0.000    0.571 
#    2.571    0.714    0.000    0.000    0.000    0.000 
#    0.000    0.000    0.000    0.000    0.000    0.000 
#
# Total GULP energy -78123.694175 kJ/mol
# GULP energy per Si atom -5580.263870 kJ/mol
# Density = 2.084400 g / cm^3
# Si number density = 20.891545 Si / 1000 Ang^3
#
#
#
# Elastic Constant Matrix: (Units=GPa)
#
#
# Indices 1 2 3 4 5 6 
#
# 1 170.5087 26.6235 46.6192 11.9638 0.0719 7.1345
# 2 26.6235 104.3361 23.3154 -7.9202 0.5960 -13.9430
# 3 46.6192 23.3154 90.3311 12.3708 8.0760 -6.4254
# 4 11.9638 -7.9202 12.3708 24.9524 -0.3457 9.2649
# 5 0.0719 0.5960 8.0760 -0.3457 38.2524 9.7553
# 6 7.1345 -13.9430 -6.4254 9.2649 9.7553 40.2604
#
#
#
# Elastic Compliance Matrix: (Units=1/GPa)
#
#
# Indices 1 2 3 4 5 6 
#
# 1 0.007235 -0.001500 -0.003451 -0.001337 0.001330 -0.002367
# 2 -0.001500 0.011247 -0.002516 0.004492 -0.000315 0.002802
# 3 -0.003451 -0.002516 0.015525 -0.008913 -0.004691 0.005406
# 4 -0.001337 0.004492 -0.008913 0.051391 0.005543 -0.012799
# 5 0.001330 -0.000315 -0.004691 0.005543 0.029620 -0.009546
# 6 -0.002367 0.002802 0.005406 -0.012799 -0.009546 0.032349
#
#
# Mechanical properties :
#
#
# Convention : Reuss Voigt Hill
#
# Bulk Modulus (GPa) = 52.43231 62.03246 57.23238
# Shear Modulus (GPa) = 29.64550 38.60091 34.12321
#
# Velocity S-wave (km/s) = 3.77107 4.30313 4.04586
# Velocity P-wave (km/s) = 6.64178 7.37877 7.01995
#
# Compressibility (1/GPa) = 0.01907221
#
# Stress axis : x y z
#
# Youngs Moduli (GPa) = 138.21994 88.91417 64.41063
#
# Poissons Ratio (x) = 0.13341 0.22226
# Poissons Ratio (y) = 0.20739 0.16207
# Poissons Ratio (z) = 0.47696 0.22373
#
# Static dielectric constant tensor:
#      x y z
#    x 1.780130 0.022500 0.000210 
#    y 0.022500 1.768980 -0.029530 
#    z 0.000210 -0.029530 1.732370 
# 
# From -- ./inp_files/244693.got.cif
#   From: 2010.05.17/outbox.cif.g08.bks.cpg/sg2_123_cif.got.tgz:244693.got - 2010.06.03 11:33:40.
