data_PCOD9015262
_publ_section_title
;
Structure prediction by ZEFSAII (Michael W. Deem and Ramdas Pophale) SiO2 
 PCOD9015262
Probable space group: P -1
;
_chemical_formula_sum "Si O2"
_cell_formula_units_Z 14
_cell_length_a 9.061541
_cell_length_b 8.695245
_cell_length_c 10.853022
_cell_angle_alpha 70.407380
_cell_angle_beta 111.836832
_cell_angle_gamma 68.114827
_cell_volume 615.024896
_symmetry_space_group_name_H-M "P -1"
_symmetry_group_IT_number 2
_symmetry_cell_setting 'triclinic'
loop_
_space_group_symop_operation_xyz
x,y,z
-x,-y,-z
loop_
_atom_site_type_symbol
_atom_site_label
_atom_site_fract_x
_atom_site_fract_y
_atom_site_fract_z
Si Si1 0.537022 0.441161 0.384663
Si Si2 0.188355 0.425333 0.661965
Si Si3 0.650006 0.264244 0.103377
Si Si4 0.676999 0.943290 0.340036
Si Si5 0.005935 0.255476 0.313058
Si Si6 0.649420 0.051369 0.638709
Si Si7 0.771110 0.162338 0.896256
O O1 0.500000 0.500000 0.500000
O O2 0.687231 0.487968 0.364899
O O3 0.622289 0.209561 0.484609
O O4 0.328247 0.599455 0.216059
O O5 0.304164 0.193691 0.731606
O O6 0.000000 0.500000 0.500000
O O7 0.111027 0.512647 0.750024
O O8 0.852748 0.213277 0.231661
O O9 0.584912 0.159939 0.201668
O O10 0.500000 0.500000 0.000000
O O11 0.692730 0.168153 0.006632
O O12 0.882429 0.853605 0.495495
O O13 0.547147 0.929100 0.404348
O O14 0.170712 0.164759 0.285974
O O15 0.692619 0.107408 0.769940
O O16 0.000000 0.000000 0.000000
#
# Coordination Sequence:
#
# PCOD9015262 Si02
#       7
#     2   2   2   2   2   2   2
#     4  10  21  41  74 100 136 180 238 284 345 411
#     4  10  22  40  69 108 134 174 232 295 343 401
#     4  12  28  47  71 103 146 188 228 292 354 426
#     4  11  25  47  73 102 137 185 240 290 350 410
#     4  11  25  45  72 106 138 180 240 289 349 409
#     4  11  24  46  73 105 136 189 234 296 343 417
#     4  11  23  45  70 101 140 188 231 277 359 422
#
# _framework density 22.763307999999999
#
# number of rings (size 3 to 8) (size 9 to 14) (size 15 to 20)
#    0.000    1.143    4.286    1.714    8.000    0.571 
#    0.000    0.714    0.000    0.000    0.000    0.000 
#    0.000    0.000    0.000    0.000    0.000    0.000 
#
# Total GULP energy -78120.072242 kJ/mol
# GULP energy per Si atom -5580.005160 kJ/mol
# Density = 2.271150 g / cm^3
# Si number density = 22.763308 Si / 1000 Ang^3
#
#
#
# Elastic Constant Matrix: (Units=GPa)
#
#
# Indices 1 2 3 4 5 6 
#
# 1 86.0858 44.5332 51.6112 -17.4037 17.7410 -5.4133
# 2 44.5332 132.4470 35.6563 8.8858 -7.6514 -24.7664
# 3 51.6112 35.6563 94.6558 -2.4785 3.1181 7.8133
# 4 -17.4037 8.8858 -2.4785 38.9883 -7.1954 -3.1589
# 5 17.7410 -7.6514 3.1181 -7.1954 30.3353 3.6630
# 6 -5.4133 -24.7664 7.8133 -3.1589 3.6630 40.9279
#
#
#
# Elastic Compliance Matrix: (Units=1/GPa)
#
#
# Indices 1 2 3 4 5 6 
#
# 1 0.028086 -0.006994 -0.012234 0.010942 -0.014818 0.003989
# 2 -0.006994 0.012000 -0.001482 -0.004466 0.005512 0.005781
# 3 -0.012234 -0.001482 0.018090 -0.003616 0.004871 -0.006684
# 4 0.010942 -0.004466 -0.003616 0.031488 0.000091 0.001857
# 5 -0.014818 0.005512 0.004871 0.000091 0.042952 -0.003391
# 6 0.003989 0.005781 -0.006684 0.001857 -0.003391 0.030182
#
#
# Mechanical properties :
#
#
# Convention : Reuss Voigt Hill
#
# Bulk Modulus (GPa) = 59.68348 64.08777 61.88563
# Shear Modulus (GPa) = 23.83181 34.14285 28.98733
#
# Velocity S-wave (km/s) = 3.23915 3.87706 3.57238
# Velocity P-wave (km/s) = 6.34552 6.94675 6.65293
#
# Compressibility (1/GPa) = 0.01675505
#
# Stress axis : x y z
#
# Youngs Moduli (GPa) = 35.60530 83.33270 55.27893
#
# Poissons Ratio (x) = 0.58285 0.67627
# Poissons Ratio (y) = 0.24903 0.08195
# Poissons Ratio (z) = 0.43559 0.12354
#
# Static dielectric constant tensor:
#      x y z
#    x 1.830150 0.019520 0.019970 
#    y 0.019520 1.956010 -0.007270 
#    z 0.019970 -0.007270 1.887070 
# 
# From -- ./inp_files/381743.got.cif
#   From: 2010.05.17/outbox.cif.g08.bks.cpg/sg2_191_cif.got.tgz:381743.got - 2010.06.03 11:33:40.
