data_PCOD9015462
_publ_section_title
;
Structure prediction by ZEFSAII (Michael W. Deem and Ramdas Pophale) SiO2 
 PCOD9015462
Probable space group: P -1
;
_chemical_formula_sum "Si O2"
_cell_formula_units_Z 16
_cell_length_a 11.646065
_cell_length_b 7.802269
_cell_length_c 12.205422
_cell_angle_alpha 127.170585
_cell_angle_beta 77.872319
_cell_angle_gamma 68.018081
_cell_volume 661.426418
_symmetry_space_group_name_H-M "P -1"
_symmetry_group_IT_number 2
_symmetry_cell_setting 'triclinic'
loop_
_space_group_symop_operation_xyz
x,y,z
-x,-y,-z
loop_
_atom_site_type_symbol
_atom_site_label
_atom_site_fract_x
_atom_site_fract_y
_atom_site_fract_z
Si Si1 0.880635 0.674079 0.688386
Si Si2 0.377815 0.681335 0.996601
Si Si3 0.240905 0.476584 0.057762
Si Si4 0.577003 0.606864 0.330742
Si Si5 0.111556 0.114290 0.729091
Si Si6 0.176430 0.736067 0.388136
Si Si7 0.388050 0.051885 0.705532
Si Si8 0.083626 0.789834 0.802345
O O1 0.826419 0.497963 0.654240
O O2 0.000000 0.500000 0.500000
O O3 0.985407 0.693090 0.756429
O O4 0.724649 0.991996 0.829496
O O5 0.256475 0.626669 0.013619
O O6 0.500000 0.500000 0.000000
O O7 0.428572 0.596964 0.826110
O O8 0.268950 0.590326 0.202633
O O9 0.063989 0.614637 0.158760
O O10 0.368597 0.148324 0.873542
O O11 0.540956 0.835937 0.336112
O O12 0.745988 0.455388 0.284049
O O13 0.477946 0.746345 0.515981
O O14 0.209881 0.203897 0.777780
O O15 0.207472 0.891780 0.524613
O O16 0.098774 0.940660 0.756015
O O17 0.000000 0.000000 0.500000
O O18 0.000000 0.000000 0.000000
#
# Coordination Sequence:
#
# PCOD9015462 Si02
#       8
#     2   2   2   2   2   2   2   2
#     4  12  23  43  68 105 134 180 229 280 343 399
#     4  11  24  45  71  97 143 181 226 283 343 420
#     4  10  21  42  63 101 129 173 232 272 338 404
#     4  10  24  44  64 102 130 181 228 271 355 408
#     4  11  22  41  63  99 134 174 223 286 336 399
#     4  10  23  40  62 100 138 169 227 282 339 399
#     4  10  23  40  66  94 134 173 226 274 341 411
#     4  12  23  41  70  95 136 172 228 286 330 411
#
# _framework density 24.190141000000001
#
# number of rings (size 3 to 8) (size 9 to 14) (size 15 to 20)
#    0.000    1.250    3.750    1.875    7.000    3.500 
#    0.000    0.625    0.000    0.000    0.000    0.000 
#    0.000    0.000    0.000    0.000    0.000    0.000 
#
# Total GULP energy -89164.359632 kJ/mol
# GULP energy per Si atom -5572.772477 kJ/mol
# Density = 2.413508 g / cm^3
# Si number density = 24.190141 Si / 1000 Ang^3
#
#
#
# Elastic Constant Matrix: (Units=GPa)
#
#
# Indices 1 2 3 4 5 6 
#
# 1 61.4778 -7.5180 10.9520 12.4877 5.2510 -17.0630
# 2 -7.5180 42.9593 22.3500 16.3243 -0.3204 -7.5308
# 3 10.9520 22.3500 255.0740 -8.8514 5.1630 -11.4542
# 4 12.4877 16.3243 -8.8514 37.3934 -0.4564 -3.7483
# 5 5.2510 -0.3204 5.1630 -0.4564 38.1098 -2.8683
# 6 -17.0630 -7.5308 -11.4542 -3.7483 -2.8683 39.0512
#
#
#
# Elastic Compliance Matrix: (Units=1/GPa)
#
#
# Indices 1 2 3 4 5 6 
#
# 1 0.023763 0.011790 -0.001960 -0.012500 -0.002253 0.010716
# 2 0.011790 0.036589 -0.003989 -0.019947 -0.000331 0.009099
# 3 -0.001960 -0.003989 0.004480 0.003452 -0.000329 -0.000005
# 4 -0.012500 -0.019947 0.003452 0.040020 0.001238 -0.004364
# 5 -0.002253 -0.000331 -0.000329 0.001238 0.026677 0.000934
# 6 0.010716 0.009099 -0.000005 -0.004364 0.000934 0.031693
#
#
# Mechanical properties :
#
#
# Convention : Reuss Voigt Hill
#
# Bulk Modulus (GPa) = 13.06959 45.67546 29.37252
# Shear Modulus (GPa) = 28.24142 45.15934 36.70038
#
# Velocity S-wave (km/s) = 3.42054 4.32539 3.89930
# Velocity P-wave (km/s) = 4.58418 6.62331 5.69574
#
# Compressibility (1/GPa) = 0.07651350
#
# Stress axis : x y z
#
# Youngs Moduli (GPa) = 42.08253 27.33082 223.19468
#
# Poissons Ratio (x) = -0.32224 0.43753
# Poissons Ratio (y) = -0.49616 0.89035
# Poissons Ratio (z) = 0.08250 0.10903
#
# Static dielectric constant tensor:
#      x y z
#    x 1.569290 -0.127330 0.284100 
#    y -0.127330 1.973410 0.106860 
#    z 0.284100 0.106860 1.759780 
# 
# From -- ./inp_files/420027.got.cif
#   From: 2010.05.17/outbox.cif.g08.bks.cpg/sg2_211_cif.got.tgz:420027.got - 2010.06.03 11:33:40.
