data_PCOD9015202
_publ_section_title
;
Structure prediction by ZEFSAII (Michael W. Deem and Ramdas Pophale) SiO2 
 PCOD9015202
Probable space group: P -1
;
_chemical_formula_sum "Si O2"
_cell_formula_units_Z 16
_cell_length_a 12.326953
_cell_length_b 9.208151
_cell_length_c 18.598111
_cell_angle_alpha 30.023436
_cell_angle_beta 137.054107
_cell_angle_gamma 127.650399
_cell_volume 718.013114
_symmetry_space_group_name_H-M "P -1"
_symmetry_group_IT_number 2
_symmetry_cell_setting 'triclinic'
loop_
_space_group_symop_operation_xyz
x,y,z
-x,-y,-z
loop_
_atom_site_type_symbol
_atom_site_label
_atom_site_fract_x
_atom_site_fract_y
_atom_site_fract_z
Si Si1 0.522650 0.296372 0.527479
Si Si2 0.059147 0.219881 0.603940
Si Si3 0.879361 0.959266 0.025418
Si Si4 0.789778 0.976523 0.477540
Si Si5 0.147956 0.549942 0.373103
Si Si6 0.688363 0.455064 0.104148
Si Si7 0.340274 0.818274 0.940623
Si Si8 0.397333 0.726705 0.161049
O O1 0.500000 0.500000 0.500000
O O2 0.711633 0.230210 0.650839
O O3 0.485374 0.490925 0.355973
O O4 0.391127 0.062132 0.567427
O O5 0.913066 0.064258 0.561326
O O6 0.000000 0.500000 0.500000
O O7 0.163081 0.327717 0.541425
O O8 0.186831 0.031970 0.794237
O O9 0.747235 0.769198 0.009768
O O10 0.984978 0.742113 0.220541
O O11 0.775414 0.202370 0.915206
O O12 0.000000 0.000000 0.000000
O O13 0.769553 0.224102 0.299633
O O14 0.846573 0.664097 0.602212
O O15 0.721559 0.349961 0.085071
O O16 0.500000 0.500000 0.000000
O O17 0.492726 0.994933 0.913805
O O18 0.382434 0.632543 0.111458
#
# Coordination Sequence:
#
# PCOD9015202 Si02
#       8
#     2   2   2   2   2   2   2   2
#     4  10  21  41  72  95 128 179 220 274 335 397
#     4  12  23  40  65  98 130 175 220 277 339 394
#     4  12  25  40  65 103 138 172 228 284 333 401
#     4  11  23  42  69  96 131 171 234 277 325 406
#     4  11  21  41  66  93 132 170 224 273 325 392
#     4  12  24  41  69 101 130 178 234 275 334 403
#     4  11  23  42  70  95 141 177 224 278 337 412
#     4  11  23  43  66 102 139 181 219 273 351 399
#
# _framework density 22.283715999999998
#
# number of rings (size 3 to 8) (size 9 to 14) (size 15 to 20)
#    0.000    0.750    5.000    4.125    1.750    0.000 
#    0.000    4.375    0.000    0.000    0.000    0.000 
#    0.000    0.000    0.000    0.000    0.000    0.000 
#
# Total GULP energy -89330.620911 kJ/mol
# GULP energy per Si atom -5583.163807 kJ/mol
# Density = 2.223300 g / cm^3
# Si number density = 22.283716 Si / 1000 Ang^3
#
#
#
# Elastic Constant Matrix: (Units=GPa)
#
#
# Indices 1 2 3 4 5 6 
#
# 1 90.7952 49.2908 6.3315 4.3583 -1.1418 13.5306
# 2 49.2908 76.5767 9.7099 18.0664 -2.0327 16.3741
# 3 6.3315 9.7099 53.2722 21.1419 -2.6082 -12.3807
# 4 4.3583 18.0664 21.1419 25.7231 -4.4469 2.7689
# 5 -1.1418 -2.0327 -2.6082 -4.4469 51.2684 7.3632
# 6 13.5306 16.3741 -12.3807 2.7689 7.3632 42.3371
#
#
#
# Elastic Compliance Matrix: (Units=1/GPa)
#
#
# Indices 1 2 3 4 5 6 
#
# 1 0.018342 -0.012974 -0.004517 0.010210 0.000981 -0.003004
# 2 -0.012974 0.026160 0.003187 -0.018408 -0.000139 -0.003811
# 3 -0.004517 0.003187 0.033906 -0.031180 -0.002770 0.012647
# 4 0.010210 -0.018408 -0.031180 0.078029 0.006326 -0.011465
# 5 0.000981 -0.000139 -0.002770 0.006326 0.020658 -0.005077
# 6 -0.003004 -0.003811 0.012647 -0.011465 -0.005077 0.031385
#
#
# Mechanical properties :
#
#
# Convention : Reuss Voigt Hill
#
# Bulk Modulus (GPa) = 20.08094 39.03426 29.55760
# Shear Modulus (GPa) = 19.70918 34.21985 26.96452
#
# Velocity S-wave (km/s) = 2.97722 3.92298 3.48236
# Velocity P-wave (km/s) = 4.56613 6.17047 5.42790
#
# Compressibility (1/GPa) = 0.04979845
#
# Stress axis : x y z
#
# Youngs Moduli (GPa) = 54.51958 38.22625 29.49369
#
# Poissons Ratio (x) = 0.49595 0.13323
# Poissons Ratio (y) = 0.70735 -0.09399
# Poissons Ratio (z) = 0.24628 -0.12182
#
# Static dielectric constant tensor:
#      x y z
#    x 1.884240 -0.010620 0.039020 
#    y -0.010620 1.835750 0.001930 
#    z 0.039020 0.001930 1.733830 
# 
# From -- ./inp_files/263513.got.cif
#   From: 2010.05.17/outbox.cif.g08.bks.cpg/sg2_132_cif.got.tgz:263513.got - 2010.06.03 11:33:40.
