data_PCOD9015782
_publ_section_title
;
Structure prediction by ZEFSAII (Michael W. Deem and Ramdas Pophale) SiO2 
 PCOD9015782
Probable space group: P -1
;
_chemical_formula_sum "Si O2"
_cell_formula_units_Z 14
_cell_length_a 11.538088
_cell_length_b 7.677033
_cell_length_c 16.879927
_cell_angle_alpha 42.409765
_cell_angle_beta 144.849309
_cell_angle_gamma 125.724243
_cell_volume 579.809697
_symmetry_space_group_name_H-M "P -1"
_symmetry_group_IT_number 2
_symmetry_cell_setting 'triclinic'
loop_
_space_group_symop_operation_xyz
x,y,z
-x,-y,-z
loop_
_atom_site_type_symbol
_atom_site_label
_atom_site_fract_x
_atom_site_fract_y
_atom_site_fract_z
Si Si1 0.146084 0.119171 0.364498
Si Si2 0.479454 0.720014 0.040929
Si Si3 0.898127 0.390352 0.401985
Si Si4 0.147775 0.702707 0.978820
Si Si5 0.032835 0.602901 0.244666
Si Si6 0.444445 0.799344 0.390013
Si Si7 0.378098 0.063474 0.101602
O O1 0.384985 0.114243 0.483276
O O2 0.998492 0.084571 0.219631
O O3 0.086170 0.399716 0.273241
O O4 0.111401 0.909699 0.482659
O O5 0.679687 0.538319 0.222286
O O6 0.301137 0.600092 0.030518
O O7 0.463410 0.797798 0.913192
O O8 0.500000 0.000000 0.000000
O O9 0.020129 0.451440 0.371021
O O10 0.000000 0.500000 0.500000
O O11 0.000000 0.500000 0.000000
O O12 0.285369 0.825952 0.081193
O O13 0.211421 0.801769 0.282739
O O14 0.817910 0.746090 0.061234
O O15 0.500000 0.500000 0.500000
O O16 0.462628 0.963410 0.265044
#
# Coordination Sequence:
#
# PCOD9015782 Si02
#       7
#     2   2   2   2   2   2   2
#     4  11  24  40  62  95 126 160 208 263 312 362
#     4   9  21  39  61  85 117 162 203 244 302 369
#     4  11  23  41  64  94 127 163 208 260 314 368
#     4  11  23  41  63  92 125 165 210 255 306 372
#     4  10  22  40  63  90 126 168 208 254 310 374
#     4  10  22  39  61  93 127 163 204 258 312 360
#     4  10  21  42  65  87 123 171 210 248 309 379
#
# _framework density 24.145852999999999
#
# number of rings (size 3 to 8) (size 9 to 14) (size 15 to 20)
#    0.000    1.714    0.000    5.143    0.000   11.429 
#    0.000    5.000    0.000    0.000    0.000    0.000 
#    0.000    0.000    0.000    0.000    0.000    0.000 
#
# Total GULP energy -78359.976056 kJ/mol
# GULP energy per Si atom -5597.141147 kJ/mol
# Density = 2.409090 g / cm^3
# Si number density = 24.145853 Si / 1000 Ang^3
#
#
#
# Elastic Constant Matrix: (Units=GPa)
#
#
# Indices 1 2 3 4 5 6 
#
# 1 122.7575 29.2451 30.6232 -1.0367 8.0796 29.5683
# 2 29.2451 40.5776 -3.4553 12.7782 1.0645 15.8494
# 3 30.6232 -3.4553 85.7827 0.1581 -17.8295 8.2737
# 4 -1.0367 12.7782 0.1581 39.6336 6.6585 -4.9860
# 5 8.0796 1.0645 -17.8295 6.6585 21.9352 -6.7740
# 6 29.5683 15.8494 8.2737 -4.9860 -6.7740 38.1488
#
#
#
# Elastic Compliance Matrix: (Units=1/GPa)
#
#
# Indices 1 2 3 4 5 6 
#
# 1 0.015990 -0.010255 -0.008816 0.005524 -0.016858 -0.008492
# 2 -0.010255 0.042696 0.008725 -0.017326 0.010316 -0.012115
# 3 -0.008816 0.008725 0.019371 -0.006427 0.021112 0.001916
# 4 0.005524 -0.017326 -0.006427 0.034267 -0.014924 0.006139
# 5 -0.016858 0.010316 0.021112 -0.014924 0.077958 0.016094
# 6 -0.008492 -0.012115 0.001916 0.006139 0.016094 0.041073
#
#
# Mechanical properties :
#
#
# Convention : Reuss Voigt Hill
#
# Bulk Modulus (GPa) = 17.43244 40.21598 28.82421
# Shear Modulus (GPa) = 18.43862 32.79050 25.61456
#
# Velocity S-wave (km/s) = 2.76639 3.68913 3.26057
# Velocity P-wave (km/s) = 4.17603 5.90236 5.11258
#
# Compressibility (1/GPa) = 0.05736432
#
# Stress axis : x y z
#
# Youngs Moduli (GPa) = 62.53740 23.42152 51.62312
#
# Poissons Ratio (x) = 0.24020 0.45513
# Poissons Ratio (y) = 0.64135 -0.45043
# Poissons Ratio (z) = 0.55135 -0.20436
#
# Static dielectric constant tensor:
#      x y z
#    x 1.912650 0.008950 0.015590 
#    y 0.008950 1.997700 0.030590 
#    z 0.015590 0.030590 1.900450 
# 
# From -- ./inp_files/159784.got.cif
#   From: 2010.05.17/outbox.cif.g08.bks.cpg/sg2_80_cif.got.tgz:159784.got - 2010.06.03 11:33:40.
