data_PCOD9015688
_publ_section_title
;
Structure prediction by ZEFSAII (Michael W. Deem and Ramdas Pophale) SiO2 
 PCOD9015688
Probable space group: P -1
;
_chemical_formula_sum "Si O2"
_cell_formula_units_Z 16
_cell_length_a 5.798364
_cell_length_b 15.797003
_cell_length_c 14.940117
_cell_angle_alpha 48.424711
_cell_angle_beta 109.337862
_cell_angle_gamma 76.901381
_cell_volume 748.311328
_symmetry_space_group_name_H-M "P -1"
_symmetry_group_IT_number 2
_symmetry_cell_setting 'triclinic'
loop_
_space_group_symop_operation_xyz
x,y,z
-x,-y,-z
loop_
_atom_site_type_symbol
_atom_site_label
_atom_site_fract_x
_atom_site_fract_y
_atom_site_fract_z
Si Si1 0.808954 0.423014 0.929668
Si Si2 0.098051 0.855667 0.819942
Si Si3 0.356812 0.924650 0.126158
Si Si4 0.719028 0.436725 0.713252
Si Si5 0.348938 0.381660 0.586870
Si Si6 0.586741 0.842062 0.013140
Si Si7 0.572823 0.659305 0.859655
Si Si8 0.690610 0.065166 0.479243
O O1 0.627163 0.485464 0.768833
O O2 0.576340 0.537461 0.896294
O O3 0.959277 0.253089 0.072313
O O4 0.107478 0.416910 0.988965
O O5 0.301196 0.761379 0.824689
O O6 0.302491 0.864328 0.911548
O O7 0.829003 0.015768 0.632503
O O8 0.536554 0.777064 0.308279
O O9 0.540062 0.868019 0.094974
O O10 0.372322 0.040605 0.094481
O O11 0.000000 0.000000 0.000000
O O12 0.582861 0.360601 0.708523
O O13 0.618547 0.556576 0.542600
O O14 0.095830 0.319863 0.847212
O O15 0.000000 0.500000 0.500000
O O16 0.538637 0.767248 0.702449
O O17 0.500000 0.000000 0.500000
O O18 0.000000 0.000000 0.500000
#
# Coordination Sequence:
#
# PCOD9015688 Si02
#       8
#     2   2   2   2   2   2   2   2
#     4  11  22  39  66  92 128 168 220 272 326 399
#     4  11  22  40  67  89 131 173 221 271 338 405
#     4  11  23  43  66  92 131 168 217 272 331 401
#     4  11  23  40  64  96 129 167 221 263 338 404
#     4  11  23  43  67  91 131 174 207 274 338 397
#     4  11  23  39  65  98 124 169 225 266 327 413
#     4  10  22  41  63  94 127 169 224 273 329 395
#     4  10  21  42  64  94 132 177 221 282 343 403
#
# _framework density 21.381475999999999
#
# number of rings (size 3 to 8) (size 9 to 14) (size 15 to 20)
#    0.000    1.250    5.000    1.125    0.000    0.000 
#    4.500    0.000    0.000    0.000    0.000    0.000 
#    0.000    0.000    0.000    0.000    0.000    0.000 
#
# Total GULP energy -89201.569284 kJ/mol
# GULP energy per Si atom -5575.098080 kJ/mol
# Density = 2.133281 g / cm^3
# Si number density = 21.381476 Si / 1000 Ang^3
#
#
#
# Elastic Constant Matrix: (Units=GPa)
#
#
# Indices 1 2 3 4 5 6 
#
# 1 38.1767 1.7203 -2.4213 2.2345 -7.5464 10.0407
# 2 1.7203 85.0760 24.1274 12.9131 -16.1638 13.1702
# 3 -2.4213 24.1274 89.8001 7.0257 -11.0182 13.4734
# 4 2.2345 12.9131 7.0257 40.6718 5.7116 1.8002
# 5 -7.5464 -16.1638 -11.0182 5.7116 30.3966 1.2217
# 6 10.0407 13.1702 13.4734 1.8002 1.2217 33.1403
#
#
#
# Elastic Compliance Matrix: (Units=1/GPa)
#
#
# Indices 1 2 3 4 5 6 
#
# 1 0.032469 0.003383 0.003832 -0.004724 0.012657 -0.012950
# 2 0.003383 0.016049 -0.001447 -0.006172 0.010285 -0.006859
# 3 0.003832 -0.001447 0.013465 -0.002620 0.005802 -0.006132
# 4 -0.004724 -0.006172 -0.002620 0.028627 -0.010936 0.003798
# 5 0.012657 0.010285 0.005802 -0.010936 0.046126 -0.011387
# 6 -0.012950 -0.006859 -0.006132 0.003798 -0.011387 0.039530
#
#
# Mechanical properties :
#
#
# Convention : Reuss Voigt Hill
#
# Bulk Modulus (GPa) = 13.60189 28.87839 21.24014
# Shear Modulus (GPa) = 26.42224 33.48349 29.95286
#
# Velocity S-wave (km/s) = 3.51914 3.96157 3.74689
# Velocity P-wave (km/s) = 4.78412 5.87035 5.35485
#
# Compressibility (1/GPa) = 0.07351917
#
# Stress axis : x y z
#
# Youngs Moduli (GPa) = 30.79870 62.31013 74.26793
#
# Poissons Ratio (x) = -0.21081 -0.28460
# Poissons Ratio (y) = -0.10420 0.10746
# Poissons Ratio (z) = -0.11802 0.09015
#
# Static dielectric constant tensor:
#      x y z
#    x 1.884290 -0.073650 -0.047350 
#    y -0.073650 2.399660 -0.184150 
#    z -0.047350 -0.184150 1.882920 
# 
# From -- ./inp_files/112160.got.cif
#   From: 2010.05.17/outbox.cif.g08.bks.cpg/sg2_57_cif.got.tgz:112160.got - 2010.06.03 11:33:40.
