data_PCOD9015594
_publ_section_title
;
Structure prediction by ZEFSAII (Michael W. Deem and Ramdas Pophale) SiO2 
 PCOD9015594
Probable space group: P -1
;
_chemical_formula_sum "Si O2"
_cell_formula_units_Z 16
_cell_length_a 4.865261
_cell_length_b 12.567875
_cell_length_c 12.739835
_cell_angle_alpha 79.455476
_cell_angle_beta 118.484746
_cell_angle_gamma 96.144715
_cell_volume 672.950132
_symmetry_space_group_name_H-M "P -1"
_symmetry_group_IT_number 2
_symmetry_cell_setting 'triclinic'
loop_
_space_group_symop_operation_xyz
x,y,z
-x,-y,-z
loop_
_atom_site_type_symbol
_atom_site_label
_atom_site_fract_x
_atom_site_fract_y
_atom_site_fract_z
Si Si1 0.941947 0.975373 0.658501
Si Si2 0.487310 0.807116 0.854717
Si Si3 0.840037 0.347929 0.329371
Si Si4 0.242173 0.728471 0.261268
Si Si5 0.009973 0.022554 0.121835
Si Si6 0.581572 0.512525 0.635728
Si Si7 0.413335 0.179530 0.884879
Si Si8 0.779746 0.836550 0.469854
O O1 0.217161 0.893967 0.761278
O O2 0.727618 0.903011 0.555799
O O3 0.084305 0.076322 0.603552
O O4 0.786598 0.012999 0.732025
O O5 0.399467 0.702006 0.790148
O O6 0.825703 0.857271 0.876352
O O7 0.488662 0.793600 0.983183
O O8 0.704269 0.442704 0.358242
O O9 0.145977 0.396916 0.320150
O O10 0.955337 0.250353 0.440888
O O11 0.305172 0.602371 0.281701
O O12 0.325866 0.795351 0.158544
O O13 0.480646 0.771055 0.385397
O O14 0.883007 0.750679 0.215223
O O15 0.707190 0.945509 0.113656
O O16 0.000000 0.000000 0.000000
O O17 0.500000 0.500000 0.500000
#
# Coordination Sequence:
#
# PCOD9015594 Si02
#       8
#     2   2   2   2   2   2   2   2
#     4  10  21  42  64 101 141 177 225 274 339 415
#     4  10  25  43  68  97 141 186 228 272 343 407
#     4  11  26  46  71 103 134 181 225 289 348 410
#     4  12  25  45  68 103 134 178 232 288 346 402
#     4  10  22  37  65  97 135 185 226 273 322 415
#     4  12  26  45  73 101 136 172 234 286 351 411
#     4  11  26  43  70 100 140 184 229 279 334 412
#     4  10  22  41  68 101 141 178 218 283 347 410
#
# _framework density 23.775905999999999
#
# number of rings (size 3 to 8) (size 9 to 14) (size 15 to 20)
#    0.000    1.250    2.500    1.875    8.750    1.000 
#    4.500    6.250    0.000    0.000    0.000    0.000 
#    0.000    0.000    0.000    0.000    0.000    0.000 
#
# Total GULP energy -89427.348004 kJ/mol
# GULP energy per Si atom -5589.209250 kJ/mol
# Density = 2.372179 g / cm^3
# Si number density = 23.775906 Si / 1000 Ang^3
#
#
#
# Elastic Constant Matrix: (Units=GPa)
#
#
# Indices 1 2 3 4 5 6 
#
# 1 54.7324 -0.2497 6.1799 -8.1462 0.8160 -2.6325
# 2 -0.2497 89.6085 40.1904 4.5136 8.7333 0.9267
# 3 6.1799 40.1904 151.5129 22.3607 -5.3039 3.4600
# 4 -8.1462 4.5136 22.3607 38.9294 1.0457 1.8672
# 5 0.8160 8.7333 -5.3039 1.0457 36.7427 -7.2858
# 6 -2.6325 0.9267 3.4600 1.8672 -7.2858 40.0838
#
#
#
# Elastic Compliance Matrix: (Units=1/GPa)
#
#
# Indices 1 2 3 4 5 6 
#
# 1 0.019263 0.000648 -0.001735 0.004923 -0.000768 0.001031
# 2 0.000648 0.013194 -0.003781 0.000914 -0.003857 -0.000680
# 3 -0.001735 -0.003781 0.008471 -0.004846 0.002274 -0.000119
# 4 0.004923 0.000914 -0.004846 0.029500 -0.002070 -0.001030
# 5 -0.000768 -0.003857 0.002274 -0.002070 0.029592 0.005318
# 6 0.001031 -0.000680 -0.000119 -0.001030 0.005318 0.026056
#
#
# Mechanical properties :
#
#
# Convention : Reuss Voigt Hill
#
# Bulk Modulus (GPa) = 32.05760 43.12166 37.58963
# Shear Modulus (GPa) = 34.19761 39.80006 36.99884
#
# Velocity S-wave (km/s) = 3.79665 4.09585 3.94908
# Velocity P-wave (km/s) = 5.72118 6.36742 6.05293
#
# Compressibility (1/GPa) = 0.03119385
#
# Stress axis : x y z
#
# Youngs Moduli (GPa) = 51.91205 75.79195 118.04745
#
# Poissons Ratio (x) = -0.04910 0.20476
# Poissons Ratio (y) = -0.03363 0.44629
# Poissons Ratio (z) = 0.09005 0.28654
#
# Static dielectric constant tensor:
#      x y z
#    x 2.059170 -0.147940 -0.020160 
#    y -0.147940 1.947820 0.029420 
#    z -0.020160 0.029420 1.946970 
# 
# From -- ./inp_files/364390.got.cif
#   From: 2010.05.17/outbox.cif.g08.bks.cpg/sg2_183_cif.got.tgz:364390.got - 2010.06.03 11:33:40.
