data_PCOD9015606
_publ_section_title
;
Structure prediction by ZEFSAII (Michael W. Deem and Ramdas Pophale) SiO2 
 PCOD9015606
Probable space group: P -1
;
_chemical_formula_sum "Si O2"
_cell_formula_units_Z 12
_cell_length_a 7.350416
_cell_length_b 13.165884
_cell_length_c 14.355567
_cell_angle_alpha 29.925601
_cell_angle_beta 51.727353
_cell_angle_gamma 47.408063
_cell_volume 508.182509
_symmetry_space_group_name_H-M "P -1"
_symmetry_group_IT_number 2
_symmetry_cell_setting 'triclinic'
loop_
_space_group_symop_operation_xyz
x,y,z
-x,-y,-z
loop_
_atom_site_type_symbol
_atom_site_label
_atom_site_fract_x
_atom_site_fract_y
_atom_site_fract_z
Si Si1 0.710613 0.228703 0.595658
Si Si2 0.724601 0.551079 0.080578
Si Si3 0.185069 0.916030 0.619315
Si Si4 0.536032 0.119500 0.251445
Si Si5 0.479771 0.707587 0.211051
Si Si6 0.016960 0.272006 0.634645
O O1 0.550709 0.450655 0.419695
O O2 0.541144 0.180585 0.769580
O O3 0.914458 0.288982 0.546899
O O4 0.887814 0.032858 0.632536
O O5 0.717173 0.310751 0.286025
O O6 0.666374 0.690663 0.082569
O O7 0.545672 0.683199 0.950818
O O8 0.000000 0.500000 0.000000
O O9 0.297362 0.855219 0.735701
O O10 0.303698 0.078532 0.405730
O O11 0.709680 0.904663 0.312279
O O12 0.196818 0.795015 0.194185
O O13 0.000000 0.500000 0.500000
#
# Coordination Sequence:
#
# PCOD9015606 Si02
#       6
#     2   2   2   2   2   2
#     4   8  18  37  61  80 118 157 191 236 296 351
#     4  12  25  38  60  92 121 155 203 245 293 349
#     4  10  21  42  64  86 119 160 195 245 297 351
#     4  10  22  39  64  89 119 156 199 243 299 353
#     4   9  19  37  56  83 121 151 193 242 285 355
#     4   9  17  33  60  89 110 151 195 239 293 343
#
# _framework density 23.613564
#
# number of rings (size 3 to 8) (size 9 to 14) (size 15 to 20)
#    1.000    1.333    0.000    2.500    0.000    4.667 
#    0.000    2.500    0.000    0.000    0.000    0.000 
#    0.000    0.000    0.000    0.000    0.000    0.000 
#
# Total GULP energy -66932.635083 kJ/mol
# GULP energy per Si atom -5577.719590 kJ/mol
# Density = 2.355982 g / cm^3
# Si number density = 23.613564 Si / 1000 Ang^3
#
#
#
# Elastic Constant Matrix: (Units=GPa)
#
#
# Indices 1 2 3 4 5 6 
#
# 1 35.6856 15.2927 5.8583 -2.5031 16.9041 2.9962
# 2 15.2927 187.2055 37.1160 0.5718 11.3156 -11.0262
# 3 5.8583 37.1160 55.7544 0.3434 18.6625 1.3380
# 4 -2.5031 0.5718 0.3434 40.6979 1.7301 -9.1974
# 5 16.9041 11.3156 18.6625 1.7301 28.6240 -1.3753
# 6 2.9962 -11.0262 1.3380 -9.1974 -1.3753 39.0642
#
#
#
# Elastic Compliance Matrix: (Units=1/GPa)
#
#
# Indices 1 2 3 4 5 6 
#
# 1 0.042778 -0.003568 0.007804 0.002746 -0.029344 -0.004942
# 2 -0.003568 0.006603 -0.005051 0.000161 0.002897 0.002450
# 3 0.007804 -0.005051 0.027505 0.000386 -0.020742 -0.003606
# 4 0.002746 0.000161 0.000386 0.026200 -0.003238 0.005876
# 5 -0.029344 0.002897 -0.020742 -0.003238 0.065094 0.005308
# 6 -0.004942 0.002450 -0.003606 0.005876 0.005308 0.028363
#
#
# Mechanical properties :
#
#
# Convention : Reuss Voigt Hill
#
# Bulk Modulus (GPa) = 13.28763 43.90885 28.59824
# Shear Modulus (GPa) = 22.39566 36.36913 29.38239
#
# Velocity S-wave (km/s) = 3.08299 3.92877 3.53129
# Velocity P-wave (km/s) = 4.27930 6.26222 5.36320
#
# Compressibility (1/GPa) = 0.07525794
#
# Stress axis : x y z
#
# Youngs Moduli (GPa) = 23.37652 151.44193 36.35719
#
# Poissons Ratio (x) = 0.54027 -0.28373
# Poissons Ratio (y) = 0.08340 0.18362
# Poissons Ratio (z) = -0.18243 0.76486
#
# Static dielectric constant tensor:
#      x y z
#    x 1.923290 0.028030 -0.044520 
#    y 0.028030 1.953630 0.027640 
#    z -0.044520 0.027640 1.932750 
# 
# From -- ./inp_files/303862.got.cif
#   From: 2010.05.17/outbox.cif.g08.bks.cpg/sg2_152_cif.got.tgz:303862.got - 2010.06.03 11:33:40.
