data_PCOD9015986
_publ_section_title
;
Structure prediction by ZEFSAII (Michael W. Deem and Ramdas Pophale) SiO2 
 PCOD9015986
Probable space group: P -1
;
_chemical_formula_sum "Si O2"
_cell_formula_units_Z 9
_cell_length_a 5.085993
_cell_length_b 5.038791
_cell_length_c 13.388237
_cell_angle_alpha 96.945732
_cell_angle_beta 62.534151
_cell_angle_gamma 92.513990
_cell_volume 302.169325
_symmetry_space_group_name_H-M "P -1"
_symmetry_group_IT_number 2
_symmetry_cell_setting 'triclinic'
loop_
_space_group_symop_operation_xyz
x,y,z
-x,-y,-z
loop_
_atom_site_type_symbol
_atom_site_label
_atom_site_fract_x
_atom_site_fract_y
_atom_site_fract_z
Si Si1 0.104280 0.494667 0.101233
Si Si2 0.912401 0.801834 0.725739
Si Si3 0.583659 0.841909 0.239241
Si Si4 0.670481 0.261833 0.515320
Si Si5 0.500000 0.000000 0.000000
O O1 0.115037 0.469543 0.219956
O O2 0.303333 0.725084 0.032783
O O3 0.769029 0.598795 0.148944
O O4 0.198393 0.193578 0.046222
O O5 0.004603 0.758967 0.592315
O O6 0.605686 0.972106 0.795320
O O7 0.179140 0.966899 0.737464
O O8 0.371986 0.732458 0.358845
O O9 0.500000 0.500000 0.500000
O O10 0.500000 0.000000 0.500000
#
# Coordination Sequence:
#
# PCOD9015986 Si02
#       5
#     2   2   2   2   1
#     4  11  22  47  72 104 140 181 242 287 366 404
#     4  11  24  45  73 106 145 187 231 285 348 423
#     4  11  24  45  73 106 145 187 231 285 348 423
#     4  10  21  42  66 107 145 185 228 280 340 419
#     4  10  24  46  74 102 138 182 236 312 344 422
#
# _framework density 29.784623
#
# number of rings (size 3 to 8) (size 9 to 14) (size 15 to 20)
#    0.000    1.333    4.444    0.667    0.000    1.778 
#    0.000   11.111    0.000    0.000    0.000    0.000 
#    0.000    0.000    0.000    0.000    0.000    0.000 
#
# Total GULP energy -50347.309360 kJ/mol
# GULP energy per Si atom -5594.145484 kJ/mol
# Density = 2.971683 g / cm^3
# Si number density = 29.784623 Si / 1000 Ang^3
#
#
#
# Elastic Constant Matrix: (Units=GPa)
#
#
# Indices 1 2 3 4 5 6 
#
# 1 145.5808 70.9782 42.0750 -4.4731 5.0762 -17.1584
# 2 70.9782 321.3751 77.5157 -14.1452 -15.0248 -19.7112
# 3 42.0750 77.5157 126.3317 -10.4137 -16.4585 12.4196
# 4 -4.4731 -14.1452 -10.4137 63.3899 -8.3276 -11.9218
# 5 5.0762 -15.0248 -16.4585 -8.3276 53.1446 1.2053
# 6 -17.1584 -19.7112 12.4196 -11.9218 1.2053 64.0908
#
#
#
# Elastic Compliance Matrix: (Units=1/GPa)
#
#
# Indices 1 2 3 4 5 6 
#
# 1 0.008578 -0.001199 -0.002619 0.000113 -0.002008 0.002494
# 2 -0.001199 0.004033 -0.002056 0.000847 0.000718 0.001462
# 3 -0.002619 -0.002056 0.010879 0.000947 0.003262 -0.003327
# 4 0.000113 0.000847 0.000947 0.017149 0.003135 0.003238
# 5 -0.002008 0.000718 0.003262 0.003135 0.020730 -0.000756
# 6 0.002494 0.001462 -0.003327 0.003238 -0.000756 0.017981
#
#
# Mechanical properties :
#
#
# Convention : Reuss Voigt Hill
#
# Bulk Modulus (GPa) = 85.15434 108.26948 96.71191
# Shear Modulus (GPa) = 52.62591 62.97299 57.79945
#
# Velocity S-wave (km/s) = 4.20799 4.60312 4.40998
# Velocity P-wave (km/s) = 7.22922 8.04247 7.64666
#
# Compressibility (1/GPa) = 0.01174338
#
# Stress axis : x y z
#
# Youngs Moduli (GPa) = 116.57988 247.97599 91.91869
#
# Poissons Ratio (x) = 0.29727 0.24072
# Poissons Ratio (y) = 0.13975 0.18894
# Poissons Ratio (z) = 0.30530 0.50973
#
# Static dielectric constant tensor:
#      x y z
#    x 2.140020 0.006900 -0.509380 
#    y 0.006900 2.141320 0.079910 
#    z -0.509380 0.079910 0.508320 
# 
# From -- ./inp_files/5168.got.cif
#   From: 2010.05.17/outbox.cif.g08.bks.cpg/sg2_3_cif.got.tgz:5168.got - 2010.06.03 11:33:40.
