data_PCOD9015301
_publ_section_title
;
Structure prediction by ZEFSAII (Michael W. Deem and Ramdas Pophale) SiO2 
 PCOD9015301
Probable space group: P -1
;
_chemical_formula_sum "Si O2"
_cell_formula_units_Z 14
_cell_length_a 19.140828
_cell_length_b 8.813859
_cell_length_c 9.525014
_cell_angle_alpha 121.659928
_cell_angle_beta 24.855313
_cell_angle_gamma 124.143846
_cell_volume 558.445840
_symmetry_space_group_name_H-M "P -1"
_symmetry_group_IT_number 2
_symmetry_cell_setting 'triclinic'
loop_
_space_group_symop_operation_xyz
x,y,z
-x,-y,-z
loop_
_atom_site_type_symbol
_atom_site_label
_atom_site_fract_x
_atom_site_fract_y
_atom_site_fract_z
Si Si1 0.631033 0.534074 0.407780
Si Si2 0.458231 0.250961 0.053330
Si Si3 0.025305 0.632866 0.693095
Si Si4 0.794975 0.089595 0.698637
Si Si5 0.034449 0.825069 0.049128
Si Si6 0.676730 0.148606 0.242076
Si Si7 0.216922 0.445063 0.442495
O O1 0.500000 0.500000 0.500000
O O2 0.585409 0.666087 0.677175
O O3 0.634786 0.344600 0.387010
O O4 0.822897 0.603939 0.031935
O O5 0.345244 0.311170 0.161432
O O6 0.389772 0.032170 0.074534
O O7 0.648842 0.358125 0.718115
O O8 0.142028 0.711320 0.387184
O O9 0.087863 0.459808 0.559086
O O10 0.065959 0.793733 0.815086
O O11 0.781268 0.106807 0.896904
O O12 0.933244 0.978488 0.343975
O O13 0.906713 0.633122 0.239990
O O14 0.204555 0.858412 0.845457
O O15 0.500000 0.000000 0.500000
#
# Coordination Sequence:
#
# PCOD9015301 Si02
#       7
#     2   2   2   2   2   2   2
#     4  12  28  47  70 104 148 185 235 298 362 412
#     4  10  24  45  73 105 138 191 239 289 351 425
#     4  12  24  45  77 104 142 191 240 290 354 428
#     4  11  27  45  72 110 145 183 235 293 361 414
#     4  11  23  47  75 103 141 189 243 285 352 428
#     4  12  30  47  71 108 145 186 237 300 355 415
#     4  10  21  41  77  98 138 184 247 278 344 431
#
# _framework density 25.069572999999998
#
# number of rings (size 3 to 8) (size 9 to 14) (size 15 to 20)
#    0.000    0.857    4.286    2.143   12.000    2.286 
#    0.000    0.000    0.000    0.000    0.000    0.000 
#    0.000    0.000    0.000    0.000    0.000    0.000 
#
# Total GULP energy -78337.138585 kJ/mol
# GULP energy per Si atom -5595.509899 kJ/mol
# Density = 2.501251 g / cm^3
# Si number density = 25.069573 Si / 1000 Ang^3
#
#
#
# Elastic Constant Matrix: (Units=GPa)
#
#
# Indices 1 2 3 4 5 6 
#
# 1 154.7618 20.7299 48.5721 -1.0353 -13.1805 14.6193
# 2 20.7299 61.2142 26.4511 -7.0249 6.8489 8.2590
# 3 48.5721 26.4511 84.2677 -17.2232 2.9516 6.9551
# 4 -1.0353 -7.0249 -17.2232 51.5349 7.6755 0.6786
# 5 -13.1805 6.8489 2.9516 7.6755 51.3480 0.6762
# 6 14.6193 8.2590 6.9551 0.6786 0.6762 37.3969
#
#
#
# Elastic Compliance Matrix: (Units=1/GPa)
#
#
# Indices 1 2 3 4 5 6 
#
# 1 0.008612 -0.001031 -0.004978 -0.002044 0.002969 -0.002230
# 2 -0.001031 0.019709 -0.004946 0.001468 -0.002789 -0.003006
# 3 -0.004978 -0.004946 0.017509 0.005444 -0.002435 -0.000273
# 4 -0.002044 0.001468 0.005444 0.022037 -0.004316 -0.000859
# 5 0.002969 -0.002789 -0.002435 -0.004316 0.021400 -0.000401
# 6 -0.002230 -0.003006 -0.000273 -0.000859 -0.000401 0.028349
#
#
# Mechanical properties :
#
#
# Convention : Reuss Voigt Hill
#
# Bulk Modulus (GPa) = 41.80811 54.63887 48.22349
# Shear Modulus (GPa) = 33.89856 41.68866 37.79361
#
# Velocity S-wave (km/s) = 3.68119 4.08231 3.88693
# Velocity P-wave (km/s) = 5.89756 6.63797 6.27869
#
# Compressibility (1/GPa) = 0.02391881
#
# Stress axis : x y z
#
# Youngs Moduli (GPa) = 116.11956 50.73913 57.11294
#
# Poissons Ratio (x) = 0.05233 0.28430
# Poissons Ratio (y) = 0.11976 0.28249
# Poissons Ratio (z) = 0.57803 0.25097
#
# Static dielectric constant tensor:
#      x y z
#    x 1.980080 0.021040 -0.010800 
#    y 0.021040 2.016930 0.008250 
#    z -0.010800 0.008250 1.958770 
# 
# From -- ./inp_files/153473.got.cif
#   From: 2010.05.17/outbox.cif.g08.bks.cpg/sg2_77_cif.got.tgz:153473.got - 2010.06.03 11:33:40.
