data_PCOD9015784
_publ_section_title
;
Structure prediction by ZEFSAII (Michael W. Deem and Ramdas Pophale) SiO2 
 PCOD9015784
Probable space group: P -1
;
_chemical_formula_sum "Si O2"
_cell_formula_units_Z 16
_cell_length_a 9.004219
_cell_length_b 19.400572
_cell_length_c 9.145920
_cell_angle_alpha 60.156323
_cell_angle_beta 132.573067
_cell_angle_gamma 137.247067
_cell_volume 798.686645
_symmetry_space_group_name_H-M "P -1"
_symmetry_group_IT_number 2
_symmetry_cell_setting 'triclinic'
loop_
_space_group_symop_operation_xyz
x,y,z
-x,-y,-z
loop_
_atom_site_type_symbol
_atom_site_label
_atom_site_fract_x
_atom_site_fract_y
_atom_site_fract_z
Si Si1 0.681883 0.723052 0.325298
Si Si2 0.240004 0.110346 0.990665
Si Si3 0.779285 0.395881 0.037444
Si Si4 0.663835 0.272800 0.670095
Si Si5 0.407547 0.892086 0.002542
Si Si6 0.500760 0.717719 0.772322
Si Si7 0.741548 0.610840 0.991623
Si Si8 0.023293 0.294400 0.234828
O O1 0.817382 0.830249 0.221262
O O2 0.494027 0.706765 0.348939
O O3 0.875975 0.709256 0.539802
O O4 0.491592 0.639864 0.166516
O O5 0.416455 0.096034 0.025357
O O6 0.380952 0.185650 0.144599
O O7 0.000000 0.000000 0.000000
O O8 0.749779 0.380269 0.207267
O O9 0.821334 0.316306 0.092903
O O10 0.000000 0.500000 0.000000
O O11 0.586542 0.167596 0.794435
O O12 0.574440 0.268171 0.451072
O O13 0.976330 0.352213 0.810227
O O14 0.118841 0.812752 0.829225
O O15 0.500000 0.000000 0.000000
O O16 0.695770 0.691148 0.921676
O O17 0.500000 0.500000 0.000000
O O18 0.757588 0.618393 0.817796
#
# Coordination Sequence:
#
# PCOD9015784 Si02
#       8
#     2   2   2   2   2   2   2   2
#     4  10  21  42  65  87 126 167 202 251 310 371
#     4  10  23  42  63  93 128 156 202 262 311 362
#     4  11  23  42  63  89 131 163 202 261 309 361
#     4  10  22  41  64  90 127 161 207 255 304 368
#     4  10  22  43  66  89 122 167 205 248 310 378
#     4  11  23  40  62  96 126 158 206 261 308 355
#     4  11  23  38  64  95 123 164 211 253 302 365
#     4  11  21  42  65  89 125 166 208 247 308 376
#
# _framework density 20.032886999999999
#
# number of rings (size 3 to 8) (size 9 to 14) (size 15 to 20)
#    0.000    1.500    6.250    0.750    3.500    5.000 
#    0.000    3.750    0.000    0.000    0.000    0.000 
#    0.000    0.000    0.000    0.000    0.000    0.000 
#
# Total GULP energy -89237.073392 kJ/mol
# GULP energy per Si atom -5577.317087 kJ/mol
# Density = 1.998729 g / cm^3
# Si number density = 20.032887 Si / 1000 Ang^3
#
#
#
# Elastic Constant Matrix: (Units=GPa)
#
#
# Indices 1 2 3 4 5 6 
#
# 1 74.7460 37.2844 24.7441 -5.7961 -18.0818 10.2670
# 2 37.2844 123.1895 40.3000 -4.4083 -4.7702 22.4799
# 3 24.7441 40.3000 138.0340 -6.0096 -21.8855 6.9262
# 4 -5.7961 -4.4083 -6.0096 10.0743 8.4872 -8.5766
# 5 -18.0818 -4.7702 -21.8855 8.4872 30.1685 -8.9923
# 6 10.2670 22.4799 6.9262 -8.5766 -8.9923 41.8165
#
#
#
# Elastic Compliance Matrix: (Units=1/GPa)
#
#
# Indices 1 2 3 4 5 6 
#
# 1 0.018454 -0.005222 -0.000183 0.000029 0.010248 0.000516
# 2 -0.005222 0.011465 -0.002942 -0.000192 -0.005042 -0.005518
# 3 -0.000183 -0.002942 0.009086 -0.000199 0.006514 0.001482
# 4 0.000029 -0.000192 -0.000199 0.148107 -0.034973 0.022986
# 5 0.010248 -0.005042 0.006514 -0.034973 0.054124 0.003581
# 6 0.000516 -0.005518 0.001482 0.022986 0.003581 0.031993
#
#
# Mechanical properties :
#
#
# Convention : Reuss Voigt Hill
#
# Bulk Modulus (GPa) = 44.82052 60.06962 52.44507
# Shear Modulus (GPa) = 16.81452 31.98793 24.40123
#
# Velocity S-wave (km/s) = 2.90029 4.00030 3.49386
# Velocity P-wave (km/s) = 5.79979 7.16848 6.52015
#
# Compressibility (1/GPa) = 0.02231121
#
# Stress axis : x y z
#
# Youngs Moduli (GPa) = 54.18740 87.21986 110.05613
#
# Poissons Ratio (x) = 0.45544 0.02019
# Poissons Ratio (y) = 0.28295 0.32381
# Poissons Ratio (z) = 0.00994 0.25662
#
# Static dielectric constant tensor:
#      x y z
#    x 1.763030 0.008380 -0.001890 
#    y 0.008380 1.726630 0.006010 
#    z -0.001890 0.006010 1.694630 
# 
# From -- ./inp_files/197688.got.cif
#   From: 2010.05.17/outbox.cif.g08.bks.cpg/sg2_99_cif.got.tgz:197688.got - 2010.06.03 11:33:40.
