data_PCOD9015029
_publ_section_title
;
Structure prediction by ZEFSAII (Michael W. Deem and Ramdas Pophale) SiO2 
 PCOD9015029
Probable space group: P -1
;
_chemical_formula_sum "Si O2"
_cell_formula_units_Z 16
_cell_length_a 27.099350
_cell_length_b 11.088037
_cell_length_c 21.794197
_cell_angle_alpha 145.265377
_cell_angle_beta 12.036577
_cell_angle_gamma 146.269834
_cell_volume 756.306275
_symmetry_space_group_name_H-M "P -1"
_symmetry_group_IT_number 2
_symmetry_cell_setting 'triclinic'
loop_
_space_group_symop_operation_xyz
x,y,z
-x,-y,-z
loop_
_atom_site_type_symbol
_atom_site_label
_atom_site_fract_x
_atom_site_fract_y
_atom_site_fract_z
Si Si1 0.633768 0.866532 0.736696
Si Si2 0.380690 0.431251 0.791633
Si Si3 0.955944 0.837788 0.815923
Si Si4 0.581569 0.169937 0.821557
Si Si5 0.831087 0.020993 0.837975
Si Si6 0.277552 0.550785 0.828673
Si Si7 0.767495 0.607220 0.828667
Si Si8 0.108708 0.677823 0.889677
O O1 0.479994 0.638377 0.802507
O O2 0.886021 0.862096 0.460525
O O3 0.694011 0.022277 0.669320
O O4 0.500000 0.000000 0.000000
O O5 0.309694 0.509587 0.844332
O O6 0.606515 0.317075 0.460382
O O7 0.153816 0.270030 0.032388
O O8 0.775442 0.712463 0.929717
O O9 0.224760 0.801141 0.458043
O O10 0.949765 0.090782 0.927395
O O11 0.563267 0.396916 0.969261
O O12 0.315782 0.038762 0.070802
O O13 0.793335 0.796872 0.827095
O O14 0.713710 0.196510 0.087414
O O15 0.500000 0.500000 0.500000
O O16 0.031300 0.409226 0.039258
O O17 0.000000 0.500000 0.500000
O O18 0.000000 0.500000 0.000000
#
# Coordination Sequence:
#
# PCOD9015029 Si02
#       8
#     2   2   2   2   2   2   2   2
#     4  12  25  45  72 100 145 188 236 291 347 426
#     4  12  26  45  67 105 147 178 241 295 349 424
#     4  11  24  45  70 102 145 183 230 298 357 413
#     4  11  23  45  69 102 138 184 237 287 356 429
#     4  12  23  44  72 104 134 189 242 282 358 420
#     4  12  25  43  73 104 140 186 237 290 348 423
#     4  10  21  41  70  97 135 181 233 288 351 416
#     4  12  23  45  74 100 137 191 237 287 356 423
#
# _framework density 21.155449999999998
#
# number of rings (size 3 to 8) (size 9 to 14) (size 15 to 20)
#    0.000    0.500    6.250    3.750    1.750    1.000 
#    2.250    0.000    0.000    0.000    0.000    0.000 
#    0.000    0.000    0.000    0.000    0.000    0.000 
#
# Total GULP energy -89421.550671 kJ/mol
# GULP energy per Si atom -5588.846917 kJ/mol
# Density = 2.110730 g / cm^3
# Si number density = 21.155450 Si / 1000 Ang^3
#
#
#
# Elastic Constant Matrix: (Units=GPa)
#
#
# Indices 1 2 3 4 5 6 
#
# 1 75.4397 34.8346 35.2839 -10.0677 -8.8979 25.3343
# 2 34.8346 139.4806 18.4346 20.3548 -1.1337 16.5369
# 3 35.2839 18.4346 59.2167 0.7448 -10.4593 1.6368
# 4 -10.0677 20.3548 0.7448 36.4109 0.8131 6.7530
# 5 -8.8979 -1.1337 -10.4593 0.8131 32.6752 -8.3698
# 6 25.3343 16.5369 1.6368 6.7530 -8.3698 38.1525
#
#
#
# Elastic Compliance Matrix: (Units=1/GPa)
#
#
# Indices 1 2 3 4 5 6 
#
# 1 0.034875 -0.006023 -0.019061 0.017854 -0.003307 -0.023615
# 2 -0.006023 0.009525 0.000563 -0.007164 -0.000705 0.000960
# 3 -0.019061 0.000563 0.029218 -0.009062 0.008133 0.014548
# 4 0.017854 -0.007164 -0.009062 0.039658 -0.003406 -0.016128
# 5 -0.003307 -0.000705 0.008133 -0.003406 0.035042 0.010443
# 6 -0.023615 0.000960 0.014548 -0.016128 0.010443 0.045997
#
#
# Mechanical properties :
#
#
# Convention : Reuss Voigt Hill
#
# Bulk Modulus (GPa) = 40.69167 50.13814 45.41491
# Shear Modulus (GPa) = 19.87681 33.82000 26.84841
#
# Velocity S-wave (km/s) = 3.06855 4.00264 3.56631
# Velocity P-wave (km/s) = 5.64190 6.71661 6.20257
#
# Compressibility (1/GPa) = 0.02457505
#
# Stress axis : x y z
#
# Youngs Moduli (GPa) = 28.67414 104.98377 34.22586
#
# Poissons Ratio (x) = 0.63233 0.65237
# Poissons Ratio (y) = 0.17271 -0.01925
# Poissons Ratio (z) = 0.54655 -0.05905
#
# Static dielectric constant tensor:
#      x y z
#    x 1.802330 0.022880 -0.011450 
#    y 0.022880 1.793840 -0.020850 
#    z -0.011450 -0.020850 1.771690 
# 
# From -- ./inp_files/607496.got.cif
#   From: 2010.05.17/outbox.cif.g08.bks.cpg/sg2_304_cif.got.tgz:607496.got - 2010.06.03 11:33:40.
