data_PCOD9015142
_publ_section_title
;
Structure prediction by ZEFSAII (Michael W. Deem and Ramdas Pophale) SiO2 
 PCOD9015142
Probable space group: P -1
;
_chemical_formula_sum "Si O2"
_cell_formula_units_Z 16
_cell_length_a 15.568643
_cell_length_b 9.367120
_cell_length_c 13.281920
_cell_angle_alpha 136.860020
_cell_angle_beta 147.621553
_cell_angle_gamma 58.907792
_cell_volume 682.391650
_symmetry_space_group_name_H-M "P -1"
_symmetry_group_IT_number 2
_symmetry_cell_setting 'triclinic'
loop_
_space_group_symop_operation_xyz
x,y,z
-x,-y,-z
loop_
_atom_site_type_symbol
_atom_site_label
_atom_site_fract_x
_atom_site_fract_y
_atom_site_fract_z
Si Si1 0.494328 0.218841 0.552106
Si Si2 0.084949 0.432037 0.148931
Si Si3 0.686086 0.114179 0.361564
Si Si4 0.638583 0.521523 0.290181
Si Si5 0.706686 0.074229 0.146133
Si Si6 0.154397 0.597817 0.916510
Si Si7 0.211327 0.015240 0.036638
Si Si8 0.260251 0.292157 0.719480
O O1 0.372982 0.323977 0.550364
O O2 0.679992 0.367159 0.830303
O O3 0.405506 0.143948 0.320114
O O4 0.500000 0.000000 0.500000
O O5 0.751574 0.366275 0.577158
O O6 0.987486 0.432839 0.157172
O O7 0.112222 0.194327 0.045129
O O8 0.000000 0.500000 0.000000
O O9 0.487108 0.056422 0.126723
O O10 0.743957 0.959215 0.417296
O O11 0.755092 0.027583 0.282287
O O12 0.750670 0.639529 0.370655
O O13 0.703535 0.321055 0.280015
O O14 0.448594 0.419883 0.009550
O O15 0.801793 0.048738 0.126303
O O16 0.169535 0.806874 0.964180
O O17 0.145998 0.391940 0.730194
#
# Coordination Sequence:
#
# PCOD9015142 Si02
#       8
#     2   2   2   2   2   2   2   2
#     4   9  20  34  69 103 128 162 215 285 329 380
#     4  12  29  46  63  93 146 184 214 262 344 414
#     4  10  24  41  65  97 135 174 210 276 335 401
#     4   9  16  34  62  98 126 155 212 276 329 366
#     4  10  21  41  71  99 126 167 231 280 328 377
#     4  10  22  44  67 101 130 175 224 274 332 392
#     4  11  23  44  71  97 129 174 231 282 321 389
#     4   9  18  34  66  92 125 162 213 271 315 391
#
# _framework density 23.446944999999999
#
# number of rings (size 3 to 8) (size 9 to 14) (size 15 to 20)
#    0.000    2.000    1.250    1.125    8.750    3.000 
#    0.000    1.875    0.000    0.000    0.000    0.000 
#    0.000    0.000    0.000    0.000    0.000    0.000 
#
# Total GULP energy -89380.930222 kJ/mol
# GULP energy per Si atom -5586.308139 kJ/mol
# Density = 2.339358 g / cm^3
# Si number density = 23.446945 Si / 1000 Ang^3
#
#
#
# Elastic Constant Matrix: (Units=GPa)
#
#
# Indices 1 2 3 4 5 6 
#
# 1 76.8980 8.9231 0.7073 7.5517 -5.7972 -5.2064
# 2 8.9231 56.7785 1.6064 6.9727 2.1014 -7.7147
# 3 0.7073 1.6064 51.7593 -3.3201 -9.7791 0.6139
# 4 7.5517 6.9727 -3.3201 27.9331 -1.9959 -10.2090
# 5 -5.7972 2.1014 -9.7791 -1.9959 19.3044 4.6250
# 6 -5.2064 -7.7147 0.6139 -10.2090 4.6250 37.0715
#
#
#
# Elastic Compliance Matrix: (Units=1/GPa)
#
#
# Indices 1 2 3 4 5 6 
#
# 1 0.013842 -0.001974 0.000499 -0.002804 0.004282 0.000218
# 2 -0.001974 0.019031 -0.001718 -0.003543 -0.004697 0.003322
# 3 0.000499 -0.001718 0.021871 0.003300 0.012055 -0.001245
# 4 -0.002804 -0.003543 0.003300 0.041678 0.003153 0.009898
# 5 0.004282 -0.004697 0.012055 0.003153 0.061809 -0.007419
# 6 0.000218 0.003322 -0.001245 0.009898 -0.007419 0.031369
#
#
# Mechanical properties :
#
#
# Convention : Reuss Voigt Hill
#
# Bulk Modulus (GPa) = 20.67911 23.10107 21.89009
# Shear Modulus (GPa) = 23.57328 28.47507 26.02417
#
# Velocity S-wave (km/s) = 3.17423 3.48867 3.33516
# Velocity P-wave (km/s) = 4.71942 5.10898 4.91806
#
# Compressibility (1/GPa) = 0.04835797
#
# Stress axis : x y z
#
# Youngs Moduli (GPa) = 72.24560 52.54485 45.72309
#
# Poissons Ratio (x) = 0.10371 -0.02280
# Poissons Ratio (y) = 0.14260 0.07854
# Poissons Ratio (z) = -0.03602 0.09026
#
# Static dielectric constant tensor:
#      x y z
#    x 2.021440 0.137110 -0.275760 
#    y 0.137110 1.961560 -0.317510 
#    z -0.275760 -0.317510 2.627860 
# 
# From -- ./inp_files/448260.got.cif
#   From: 2010.05.17/outbox.cif.g08.bks.cpg/sg2_225_cif.got.tgz:448260.got - 2010.06.03 11:33:40.
