data_PCOD9015280
_publ_section_title
;
Structure prediction by ZEFSAII (Michael W. Deem and Ramdas Pophale) SiO2 
 PCOD9015280
Probable space group: P -1
;
_chemical_formula_sum "Si O2"
_cell_formula_units_Z 10
_cell_length_a 5.639874
_cell_length_b 9.077193
_cell_length_c 14.413901
_cell_angle_alpha 31.965877
_cell_angle_beta 99.760008
_cell_angle_gamma 100.057608
_cell_volume 384.332560
_symmetry_space_group_name_H-M "P -1"
_symmetry_group_IT_number 2
_symmetry_cell_setting 'triclinic'
loop_
_space_group_symop_operation_xyz
x,y,z
-x,-y,-z
loop_
_atom_site_type_symbol
_atom_site_label
_atom_site_fract_x
_atom_site_fract_y
_atom_site_fract_z
Si Si1 0.908133 0.946117 0.211087
Si Si2 0.401211 0.400719 0.765307
Si Si3 0.346177 0.512971 0.076015
Si Si4 0.261849 0.506295 0.418417
Si Si5 0.779017 0.034249 0.537310
O O1 0.717942 0.855573 0.163648
O O2 0.861815 0.773770 0.395677
O O3 0.145878 0.801102 0.270274
O O4 0.859297 0.264987 0.054151
O O5 0.461306 0.388669 0.883233
O O6 0.650420 0.497412 0.678981
O O7 0.215880 0.641234 0.607963
O O8 0.232269 0.208076 0.257825
O O9 0.500000 0.500000 0.000000
O O10 0.500000 0.500000 0.500000
O O11 0.500000 0.000000 0.500000
O O12 0.000000 0.000000 0.500000
#
# Coordination Sequence:
#
# PCOD9015280 Si02
#       5
#     2   2   2   2   2
#     4  10  21  41  75 102 139 186 245 307 360 435
#     4  10  22  42  72  98 144 193 239 296 365 444
#     4  11  24  45  70 112 150 188 246 308 367 438
#     4   9  20  41  67 103 139 182 241 297 374 430
#     4  10  24  47  71 102 149 199 240 297 379 444
#
# _framework density 26.019136
#
# number of rings (size 3 to 8) (size 9 to 14) (size 15 to 20)
#    0.000    2.000    0.000    1.800    5.600    0.800 
#   25.200    4.000    0.000    0.000    0.000    0.000 
#    0.000    0.000    0.000    0.000    0.000    0.000 
#
# Total GULP energy -55928.775935 kJ/mol
# GULP energy per Si atom -5592.877593 kJ/mol
# Density = 2.595992 g / cm^3
# Si number density = 26.019136 Si / 1000 Ang^3
#
#
#
# Elastic Constant Matrix: (Units=GPa)
#
#
# Indices 1 2 3 4 5 6 
#
# 1 136.2576 43.1609 79.4213 -1.7770 12.6382 -39.5976
# 2 43.1609 129.3120 83.5855 8.8509 4.9946 -24.6129
# 3 79.4213 83.5855 156.8898 -3.8399 28.2018 -41.3948
# 4 -1.7770 8.8509 -3.8399 66.8647 -15.7361 11.4128
# 5 12.6382 4.9946 28.2018 -15.7361 55.3356 6.4967
# 6 -39.5976 -24.6129 -41.3948 11.4128 6.4967 75.4907
#
#
#
# Elastic Compliance Matrix: (Units=1/GPa)
#
#
# Indices 1 2 3 4 5 6 
#
# 1 0.011078 -0.000007 -0.004548 -0.000761 -0.000839 0.003502
# 2 -0.000007 0.012235 -0.006798 -0.001632 0.001857 0.000345
# 3 -0.004548 -0.006798 0.014471 -0.000560 -0.006348 0.003964
# 4 -0.000761 -0.001632 -0.000560 0.017286 0.006036 -0.004371
# 5 -0.000839 0.001857 -0.006348 0.006036 0.023784 -0.006275
# 6 0.003502 0.000345 0.003964 -0.004371 -0.006275 0.018571
#
#
# Mechanical properties :
#
#
# Convention : Reuss Voigt Hill
#
# Bulk Modulus (GPa) = 66.31787 92.75496 79.53642
# Shear Modulus (GPa) = 39.95029 53.95764 46.95396
#
# Velocity S-wave (km/s) = 3.92269 4.55880 4.25266
# Velocity P-wave (km/s) = 6.78676 7.96470 7.39921
#
# Compressibility (1/GPa) = 0.01507889
#
# Stress axis : x y z
#
# Youngs Moduli (GPa) = 90.27156 81.73203 69.10272
#
# Poissons Ratio (x) = 0.00053 0.31429
# Poissons Ratio (y) = 0.00059 0.46975
# Poissons Ratio (z) = 0.41057 0.55560
#
# Static dielectric constant tensor:
#      x y z
#    x 2.145690 0.129710 -0.092860 
#    y 0.129710 2.129080 -0.029320 
#    z -0.092860 -0.029320 2.084320 
# 
# From -- ./inp_files/480166.got.cif
#   From: 2010.05.17/outbox.cif.g08.bks.cpg/sg2_241_cif.got.tgz:480166.got - 2010.06.03 11:33:40.
