data_PCOD9015735
_publ_section_title
;
Structure prediction by ZEFSAII (Michael W. Deem and Ramdas Pophale) SiO2 
 PCOD9015735
Probable space group: P -1
;
_chemical_formula_sum "Si O2"
_cell_formula_units_Z 16
_cell_length_a 8.238835
_cell_length_b 18.314547
_cell_length_c 9.644216
_cell_angle_alpha 145.933547
_cell_angle_beta 122.464944
_cell_angle_gamma 56.822005
_cell_volume 671.362150
_symmetry_space_group_name_H-M "P -1"
_symmetry_group_IT_number 2
_symmetry_cell_setting 'triclinic'
loop_
_space_group_symop_operation_xyz
x,y,z
-x,-y,-z
loop_
_atom_site_type_symbol
_atom_site_label
_atom_site_fract_x
_atom_site_fract_y
_atom_site_fract_z
Si Si1 0.297661 0.953329 0.812678
Si Si2 0.906084 0.315747 0.991169
Si Si3 0.794729 0.941000 0.370021
Si Si4 0.030975 0.439296 0.762876
Si Si5 0.918410 0.134503 0.958524
Si Si6 0.514388 0.233831 0.030589
Si Si7 0.652096 0.339570 0.505382
Si Si8 0.454799 0.386754 0.954406
O O1 0.312401 0.801542 0.622529
O O2 0.232533 0.985456 0.674399
O O3 0.125393 0.050948 0.972743
O O4 0.500000 0.000000 0.000000
O O5 0.980074 0.444264 0.172651
O O6 0.668594 0.344495 0.915394
O O7 0.946349 0.264207 0.087405
O O8 0.030318 0.191326 0.765849
O O9 0.831430 0.041094 0.661972
O O10 0.602349 0.882179 0.204481
O O11 0.850505 0.365428 0.562248
O O12 0.261741 0.363242 0.747960
O O13 0.000000 0.500000 0.000000
O O14 0.745750 0.171273 0.045713
O O15 0.483682 0.333420 0.303629
O O16 0.468213 0.308058 0.981504
O O17 0.582795 0.459571 0.770918
#
# Coordination Sequence:
#
# PCOD9015735 Si02
#       8
#     2   2   2   2   2   2   2   2
#     4  11  23  44  65  96 129 171 212 266 332 378
#     4  10  21  42  64  98 128 160 217 266 319 376
#     4  11  22  42  72  91 129 173 215 271 317 383
#     4  10  22  39  66  96 126 171 212 267 315 380
#     4  10  25  41  69  93 128 172 220 266 314 388
#     4  11  23  46  62  96 130 172 219 265 322 380
#     4  11  24  43  65  93 137 169 210 266 328 384
#     4  10  23  40  68  98 127 168 219 264 317 387
#
# _framework density 23.832146000000002
#
# number of rings (size 3 to 8) (size 9 to 14) (size 15 to 20)
#    0.000    1.500    1.250    4.125    8.750    0.500 
#    2.250    1.875    0.000    0.000    0.000    0.000 
#    0.000    0.000    0.000    0.000    0.000    0.000 
#
# Total GULP energy -89482.611860 kJ/mol
# GULP energy per Si atom -5592.663241 kJ/mol
# Density = 2.377790 g / cm^3
# Si number density = 23.832146 Si / 1000 Ang^3
#
#
#
# Elastic Constant Matrix: (Units=GPa)
#
#
# Indices 1 2 3 4 5 6 
#
# 1 99.2640 51.5252 41.7638 25.3584 24.0666 -5.4641
# 2 51.5252 105.1681 45.2733 27.3731 20.7813 -0.1772
# 3 41.7638 45.2733 93.3119 3.0267 30.8782 2.8415
# 4 25.3584 27.3731 3.0267 37.9475 8.4280 6.6043
# 5 24.0666 20.7813 30.8782 8.4280 38.1205 9.5722
# 6 -5.4641 -0.1772 2.8415 6.6043 9.5722 48.6095
#
#
#
# Elastic Compliance Matrix: (Units=1/GPa)
#
#
# Indices 1 2 3 4 5 6 
#
# 1 0.017186 -0.003454 -0.004325 -0.008344 -0.004680 0.004227
# 2 -0.003454 0.016174 -0.006022 -0.009084 -0.000069 0.001270
# 3 -0.004325 -0.006022 0.018979 0.008273 -0.011046 -0.000566
# 4 -0.008344 -0.009084 0.008273 0.039713 -0.003725 -0.006117
# 5 -0.004680 -0.000069 -0.011046 -0.003725 0.040859 -0.007421
# 6 0.004227 0.001270 -0.000566 -0.006117 -0.007421 0.023377
#
#
# Mechanical properties :
#
#
# Convention : Reuss Voigt Hill
#
# Bulk Modulus (GPa) = 40.42977 63.87429 52.15203
# Shear Modulus (GPa) = 26.02316 35.54762 30.78539
#
# Velocity S-wave (km/s) = 3.30803 3.86629 3.59800
# Velocity P-wave (km/s) = 5.62067 6.84038 6.26030
#
# Compressibility (1/GPa) = 0.02473425
#
# Stress axis : x y z
#
# Youngs Moduli (GPa) = 58.18692 61.82943 52.69012
#
# Poissons Ratio (x) = 0.21357 0.22791
# Poissons Ratio (y) = 0.20099 0.31732
# Poissons Ratio (z) = 0.25168 0.37236
#
# Static dielectric constant tensor:
#      x y z
#    x 1.961570 -0.029560 -0.028000 
#    y -0.029560 1.928580 -0.004150 
#    z -0.028000 -0.004150 1.905190 
# 
# From -- ./inp_files/405159.got.cif
#   From: 2010.05.17/outbox.cif.g08.bks.cpg/sg2_203_cif.got.tgz:405159.got - 2010.06.03 11:33:40.
