data_PCOD9015172
_publ_section_title
;
Structure prediction by ZEFSAII (Michael W. Deem and Ramdas Pophale) SiO2 
 PCOD9015172
Probable space group: P -1
;
_chemical_formula_sum "Si O2"
_cell_formula_units_Z 12
_cell_length_a 13.308312
_cell_length_b 9.767697
_cell_length_c 9.202737
_cell_angle_alpha 60.465266
_cell_angle_beta 29.279677
_cell_angle_gamma 57.788807
_cell_volume 493.883840
_symmetry_space_group_name_H-M "P -1"
_symmetry_group_IT_number 2
_symmetry_cell_setting 'triclinic'
loop_
_space_group_symop_operation_xyz
x,y,z
-x,-y,-z
loop_
_atom_site_type_symbol
_atom_site_label
_atom_site_fract_x
_atom_site_fract_y
_atom_site_fract_z
Si Si1 0.323633 0.185226 0.773301
Si Si2 0.674388 0.371721 0.753303
Si Si3 0.502625 0.193663 0.255543
Si Si4 0.921316 0.163716 0.106754
Si Si5 0.061267 0.410477 0.622617
Si Si6 0.476813 0.832216 0.193661
O O1 0.450377 0.258910 0.451060
O O2 0.329413 0.238318 0.904002
O O3 0.449836 0.997529 0.712155
O O4 0.098608 0.188845 0.984899
O O5 0.864478 0.454623 0.443096
O O6 0.569866 0.298873 0.791569
O O7 0.500000 0.500000 0.000000
O O8 0.711322 0.229548 0.900778
O O9 0.277596 0.855749 0.540590
O O10 0.280681 0.267427 0.412508
O O11 0.101612 0.679460 0.051297
O O12 0.000000 0.000000 0.000000
O O13 0.000000 0.500000 0.500000
O O14 0.500000 0.000000 0.000000
#
# Coordination Sequence:
#
# PCOD9015172 Si02
#       6
#     2   2   2   2   2   2
#     4  10  21  41  72 103 145 185 244 300 363 421
#     4  10  23  44  66  98 148 190 239 287 372 437
#     4   9  18  41  68 100 138 192 233 287 366 434
#     4  11  26  45  75 110 146 189 247 303 363 440
#     4  10  23  41  69 104 140 193 242 294 364 438
#     4  12  25  44  73 110 145 189 249 304 360 437
#
# _framework density 24.297211999999998
#
# number of rings (size 3 to 8) (size 9 to 14) (size 15 to 20)
#    0.000    1.667    1.667    3.000    7.000    1.333 
#    6.000    7.500    0.000    0.000    0.000    0.000 
#    0.000    0.000    0.000    0.000    0.000    0.000 
#
# Total GULP energy -66938.308944 kJ/mol
# GULP energy per Si atom -5578.192412 kJ/mol
# Density = 2.424191 g / cm^3
# Si number density = 24.297212 Si / 1000 Ang^3
#
#
#
# Elastic Constant Matrix: (Units=GPa)
#
#
# Indices 1 2 3 4 5 6 
#
# 1 168.2160 44.7016 49.6873 -32.3377 6.7448 12.4717
# 2 44.7016 74.4155 40.8203 -11.1850 3.6925 12.5783
# 3 49.6873 40.8203 173.2991 -24.1538 10.1928 7.5567
# 4 -32.3377 -11.1850 -24.1538 36.1766 1.3078 -6.5434
# 5 6.7448 3.6925 10.1928 1.3078 40.4285 -7.9285
# 6 12.4717 12.5783 7.5567 -6.5434 -7.9285 53.2649
#
#
#
# Elastic Compliance Matrix: (Units=1/GPa)
#
#
# Indices 1 2 3 4 5 6 
#
# 1 0.008296 -0.003630 -0.000621 0.005839 -0.001174 -0.000455
# 2 -0.003630 0.017789 -0.003003 -0.000277 -0.000858 -0.003087
# 3 -0.000621 -0.003003 0.007219 0.003396 -0.001549 0.000017
# 4 0.005839 -0.000277 0.003396 0.035533 -0.002522 0.002206
# 5 -0.001174 -0.000858 -0.001549 -0.002522 0.026326 0.004306
# 6 -0.000455 -0.003087 0.000017 0.002206 0.004306 0.020519
#
#
# Mechanical properties :
#
#
# Convention : Reuss Voigt Hill
#
# Bulk Modulus (GPa) = 53.20190 76.26100 64.73145
# Shear Modulus (GPa) = 36.64203 44.68875 40.66539
#
# Velocity S-wave (km/s) = 3.88761 4.29331 4.09548
# Velocity P-wave (km/s) = 6.48808 7.48542 7.00452
#
# Compressibility (1/GPa) = 0.01879632
#
# Stress axis : x y z
#
# Youngs Moduli (GPa) = 120.53884 56.21598 138.51704
#
# Poissons Ratio (x) = 0.20408 0.08599
# Poissons Ratio (y) = 0.43758 0.41594
# Poissons Ratio (z) = 0.07483 0.16881
#
# Static dielectric constant tensor:
#      x y z
#    x 2.105200 -0.048710 0.092590 
#    y -0.048710 2.130800 -0.230300 
#    z 0.092590 -0.230300 2.347840 
# 
# From -- ./inp_files/443998.got.cif
#   From: 2010.05.17/outbox.cif.g08.bks.cpg/sg2_222_cif.got.tgz:443998.got - 2010.06.03 11:33:40.
