data_PCOD9015243
_publ_section_title
;
Structure prediction by ZEFSAII (Michael W. Deem and Ramdas Pophale) SiO2 
 PCOD9015243
Probable space group: P -1
;
_chemical_formula_sum "Si O2"
_cell_formula_units_Z 14
_cell_length_a 12.064138
_cell_length_b 15.428573
_cell_length_c 20.268086
_cell_angle_alpha 31.594335
_cell_angle_beta 153.831275
_cell_angle_gamma 154.569251
_cell_volume 697.301374
_symmetry_space_group_name_H-M "P -1"
_symmetry_group_IT_number 2
_symmetry_cell_setting 'triclinic'
loop_
_space_group_symop_operation_xyz
x,y,z
-x,-y,-z
loop_
_atom_site_type_symbol
_atom_site_label
_atom_site_fract_x
_atom_site_fract_y
_atom_site_fract_z
Si Si1 0.960449 0.330204 0.439706
Si Si2 0.702023 0.894776 0.563568
Si Si3 0.355534 0.325357 0.441805
Si Si4 0.161714 0.279257 0.972941
Si Si5 0.910887 0.134795 0.785599
Si Si6 0.300419 0.552340 0.666990
Si Si7 0.170826 0.549885 0.277098
O O1 0.724781 0.347101 0.345396
O O2 0.319506 0.517849 0.526490
O O3 0.948081 0.372401 0.328221
O O4 0.922870 0.121606 0.564780
O O5 0.826745 0.866625 0.580022
O O6 0.394465 0.884080 0.387912
O O7 0.603167 0.719967 0.678021
O O8 0.200930 0.437784 0.305212
O O9 0.494723 0.311230 0.594808
O O10 0.980503 0.205817 0.853175
O O11 0.969695 0.325278 0.888664
O O12 0.500000 0.500000 0.000000
O O13 0.152165 0.083883 0.114700
O O14 0.212364 0.329695 0.782083
O O15 0.000000 0.500000 0.500000
#
# Coordination Sequence:
#
# PCOD9015243 Si02
#       7
#     2   2   2   2   2   2   2
#     4  10  17  30  49  79 101 131 164 205 261 300
#     4  11  19  31  53  78 105 132 170 210 261 297
#     4   9  18  33  49  73 108 130 164 215 251 302
#     4  11  20  34  51  74 104 138 169 206 250 307
#     4  10  20  31  49  74 105 133 163 213 256 292
#     4  10  17  33  50  75 109 129 164 217 256 298
#     4   9  17  35  49  71 109 131 167 210 251 304
#
# _framework density 20.077400999999998
#
# number of rings (size 3 to 8) (size 9 to 14) (size 15 to 20)
#    0.857    1.143    5.714    1.286    0.000    0.571 
#    0.000    0.000    0.000    0.857    0.000    2.000 
#    0.000    0.000    0.000    0.000    0.000    0.000 
#
# Total GULP energy -77960.251709 kJ/mol
# GULP energy per Si atom -5568.589408 kJ/mol
# Density = 2.003170 g / cm^3
# Si number density = 20.077401 Si / 1000 Ang^3
#
#
#
# Elastic Constant Matrix: (Units=GPa)
#
#
# Indices 1 2 3 4 5 6 
#
# 1 61.6774 9.6575 25.8535 -18.1270 17.0585 -10.7463
# 2 9.6575 72.0515 23.1885 -29.0380 5.4506 -5.8209
# 3 25.8535 23.1885 66.0389 -30.6985 19.1363 -3.5344
# 4 -18.1270 -29.0380 -30.6985 36.4073 -5.9148 2.3505
# 5 17.0585 5.4506 19.1363 -5.9148 32.5271 -12.7708
# 6 -10.7463 -5.8209 -3.5344 2.3505 -12.7708 16.3388
#
#
#
# Elastic Compliance Matrix: (Units=1/GPa)
#
#
# Indices 1 2 3 4 5 6 
#
# 1 0.023224 0.003104 -0.004032 0.009226 -0.004447 0.010705
# 2 0.003104 0.021384 -0.000324 0.018039 0.001451 0.008129
# 3 -0.004032 -0.000324 0.031567 0.022357 -0.017321 -0.012693
# 4 0.009226 0.018039 0.022357 0.063769 -0.008968 0.001148
# 5 -0.004447 0.001451 -0.017321 -0.008968 0.056963 0.039659
# 6 0.010705 0.008129 -0.012693 0.001148 0.039659 0.099229
#
#
# Mechanical properties :
#
#
# Convention : Reuss Voigt Hill
#
# Bulk Modulus (GPa) = 13.57349 35.24076 24.40713
# Shear Modulus (GPa) = 15.47048 26.45919 20.96484
#
# Velocity S-wave (km/s) = 2.77888 3.63417 3.23492
# Velocity P-wave (km/s) = 4.13176 5.93297 5.11232
#
# Compressibility (1/GPa) = 0.07367299
#
# Stress axis : x y z
#
# Youngs Moduli (GPa) = 43.05899 46.76354 31.67833
#
# Poissons Ratio (x) = -0.14516 0.12771
# Poissons Ratio (y) = -0.13366 0.01026
# Poissons Ratio (z) = 0.17360 0.01514
#
# Static dielectric constant tensor:
#      x y z
#    x 1.748640 -0.003400 -0.022640 
#    y -0.003400 1.786260 0.004710 
#    z -0.022640 0.004710 1.734570 
# 
# From -- ./inp_files/595361.got.cif
#   From: 2010.05.17/outbox.cif.g08.bks.cpg/sg2_298_cif.got.tgz:595361.got - 2010.06.03 11:33:40.
