data_PCOD9015056
_publ_section_title
;
Structure prediction by ZEFSAII (Michael W. Deem and Ramdas Pophale) SiO2 
 PCOD9015056
Probable space group: P -1
;
_chemical_formula_sum "Si O2"
_cell_formula_units_Z 16
_cell_length_a 8.170443
_cell_length_b 11.731512
_cell_length_c 14.341298
_cell_angle_alpha 32.857820
_cell_angle_beta 92.444059
_cell_angle_gamma 77.394479
_cell_volume 658.228606
_symmetry_space_group_name_H-M "P -1"
_symmetry_group_IT_number 2
_symmetry_cell_setting 'triclinic'
loop_
_space_group_symop_operation_xyz
x,y,z
-x,-y,-z
loop_
_atom_site_type_symbol
_atom_site_label
_atom_site_fract_x
_atom_site_fract_y
_atom_site_fract_z
Si Si1 0.749543 0.733117 0.326329
Si Si2 0.317741 0.819890 0.471964
Si Si3 0.349864 0.042990 0.145857
Si Si4 0.211826 0.803944 0.964497
Si Si5 0.410031 0.433794 0.957099
Si Si6 0.031984 0.724615 0.826096
Si Si7 0.747461 0.579028 0.637225
Si Si8 0.877686 0.499847 0.295866
O O1 0.747863 0.595389 0.514379
O O2 0.859243 0.575067 0.351660
O O3 0.528707 0.886342 0.195636
O O4 0.817666 0.930362 0.210008
O O5 0.533910 0.738059 0.553052
O O6 0.250736 0.626460 0.626209
O O7 0.293043 0.878684 0.319069
O O8 0.163841 0.057065 0.354392
O O9 0.401123 0.185285 0.129725
O O10 0.205591 0.259414 0.932433
O O11 0.431445 0.635840 0.067879
O O12 0.178579 0.684380 0.137447
O O13 0.106253 0.782009 0.885437
O O14 0.197696 0.639095 0.813911
O O15 0.500000 0.500000 0.000000
O O16 0.000000 0.500000 0.000000
O O17 0.905282 0.653082 0.619643
#
# Coordination Sequence:
#
# PCOD9015056 Si02
#       8
#     2   2   2   2   2   2   2   2
#     4  10  23  43  70 100 136 180 227 278 342 404
#     4  11  24  43  66  98 140 176 221 285 336 398
#     4  10  21  41  70  99 139 176 229 279 337 407
#     4  10  22  44  69  98 135 177 224 282 337 409
#     4   9  19  38  70  98 128 174 224 276 334 400
#     4  11  21  40  73  97 129 179 225 277 349 399
#     4  11  25  42  66  98 143 175 226 278 340 398
#     4  12  25  43  70 102 137 180 231 278 337 410
#
# _framework density 24.307663000000002
#
# number of rings (size 3 to 8) (size 9 to 14) (size 15 to 20)
#    0.000    1.500    1.250    3.750    0.000    4.500 
#    0.000    3.125   11.000    0.000    0.000    0.000 
#    0.000    0.000    0.000    0.000    0.000    0.000 
#
# Total GULP energy -89341.855541 kJ/mol
# GULP energy per Si atom -5583.865971 kJ/mol
# Density = 2.425234 g / cm^3
# Si number density = 24.307663 Si / 1000 Ang^3
#
#
#
# Elastic Constant Matrix: (Units=GPa)
#
#
# Indices 1 2 3 4 5 6 
#
# 1 196.7569 36.7869 44.4530 -15.0817 16.5700 -33.3691
# 2 36.7869 69.8226 34.8944 -7.5083 -7.6048 -6.0263
# 3 44.4530 34.8944 107.6561 25.4714 -6.1511 -13.9260
# 4 -15.0817 -7.5083 25.4714 32.7696 -12.7678 9.5517
# 5 16.5700 -7.6048 -6.1511 -12.7678 32.1057 -12.9619
# 6 -33.3691 -6.0263 -13.9260 9.5517 -12.9619 27.4691
#
#
#
# Elastic Compliance Matrix: (Units=1/GPa)
#
#
# Indices 1 2 3 4 5 6 
#
# 1 0.007248 -0.002137 -0.002185 0.002313 -0.001423 0.005753
# 2 -0.002137 0.023712 -0.011219 0.018453 0.009974 -0.004792
# 3 -0.002185 -0.011219 0.021325 -0.024801 -0.001885 0.013430
# 4 0.002313 0.018453 -0.024801 0.067858 0.016773 -0.021396
# 5 -0.001423 0.009974 -0.001885 0.016773 0.046941 0.015821
# 6 0.005753 -0.004792 0.013430 -0.021396 0.015821 0.064056
#
#
# Mechanical properties :
#
#
# Convention : Reuss Voigt Hill
#
# Bulk Modulus (GPa) = 47.16259 67.38936 57.27597
# Shear Modulus (GPa) = 18.56746 35.67564 27.12155
#
# Velocity S-wave (km/s) = 2.76679 3.83517 3.34392
# Velocity P-wave (km/s) = 5.44530 6.88441 6.20671
#
# Compressibility (1/GPa) = 0.02120325
#
# Stress axis : x y z
#
# Youngs Moduli (GPa) = 137.96210 42.17324 46.89356
#
# Poissons Ratio (x) = 0.09011 0.10246
# Poissons Ratio (y) = 0.29478 0.52611
# Poissons Ratio (z) = 0.30143 0.47315
#
# Static dielectric constant tensor:
#      x y z
#    x 2.012820 0.007210 0.019090 
#    y 0.007210 1.899600 0.043020 
#    z 0.019090 0.043020 1.984850 
# 
# From -- ./inp_files/499678.got.cif
#   From: 2010.05.17/outbox.cif.g08.bks.cpg/sg2_250_cif.got.tgz:499678.got - 2010.06.03 11:33:40.
