data_PCOD9015342
_publ_section_title
;
Structure prediction by ZEFSAII (Michael W. Deem and Ramdas Pophale) SiO2 
 PCOD9015342
Probable space group: P -1
;
_chemical_formula_sum "Si O2"
_cell_formula_units_Z 16
_cell_length_a 7.102006
_cell_length_b 20.011861
_cell_length_c 8.184059
_cell_angle_alpha 61.231473
_cell_angle_beta 124.227966
_cell_angle_gamma 123.755860
_cell_volume 775.113556
_symmetry_space_group_name_H-M "P -1"
_symmetry_group_IT_number 2
_symmetry_cell_setting 'triclinic'
loop_
_space_group_symop_operation_xyz
x,y,z
-x,-y,-z
loop_
_atom_site_type_symbol
_atom_site_label
_atom_site_fract_x
_atom_site_fract_y
_atom_site_fract_z
Si Si1 0.610764 0.462569 0.740484
Si Si2 0.502262 0.103374 0.221009
Si Si3 0.715457 0.278053 0.295784
Si Si4 0.445056 0.081696 0.850405
Si Si5 0.973473 0.601903 0.980479
Si Si6 0.278483 0.320447 0.980022
Si Si7 0.903313 0.191530 0.735122
Si Si8 0.903252 0.055841 0.638659
O O1 0.500000 0.500000 0.500000
O O2 0.741647 0.529654 0.867210
O O3 0.402616 0.384097 0.818371
O O4 0.830309 0.435421 0.817973
O O5 0.574651 0.185598 0.265367
O O6 0.716968 0.068804 0.401269
O O7 0.248383 0.030684 0.241934
O O8 0.489632 0.122945 0.002737
O O9 0.876399 0.266899 0.534869
O O10 0.885705 0.334335 0.169940
O O11 0.508325 0.312833 0.197380
O O12 0.639322 0.138947 0.749163
O O13 0.161736 0.060183 0.690664
O O14 0.500000 0.000000 0.000000
O O15 0.882041 0.646459 0.022723
O O16 0.108855 0.231824 0.924888
O O17 0.957876 0.130032 0.709565
#
# Coordination Sequence:
#
# PCOD9015342 Si02
#       8
#     2   2   2   2   2   2   2   2
#     4  10  22  41  66  93 124 158 191 241 294 358
#     4  10  21  42  61  83 119 163 203 255 311 351
#     4  10  23  40  60  86 123 161 199 252 301 357
#     4  12  24  36  59  87 113 156 206 259 307 359
#     4  10  22  41  62  93 123 155 200 237 299 359
#     4  11  23  39  65  92 123 159 197 247 295 358
#     4  11  24  40  58  90 119 161 209 249 307 357
#     4  10  23  42  59  83 121 160 206 258 305 361
#
# _framework density 20.642139
#
# number of rings (size 3 to 8) (size 9 to 14) (size 15 to 20)
#    0.000    1.500    1.250    3.000    1.750    6.000 
#    0.000    0.000    0.000    0.000    0.000    0.000 
#    0.000    0.000    0.000    0.000    0.000    0.000 
#
# Total GULP energy -89480.932200 kJ/mol
# GULP energy per Si atom -5592.558263 kJ/mol
# Density = 2.059516 g / cm^3
# Si number density = 20.642139 Si / 1000 Ang^3
#
#
#
# Elastic Constant Matrix: (Units=GPa)
#
#
# Indices 1 2 3 4 5 6 
#
# 1 72.9160 14.1271 21.2618 5.1381 23.0295 16.2959
# 2 14.1271 71.8636 -2.8672 6.4694 15.5192 12.1265
# 3 21.2618 -2.8672 70.1200 -5.2782 17.5658 12.3650
# 4 5.1381 6.4694 -5.2782 29.2799 1.7187 -0.7537
# 5 23.0295 15.5192 17.5658 1.7187 21.6396 7.0381
# 6 16.2959 12.1265 12.3650 -0.7537 7.0381 24.5352
#
#
#
# Elastic Compliance Matrix: (Units=1/GPa)
#
#
# Indices 1 2 3 4 5 6 
#
# 1 0.022839 0.002489 0.000444 -0.003397 -0.022875 -0.010166
# 2 0.002489 0.019397 0.006007 -0.002804 -0.018248 -0.009119
# 3 0.000444 0.006007 0.020907 0.003291 -0.019364 -0.008144
# 4 -0.003397 -0.002804 0.003291 0.036108 -0.001014 0.003383
# 5 -0.022875 -0.018248 -0.019364 -0.001014 0.097500 0.005972
# 6 -0.010166 -0.009119 -0.008144 0.003383 0.005972 0.054512
#
#
# Mechanical properties :
#
#
# Convention : Reuss Voigt Hill
#
# Bulk Modulus (GPa) = 12.34214 31.10476 21.72345
# Shear Modulus (GPa) = 19.20185 27.24946 23.22566
#
# Velocity S-wave (km/s) = 3.05327 3.63724 3.35798
# Velocity P-wave (km/s) = 4.29209 5.72195 5.05780
#
# Compressibility (1/GPa) = 0.08102321
#
# Stress axis : x y z
#
# Youngs Moduli (GPa) = 43.78516 51.55318 47.83080
#
# Poissons Ratio (x) = -0.12833 -0.02124
# Poissons Ratio (y) = -0.10899 -0.28730
# Poissons Ratio (z) = -0.01944 -0.30966
#
# Static dielectric constant tensor:
#      x y z
#    x 1.710470 -0.010310 0.014760 
#    y -0.010310 1.724990 0.002800 
#    z 0.014760 0.002800 1.758130 
# 
# From -- ./inp_files/52879.got.cif
#   From: 2010.05.17/outbox.cif.g08.bks.cpg/sg2_27_cif.got.tgz:52879.got - 2010.06.03 11:33:40.
