data_PCOD9015464
_publ_section_title
;
Structure prediction by ZEFSAII (Michael W. Deem and Ramdas Pophale) SiO2 
 PCOD9015464
Probable space group: P -1
;
_chemical_formula_sum "Si O2"
_cell_formula_units_Z 14
_cell_length_a 11.505737
_cell_length_b 12.056513
_cell_length_c 9.281895
_cell_angle_alpha 145.512576
_cell_angle_beta 53.743216
_cell_angle_gamma 130.566237
_cell_volume 549.224003
_symmetry_space_group_name_H-M "P -1"
_symmetry_group_IT_number 2
_symmetry_cell_setting 'triclinic'
loop_
_space_group_symop_operation_xyz
x,y,z
-x,-y,-z
loop_
_atom_site_type_symbol
_atom_site_label
_atom_site_fract_x
_atom_site_fract_y
_atom_site_fract_z
Si Si1 0.186463 0.373015 0.232793
Si Si2 0.368904 0.177342 0.378734
Si Si3 0.308815 0.820596 0.531678
Si Si4 0.825897 0.925563 0.319122
Si Si5 0.516177 0.739938 0.052754
Si Si6 0.673540 0.303974 0.133403
Si Si7 0.117052 0.279874 0.500628
O O1 0.196053 0.610541 0.461597
O O2 0.099498 0.269586 0.330464
O O3 0.357380 0.363365 0.121868
O O4 0.125764 0.234013 0.986257
O O5 0.548734 0.295212 0.339420
O O6 0.269029 0.239525 0.398015
O O7 0.304706 0.200561 0.607660
O O8 0.328595 0.929059 0.127012
O O9 0.237938 0.936729 0.592500
O O10 0.425273 0.745177 0.271334
O O11 0.395727 0.010539 0.778772
O O12 0.969485 0.098860 0.477317
O O13 0.398855 0.649097 0.911795
O O14 0.839434 0.479068 0.227628
#
# Coordination Sequence:
#
# PCOD9015464 Si02
#       7
#     2   2   2   2   2   2   2
#     4  11  25  41  70  94 130 177 222 271 324 385
#     4  11  25  45  68  98 133 171 221 274 322 391
#     4  10  23  40  67  96 134 170 225 268 329 382
#     4  11  26  46  66  97 136 175 221 266 326 397
#     4  10  21  42  63 102 130 170 220 279 320 388
#     4  11  25  41  72  97 134 169 220 273 335 380
#     4  12  27  43  67 100 135 176 216 268 333 394
#
# _framework density 25.49051
#
# number of rings (size 3 to 8) (size 9 to 14) (size 15 to 20)
#    0.000    1.143    2.857    1.714    6.000    2.286 
#    0.000    0.000    0.000    0.000    0.000    0.000 
#    0.000    0.000    0.000    0.000    0.000    0.000 
#
# Total GULP energy -78477.064406 kJ/mol
# GULP energy per Si atom -5605.504600 kJ/mol
# Density = 2.543249 g / cm^3
# Si number density = 25.490510 Si / 1000 Ang^3
#
#
#
# Elastic Constant Matrix: (Units=GPa)
#
#
# Indices 1 2 3 4 5 6 
#
# 1 42.1562 30.8951 17.3606 5.2096 10.6281 -4.4669
# 2 30.8951 121.5581 39.4905 10.1237 11.4636 -17.6656
# 3 17.3606 39.4905 91.1038 15.4449 24.1570 -0.5011
# 4 5.2096 10.1237 15.4449 38.8635 -0.6442 0.3259
# 5 10.6281 11.4636 24.1570 -0.6442 34.8568 12.7493
# 6 -4.4669 -17.6656 -0.5011 0.3259 12.7493 38.6591
#
#
#
# Elastic Compliance Matrix: (Units=1/GPa)
#
#
# Indices 1 2 3 4 5 6 
#
# 1 0.031367 -0.006260 -0.000575 -0.002516 -0.008458 0.003567
# 2 -0.006260 0.011894 -0.003336 -0.001004 -0.001615 0.005210
# 3 -0.000575 -0.003336 0.016474 -0.005804 -0.011105 0.002334
# 4 -0.002516 -0.001004 -0.005804 0.028778 0.006871 -0.003333
# 5 -0.008458 -0.001615 -0.011105 0.006871 0.045855 -0.017040
# 6 0.003567 0.005210 0.002334 -0.003333 -0.017040 0.034338
#
#
# Mechanical properties :
#
#
# Convention : Reuss Voigt Hill
#
# Bulk Modulus (GPa) = 25.38476 47.81227 36.59851
# Shear Modulus (GPa) = 24.73064 33.61401 29.17232
#
# Velocity S-wave (km/s) = 3.11817 3.63531 3.38663
# Velocity P-wave (km/s) = 4.79000 6.03476 5.44804
#
# Compressibility (1/GPa) = 0.03939372
#
# Stress axis : x y z
#
# Youngs Moduli (GPa) = 31.88065 84.07396 60.70343
#
# Poissons Ratio (x) = 0.52630 0.03490
# Poissons Ratio (y) = 0.19957 0.20249
# Poissons Ratio (z) = 0.01833 0.28044
#
# Static dielectric constant tensor:
#      x y z
#    x 2.009000 0.028970 0.030570 
#    y 0.028970 2.012840 0.030970 
#    z 0.030570 0.030970 2.035600 
# 
# From -- ./inp_files/263723.got.cif
#   From: 2010.05.17/outbox.cif.g08.bks.cpg/sg2_132_cif.got.tgz:263723.got - 2010.06.03 11:33:40.
