data_PCOD9015145
_publ_section_title
;
Structure prediction by ZEFSAII (Michael W. Deem and Ramdas Pophale) SiO2 
 PCOD9015145
Probable space group: P -1
;
_chemical_formula_sum "Si O2"
_cell_formula_units_Z 16
_cell_length_a 10.478772
_cell_length_b 10.463578
_cell_length_c 11.576728
_cell_angle_alpha 67.820570
_cell_angle_beta 141.020018
_cell_angle_gamma 98.309913
_cell_volume 714.815489
_symmetry_space_group_name_H-M "P -1"
_symmetry_group_IT_number 2
_symmetry_cell_setting 'triclinic'
loop_
_space_group_symop_operation_xyz
x,y,z
-x,-y,-z
loop_
_atom_site_type_symbol
_atom_site_label
_atom_site_fract_x
_atom_site_fract_y
_atom_site_fract_z
Si Si1 0.638377 0.498253 0.763084
Si Si2 0.305708 0.957446 0.266396
Si Si3 0.733031 0.789499 0.678126
Si Si4 0.833464 0.425972 0.693755
Si Si5 0.036266 0.138283 0.825949
Si Si6 0.669292 0.847873 0.174352
Si Si7 0.942782 0.727096 0.626353
Si Si8 0.593759 0.369627 0.023029
O O1 0.733472 0.634827 0.777101
O O2 0.773949 0.398622 0.793361
O O3 0.393718 0.544948 0.538102
O O4 0.642485 0.433393 0.913244
O O5 0.524912 0.848456 0.434081
O O6 0.193066 0.884404 0.309082
O O7 0.308123 0.104499 0.279783
O O8 0.178096 0.006969 0.043669
O O9 0.913533 0.794631 0.711849
O O10 0.909664 0.568946 0.679724
O O11 0.006002 0.292489 0.811463
O O12 0.135446 0.141487 0.771429
O O13 0.766362 0.801634 0.384380
O O14 0.560958 0.730872 0.080581
O O15 0.500000 0.000000 0.000000
O O16 0.174266 0.717687 0.743607
O O17 0.500000 0.500000 0.000000
#
# Coordination Sequence:
#
# PCOD9015145 Si02
#       8
#     2   2   2   2   2   2   2   2
#     4  10  22  41  70  98 137 174 226 288 348 405
#     4  10  23  40  66  98 138 168 230 294 346 417
#     4  10  22  42  66 103 132 177 228 294 344 411
#     4  10  21  41  71  99 131 181 227 290 347 408
#     4  11  24  41  69  99 133 186 228 284 359 413
#     4  12  29  50  71 100 147 193 235 287 349 429
#     4  11  26  46  72 100 139 187 236 286 355 418
#     4  12  29  46  73 107 144 188 238 289 344 428
#
# _framework density 22.383400000000002
#
# number of rings (size 3 to 8) (size 9 to 14) (size 15 to 20)
#    0.000    1.250    2.500    1.500    8.750    3.500 
#    2.250    0.000    0.000    0.000    0.000    0.000 
#    0.000    0.000    0.000    0.000    0.000    0.000 
#
# Total GULP energy -89402.157838 kJ/mol
# GULP energy per Si atom -5587.634865 kJ/mol
# Density = 2.233245 g / cm^3
# Si number density = 22.383400 Si / 1000 Ang^3
#
#
#
# Elastic Constant Matrix: (Units=GPa)
#
#
# Indices 1 2 3 4 5 6 
#
# 1 114.2904 1.6329 27.5430 -8.6113 -9.0754 -1.5145
# 2 1.6329 36.3832 6.1844 -3.5890 -15.3638 1.9757
# 3 27.5430 6.1844 80.7841 2.7579 1.1822 -3.0699
# 4 -8.6113 -3.5890 2.7579 29.9212 1.5459 9.2161
# 5 -9.0754 -15.3638 1.1822 1.5459 30.1944 -1.3069
# 6 -1.5145 1.9757 -3.0699 9.2161 -1.3069 25.9850
#
#
#
# Elastic Compliance Matrix: (Units=1/GPa)
#
#
# Indices 1 2 3 4 5 6 
#
# 1 0.010262 0.002424 -0.003918 0.003746 0.004229 -0.001165
# 2 0.002424 0.037057 -0.004309 0.005868 0.019266 -0.004298
# 3 -0.003918 -0.004309 0.014334 -0.003677 -0.003617 0.002915
# 4 0.003746 0.005868 -0.003677 0.040011 0.001568 -0.014774
# 5 0.004229 0.019266 -0.003617 0.001568 0.044255 0.000024
# 6 -0.001165 -0.004298 0.002915 -0.014774 0.000024 0.044328
#
#
# Mechanical properties :
#
#
# Convention : Reuss Voigt Hill
#
# Bulk Modulus (GPa) = 19.98163 33.57537 26.77850
# Shear Modulus (GPa) = 22.87952 30.29328 26.58640
#
# Velocity S-wave (km/s) = 3.20060 3.68282 3.45015
# Velocity P-wave (km/s) = 4.75445 5.75473 5.27834
#
# Compressibility (1/GPa) = 0.05004597
#
# Stress axis : x y z
#
# Youngs Moduli (GPa) = 97.44798 26.98554 69.76569
#
# Poissons Ratio (x) = -0.06541 0.27337
# Poissons Ratio (y) = -0.23622 0.30061
# Poissons Ratio (z) = 0.38183 0.11628
#
# Static dielectric constant tensor:
#      x y z
#    x 1.804850 -0.029390 0.036430 
#    y -0.029390 1.902800 0.037900 
#    z 0.036430 0.037900 1.888300 
# 
# From -- ./inp_files/392385.got.cif
#   From: 2010.05.17/outbox.cif.g08.bks.cpg/sg2_197_cif.got.tgz:392385.got - 2010.06.03 11:33:40.
