data_PCOD9015110
_publ_section_title
;
Structure prediction by ZEFSAII (Michael W. Deem and Ramdas Pophale) SiO2 
 PCOD9015110
Probable space group: P -1
;
_chemical_formula_sum "Si O2"
_cell_formula_units_Z 14
_cell_length_a 9.318400
_cell_length_b 6.092334
_cell_length_c 12.356968
_cell_angle_alpha 73.952890
_cell_angle_beta 89.264750
_cell_angle_gamma 74.161986
_cell_volume 647.097595
_symmetry_space_group_name_H-M "P -1"
_symmetry_group_IT_number 2
_symmetry_cell_setting 'triclinic'
loop_
_space_group_symop_operation_xyz
x,y,z
-x,-y,-z
loop_
_atom_site_type_symbol
_atom_site_label
_atom_site_fract_x
_atom_site_fract_y
_atom_site_fract_z
Si Si1 0.867651 0.502244 0.418011
Si Si2 0.085959 0.558423 0.820977
Si Si3 0.110646 0.135414 0.035809
Si Si4 0.375557 0.670792 0.850336
Si Si5 0.426358 0.038641 0.655136
Si Si6 0.583922 0.191171 0.934267
Si Si7 0.627513 0.256008 0.509761
O O1 0.939635 0.467445 0.301929
O O2 0.723479 0.738377 0.379283
O O3 0.786863 0.304945 0.486786
O O4 0.000000 0.500000 0.500000
O O5 0.212458 0.695907 0.803970
O O6 0.957904 0.704431 0.882351
O O7 0.144491 0.305048 0.917194
O O8 0.261144 0.949155 0.099532
O O9 0.000000 0.000000 0.000000
O O10 0.476679 0.415020 0.843550
O O11 0.432788 0.889716 0.783344
O O12 0.367315 0.683021 0.977726
O O13 0.583061 0.096328 0.625010
O O14 0.407381 0.861280 0.584463
O O15 0.500000 0.000000 0.000000
O O16 0.500000 0.500000 0.500000
#
# Coordination Sequence:
#
# PCOD9015110 Si02
#       7
#     2   2   2   2   2   2   2
#     4  11  24  43  70  99 135 178 232 278 334 406
#     4  11  23  41  71  97 135 187 221 271 345 412
#     4  11  23  43  68  98 140 176 222 273 348 403
#     4  11  22  39  70  98 130 178 227 265 346 405
#     4  10  21  41  71  92 127 180 220 280 341 391
#     4  11  23  40  66 102 133 168 223 286 321 407
#     4   9  20  41  67  95 123 168 225 278 329 394
#
# _framework density 21.635066999999999
#
# number of rings (size 3 to 8) (size 9 to 14) (size 15 to 20)
#    0.000    1.429    4.286    0.857    0.000    0.571 
#    0.000   11.429    0.000    0.000    0.000    0.000 
#    0.000    0.000    0.000    0.000    0.000    0.000 
#
# Total GULP energy -78123.375937 kJ/mol
# GULP energy per Si atom -5580.241138 kJ/mol
# Density = 2.158582 g / cm^3
# Si number density = 21.635067 Si / 1000 Ang^3
#
#
#
# Elastic Constant Matrix: (Units=GPa)
#
#
# Indices 1 2 3 4 5 6 
#
# 1 93.1417 27.8269 43.9858 -1.9882 -12.7032 2.9294
# 2 27.8269 74.4136 22.6906 3.0679 -7.8052 -6.3684
# 3 43.9858 22.6906 111.2292 12.1822 -14.5110 -1.4165
# 4 -1.9882 3.0679 12.1822 37.3556 10.2625 -6.5179
# 5 -12.7032 -7.8052 -14.5110 10.2625 27.1736 -2.9802
# 6 2.9294 -6.3684 -1.4165 -6.5179 -2.9802 40.5991
#
#
#
# Elastic Compliance Matrix: (Units=1/GPa)
#
#
# Indices 1 2 3 4 5 6 
#
# 1 0.014615 -0.003929 -0.004906 0.001845 0.002235 -0.001382
# 2 -0.003929 0.015848 -0.001088 -0.001507 0.003001 0.002710
# 3 -0.004906 -0.001088 0.012659 -0.006050 0.006453 0.000127
# 4 0.001845 -0.001507 -0.006050 0.033777 -0.015149 0.003730
# 5 0.002235 0.003001 0.006453 -0.015149 0.048053 0.001630
# 6 -0.001382 0.002710 0.000127 0.003730 0.001630 0.025879
#
#
# Mechanical properties :
#
#
# Convention : Reuss Voigt Hill
#
# Bulk Modulus (GPa) = 42.96423 51.97680 47.47051
# Shear Modulus (GPa) = 28.02131 33.31108 30.66619
#
# Velocity S-wave (km/s) = 3.60277 3.92813 3.76896
# Velocity P-wave (km/s) = 6.09986 6.68207 6.39759
#
# Compressibility (1/GPa) = 0.02327517
#
# Stress axis : x y z
#
# Youngs Moduli (GPa) = 68.42429 63.09829 78.99752
#
# Poissons Ratio (x) = 0.24792 0.38756
# Poissons Ratio (y) = 0.26884 0.08596
# Poissons Ratio (z) = 0.33569 0.06866
#
# Static dielectric constant tensor:
#      x y z
#    x 1.785410 -0.004030 -0.009960 
#    y -0.004030 1.887420 -0.056160 
#    z -0.009960 -0.056160 1.907840 
# 
# From -- ./inp_files/28459.got.cif
#   From: 2010.05.17/outbox.cif.g08.bks.cpg/sg2_15_cif.got.tgz:28459.got - 2010.06.03 11:33:40.
