data_PCOD9015407
_publ_section_title
;
Structure prediction by ZEFSAII (Michael W. Deem and Ramdas Pophale) SiO2 
 PCOD9015407
Probable space group: P -1
;
_chemical_formula_sum "Si O2"
_cell_formula_units_Z 16
_cell_length_a 8.863577
_cell_length_b 17.502040
_cell_length_c 5.257752
_cell_angle_alpha 90.812763
_cell_angle_beta 72.267695
_cell_angle_gamma 72.085638
_cell_volume 733.967481
_symmetry_space_group_name_H-M "P -1"
_symmetry_group_IT_number 2
_symmetry_cell_setting 'triclinic'
loop_
_space_group_symop_operation_xyz
x,y,z
-x,-y,-z
loop_
_atom_site_type_symbol
_atom_site_label
_atom_site_fract_x
_atom_site_fract_y
_atom_site_fract_z
Si Si1 0.659703 0.931957 0.804361
Si Si2 0.337082 0.396341 0.198788
Si Si3 0.470910 0.218463 0.147527
Si Si4 0.336494 0.760756 0.445362
Si Si5 0.821734 0.509287 0.207797
Si Si6 0.115151 0.025146 0.647661
Si Si7 0.031942 0.882924 0.861356
Si Si8 0.379986 0.592288 0.620520
O O1 0.709130 0.968656 0.523617
O O2 0.841013 0.912189 0.852125
O O3 0.609797 0.851874 0.814085
O O4 0.500000 0.000000 0.000000
O O5 0.222683 0.444198 0.496277
O O6 0.527084 0.386256 0.184563
O O7 0.332172 0.306111 0.175053
O O8 0.296946 0.441906 0.956042
O O9 0.605698 0.210770 0.848850
O O10 0.549588 0.222712 0.384131
O O11 0.148999 0.807984 0.643134
O O12 0.364157 0.664820 0.437915
O O13 0.794225 0.422949 0.247626
O O14 0.000000 0.500000 0.000000
O O15 0.134714 0.947934 0.812567
O O16 0.000000 0.000000 0.500000
O O17 0.009633 0.112737 0.818494
O O18 0.500000 0.500000 0.500000
#
# Coordination Sequence:
#
# PCOD9015407 Si02
#       8
#     2   2   2   2   2   2   2   2
#     4  11  25  40  64  93 128 170 215 266 325 382
#     4  10  21  42  62  89 131 170 209 262 319 383
#     4  11  25  43  65  95 128 170 215 272 320 375
#     4  11  25  42  66  96 128 172 217 264 324 384
#     4  11  22  38  66  96 128 165 214 263 323 379
#     4   9  21  41  65  89 126 169 215 262 326 384
#     4  10  23  41  65  91 129 170 213 269 320 390
#     4   9  20  41  66  92 124 171 215 259 313 386
#
# _framework density 21.799330000000001
#
# number of rings (size 3 to 8) (size 9 to 14) (size 15 to 20)
#    0.000    1.750    0.000    3.750   10.500    4.500 
#    2.250    0.000    0.000    0.000    0.000    0.000 
#    0.000    0.000    0.000    0.000    0.000    0.000 
#
# Total GULP energy -89112.633801 kJ/mol
# GULP energy per Si atom -5569.539613 kJ/mol
# Density = 2.174971 g / cm^3
# Si number density = 21.799330 Si / 1000 Ang^3
#
#
#
# Elastic Constant Matrix: (Units=GPa)
#
#
# Indices 1 2 3 4 5 6 
#
# 1 73.6725 45.7146 29.2082 0.2265 -29.1431 21.9795
# 2 45.7146 118.7663 37.0778 6.7882 -19.3373 39.0320
# 3 29.2082 37.0778 127.9519 10.4912 -28.8752 8.5167
# 4 0.2265 6.7882 10.4912 27.7547 1.0071 -7.2939
# 5 -29.1431 -19.3373 -28.8752 1.0071 39.7131 -8.2023
# 6 21.9795 39.0320 8.5167 -7.2939 -8.2023 36.8782
#
#
#
# Elastic Compliance Matrix: (Units=1/GPa)
#
#
# Indices 1 2 3 4 5 6 
#
# 1 0.024005 -0.004697 -0.000530 -0.001018 0.013652 -0.006378
# 2 -0.004697 0.016377 -0.002040 -0.007269 0.000028 -0.015494
# 3 -0.000530 -0.002040 0.010158 -0.003337 0.006267 0.000862
# 4 -0.001018 -0.007269 -0.003337 0.043633 -0.004364 0.016730
# 5 0.013652 0.000028 0.006267 -0.004364 0.039532 -0.001685
# 6 -0.006378 -0.015494 0.000862 0.016730 -0.001685 0.050052
#
#
# Mechanical properties :
#
#
# Convention : Reuss Voigt Hill
#
# Bulk Modulus (GPa) = 27.77309 60.48797 44.13053
# Shear Modulus (GPa) = 23.77665 34.76186 29.26926
#
# Velocity S-wave (km/s) = 3.30617 3.99761 3.66822
# Velocity P-wave (km/s) = 5.22899 7.00826 6.18296
#
# Compressibility (1/GPa) = 0.03600608
#
# Stress axis : x y z
#
# Youngs Moduli (GPa) = 41.65884 61.06194 98.44625
#
# Poissons Ratio (x) = 0.28682 0.05214
# Poissons Ratio (y) = 0.19568 0.20080
# Poissons Ratio (z) = 0.02206 0.12455
#
# Static dielectric constant tensor:
#      x y z
#    x 1.856050 -0.060710 0.015230 
#    y -0.060710 1.926400 -0.045840 
#    z 0.015230 -0.045840 2.001790 
# 
# From -- ./inp_files/48190.got.cif
#   From: 2010.05.17/outbox.cif.g08.bks.cpg/sg2_25_cif.got.tgz:48190.got - 2010.06.03 11:33:40.
