data_PCOD9015975
_publ_section_title
;
Structure prediction by ZEFSAII (Michael W. Deem and Ramdas Pophale) SiO2 
 PCOD9015975
Probable space group: P -1
;
_chemical_formula_sum "Si O2"
_cell_formula_units_Z 14
_cell_length_a 11.783205
_cell_length_b 11.950729
_cell_length_c 16.184876
_cell_angle_alpha 34.322603
_cell_angle_beta 151.640085
_cell_angle_gamma 135.005319
_cell_volume 608.793280
_symmetry_space_group_name_H-M "P -1"
_symmetry_group_IT_number 2
_symmetry_cell_setting 'triclinic'
loop_
_space_group_symop_operation_xyz
x,y,z
-x,-y,-z
loop_
_atom_site_type_symbol
_atom_site_label
_atom_site_fract_x
_atom_site_fract_y
_atom_site_fract_z
Si Si1 0.767410 0.636362 0.796507
Si Si2 0.499979 0.605879 0.348060
Si Si3 0.255112 0.030474 0.683692
Si Si4 0.531576 0.643189 0.808044
Si Si5 0.624449 0.781191 0.962242
Si Si6 0.031604 0.731038 0.366944
Si Si7 0.870283 0.081625 0.156336
O O1 0.544079 0.555422 0.653106
O O2 0.734197 0.616508 0.884886
O O3 0.860127 0.850243 0.703598
O O4 0.000000 0.500000 0.000000
O O5 0.500000 0.500000 0.500000
O O6 0.723315 0.742229 0.412409
O O7 0.280726 0.773109 0.091310
O O8 0.455198 0.952213 0.794087
O O9 0.267087 0.906318 0.852235
O O10 0.000000 0.000000 0.500000
O O11 0.595681 0.764379 0.856197
O O12 0.309700 0.751289 0.549370
O O13 0.460502 0.427341 0.926720
O O14 0.898887 0.794851 0.158316
O O15 0.000000 0.500000 0.500000
O O16 0.889590 0.862211 0.265601
#
# Coordination Sequence:
#
# PCOD9015975 Si02
#       7
#     2   2   2   2   2   2   2
#     4  10  23  44  68  98 142 182 231 297 361 420
#     4  11  24  42  67 106 145 186 234 295 363 428
#     4  12  24  41  76 107 140 187 244 298 364 429
#     4  10  22  41  67  99 142 189 235 291 363 428
#     4  10  21  42  66 102 143 182 238 298 351 438
#     4  10  22  40  68 101 140 186 240 292 360 428
#     4  11  23  44  70 103 145 188 239 300 355 427
#
# _framework density 22.996310999999999
#
# number of rings (size 3 to 8) (size 9 to 14) (size 15 to 20)
#    0.000    1.429    1.429    3.857    4.000    1.714 
#    5.143    0.714    0.000    0.000    0.000    0.000 
#    0.000    0.000    0.000    0.000    0.000    0.000 
#
# Total GULP energy -78190.381682 kJ/mol
# GULP energy per Si atom -5585.027263 kJ/mol
# Density = 2.294397 g / cm^3
# Si number density = 22.996311 Si / 1000 Ang^3
#
#
#
# Elastic Constant Matrix: (Units=GPa)
#
#
# Indices 1 2 3 4 5 6 
#
# 1 139.7868 38.8077 45.0842 14.1649 -22.6760 -26.6205
# 2 38.8077 137.7544 30.5060 27.5223 -18.5240 -20.2895
# 3 45.0842 30.5060 104.4094 22.7110 -11.7705 -12.4494
# 4 14.1649 27.5223 22.7110 43.3054 -4.3960 -0.6374
# 5 -22.6760 -18.5240 -11.7705 -4.3960 29.1688 0.3483
# 6 -26.6205 -20.2895 -12.4494 -0.6374 0.3483 37.2760
#
#
#
# Elastic Compliance Matrix: (Units=1/GPa)
#
#
# Indices 1 2 3 4 5 6 
#
# 1 0.010508 -0.000325 -0.002712 -0.001041 0.006636 0.006342
# 2 -0.000325 0.009915 -0.000440 -0.005385 0.004996 0.004878
# 3 -0.002712 -0.000440 0.012423 -0.005135 0.001829 0.001868
# 4 -0.001041 -0.005385 -0.005135 0.029291 -0.001829 -0.004872
# 5 0.006636 0.004996 0.001829 -0.001829 0.042986 0.007636
# 6 0.006342 0.004878 0.001868 -0.004872 0.007636 0.034481
#
#
# Mechanical properties :
#
#
# Convention : Reuss Voigt Hill
#
# Bulk Modulus (GPa) = 38.62214 67.86072 53.24143
# Shear Modulus (GPa) = 32.21890 39.78689 36.00289
#
# Velocity S-wave (km/s) = 3.74712 4.16401 3.96105
# Velocity P-wave (km/s) = 5.96260 7.25893 6.64246
#
# Compressibility (1/GPa) = 0.02589188
#
# Stress axis : x y z
#
# Youngs Moduli (GPa) = 95.16226 100.86063 80.49469
#
# Poissons Ratio (x) = 0.03282 0.21828
# Poissons Ratio (y) = 0.03097 0.03542
# Poissons Ratio (z) = 0.25805 0.04439
#
# Static dielectric constant tensor:
#      x y z
#    x 1.824710 0.030080 0.012850 
#    y 0.030080 1.988310 0.022880 
#    z 0.012850 0.022880 1.889750 
# 
# From -- ./inp_files/518699.got.cif
#   From: 2010.05.17/outbox.cif.g08.bks.cpg/sg2_260_cif.got.tgz:518699.got - 2010.06.03 11:33:40.
