data_PCOD9015611
_publ_section_title
;
Structure prediction by ZEFSAII (Michael W. Deem and Ramdas Pophale) SiO2 
 PCOD9015611
Probable space group: P -1
;
_chemical_formula_sum "Si O2"
_cell_formula_units_Z 14
_cell_length_a 6.637434
_cell_length_b 14.721707
_cell_length_c 24.217182
_cell_angle_alpha 162.012832
_cell_angle_beta 88.468943
_cell_angle_gamma 81.112438
_cell_volume 593.597858
_symmetry_space_group_name_H-M "P -1"
_symmetry_group_IT_number 2
_symmetry_cell_setting 'triclinic'
loop_
_space_group_symop_operation_xyz
x,y,z
-x,-y,-z
loop_
_atom_site_type_symbol
_atom_site_label
_atom_site_fract_x
_atom_site_fract_y
_atom_site_fract_z
Si Si1 0.532116 0.050901 0.466959
Si Si2 0.958069 0.701381 0.192344
Si Si3 0.419238 0.234745 0.859115
Si Si4 0.035976 0.289981 0.560466
Si Si5 0.262975 0.505414 0.517031
Si Si6 0.575237 0.669644 0.848405
Si Si7 0.831389 0.836968 0.781320
O O1 0.325671 0.062154 0.439358
O O2 0.491253 0.435907 0.685703
O O3 0.500000 0.000000 0.500000
O O4 0.814524 0.742346 0.271851
O O5 0.768256 0.731796 0.166150
O O6 0.968623 0.046166 0.388634
O O7 0.239449 0.368623 0.991073
O O8 0.647651 0.829960 0.636054
O O9 0.500000 0.500000 0.000000
O O10 0.874490 0.420416 0.693967
O O11 0.957642 0.622304 0.713206
O O12 0.500000 0.500000 0.500000
O O13 0.203412 0.404955 0.400742
O O14 0.027651 0.853406 0.751396
O O15 0.500000 0.000000 0.000000
O O16 0.432454 0.816448 0.993116
#
# Coordination Sequence:
#
# PCOD9015611 Si02
#       7
#     2   2   2   2   2   2   2
#     4  11  24  39  62  94 123 157 203 256 307 360
#     4  10  22  39  63  90 123 163 203 242 305 368
#     4  11  23  40  65  92 123 163 203 249 302 359
#     4  10  21  42  64  87 124 163 201 252 306 363
#     4  11  24  39  61  91 124 159 199 250 299 354
#     4   9  22  40  62  89 119 159 204 246 303 366
#     4  10  22  39  61  89 122 158 203 247 299 360
#
# _framework density 23.584992
#
# number of rings (size 3 to 8) (size 9 to 14) (size 15 to 20)
#    0.000    1.714    0.000    3.429    0.000   16.000 
#    0.000    0.000    0.000    1.714    0.000    0.000 
#    0.000    0.000    0.000    0.000    0.000    0.000 
#
# Total GULP energy -78109.297510 kJ/mol
# GULP energy per Si atom -5579.235536 kJ/mol
# Density = 2.353131 g / cm^3
# Si number density = 23.584992 Si / 1000 Ang^3
#
#
#
# Elastic Constant Matrix: (Units=GPa)
#
#
# Indices 1 2 3 4 5 6 
#
# 1 148.9031 32.5987 39.8009 -17.6512 -5.6066 24.2514
# 2 32.5987 50.8824 11.0429 -15.2572 0.3192 7.5475
# 3 39.8009 11.0429 98.9651 -29.3358 -23.8731 25.1083
# 4 -17.6512 -15.2572 -29.3358 46.6501 23.2007 -13.3350
# 5 -5.6066 0.3192 -23.8731 23.2007 48.7413 -14.4627
# 6 24.2514 7.5475 25.1083 -13.3350 -14.4627 35.9713
#
#
#
# Elastic Compliance Matrix: (Units=1/GPa)
#
#
# Indices 1 2 3 4 5 6 
#
# 1 0.008961 -0.004683 -0.002436 -0.000194 -0.001200 -0.003913
# 2 -0.004683 0.025475 0.000925 0.009259 -0.005089 -0.001448
# 3 -0.002436 0.000925 0.014741 0.005784 0.002491 -0.005696
# 4 -0.000194 0.009259 0.005784 0.035254 -0.013499 0.001793
# 5 -0.001200 -0.005089 0.002491 -0.013499 0.030218 0.007284
# 6 -0.003913 -0.001448 -0.005696 0.001793 0.007284 0.038311
#
#
# Mechanical properties :
#
#
# Convention : Reuss Voigt Hill
#
# Bulk Modulus (GPa) = 27.18067 51.73727 39.45897
# Shear Modulus (GPa) = 28.15119 40.62642 34.38880
#
# Velocity S-wave (km/s) = 3.45861 4.15487 3.82262
# Velocity P-wave (km/s) = 5.24394 6.70831 6.02081
#
# Compressibility (1/GPa) = 0.03679085
#
# Stress axis : x y z
#
# Youngs Moduli (GPa) = 111.59314 39.25341 67.83621
#
# Poissons Ratio (x) = 0.18381 0.16522
# Poissons Ratio (y) = 0.52256 -0.06273
# Poissons Ratio (z) = 0.27180 -0.03630
#
# Static dielectric constant tensor:
#      x y z
#    x 1.862310 0.037850 -0.031520 
#    y 0.037850 1.865970 -0.064490 
#    z -0.031520 -0.064490 1.988090 
# 
# From -- ./inp_files/77055.got.cif
#   From: 2010.05.17/outbox.cif.g08.bks.cpg/sg2_39_cif.got.tgz:77055.got - 2010.06.03 11:33:40.
