data_PCOD9015827
_publ_section_title
;
Structure prediction by ZEFSAII (Michael W. Deem and Ramdas Pophale) SiO2 
 PCOD9015827
Probable space group: P -1
;
_chemical_formula_sum "Si O2"
_cell_formula_units_Z 16
_cell_length_a 15.643198
_cell_length_b 5.470055
_cell_length_c 11.981176
_cell_angle_alpha 91.942208
_cell_angle_beta 71.967649
_cell_angle_gamma 62.997325
_cell_volume 849.977653
_symmetry_space_group_name_H-M "P -1"
_symmetry_group_IT_number 2
_symmetry_cell_setting 'triclinic'
loop_
_space_group_symop_operation_xyz
x,y,z
-x,-y,-z
loop_
_atom_site_type_symbol
_atom_site_label
_atom_site_fract_x
_atom_site_fract_y
_atom_site_fract_z
Si Si1 0.204265 0.103565 0.497931
Si Si2 0.542674 0.696131 0.633481
Si Si3 0.873242 0.192983 0.648773
Si Si4 0.689405 0.736583 0.732517
Si Si5 0.516154 0.224880 0.924664
Si Si6 0.067508 0.674732 0.601802
Si Si7 0.424097 0.352474 0.724126
Si Si8 0.724548 0.363038 0.385504
O O1 0.266825 0.213507 0.400737
O O2 0.096776 0.352378 0.591806
O O3 0.183688 0.922773 0.412000
O O4 0.265917 0.925470 0.576518
O O5 0.603994 0.655884 0.724909
O O6 0.487532 0.506434 0.657164
O O7 0.627378 0.586979 0.500225
O O8 0.469646 0.030727 0.660460
O O9 0.785611 0.472650 0.746173
O O10 0.927818 0.287051 0.533713
O O11 0.958249 0.935503 0.681574
O O12 0.631493 0.026595 0.826214
O O13 0.440414 0.327475 0.849990
O O14 0.500000 0.500000 0.000000
O O15 0.500000 0.000000 0.000000
O O16 0.165232 0.669765 0.624053
O O17 0.309912 0.545195 0.724863
#
# Coordination Sequence:
#
# PCOD9015827 Si02
#       8
#     2   2   2   2   2   2   2   2
#     4  10  17  30  50  76 117 146 180 207 261 312
#     4  11  20  35  51  81 112 147 179 209 252 330
#     4   9  17  30  49  74 111 145 184 211 260 313
#     4  10  20  33  56  76 108 144 179 224 270 320
#     4  11  24  41  58  79 105 133 185 239 279 314
#     4   9  18  29  46  77 111 150 177 215 250 313
#     4  11  25  35  56  77 107 146 183 217 273 320
#     4  11  20  31  49  76 115 146 178 209 256 325
#
# _framework density 18.824024999999999
#
# number of rings (size 3 to 8) (size 9 to 14) (size 15 to 20)
#    0.000    1.750    3.750    4.125    3.500    1.000 
#    0.000    0.000    0.000    0.000    0.000    1.750 
#    0.000    0.000    0.000    0.000    0.000    0.000 
#
# Total GULP energy -89085.662227 kJ/mol
# GULP energy per Si atom -5567.853889 kJ/mol
# Density = 1.878118 g / cm^3
# Si number density = 18.824025 Si / 1000 Ang^3
#
#
#
# Elastic Constant Matrix: (Units=GPa)
#
#
# Indices 1 2 3 4 5 6 
#
# 1 64.3441 44.1926 16.6367 -6.9118 8.8128 -10.7675
# 2 44.1926 170.3358 49.5082 7.0740 11.5547 -24.1757
# 3 16.6367 49.5082 51.6949 -2.5057 13.3488 -14.3332
# 4 -6.9118 7.0740 -2.5057 30.1641 -2.0015 -0.8789
# 5 8.8128 11.5547 13.3488 -2.0015 14.2814 -4.3675
# 6 -10.7675 -24.1757 -14.3332 -0.8789 -4.3675 38.6066
#
#
#
# Elastic Compliance Matrix: (Units=1/GPa)
#
#
# Indices 1 2 3 4 5 6 
#
# 1 0.020866 -0.005121 0.001265 0.005593 -0.008442 0.002255
# 2 -0.005121 0.009806 -0.008141 -0.003902 0.002878 0.001926
# 3 0.001265 -0.008141 0.034751 0.003620 -0.024496 0.005468
# 4 0.005593 -0.003902 0.003620 0.035811 0.001793 0.001478
# 5 -0.008442 0.002878 -0.024496 0.001793 0.096449 0.001305
# 6 0.002255 0.001926 0.005468 0.001478 0.001305 0.029949
#
#
# Mechanical properties :
#
#
# Convention : Reuss Voigt Hill
#
# Bulk Modulus (GPa) = 24.13776 56.33887 40.23832
# Shear Modulus (GPa) = 18.83704 28.34624 23.59164
#
# Velocity S-wave (km/s) = 3.16680 3.88474 3.54400
# Velocity P-wave (km/s) = 5.12076 7.07926 6.17811
#
# Compressibility (1/GPa) = 0.04142886
#
# Stress axis : x y z
#
# Youngs Moduli (GPa) = 47.92559 101.98031 28.77631
#
# Poissons Ratio (x) = 0.52222 -0.03641
# Poissons Ratio (y) = 0.24542 0.23428
# Poissons Ratio (z) = -0.06064 0.83025
#
# Static dielectric constant tensor:
#      x y z
#    x 1.754420 0.019510 -0.012160 
#    y 0.019510 1.777490 0.016530 
#    z -0.012160 0.016530 1.669220 
# 
# From -- ./inp_files/100213.got.cif
#   From: 2010.05.17/outbox.cif.g08.bks.cpg/sg2_51_cif.got.tgz:100213.got - 2010.06.03 11:33:40.
