data_PCOD9015947
_publ_section_title
;
Structure prediction by ZEFSAII (Michael W. Deem and Ramdas Pophale) SiO2 
 PCOD9015947
Probable space group: P -1
;
_chemical_formula_sum "Si O2"
_cell_formula_units_Z 16
_cell_length_a 8.636530
_cell_length_b 5.367730
_cell_length_c 17.714750
_cell_angle_alpha 112.948162
_cell_angle_beta 124.354016
_cell_angle_gamma 74.723008
_cell_volume 623.302439
_symmetry_space_group_name_H-M "P -1"
_symmetry_group_IT_number 2
_symmetry_cell_setting 'triclinic'
loop_
_space_group_symop_operation_xyz
x,y,z
-x,-y,-z
loop_
_atom_site_type_symbol
_atom_site_label
_atom_site_fract_x
_atom_site_fract_y
_atom_site_fract_z
Si Si1 0.775955 0.053522 0.297570
Si Si2 0.719992 0.163906 0.723164
Si Si3 0.608498 0.707829 0.004130
Si Si4 0.197838 0.249448 0.422232
Si Si5 0.084243 0.082865 0.112837
Si Si6 0.213870 0.887944 0.525742
Si Si7 0.562033 0.610956 0.812264
Si Si8 0.083582 0.403838 0.809144
O O1 0.697997 0.096509 0.365214
O O2 0.622413 0.193071 0.217507
O O3 0.974077 0.192693 0.355044
O O4 0.809586 0.736132 0.248601
O O5 0.543314 0.354647 0.721957
O O6 0.870667 0.315101 0.731922
O O7 0.705338 0.884869 0.641620
O O8 0.829813 0.128616 0.828505
O O9 0.806443 0.722582 0.102819
O O10 0.500000 0.500000 0.000000
O O11 0.619819 0.568233 0.909377
O O12 0.500000 0.000000 0.000000
O O13 0.219493 0.569942 0.469010
O O14 0.274215 0.078486 0.496324
O O15 0.264646 0.243180 0.158664
O O16 0.936114 0.279948 0.141481
O O17 0.000000 0.000000 0.000000
O O18 0.000000 0.000000 0.500000
#
# Coordination Sequence:
#
# PCOD9015947 Si02
#       8
#     2   2   2   2   2   2   2   2
#     4  10  21  42  66 100 134 170 221 286 341 397
#     4  10  24  42  67  96 130 183 226 279 324 410
#     4  12  27  44  64 100 140 172 220 280 341 395
#     4  10  23  43  71  99 133 174 229 273 340 405
#     4  11  24  42  70  92 134 183 235 272 331 401
#     4  10  21  42  68 103 131 175 220 282 337 408
#     4  11  25  45  62 101 136 177 226 279 342 396
#     4  10  23  41  66  95 129 180 225 278 328 402
#
# _framework density 25.669720000000002
#
# number of rings (size 3 to 8) (size 9 to 14) (size 15 to 20)
#    0.000    1.500    1.250    3.000   12.250    2.000 
#    9.000    1.250    0.000    0.000    0.000    0.000 
#    0.000    0.000    0.000    0.000    0.000    0.000 
#
# Total GULP energy -89540.781237 kJ/mol
# GULP energy per Si atom -5596.298827 kJ/mol
# Density = 2.561129 g / cm^3
# Si number density = 25.669720 Si / 1000 Ang^3
#
#
#
# Elastic Constant Matrix: (Units=GPa)
#
#
# Indices 1 2 3 4 5 6 
#
# 1 80.4441 33.3682 24.5663 16.6427 -18.4782 -1.2121
# 2 33.3682 131.7517 32.2808 26.0492 -17.6212 -11.9689
# 3 24.5663 32.2808 120.6578 17.9613 -29.2280 -11.1569
# 4 16.6427 26.0492 17.9613 51.9221 -9.0158 -12.1394
# 5 -18.4782 -17.6212 -29.2280 -9.0158 46.2782 10.3307
# 6 -1.2121 -11.9689 -11.1569 -12.1394 10.3307 39.6975
#
#
#
# Elastic Compliance Matrix: (Units=1/GPa)
#
#
# Indices 1 2 3 4 5 6 
#
# 1 0.015524 -0.002691 -0.001155 -0.003100 0.004459 -0.002770
# 2 -0.002691 0.009386 -0.001187 -0.002985 0.000884 0.001271
# 3 -0.001155 -0.001187 0.010396 -0.001565 0.005191 0.000699
# 4 -0.003100 -0.002985 -0.001565 0.023641 -0.000054 0.005809
# 5 0.004459 0.000884 0.005191 -0.000054 0.028221 -0.005499
# 6 -0.002770 0.001271 0.000699 0.005809 -0.005499 0.028893
#
#
# Mechanical properties :
#
#
# Convention : Reuss Voigt Hill
#
# Bulk Modulus (GPa) = 39.62147 57.03158 48.32652
# Shear Modulus (GPa) = 37.16323 43.75545 40.45934
#
# Velocity S-wave (km/s) = 3.80905 4.13310 3.97438
# Velocity P-wave (km/s) = 5.90032 6.71137 6.31887
#
# Compressibility (1/GPa) = 0.02523884
#
# Stress axis : x y z
#
# Youngs Moduli (GPa) = 64.41738 106.53673 96.19085
#
# Poissons Ratio (x) = 0.28670 0.11114
# Poissons Ratio (y) = 0.17335 0.11420
# Poissons Ratio (z) = 0.07443 0.12648
#
# Static dielectric constant tensor:
#      x y z
#    x 2.093990 0.036320 0.013710 
#    y 0.036320 2.074060 -0.018200 
#    z 0.013710 -0.018200 2.204200 
# 
# From -- ./inp_files/553875.got.cif
#   From: 2010.05.17/outbox.cif.g08.bks.cpg/sg2_277_cif.got.tgz:553875.got - 2010.06.03 11:33:40.
