data_PCOD9015708
_publ_section_title
;
Structure prediction by ZEFSAII (Michael W. Deem and Ramdas Pophale) SiO2 
 PCOD9015708
Probable space group: P -1
;
_chemical_formula_sum "Si O2"
_cell_formula_units_Z 16
_cell_length_a 11.008273
_cell_length_b 9.186368
_cell_length_c 20.193594
_cell_angle_alpha 30.116143
_cell_angle_beta 50.327297
_cell_angle_gamma 49.091666
_cell_volume 760.307715
_symmetry_space_group_name_H-M "P -1"
_symmetry_group_IT_number 2
_symmetry_cell_setting 'triclinic'
loop_
_space_group_symop_operation_xyz
x,y,z
-x,-y,-z
loop_
_atom_site_type_symbol
_atom_site_label
_atom_site_fract_x
_atom_site_fract_y
_atom_site_fract_z
Si Si1 0.611587 0.714034 0.851637
Si Si2 0.335574 0.173683 0.529235
Si Si3 0.194385 0.110058 0.074462
Si Si4 0.110772 0.725242 0.788218
Si Si5 0.401985 0.248385 0.629705
Si Si6 0.386006 0.773065 0.247545
Si Si7 0.264104 0.366218 0.764534
Si Si8 0.148447 0.852065 0.055616
O O1 0.773207 0.493645 0.850677
O O2 0.510306 0.937428 0.744054
O O3 0.653525 0.936312 0.804808
O O4 0.500000 0.500000 0.000000
O O5 0.362469 0.196437 0.589287
O O6 0.285646 0.521549 0.386056
O O7 0.500000 0.000000 0.500000
O O8 0.201576 0.985285 0.646019
O O9 0.061493 0.170825 0.155862
O O10 0.358710 0.905576 0.130897
O O11 0.125194 0.942540 0.104970
O O12 0.205463 0.431583 0.914944
O O13 0.114985 0.585255 0.768508
O O14 0.500000 0.500000 0.500000
O O15 0.258063 0.362738 0.689053
O O16 0.566093 0.587503 0.284272
O O17 0.278074 0.032324 0.916905
O O18 0.000000 0.000000 0.000000
#
# Coordination Sequence:
#
# PCOD9015708 Si02
#       8
#     2   2   2   2   2   2   2   2
#     4  11  23  40  66  97 129 172 218 280 322 387
#     4  12  24  40  67  95 133 179 214 271 322 400
#     4  10  26  42  66  99 130 172 216 277 328 390
#     4  10  23  43  65  93 127 175 214 264 337 385
#     4  11  21  40  64  96 130 163 218 265 331 381
#     4  11  23  43  62 102 129 163 226 267 332 383
#     4  10  21  42  64  96 125 167 213 279 313 393
#     4  11  25  42  65  98 134 170 224 268 337 389
#
# _framework density 21.044111000000001
#
# number of rings (size 3 to 8) (size 9 to 14) (size 15 to 20)
#    0.000    1.250    6.250    0.000   10.500    2.500 
#    0.000    0.000    0.000    2.250    0.000    0.000 
#    0.000    0.000    0.000    0.000    0.000    0.000 
#
# Total GULP energy -89188.365576 kJ/mol
# GULP energy per Si atom -5574.272849 kJ/mol
# Density = 2.099621 g / cm^3
# Si number density = 21.044111 Si / 1000 Ang^3
#
#
#
# Elastic Constant Matrix: (Units=GPa)
#
#
# Indices 1 2 3 4 5 6 
#
# 1 53.2192 22.4464 12.7076 -4.2425 15.3736 18.7679
# 2 22.4464 152.7243 33.1614 5.4986 1.0729 27.3325
# 3 12.7076 33.1614 124.1400 -15.4043 -3.5758 2.7426
# 4 -4.2425 5.4986 -15.4043 42.8395 8.1338 1.0810
# 5 15.3736 1.0729 -3.5758 8.1338 36.0010 2.7734
# 6 18.7679 27.3325 2.7426 1.0810 2.7734 26.0035
#
#
#
# Elastic Compliance Matrix: (Units=1/GPa)
#
#
# Indices 1 2 3 4 5 6 
#
# 1 0.030929 -0.000496 -0.002303 0.005290 -0.013046 -0.020388
# 2 -0.000496 0.008719 -0.002306 -0.001937 0.000821 -0.008571
# 3 -0.002303 -0.002306 0.009262 0.003128 0.001044 0.002867
# 4 0.005290 -0.001937 0.003128 0.026773 -0.007755 -0.002398
# 5 -0.013046 0.000821 0.001044 -0.007755 0.034790 0.005055
# 6 -0.020388 -0.008571 0.002867 -0.002398 0.005055 0.061438
#
#
# Mechanical properties :
#
#
# Convention : Reuss Voigt Hill
#
# Bulk Modulus (GPa) = 25.83848 51.85714 38.84781
# Shear Modulus (GPa) = 25.63835 38.42000 32.02917
#
# Velocity S-wave (km/s) = 3.49422 4.27744 3.90552
# Velocity P-wave (km/s) = 5.34643 7.00650 6.23199
#
# Compressibility (1/GPa) = 0.03870197
#
# Stress axis : x y z
#
# Youngs Moduli (GPa) = 32.33168 114.69079 107.96934
#
# Poissons Ratio (x) = 0.05688 0.24860
# Poissons Ratio (y) = 0.01604 0.24895
# Poissons Ratio (z) = 0.07444 0.26444
#
# Static dielectric constant tensor:
#      x y z
#    x 1.811730 -0.014130 -0.034490 
#    y -0.014130 1.831430 0.011650 
#    z -0.034490 0.011650 1.802150 
# 
# From -- ./inp_files/593344.got.cif
#   From: 2010.05.17/outbox.cif.g08.bks.cpg/sg2_297_cif.got.tgz:593344.got - 2010.06.03 11:33:40.
