data_PCOD9015571
_publ_section_title
;
Structure prediction by ZEFSAII (Michael W. Deem and Ramdas Pophale) SiO2 
 PCOD9015571
Probable space group: P -1
;
_chemical_formula_sum "Si O2"
_cell_formula_units_Z 15
_cell_length_a 6.865998
_cell_length_b 21.090129
_cell_length_c 4.998314
_cell_angle_alpha 87.273912
_cell_angle_beta 75.948053
_cell_angle_gamma 121.143612
_cell_volume 587.716415
_symmetry_space_group_name_H-M "P -1"
_symmetry_group_IT_number 2
_symmetry_cell_setting 'triclinic'
loop_
_space_group_symop_operation_xyz
x,y,z
-x,-y,-z
loop_
_atom_site_type_symbol
_atom_site_label
_atom_site_fract_x
_atom_site_fract_y
_atom_site_fract_z
Si Si1 0.176959 0.394832 0.165798
Si Si2 0.285889 0.677902 0.013672
Si Si3 0.262440 0.878756 0.551082
Si Si4 0.452679 0.839358 0.016764
Si Si5 0.493498 0.613811 0.319200
Si Si6 0.993785 0.952646 0.761830
Si Si7 0.780830 0.734688 0.567997
Si Si8 0.500000 0.500000 0.500000
O O1 0.167431 0.320120 0.273639
O O2 0.252483 0.446352 0.389518
O O3 0.379158 0.427942 0.849177
O O4 0.933120 0.367739 0.103306
O O5 0.301456 0.748820 0.143895
O O6 0.310634 0.622986 0.214945
O O7 0.531089 0.720065 0.753570
O O8 0.434818 0.887738 0.250805
O O9 0.211678 0.940701 0.660961
O O10 0.006616 0.817150 0.514072
O O11 0.340513 0.850036 0.783850
O O12 0.734064 0.873975 0.879462
O O13 0.710462 0.698124 0.304794
O O14 0.405167 0.558222 0.610174
O O15 0.000000 0.000000 0.500000
O O16 0.000000 0.000000 0.000000
#
# Coordination Sequence:
#
# PCOD9015571 Si02
#       8
#     2   2   2   2   2   2   2   1
#     4  10  21  42  63  96 131 181 238 299 369 439
#     4  11  23  40  68 101 134 181 252 311 367 433
#     4  12  26  46  75 108 150 197 248 314 370 443
#     4  12  27  45  77 110 146 200 254 306 384 435
#     4  10  23  39  65  94 138 184 238 307 361 447
#     4  12  28  50  75 110 156 198 244 305 369 457
#     4  10  22  40  65  98 137 180 239 311 368 419
#     4  10  22  42  64  92 142 190 232 298 384 442
#
# _framework density 25.522514999999999
#
# number of rings (size 3 to 8) (size 9 to 14) (size 15 to 20)
#    0.000    1.067    2.667    2.800    3.733    6.933 
#    0.000    6.667    0.000    0.000    0.000    0.000 
#    0.000    0.000    0.000    0.000    0.000    0.000 
#
# Total GULP energy -83780.331515 kJ/mol
# GULP energy per Si atom -5585.355434 kJ/mol
# Density = 2.546442 g / cm^3
# Si number density = 25.522515 Si / 1000 Ang^3
#
#
#
# Elastic Constant Matrix: (Units=GPa)
#
#
# Indices 1 2 3 4 5 6 
#
# 1 165.3965 42.5625 43.6527 12.9646 17.5074 10.9326
# 2 42.5625 107.5390 23.5540 30.7404 8.2691 9.8587
# 3 43.6527 23.5540 107.2906 24.8014 4.9056 2.1436
# 4 12.9646 30.7404 24.8014 33.3821 8.6673 -2.7574
# 5 17.5074 8.2691 4.9056 8.6673 51.9910 1.5410
# 6 10.9326 9.8587 2.1436 -2.7574 1.5410 27.3942
#
#
#
# Elastic Compliance Matrix: (Units=1/GPa)
#
#
# Indices 1 2 3 4 5 6 
#
# 1 0.007668 -0.002690 -0.002879 0.002078 -0.002184 -0.001535
# 2 -0.002690 0.014541 0.001199 -0.013962 0.000977 -0.005714
# 3 -0.002879 0.001199 0.012429 -0.009653 0.001254 -0.001297
# 4 0.002078 -0.013962 -0.009653 0.051736 -0.006505 0.010524
# 5 -0.002184 0.000977 0.001254 -0.006505 0.020822 -0.001404
# 6 -0.001535 -0.005714 -0.001297 0.010524 -0.001404 0.040413
#
#
# Mechanical properties :
#
#
# Convention : Reuss Voigt Hill
#
# Bulk Modulus (GPa) = 38.61379 66.64052 52.62716
# Shear Modulus (GPa) = 30.30689 40.58390 35.44540
#
# Velocity S-wave (km/s) = 3.44969 3.99196 3.73069
# Velocity P-wave (km/s) = 5.57039 6.88584 6.26275
#
# Compressibility (1/GPa) = 0.02589748
#
# Stress axis : x y z
#
# Youngs Moduli (GPa) = 130.41555 68.77316 80.45988
#
# Poissons Ratio (x) = 0.18497 0.23166
# Poissons Ratio (y) = 0.35077 -0.09648
# Poissons Ratio (z) = 0.37549 -0.08246
#
# Static dielectric constant tensor:
#      x y z
#    x 1.994660 -0.030920 -0.046490 
#    y -0.030920 2.136760 -0.101830 
#    z -0.046490 -0.101830 2.332830 
# 
# From -- ./inp_files/11062.got.cif
#   From: 2010.05.17/outbox.cif.g08.bks.cpg/sg2_6_cif.got.tgz:11062.got - 2010.06.03 11:33:40.
