data_PCOD9015206
_publ_section_title
;
Structure prediction by ZEFSAII (Michael W. Deem and Ramdas Pophale) SiO2 
 PCOD9015206
Probable space group: P -1
;
_chemical_formula_sum "Si O2"
_cell_formula_units_Z 16
_cell_length_a 8.736863
_cell_length_b 8.713921
_cell_length_c 12.442109
_cell_angle_alpha 105.978371
_cell_angle_beta 62.003662
_cell_angle_gamma 117.959551
_cell_volume 736.920314
_symmetry_space_group_name_H-M "P -1"
_symmetry_group_IT_number 2
_symmetry_cell_setting 'triclinic'
loop_
_space_group_symop_operation_xyz
x,y,z
-x,-y,-z
loop_
_atom_site_type_symbol
_atom_site_label
_atom_site_fract_x
_atom_site_fract_y
_atom_site_fract_z
Si Si1 0.609368 0.572983 0.711939
Si Si2 0.024017 0.831988 0.002067
Si Si3 0.216120 0.664917 0.292037
Si Si4 0.651923 0.259693 0.199055
Si Si5 0.103325 0.209939 0.524058
Si Si6 0.233846 0.225181 0.725945
Si Si7 0.456821 0.012085 0.641685
Si Si8 0.958046 0.497513 0.885772
O O1 0.745393 0.505156 0.721143
O O2 0.496248 0.690930 0.810669
O O3 0.735047 0.686275 0.594578
O O4 0.430644 0.392225 0.709697
O O5 0.905614 0.666531 0.933383
O O6 0.237747 0.841032 0.920733
O O7 0.934736 0.785790 0.141127
O O8 0.000000 0.000000 0.000000
O O9 0.388572 0.831356 0.312715
O O10 0.181033 0.650778 0.172207
O O11 0.039613 0.691975 0.408340
O O12 0.827896 0.433118 0.215461
O O13 0.565568 0.155539 0.315096
O O14 0.183706 0.222144 0.618831
O O15 0.000000 0.000000 0.500000
O O16 0.271786 0.054308 0.710490
O O17 0.500000 0.000000 0.500000
O O18 0.000000 0.500000 0.000000
#
# Coordination Sequence:
#
# PCOD9015206 Si02
#       8
#     2   2   2   2   2   2   2   2
#     4  11  24  41  64 101 134 175 221 282 342 408
#     4  10  21  41  72  97 126 178 241 278 342 403
#     4  11  25  43  67 101 140 176 232 280 349 404
#     4  10  22  42  71  94 135 181 231 274 349 404
#     4  12  25  42  68  97 139 178 227 284 344 410
#     4  11  22  42  70  95 131 181 229 281 342 406
#     4  11  23  43  68 104 141 178 225 286 345 412
#     4  10  22  43  72  94 132 178 230 282 337 404
#
# _framework density 21.711981999999999
#
# number of rings (size 3 to 8) (size 9 to 14) (size 15 to 20)
#    0.750    0.500    1.250    5.250    0.000    6.000 
#    0.000    7.500    5.500    0.000    0.000    0.000 
#    0.000    0.000    0.000    0.000    0.000    0.000 
#
# Total GULP energy -89084.145927 kJ/mol
# GULP energy per Si atom -5567.759120 kJ/mol
# Density = 2.166256 g / cm^3
# Si number density = 21.711982 Si / 1000 Ang^3
#
#
#
# Elastic Constant Matrix: (Units=GPa)
#
#
# Indices 1 2 3 4 5 6 
#
# 1 130.2237 40.9546 54.2888 10.0496 -6.3361 -31.3198
# 2 40.9546 89.1191 50.7546 -2.6249 14.6654 -15.4805
# 3 54.2888 50.7546 113.6062 1.3917 7.7144 5.0300
# 4 10.0496 -2.6249 1.3917 38.9553 -8.7976 -0.8928
# 5 -6.3361 14.6654 7.7144 -8.7976 31.3884 12.2249
# 6 -31.3198 -15.4805 5.0300 -0.8928 12.2249 32.0767
#
#
#
# Elastic Compliance Matrix: (Units=1/GPa)
#
#
# Indices 1 2 3 4 5 6 
#
# 1 0.015250 0.001475 -0.008451 -0.003962 -0.003750 0.018246
# 2 0.001475 0.022646 -0.010608 -0.001616 -0.015943 0.020063
# 3 -0.008451 -0.010608 0.017932 0.001897 0.006643 -0.018662
# 4 -0.003962 -0.001616 0.001897 0.028757 0.010761 -0.008247
# 5 -0.003750 -0.015943 0.006643 0.010761 0.052428 -0.032079
# 6 0.018246 0.020063 -0.018662 -0.008247 -0.032079 0.073597
#
#
# Mechanical properties :
#
#
# Convention : Reuss Voigt Hill
#
# Bulk Modulus (GPa) = 48.40415 69.43835 58.92125
# Shear Modulus (GPa) = 19.78915 32.94746 26.36830
#
# Velocity S-wave (km/s) = 3.02228 3.89971 3.48869
# Velocity P-wave (km/s) = 5.87546 7.23381 6.58973
#
# Compressibility (1/GPa) = 0.02065939
#
# Stress axis : x y z
#
# Youngs Moduli (GPa) = 65.57369 44.15873 55.76660
#
# Poissons Ratio (x) = -0.06513 0.47129
# Poissons Ratio (y) = -0.09671 0.59156
# Poissons Ratio (z) = 0.55417 0.46843
#
# Static dielectric constant tensor:
#      x y z
#    x 1.883610 -0.065770 -0.029940 
#    y -0.065770 1.924970 -0.016960 
#    z -0.029940 -0.016960 1.822780 
# 
# From -- ./inp_files/382536.got.cif
#   From: 2010.05.17/outbox.cif.g08.bks.cpg/sg2_192_cif.got.tgz:382536.got - 2010.06.03 11:33:40.
