data_PCOD9015439
_publ_section_title
;
Structure prediction by ZEFSAII (Michael W. Deem and Ramdas Pophale) SiO2 
 PCOD9015439
Probable space group: P -1
;
_chemical_formula_sum "Si O2"
_cell_formula_units_Z 14
_cell_length_a 5.453288
_cell_length_b 12.321569
_cell_length_c 12.157199
_cell_angle_alpha 60.293856
_cell_angle_beta 119.690061
_cell_angle_gamma 96.787736
_cell_volume 607.546122
_symmetry_space_group_name_H-M "P -1"
_symmetry_group_IT_number 2
_symmetry_cell_setting 'triclinic'
loop_
_space_group_symop_operation_xyz
x,y,z
-x,-y,-z
loop_
_atom_site_type_symbol
_atom_site_label
_atom_site_fract_x
_atom_site_fract_y
_atom_site_fract_z
Si Si1 0.410858 0.207976 0.696805
Si Si2 0.410123 0.911495 0.840067
Si Si3 0.931434 0.126791 0.992976
Si Si4 0.783897 0.318850 0.168393
Si Si5 0.954785 0.599135 0.337357
Si Si6 0.296150 0.397890 0.380209
Si Si7 0.459623 0.513338 0.143033
O O1 0.147377 0.269332 0.687065
O O2 0.413388 0.288681 0.546186
O O3 0.394088 0.061366 0.741610
O O4 0.703711 0.216661 0.822771
O O5 0.255147 0.899451 0.929223
O O6 0.238438 0.827573 0.767436
O O7 0.745800 0.846673 0.933979
O O8 0.000000 0.000000 0.000000
O O9 0.503657 0.403555 0.115830
O O10 0.023000 0.352729 0.285422
O O11 0.791760 0.380461 0.016614
O O12 0.706040 0.591819 0.195065
O O13 0.000000 0.500000 0.500000
O O14 0.221832 0.531532 0.359311
O O15 0.463673 0.430601 0.295454
#
# Coordination Sequence:
#
# PCOD9015439 Si02
#       7
#     2   2   2   2   2   2   2
#     4  10  21  42  65 100 135 172 216 283 336 404
#     4  11  24  45  69 104 132 180 221 277 337 405
#     4  10  22  44  66  99 136 174 223 267 337 405
#     4  10  23  42  64  91 132 172 231 274 330 397
#     4   9  20  40  59  97 131 167 213 273 335 397
#     4  10  22  42  66  95 131 176 226 273 336 396
#     4  10  21  42  62  93 123 181 222 282 325 394
#
# _framework density 23.043520999999998
#
# number of rings (size 3 to 8) (size 9 to 14) (size 15 to 20)
#    0.000    2.000    0.000    3.000    2.000    2.857 
#   46.286    0.714    0.000    0.000    0.000    0.000 
#    0.000    0.000    0.000    0.000    0.000    0.000 
#
# Total GULP energy -77967.926353 kJ/mol
# GULP energy per Si atom -5569.137597 kJ/mol
# Density = 2.299107 g / cm^3
# Si number density = 23.043521 Si / 1000 Ang^3
#
#
#
# Elastic Constant Matrix: (Units=GPa)
#
#
# Indices 1 2 3 4 5 6 
#
# 1 70.8429 13.4168 43.3320 -6.9485 -2.3018 3.8196
# 2 13.4168 142.3616 53.3221 -22.2848 3.1855 7.8480
# 3 43.3320 53.3221 136.8945 -18.9948 -9.3196 -1.8242
# 4 -6.9485 -22.2848 -18.9948 34.9956 3.4526 -1.1810
# 5 -2.3018 3.1855 -9.3196 3.4526 38.7106 4.4169
# 6 3.8196 7.8480 -1.8242 -1.1810 4.4169 24.9505
#
#
#
# Elastic Compliance Matrix: (Units=1/GPa)
#
#
# Indices 1 2 3 4 5 6 
#
# 1 0.017829 0.000845 -0.005920 0.000763 -0.000118 -0.003371
# 2 0.000845 0.009039 -0.003353 0.004165 -0.001559 -0.002744
# 3 -0.005920 -0.003353 0.011012 0.002549 0.002060 0.002522
# 4 0.000763 0.004165 0.002549 0.033058 -0.002724 0.000807
# 5 -0.000118 -0.001559 0.002060 -0.002724 0.027181 -0.004282
# 6 -0.003371 -0.002744 0.002522 0.000807 -0.004282 0.042439
#
#
# Mechanical properties :
#
#
# Convention : Reuss Voigt Hill
#
# Bulk Modulus (GPa) = 47.56353 63.36009 55.46181
# Shear Modulus (GPa) = 30.40940 35.73323 33.07131
#
# Velocity S-wave (km/s) = 3.63664 3.94215 3.79247
# Velocity P-wave (km/s) = 6.19024 6.94811 6.58009
#
# Compressibility (1/GPa) = 0.02102451
#
# Stress axis : x y z
#
# Youngs Moduli (GPa) = 56.08704 110.63509 90.80817
#
# Poissons Ratio (x) = -0.09347 0.53757
# Poissons Ratio (y) = -0.04739 0.30447
# Poissons Ratio (z) = 0.33203 0.37095
#
# Static dielectric constant tensor:
#      x y z
#    x 2.080490 0.034340 0.031900 
#    y 0.034340 1.862690 0.032340 
#    z 0.031900 0.032340 1.911430 
# 
# From -- ./inp_files/363964.got.cif
#   From: 2010.05.17/outbox.cif.g08.bks.cpg/sg2_182_cif.got.tgz:363964.got - 2010.06.03 11:33:40.
