data_PCOD9015235
_publ_section_title
;
Structure prediction by ZEFSAII (Michael W. Deem and Ramdas Pophale) SiO2 
 PCOD9015235
Probable space group: P -1
;
_chemical_formula_sum "Si O2"
_cell_formula_units_Z 16
_cell_length_a 11.885932
_cell_length_b 14.622127
_cell_length_c 9.556582
_cell_angle_alpha 73.055667
_cell_angle_beta 152.370439
_cell_angle_gamma 111.503304
_cell_volume 714.501462
_symmetry_space_group_name_H-M "P -1"
_symmetry_group_IT_number 2
_symmetry_cell_setting 'triclinic'
loop_
_space_group_symop_operation_xyz
x,y,z
-x,-y,-z
loop_
_atom_site_type_symbol
_atom_site_label
_atom_site_fract_x
_atom_site_fract_y
_atom_site_fract_z
Si Si1 0.522870 0.360811 0.180989
Si Si2 0.791888 0.529576 0.854828
Si Si3 0.957886 0.884249 0.482694
Si Si4 0.107835 0.170033 0.881295
Si Si5 0.450104 0.092015 0.493446
Si Si6 0.139831 0.720038 0.234920
Si Si7 0.496158 0.899400 0.125431
Si Si8 0.244585 0.532177 0.850883
O O1 0.734848 0.363186 0.527816
O O2 0.607000 0.370637 0.108588
O O3 0.337965 0.258251 0.053075
O O4 0.394582 0.448401 0.032591
O O5 0.500000 0.500000 0.500000
O O6 0.800245 0.469169 0.034776
O O7 0.000000 0.500000 0.000000
O O8 0.885511 0.650026 0.923515
O O9 0.963931 0.878409 0.324247
O O10 0.690989 0.846327 0.286002
O O11 0.000000 0.000000 0.500000
O O12 0.197249 0.847137 0.818188
O O13 0.908031 0.220129 0.707844
O O14 0.206579 0.111461 0.139180
O O15 0.672392 0.193824 0.682383
O O16 0.419418 0.073513 0.633426
O O17 0.500000 0.000000 0.500000
O O18 0.500000 0.000000 0.000000
O O19 0.000000 0.500000 0.500000
#
# Coordination Sequence:
#
# PCOD9015235 Si02
#       8
#     2   2   2   2   2   2   2   2
#     4  10  21  41  73 104 140 179 250 297 353 427
#     4  12  27  48  75 105 153 195 237 310 385 433
#     4  10  23  42  69  98 139 184 231 302 370 417
#     4  11  24  43  76  97 143 193 252 303 355 442
#     4  11  26  44  76 105 142 203 252 302 367 445
#     4  11  25  46  72 108 148 191 256 303 363 450
#     4  10  23  45  66  96 145 179 238 301 372 425
#     4  11  21  42  77 103 138 188 242 293 364 447
#
# _framework density 22.393235000000001
#
# number of rings (size 3 to 8) (size 9 to 14) (size 15 to 20)
#    0.000    1.250    2.500    2.250   12.250    0.500 
#    4.500    0.000    0.000    0.000    0.000    0.000 
#    0.000    0.000    0.000    0.000    0.000    0.000 
#
# Total GULP energy -89222.066872 kJ/mol
# GULP energy per Si atom -5576.379179 kJ/mol
# Density = 2.234227 g / cm^3
# Si number density = 22.393235 Si / 1000 Ang^3
#
#
#
# Elastic Constant Matrix: (Units=GPa)
#
#
# Indices 1 2 3 4 5 6 
#
# 1 173.2658 20.8557 68.5870 -6.1084 -18.7979 -0.9397
# 2 20.8557 52.4841 12.8633 -4.3377 -5.3280 5.8904
# 3 68.5870 12.8633 113.7881 -21.4797 -0.7437 4.7712
# 4 -6.1084 -4.3377 -21.4797 23.7232 1.7267 -3.4005
# 5 -18.7979 -5.3280 -0.7437 1.7267 53.3056 -4.2701
# 6 -0.9397 5.8904 4.7712 -3.4005 -4.2701 31.6678
#
#
#
# Elastic Compliance Matrix: (Units=1/GPa)
#
#
# Indices 1 2 3 4 5 6 
#
# 1 0.008404 -0.002138 -0.005467 -0.003170 0.002898 0.001521
# 2 -0.002138 0.020691 -0.000477 0.002234 0.000957 -0.003471
# 3 -0.005467 -0.000477 0.014342 0.011468 -0.002252 -0.001307
# 4 -0.003170 0.002234 0.011468 0.052737 -0.002192 0.003130
# 5 0.002898 0.000957 -0.002252 -0.002192 0.020135 0.002727
# 6 0.001521 -0.003471 -0.001307 0.003130 0.002727 0.033169
#
#
# Mechanical properties :
#
#
# Convention : Reuss Voigt Hill
#
# Bulk Modulus (GPa) = 36.66557 60.46110 48.56333
# Shear Modulus (GPa) = 28.61494 37.55478 33.08486
#
# Velocity S-wave (km/s) = 3.57856 4.09963 3.84793
# Velocity P-wave (km/s) = 5.78653 7.03332 6.44017
#
# Compressibility (1/GPa) = 0.02727355
#
# Stress axis : x y z
#
# Youngs Moduli (GPa) = 118.99258 48.32962 69.72359
#
# Poissons Ratio (x) = 0.10333 0.38118
# Poissons Ratio (y) = 0.25441 0.03325
# Poissons Ratio (z) = 0.65054 0.02305
#
# Static dielectric constant tensor:
#      x y z
#    x 1.881860 0.015880 0.009490 
#    y 0.015880 1.860430 0.086770 
#    z 0.009490 0.086770 2.085250 
# 
# From -- ./inp_files/272773.got.cif
#   From: 2010.05.17/outbox.cif.g08.bks.cpg/sg2_137_cif.got.tgz:272773.got - 2010.06.03 11:33:40.
