data_PCOD9015768
_publ_section_title
;
Structure prediction by ZEFSAII (Michael W. Deem and Ramdas Pophale) SiO2 
 PCOD9015768
Probable space group: P -1
;
_chemical_formula_sum "Si O2"
_cell_formula_units_Z 15
_cell_length_a 11.101609
_cell_length_b 6.506230
_cell_length_c 11.077618
_cell_angle_alpha 73.772050
_cell_angle_beta 94.778579
_cell_angle_gamma 117.393627
_cell_volume 681.143424
_symmetry_space_group_name_H-M "P -1"
_symmetry_group_IT_number 2
_symmetry_cell_setting 'triclinic'
loop_
_space_group_symop_operation_xyz
x,y,z
-x,-y,-z
loop_
_atom_site_type_symbol
_atom_site_label
_atom_site_fract_x
_atom_site_fract_y
_atom_site_fract_z
Si Si1 0.940533 0.721798 0.582030
Si Si2 0.647363 0.211726 0.270284
Si Si3 0.797567 0.262982 0.495975
Si Si4 0.276321 0.957029 0.930940
Si Si5 0.886396 0.733439 0.142846
Si Si6 0.418588 0.250971 0.104652
Si Si7 0.000000 0.500000 0.000000
Si Si8 0.151779 0.079675 0.255756
O O1 0.828245 0.512479 0.525182
O O2 0.883940 0.729402 0.707930
O O3 0.071184 0.676214 0.589259
O O4 0.000000 0.000000 0.500000
O O5 0.666365 0.149348 0.418864
O O6 0.664795 0.044540 0.196548
O O7 0.775919 0.473910 0.222632
O O8 0.512466 0.229781 0.220622
O O9 0.802255 0.073665 0.623924
O O10 0.202659 0.126160 0.898498
O O11 0.159633 0.692523 0.989745
O O12 0.382184 0.046515 0.033935
O O13 0.956492 0.688357 0.038874
O O14 0.012021 0.884867 0.217477
O O15 0.276307 0.213239 0.154407
O O16 0.500000 0.500000 0.000000
#
# Coordination Sequence:
#
# PCOD9015768 Si02
#       8
#     2   2   2   2   2   2   1   2
#     4   9  18  38  69 102 135 166 218 284 340 396
#     4  11  24  42  70  93 136 184 223 276 339 404
#     4  10  21  42  65 103 134 171 223 279 341 402
#     4  11  23  43  68  98 133 179 230 280 337 400
#     4  11  21  40  66 101 132 172 225 282 337 396
#     4  12  26  49  65  96 143 184 229 279 338 406
#     4  10  22  36  66 102 132 166 224 284 336 396
#     4  11  24  41  70 102 135 175 224 284 336 402
#
# _framework density 22.021791
#
# number of rings (size 3 to 8) (size 9 to 14) (size 15 to 20)
#    0.000    1.333    2.667    4.000    0.000    2.667 
#    4.800    0.667    0.000    0.000    0.000    0.000 
#    0.000    0.000    0.000    0.000    0.000    0.000 
#
# Total GULP energy -83560.476598 kJ/mol
# GULP energy per Si atom -5570.698440 kJ/mol
# Density = 2.197167 g / cm^3
# Si number density = 22.021791 Si / 1000 Ang^3
#
#
#
# Elastic Constant Matrix: (Units=GPa)
#
#
# Indices 1 2 3 4 5 6 
#
# 1 91.8883 23.1956 37.9148 19.2070 -5.7596 -5.2761
# 2 23.1956 90.2603 34.7114 30.6942 -9.8986 -7.5312
# 3 37.9148 34.7114 78.5046 21.4741 13.8885 0.8360
# 4 19.2070 30.6942 21.4741 38.5437 1.9323 -7.3651
# 5 -5.7596 -9.8986 13.8885 1.9323 46.6486 10.0702
# 6 -5.2761 -7.5312 0.8360 -7.3651 10.0702 37.9143
#
#
#
# Elastic Compliance Matrix: (Units=1/GPa)
#
#
# Indices 1 2 3 4 5 6 
#
# 1 0.014768 0.000873 -0.007114 -0.004216 0.004204 0.000450
# 2 0.000873 0.017856 -0.006282 -0.011485 0.006261 -0.000087
# 3 -0.007114 -0.006282 0.021257 -0.003104 -0.008165 -0.001141
# 4 -0.004216 -0.011485 -0.003104 0.040399 -0.005088 0.006400
# 5 0.004204 0.006261 -0.008165 -0.005088 0.027270 -0.006223
# 6 0.000450 -0.000087 -0.001141 0.006400 -0.006223 0.029342
#
#
# Mechanical properties :
#
#
# Convention : Reuss Voigt Hill
#
# Bulk Modulus (GPa) = 34.67943 50.25520 42.46731
# Shear Modulus (GPa) = 26.94714 35.61006 31.27860
#
# Velocity S-wave (km/s) = 3.50188 4.02560 3.77284
# Velocity P-wave (km/s) = 5.66858 6.66915 6.18912
#
# Compressibility (1/GPa) = 0.02883554
#
# Stress axis : x y z
#
# Youngs Moduli (GPa) = 67.71266 56.00506 47.04301
#
# Poissons Ratio (x) = -0.04888 0.33465
# Poissons Ratio (y) = -0.05909 0.29551
# Poissons Ratio (z) = 0.48169 0.35180
#
# Static dielectric constant tensor:
#      x y z
#    x 1.788270 -0.004490 -0.001110 
#    y -0.004490 1.815260 -0.025740 
#    z -0.001110 -0.025740 1.922130 
# 
# From -- ./inp_files/409218.got.cif
#   From: 2010.05.17/outbox.cif.g08.bks.cpg/sg2_205_cif.got.tgz:409218.got - 2010.06.03 11:33:40.
