data_PCOD9015477
_publ_section_title
;
Structure prediction by ZEFSAII (Michael W. Deem and Ramdas Pophale) SiO2 
 PCOD9015477
Probable space group: P -1
;
_chemical_formula_sum "Si O2"
_cell_formula_units_Z 16
_cell_length_a 11.056891
_cell_length_b 13.945702
_cell_length_c 14.810752
_cell_angle_alpha 138.136319
_cell_angle_beta 45.934204
_cell_angle_gamma 150.209539
_cell_volume 748.841997
_symmetry_space_group_name_H-M "P -1"
_symmetry_group_IT_number 2
_symmetry_cell_setting 'triclinic'
loop_
_space_group_symop_operation_xyz
x,y,z
-x,-y,-z
loop_
_atom_site_type_symbol
_atom_site_label
_atom_site_fract_x
_atom_site_fract_y
_atom_site_fract_z
Si Si1 0.493580 0.836643 0.349358
Si Si2 0.529678 0.420141 0.517314
Si Si3 0.138392 0.598301 0.902243
Si Si4 0.086932 0.059182 0.894386
Si Si5 0.031527 0.652511 0.361783
Si Si6 0.224519 0.098909 0.591038
Si Si7 0.445309 0.309116 0.167454
Si Si8 0.855787 0.690971 0.097199
O O1 0.722897 0.945012 0.239852
O O2 0.238832 0.679031 0.316075
O O3 0.544294 0.773340 0.368499
O O4 0.500000 0.000000 0.500000
O O5 0.500000 0.500000 0.500000
O O6 0.303267 0.187849 0.511081
O O7 0.571681 0.558569 0.672146
O O8 0.765513 0.466912 0.414840
O O9 0.414818 0.721214 0.865301
O O10 0.013123 0.413644 0.765733
O O11 0.000000 0.500000 0.000000
O O12 0.082757 0.724805 0.989345
O O13 0.210156 0.278729 0.942915
O O14 0.827642 0.895467 0.862668
O O15 0.000000 0.000000 0.000000
O O16 0.097660 0.863059 0.489750
O O17 0.089340 0.149710 0.744669
O O18 0.624491 0.458395 0.094824
#
# Coordination Sequence:
#
# PCOD9015477 Si02
#       8
#     2   2   2   2   2   2   2   2
#     4   9  20  42  65  90 126 165 213 264 315 370
#     4  11  21  39  62 101 123 164 216 258 318 375
#     4  10  22  41  61  93 130 170 203 263 327 370
#     4  11  24  42  65  96 123 171 218 256 318 391
#     4  11  22  42  67  91 130 163 216 268 307 383
#     4   9  21  42  66  93 124 174 210 257 322 377
#     4  10  21  42  63  87 135 163 204 269 314 379
#     4   9  21  43  64  93 129 168 206 253 334 367
#
# _framework density 21.366323999999999
#
# number of rings (size 3 to 8) (size 9 to 14) (size 15 to 20)
#    0.000    2.000    1.250    2.250    3.500    2.000 
#   13.500    0.000    0.000    0.000    0.000    0.000 
#    0.000    0.000    0.000    0.000    0.000    0.000 
#
# Total GULP energy -89185.224397 kJ/mol
# GULP energy per Si atom -5574.076525 kJ/mol
# Density = 2.131769 g / cm^3
# Si number density = 21.366324 Si / 1000 Ang^3
#
#
#
# Elastic Constant Matrix: (Units=GPa)
#
#
# Indices 1 2 3 4 5 6 
#
# 1 90.7884 38.4257 36.8617 -20.8118 -10.4080 13.3414
# 2 38.4257 61.2859 28.6496 -15.3316 6.0394 -0.2032
# 3 36.8617 28.6496 91.1698 -26.7508 -21.0891 5.1156
# 4 -20.8118 -15.3316 -26.7508 30.4976 -7.7752 1.3160
# 5 -10.4080 6.0394 -21.0891 -7.7752 33.9504 -8.7721
# 6 13.3414 -0.2032 5.1156 1.3160 -8.7721 45.5577
#
#
#
# Elastic Compliance Matrix: (Units=1/GPa)
#
#
# Indices 1 2 3 4 5 6 
#
# 1 0.019773 -0.011330 0.002122 0.012698 0.011195 -0.004291
# 2 -0.011330 0.027919 -0.009669 -0.006182 -0.015413 0.001739
# 3 0.002122 -0.009669 0.026651 0.026335 0.025062 0.000408
# 4 0.012698 -0.006182 0.026335 0.070999 0.037200 -0.001591
# 5 0.011195 -0.015413 0.025062 0.037200 0.060874 0.004486
# 6 -0.004291 0.001739 0.000408 -0.001591 0.004486 0.024078
#
#
# Mechanical properties :
#
#
# Convention : Reuss Voigt Hill
#
# Bulk Modulus (GPa) = 27.33151 50.12425 38.72788
# Shear Modulus (GPa) = 17.84143 31.28827 24.56485
#
# Velocity S-wave (km/s) = 2.89282 3.83086 3.39440
# Velocity P-wave (km/s) = 4.89668 6.56336 5.79030
#
# Compressibility (1/GPa) = 0.03658781
#
# Stress axis : x y z
#
# Youngs Moduli (GPa) = 50.57320 35.81771 37.52245
#
# Poissons Ratio (x) = 0.40583 -0.07962
# Poissons Ratio (y) = 0.57302 0.36281
# Poissons Ratio (z) = -0.10731 0.34632
#
# Static dielectric constant tensor:
#      x y z
#    x 1.844080 -0.023350 -0.016360 
#    y -0.023350 1.803260 -0.006930 
#    z -0.016360 -0.006930 1.775820 
# 
# From -- ./inp_files/521744.got.cif
#   From: 2010.05.17/outbox.cif.g08.bks.cpg/sg2_261_cif.got.tgz:521744.got - 2010.06.03 11:33:40.
