data_PCOD9015769
_publ_section_title
;
Structure prediction by ZEFSAII (Michael W. Deem and Ramdas Pophale) SiO2 
 PCOD9015769
Probable space group: P -1
;
_chemical_formula_sum "Si O2"
_cell_formula_units_Z 16
_cell_length_a 20.197262
_cell_length_b 11.591165
_cell_length_c 17.705687
_cell_angle_alpha 137.034312
_cell_angle_beta 20.865185
_cell_angle_gamma 149.211711
_cell_volume 696.094424
_symmetry_space_group_name_H-M "P -1"
_symmetry_group_IT_number 2
_symmetry_cell_setting 'triclinic'
loop_
_space_group_symop_operation_xyz
x,y,z
-x,-y,-z
loop_
_atom_site_type_symbol
_atom_site_label
_atom_site_fract_x
_atom_site_fract_y
_atom_site_fract_z
Si Si1 0.027573 0.352900 0.757188
Si Si2 0.148978 0.121746 0.320789
Si Si3 0.112644 0.738147 0.423100
Si Si4 0.429938 0.775119 0.742995
Si Si5 0.849630 0.014778 0.286042
Si Si6 0.580066 0.531865 0.283129
Si Si7 0.311148 0.431503 0.099140
Si Si8 0.895700 0.503141 0.828583
O O1 0.329343 0.486042 0.509507
O O2 0.997951 0.436352 0.750112
O O3 0.868494 0.071246 0.792115
O O4 0.876975 0.369681 0.987498
O O5 0.990311 0.159356 0.461275
O O6 0.461228 0.376065 0.112389
O O7 0.000000 0.000000 0.500000
O O8 0.148079 0.626308 0.264877
O O9 0.877912 0.560209 0.651172
O O10 0.386920 0.973377 0.283609
O O11 0.467599 0.615074 0.663135
O O12 0.569935 0.861901 0.554635
O O13 0.090602 0.171454 0.166715
O O14 0.905277 0.213108 0.269448
O O15 0.824047 0.820719 0.177689
O O16 0.650521 0.440418 0.100149
O O17 0.500000 0.500000 0.000000
#
# Coordination Sequence:
#
# PCOD9015769 Si02
#       8
#     2   2   2   2   2   2   2   2
#     4  11  25  41  67 103 138 183 232 280 343 409
#     4  11  21  38  67 102 138 177 224 286 344 410
#     4  10  21  42  65 103 140 173 226 291 351 397
#     4  10  24  44  71 102 134 181 235 291 340 408
#     4  11  25  46  71  98 143 187 226 287 343 411
#     4  11  25  48  69  99 140 188 237 276 340 410
#     4   9  23  41  68 103 135 176 225 284 349 407
#     4  11  26  43  69 103 139 184 228 288 341 409
#
# _framework density 22.985389000000001
#
# number of rings (size 3 to 8) (size 9 to 14) (size 15 to 20)
#    0.000    1.500    2.500    0.750    5.250    4.000 
#    0.000    6.250    0.000    0.000    0.000    0.000 
#    0.000    0.000    0.000    0.000    0.000    0.000 
#
# Total GULP energy -89361.605071 kJ/mol
# GULP energy per Si atom -5585.100317 kJ/mol
# Density = 2.293307 g / cm^3
# Si number density = 22.985389 Si / 1000 Ang^3
#
#
#
# Elastic Constant Matrix: (Units=GPa)
#
#
# Indices 1 2 3 4 5 6 
#
# 1 15.0252 -4.2356 82.1880 12.3749 -1.1340 1.3109
# 2 -4.2356 84.3017 36.7353 11.6656 -2.1284 14.9361
# 3 82.1880 36.7353 152.0350 7.7925 -5.3069 -1.8613
# 4 12.3749 11.6656 7.7925 28.5346 -7.6759 7.7015
# 5 -1.1340 -2.1284 -5.3069 -7.6759 44.6776 -7.4206
# 6 1.3109 14.9361 -1.8613 7.7015 -7.4206 33.5538
#
#
#
# Elastic Compliance Matrix: (Units=1/GPa)
#
#
# Indices 1 2 3 4 5 6 
#
# 1 -0.023065 -0.009471 0.014427 0.009569 0.003051 0.004396
# 2 -0.009471 0.011141 0.002363 0.000082 -0.000165 -0.004513
# 3 0.014427 0.002363 -0.001471 -0.006995 -0.000948 -0.000301
# 4 0.009569 0.000082 -0.006995 0.036118 0.004269 -0.008144
# 5 0.003051 -0.000165 -0.000948 0.004269 0.023767 0.004178
# 6 0.004396 -0.004513 -0.000301 -0.008144 0.004178 0.034417
#
#
# Mechanical properties :
#
#
# Convention : Reuss Voigt Hill
#
# Bulk Modulus (GPa) = 804.99684 53.41524 429.20604
# Shear Modulus (GPa) = 74.97984 30.46481 52.72233
#
# Velocity S-wave (km/s) = 5.71765 3.64455 4.79449
# Velocity P-wave (km/s) = 19.86379 6.40309 14.75753
#
# Compressibility (1/GPa) = 0.00124224
#
# Stress axis : x y z
#
# Youngs Moduli (GPa) = -43.35650 89.76099 -679.93481
#
# Poissons Ratio (x) = 0.85017 9.80927
# Poissons Ratio (y) = -0.41065 1.60676
# Poissons Ratio (z) = 0.62549 -0.21211
#
# Static dielectric constant tensor:
#      x y z
#    x 1.944060 -0.032720 0.006360 
#    y -0.032720 1.879860 -0.010680 
#    z 0.006360 -0.010680 1.873110 
# 
# From -- ./inp_files/577984.got.cif
#   From: 2010.05.17/outbox.cif.g08.bks.cpg/sg2_289_cif.got.tgz:577984.got - 2010.06.03 11:33:40.
