data_PCOD9015320
_publ_section_title
;
Structure prediction by ZEFSAII (Michael W. Deem and Ramdas Pophale) SiO2 
 PCOD9015320
Probable space group: P -1
;
_chemical_formula_sum "Si O2"
_cell_formula_units_Z 14
_cell_length_a 15.484142
_cell_length_b 12.273370
_cell_length_c 6.075249
_cell_angle_alpha 50.646170
_cell_angle_beta 111.424963
_cell_angle_gamma 136.713751
_cell_volume 601.927355
_symmetry_space_group_name_H-M "P -1"
_symmetry_group_IT_number 2
_symmetry_cell_setting 'triclinic'
loop_
_space_group_symop_operation_xyz
x,y,z
-x,-y,-z
loop_
_atom_site_type_symbol
_atom_site_label
_atom_site_fract_x
_atom_site_fract_y
_atom_site_fract_z
Si Si1 0.312257 0.702395 0.299298
Si Si2 0.143337 0.021061 0.196064
Si Si3 0.618478 0.705033 0.627754
Si Si4 0.587967 0.384657 0.150255
Si Si5 0.048898 0.391447 0.201735
Si Si6 0.567077 0.885323 0.025837
Si Si7 0.011892 0.129296 0.153989
O O1 0.315738 0.617321 0.636614
O O2 0.187611 0.539881 0.251535
O O3 0.439841 0.795604 0.160350
O O4 0.329514 0.884305 0.141100
O O5 0.045868 0.805401 0.488231
O O6 0.276149 0.136986 0.297251
O O7 0.106872 0.146007 0.057255
O O8 0.118119 0.983856 0.960400
O O9 0.481090 0.599231 0.741357
O O10 0.620173 0.796478 0.291025
O O11 0.635796 0.555665 0.809434
O O12 0.482577 0.184506 0.178044
O O13 0.052786 0.315839 0.067886
O O14 0.000000 0.500000 0.000000
O O15 0.000000 0.000000 0.500000
#
# Coordination Sequence:
#
# PCOD9015320 Si02
#       7
#     2   2   2   2   2   2   2
#     4  10  23  38  62  87 123 157 208 245 299 374
#     4  10  22  40  63  90 126 160 206 252 312 365
#     4  10  22  37  61  93 120 151 205 253 296 368
#     4  10  22  38  61  91 119 156 203 253 302 353
#     4  11  24  41  61  94 126 163 209 253 308 374
#     4  10  21  42  60  87 121 166 195 250 311 351
#     4   9  22  40  60  89 120 165 204 250 307 363
#
# _framework density 23.258621999999999
#
# number of rings (size 3 to 8) (size 9 to 14) (size 15 to 20)
#    0.000    2.000    0.000    1.714    8.000    4.000 
#    0.000    0.000    0.000    0.000    0.000    0.000 
#    0.000    0.000    0.000    0.000    0.000    0.000 
#
# Total GULP energy -78227.400709 kJ/mol
# GULP energy per Si atom -5587.671479 kJ/mol
# Density = 2.320568 g / cm^3
# Si number density = 23.258622 Si / 1000 Ang^3
#
#
#
# Elastic Constant Matrix: (Units=GPa)
#
#
# Indices 1 2 3 4 5 6 
#
# 1 56.0634 30.0289 36.1404 -6.1743 15.4621 -5.3219
# 2 30.0289 166.7069 40.9375 11.6786 17.9029 -5.6964
# 3 36.1404 40.9375 82.8209 4.3323 25.1564 -3.0293
# 4 -6.1743 11.6786 4.3323 50.5241 1.8106 5.9969
# 5 15.4621 17.9029 25.1564 1.8106 24.0686 -1.1481
# 6 -5.3219 -5.6964 -3.0293 5.9969 -1.1481 41.8853
#
#
#
# Elastic Compliance Matrix: (Units=1/GPa)
#
#
# Indices 1 2 3 4 5 6 
#
# 1 0.027368 -0.002275 -0.008927 0.004683 -0.006832 0.001665
# 2 -0.002275 0.007220 -0.001932 -0.001811 -0.001717 0.000765
# 3 -0.008927 -0.001932 0.021691 -0.001958 -0.015351 0.000031
# 4 0.004683 -0.001811 -0.001958 0.021342 -0.001359 -0.002886
# 5 -0.006832 -0.001717 -0.015351 -0.001359 0.063347 -0.000281
# 6 0.001665 0.000765 0.000031 -0.002886 -0.000281 0.024598
#
#
# Mechanical properties :
#
#
# Convention : Reuss Voigt Hill
#
# Bulk Modulus (GPa) = 33.32068 57.75609 45.53838
# Shear Modulus (GPa) = 24.77227 36.52788 30.65008
#
# Velocity S-wave (km/s) = 3.26710 3.96726 3.63408
# Velocity P-wave (km/s) = 5.34688 6.77286 6.10167
#
# Compressibility (1/GPa) = 0.03001140
#
# Stress axis : x y z
#
# Youngs Moduli (GPa) = 36.53872 138.50125 46.10260
#
# Poissons Ratio (x) = 0.31512 0.41156
# Poissons Ratio (y) = 0.08313 0.08906
# Poissons Ratio (z) = 0.32618 0.26755
#
# Static dielectric constant tensor:
#      x y z
#    x 1.907610 0.005960 -0.044410 
#    y 0.005960 1.858300 -0.009770 
#    z -0.044410 -0.009770 1.905280 
# 
# From -- ./inp_files/27252.got.cif
#   From: 2010.05.17/outbox.cif.g08.bks.cpg/sg2_14_cif.got.tgz:27252.got - 2010.06.03 11:33:40.
