data_PCOD9015347
_publ_section_title
;
Structure prediction by ZEFSAII (Michael W. Deem and Ramdas Pophale) SiO2 
 PCOD9015347
Probable space group: P -1
;
_chemical_formula_sum "Si O2"
_cell_formula_units_Z 14
_cell_length_a 13.832347
_cell_length_b 8.006637
_cell_length_c 6.667864
_cell_angle_alpha 56.825501
_cell_angle_beta 75.420090
_cell_angle_gamma 71.008869
_cell_volume 581.924035
_symmetry_space_group_name_H-M "P -1"
_symmetry_group_IT_number 2
_symmetry_cell_setting 'triclinic'
loop_
_space_group_symop_operation_xyz
x,y,z
-x,-y,-z
loop_
_atom_site_type_symbol
_atom_site_label
_atom_site_fract_x
_atom_site_fract_y
_atom_site_fract_z
Si Si1 0.021850 0.373495 0.364993
Si Si2 0.940239 0.067410 0.784688
Si Si3 0.253990 0.071355 0.056091
Si Si4 0.826225 0.505389 0.092038
Si Si5 0.750927 0.300134 0.935854
Si Si6 0.548270 0.151530 0.732954
Si Si7 0.448678 0.451243 0.264934
O O1 0.122113 0.415341 0.182063
O O2 0.000000 0.500000 0.500000
O O3 0.023611 0.136844 0.561847
O O4 0.922330 0.434541 0.233564
O O5 0.849969 0.262092 0.765665
O O6 0.867969 0.918524 0.857457
O O7 0.000000 0.000000 0.000000
O O8 0.256397 0.308688 0.886740
O O9 0.282684 0.914551 0.955099
O O10 0.331195 0.963951 0.259401
O O11 0.776462 0.332752 0.132131
O O12 0.670492 0.498351 0.767313
O O13 0.495295 0.236216 0.493773
O O14 0.541479 0.361188 0.720242
O O15 0.500000 0.000000 0.000000
O O16 0.500000 0.500000 0.000000
#
# Coordination Sequence:
#
# PCOD9015347 Si02
#       7
#     2   2   2   2   2   2   2
#     4  11  22  40  63  93 132 172 219 273 315 390
#     4  10  21  42  61  87 138 168 204 277 316 373
#     4   9  22  42  63  97 128 168 223 269 328 404
#     4  11  23  40  66  93 125 177 219 257 340 389
#     4   9  22  43  63  97 132 169 218 276 329 395
#     4  10  23  45  69  98 135 174 222 287 346 398
#     4  10  23  45  69  96 138 173 221 288 342 403
#
# _framework density 24.058122000000001
#
# number of rings (size 3 to 8) (size 9 to 14) (size 15 to 20)
#    0.857    1.143    1.429    0.857    4.000    3.429 
#    5.143    0.000    0.000    0.000    0.000    0.000 
#    0.000    0.000    0.000    0.000    0.000    0.000 
#
# Total GULP energy -77987.152863 kJ/mol
# GULP energy per Si atom -5570.510919 kJ/mol
# Density = 2.400337 g / cm^3
# Si number density = 24.058122 Si / 1000 Ang^3
#
#
#
# Elastic Constant Matrix: (Units=GPa)
#
#
# Indices 1 2 3 4 5 6 
#
# 1 75.4094 3.0575 33.0930 -2.6490 22.8315 -8.2324
# 2 3.0575 72.1911 -0.0716 4.0218 17.3841 16.3027
# 3 33.0930 -0.0716 92.0775 -9.9938 7.5659 -13.4413
# 4 -2.6490 4.0218 -9.9938 28.1403 2.8946 9.3114
# 5 22.8315 17.3841 7.5659 2.8946 29.8765 -3.4467
# 6 -8.2324 16.3027 -13.4413 9.3114 -3.4467 32.8475
#
#
#
# Elastic Compliance Matrix: (Units=1/GPa)
#
#
# Indices 1 2 3 4 5 6 
#
# 1 0.020707 0.003217 -0.006093 0.001344 -0.016399 -0.001002
# 2 0.003217 0.019984 -0.001356 0.002515 -0.015371 -0.011992
# 3 -0.006093 -0.001356 0.013801 0.002913 0.002151 0.004193
# 4 0.001344 0.002515 0.002913 0.041310 -0.008654 -0.012338
# 5 -0.016399 -0.015371 0.002151 -0.008654 0.056718 0.012803
# 6 -0.001002 -0.011992 0.004193 -0.012338 0.012803 0.042701
#
#
# Mechanical properties :
#
#
# Convention : Reuss Voigt Hill
#
# Bulk Modulus (GPa) = 21.72480 34.64843 28.18661
# Shear Modulus (GPa) = 22.82835 31.74615 27.28725
#
# Velocity S-wave (km/s) = 3.08374 3.63652 3.37147
# Velocity P-wave (km/s) = 4.66144 5.66265 5.18626
#
# Compressibility (1/GPa) = 0.04603035
#
# Stress axis : x y z
#
# Youngs Moduli (GPa) = 48.29227 50.04017 72.46107
#
# Poissons Ratio (x) = -0.16100 0.44148
# Poissons Ratio (y) = -0.15538 0.09822
# Poissons Ratio (z) = 0.29423 0.06783
#
# Static dielectric constant tensor:
#      x y z
#    x 1.969700 0.070140 0.001960 
#    y 0.070140 1.954020 -0.032220 
#    z 0.001960 -0.032220 1.948660 
# 
# From -- ./inp_files/89654.got.cif
#   From: 2010.05.17/outbox.cif.g08.bks.cpg/sg2_45_cif.got.tgz:89654.got - 2010.06.03 11:33:40.
