data_PCOD9015920
_publ_section_title
;
Structure prediction by ZEFSAII (Michael W. Deem and Ramdas Pophale) SiO2 
 PCOD9015920
Probable space group: P -1
;
_chemical_formula_sum "Si O2"
_cell_formula_units_Z 16
_cell_length_a 8.467333
_cell_length_b 18.030587
_cell_length_c 17.106925
_cell_angle_alpha 25.731449
_cell_angle_beta 134.319738
_cell_angle_gamma 139.474536
_cell_volume 735.890069
_symmetry_space_group_name_H-M "P -1"
_symmetry_group_IT_number 2
_symmetry_cell_setting 'triclinic'
loop_
_space_group_symop_operation_xyz
x,y,z
-x,-y,-z
loop_
_atom_site_type_symbol
_atom_site_label
_atom_site_fract_x
_atom_site_fract_y
_atom_site_fract_z
Si Si1 0.391249 0.616742 0.198268
Si Si2 0.361046 0.241408 0.522339
Si Si3 0.400475 0.308532 0.194467
Si Si4 0.199087 0.426517 0.166195
Si Si5 0.884736 0.923800 0.117193
Si Si6 0.077655 0.622428 0.651288
Si Si7 0.873506 0.362960 0.515602
Si Si8 0.031255 0.009013 0.746145
O O1 0.460073 0.442914 0.410684
O O2 0.387875 0.601726 0.116786
O O3 0.594436 0.808352 0.117208
O O4 0.115113 0.542979 0.204412
O O5 0.157667 0.263018 0.373436
O O6 0.586467 0.253617 0.537071
O O7 0.260686 0.066452 0.711958
O O8 0.294432 0.352955 0.195448
O O9 0.643569 0.278761 0.319645
O O10 0.197051 0.149054 0.224996
O O11 0.500000 0.500000 0.000000
O O12 0.000000 0.500000 0.000000
O O13 0.003823 0.779562 0.310668
O O14 0.936999 0.038522 0.107994
O O15 0.000000 0.000000 0.000000
O O16 0.082190 0.539289 0.646108
O O17 0.996662 0.793388 0.455238
O O18 0.000000 0.500000 0.500000
#
# Coordination Sequence:
#
# PCOD9015920 Si02
#       8
#     2   2   2   2   2   2   2   2
#     4   9  20  40  66  93 125 169 220 256 336 384
#     4   9  20  41  64  99 125 169 227 264 323 393
#     4  12  25  41  65  95 136 173 225 273 328 396
#     4  10  21  42  66  95 130 173 216 271 330 382
#     4  11  25  43  65  96 138 172 213 279 336 395
#     4  10  21  42  65  98 128 175 219 275 323 395
#     4  11  20  38  68  95 128 173 220 268 323 395
#     4  10  25  42  66  95 132 173 224 270 335 386
#
# _framework density 21.742377999999999
#
# number of rings (size 3 to 8) (size 9 to 14) (size 15 to 20)
#    0.750    1.000    2.500    1.125    3.500    2.000 
#    4.500    0.625    0.000    0.000    0.000    0.000 
#    0.000    0.000    0.000    0.000    0.000    0.000 
#
# Total GULP energy -89070.064056 kJ/mol
# GULP energy per Si atom -5566.879004 kJ/mol
# Density = 2.169289 g / cm^3
# Si number density = 21.742378 Si / 1000 Ang^3
#
#
#
# Elastic Constant Matrix: (Units=GPa)
#
#
# Indices 1 2 3 4 5 6 
#
# 1 125.6818 73.8417 20.7334 -0.1780 -28.4222 -7.2931
# 2 73.8417 141.1579 23.3575 9.6752 -22.7263 -7.3659
# 3 20.7334 23.3575 40.2319 7.1283 -16.6755 0.5298
# 4 -0.1780 9.6752 7.1283 16.0525 3.1752 -4.4865
# 5 -28.4222 -22.7263 -16.6755 3.1752 38.5787 12.9867
# 6 -7.2931 -7.3659 0.5298 -4.4865 12.9867 34.5153
#
#
#
# Elastic Compliance Matrix: (Units=1/GPa)
#
#
# Indices 1 2 3 4 5 6 
#
# 1 0.012808 -0.005852 -0.001809 0.003538 0.004879 0.000110
# 2 -0.005852 0.011200 -0.001150 -0.007023 0.002611 -0.000724
# 3 -0.001809 -0.001150 0.039948 -0.024839 0.021533 -0.012572
# 4 0.003538 -0.007023 -0.024839 0.088817 -0.026724 0.021230
# 5 0.004879 0.002611 0.021533 -0.026724 0.049587 -0.020874
# 6 0.000110 -0.000724 -0.012572 0.021230 -0.020874 0.039648
#
#
# Mechanical properties :
#
#
# Convention : Reuss Voigt Hill
#
# Bulk Modulus (GPa) = 21.58328 60.32630 40.95479
# Shear Modulus (GPa) = 18.17683 30.43856 24.30769
#
# Velocity S-wave (km/s) = 2.89452 3.74567 3.34726
# Velocity P-wave (km/s) = 4.59558 6.82004 5.81516
#
# Compressibility (1/GPa) = 0.04633216
#
# Stress axis : x y z
#
# Youngs Moduli (GPa) = 78.07676 89.28705 25.03265
#
# Poissons Ratio (x) = 0.52251 0.04529
# Poissons Ratio (y) = 0.45690 0.02880
# Poissons Ratio (z) = 0.14126 0.10272
#
# Static dielectric constant tensor:
#      x y z
#    x 1.962000 0.150800 0.066110 
#    y 0.150800 2.188080 0.263880 
#    z 0.066110 0.263880 1.987460 
# 
# From -- ./inp_files/562067.got.cif
#   From: 2010.05.17/outbox.cif.g08.bks.cpg/sg2_282_cif.got.tgz:562067.got - 2010.06.03 11:33:40.
