data_PCOD9015609
_publ_section_title
;
Structure prediction by ZEFSAII (Michael W. Deem and Ramdas Pophale) SiO2 
 PCOD9015609
Probable space group: P -1
;
_chemical_formula_sum "Si O2"
_cell_formula_units_Z 14
_cell_length_a 11.865874
_cell_length_b 12.356041
_cell_length_c 11.340508
_cell_angle_alpha 100.598204
_cell_angle_beta 103.470800
_cell_angle_gamma 146.308857
_cell_volume 640.343401
_symmetry_space_group_name_H-M "P -1"
_symmetry_group_IT_number 2
_symmetry_cell_setting 'triclinic'
loop_
_space_group_symop_operation_xyz
x,y,z
-x,-y,-z
loop_
_atom_site_type_symbol
_atom_site_label
_atom_site_fract_x
_atom_site_fract_y
_atom_site_fract_z
Si Si1 0.676221 0.603480 0.239395
Si Si2 0.728225 0.955044 0.550454
Si Si3 0.275333 0.430307 0.018674
Si Si4 0.837564 0.291562 0.674219
Si Si5 0.381193 0.856638 0.814207
Si Si6 0.620634 0.250740 0.793369
Si Si7 0.608003 0.825632 0.752700
O O1 0.494440 0.557398 0.184303
O O2 0.021989 0.914233 0.391904
O O3 0.561197 0.417148 0.269796
O O4 0.623225 0.507539 0.076442
O O5 0.899297 0.216348 0.680548
O O6 0.546034 0.770186 0.585825
O O7 0.542417 0.828638 0.368597
O O8 0.272569 0.557925 0.062689
O O9 0.952348 0.106616 0.898269
O O10 0.859008 0.381226 0.816115
O O11 0.049914 0.533408 0.683697
O O12 0.500000 0.000000 0.500000
O O13 0.420267 0.992237 0.762855
O O14 0.536243 0.882169 0.804736
O O15 0.500000 0.000000 0.000000
#
# Coordination Sequence:
#
# PCOD9015609 Si02
#       7
#     2   2   2   2   2   2   2
#     4  10  21  42  64  87 120 164 215 245 311 366
#     4  10  22  39  61  89 121 168 201 251 309 372
#     4  10  23  40  63  90 123 164 201 266 302 363
#     4  10  22  40  58  89 128 163 201 245 310 372
#     4  12  24  36  66  96 125 164 208 257 312 371
#     4  11  24  40  59  93 132 154 204 257 311 365
#     4  11  21  38  64  89 121 161 213 247 309 369
#
# _framework density 21.863268999999999
#
# number of rings (size 3 to 8) (size 9 to 14) (size 15 to 20)
#    0.000    1.429    2.857    2.143    2.000    6.286 
#    0.000    0.714    0.000    0.000    0.000    0.000 
#    0.000    0.000    0.000    0.000    0.000    0.000 
#
# Total GULP energy -78222.352382 kJ/mol
# GULP energy per Si atom -5587.310884 kJ/mol
# Density = 2.181351 g / cm^3
# Si number density = 21.863269 Si / 1000 Ang^3
#
#
#
# Elastic Constant Matrix: (Units=GPa)
#
#
# Indices 1 2 3 4 5 6 
#
# 1 95.1512 22.6476 15.3721 -4.2476 4.1797 4.3484
# 2 22.6476 166.3743 23.0287 -10.6363 6.1997 7.9085
# 3 15.3721 23.0287 57.9098 -16.9379 11.2107 4.8643
# 4 -4.2476 -10.6363 -16.9379 30.8630 -1.9432 5.3563
# 5 4.1797 6.1997 11.2107 -1.9432 35.1440 -1.3653
# 6 4.3484 7.9085 4.8643 5.3563 -1.3653 27.7495
#
#
#
# Elastic Compliance Matrix: (Units=1/GPa)
#
#
# Indices 1 2 3 4 5 6 
#
# 1 0.011227 -0.001136 -0.002354 0.000017 -0.000424 -0.001047
# 2 -0.001136 0.006588 -0.001647 0.001478 -0.000487 -0.001720
# 3 -0.002354 -0.001647 0.024177 0.013041 -0.006663 -0.006245
# 4 0.000017 0.001478 0.013041 0.041803 -0.002535 -0.010903
# 5 -0.000424 -0.000487 -0.006663 -0.002535 0.030707 0.003373
# 6 -0.001047 -0.001720 -0.006245 -0.010903 0.003373 0.040056
#
#
# Mechanical properties :
#
#
# Convention : Reuss Voigt Hill
#
# Bulk Modulus (GPa) = 31.52728 49.05912 40.29320
# Shear Modulus (GPa) = 28.50561 35.97709 32.24135
#
# Velocity S-wave (km/s) = 3.61475 4.06094 3.84432
# Velocity P-wave (km/s) = 5.64565 6.66904 6.17857
#
# Compressibility (1/GPa) = 0.03171857
#
# Stress axis : x y z
#
# Youngs Moduli (GPa) = 89.06763 151.80202 41.36174
#
# Poissons Ratio (x) = 0.17243 0.09735
# Poissons Ratio (y) = 0.10117 0.06813
# Poissons Ratio (z) = 0.20963 0.25005
#
# Static dielectric constant tensor:
#      x y z
#    x 1.825060 0.020820 0.009640 
#    y 0.020820 1.773490 -0.043800 
#    z 0.009640 -0.043800 1.875490 
# 
# From -- ./inp_files/26831.got.cif
#   From: 2010.05.17/outbox.cif.g08.bks.cpg/sg2_14_cif.got.tgz:26831.got - 2010.06.03 11:33:40.
