data_PCOD9015753
_publ_section_title
;
Structure prediction by ZEFSAII (Michael W. Deem and Ramdas Pophale) SiO2 
 PCOD9015753
Probable space group: P -1
;
_chemical_formula_sum "Si O2"
_cell_formula_units_Z 14
_cell_length_a 19.450230
_cell_length_b 5.490416
_cell_length_c 5.076220
_cell_angle_alpha 83.230477
_cell_angle_beta 88.737141
_cell_angle_gamma 100.530927
_cell_volume 528.714865
_symmetry_space_group_name_H-M "P -1"
_symmetry_group_IT_number 2
_symmetry_cell_setting 'triclinic'
loop_
_space_group_symop_operation_xyz
x,y,z
-x,-y,-z
loop_
_atom_site_type_symbol
_atom_site_label
_atom_site_fract_x
_atom_site_fract_y
_atom_site_fract_z
Si Si1 0.247414 0.677911 0.716142
Si Si2 0.015884 0.282788 0.339075
Si Si3 0.151694 0.149719 0.410965
Si Si4 0.882415 0.136445 0.050559
Si Si5 0.718505 0.550387 0.756550
Si Si6 0.614749 0.151340 0.530428
Si Si7 0.490523 0.228303 0.162708
O O1 0.179584 0.738504 0.846999
O O2 0.234341 0.586287 0.430995
O O3 0.321386 0.871196 0.666631
O O4 0.271610 0.473872 0.932418
O O5 0.099541 0.326129 0.280583
O O6 0.000000 0.500000 0.500000
O O7 0.961059 0.258391 0.106479
O O8 0.000000 0.000000 0.500000
O O9 0.235816 0.182594 0.352127
O O10 0.134479 0.111453 0.725876
O O11 0.125290 0.917680 0.247989
O O12 0.645401 0.380400 0.696188
O O13 0.549987 0.232223 0.377062
O O14 0.585921 0.884214 0.697969
O O15 0.500000 0.500000 0.000000
O O16 0.500000 0.000000 0.000000
#
# Coordination Sequence:
#
# PCOD9015753 Si02
#       7
#     2   2   2   2   2   2   2
#     4  10  21  42  64  99 145 193 245 306 378 443
#     4  10  23  44  72 102 144 196 252 312 376 436
#     4  11  23  42  65 105 144 196 252 313 374 445
#     4  11  23  42  65 105 144 196 252 313 374 445
#     4  10  21  42  64  99 145 193 245 306 378 443
#     4   9  24  44  72 111 152 198 252 315 376 464
#     4  11  24  51  78 112 151 198 251 308 381 454
#
# _framework density 26.479299999999999
#
# number of rings (size 3 to 8) (size 9 to 14) (size 15 to 20)
#    0.857    0.857    0.000    3.857    0.000    4.571 
#   10.286    6.429    0.000    0.000    0.000    0.000 
#    0.000    0.000    0.000    0.000    0.000    0.000 
#
# Total GULP energy -78046.456411 kJ/mol
# GULP energy per Si atom -5574.746887 kJ/mol
# Density = 2.641903 g / cm^3
# Si number density = 26.479300 Si / 1000 Ang^3
#
#
#
# Elastic Constant Matrix: (Units=GPa)
#
#
# Indices 1 2 3 4 5 6 
#
# 1 79.5604 29.7745 27.3606 -19.2500 1.8692 45.3070
# 2 29.7745 125.5458 39.0202 -9.9470 3.1473 20.4326
# 3 27.3606 39.0202 85.7411 -1.2179 -4.7535 15.0705
# 4 -19.2500 -9.9470 -1.2179 46.5630 17.9452 -8.9056
# 5 1.8692 3.1473 -4.7535 17.9452 50.6918 9.3254
# 6 45.3070 20.4326 15.0705 -8.9056 9.3254 49.5850
#
#
#
# Elastic Compliance Matrix: (Units=1/GPa)
#
#
# Indices 1 2 3 4 5 6 
#
# 1 0.030433 -0.001170 -0.004715 0.007315 0.000456 -0.024664
# 2 -0.001170 0.009842 -0.003943 0.001807 -0.001355 -0.001209
# 3 -0.004715 -0.003943 0.015056 -0.003550 0.003061 0.000143
# 4 0.007315 0.001807 -0.003550 0.029347 -0.011296 0.001046
# 5 0.000456 -0.001355 0.003061 -0.011296 0.025480 -0.007609
# 6 -0.024664 -0.001209 0.000143 0.001046 -0.007609 0.044777
#
#
# Mechanical properties :
#
#
# Convention : Reuss Voigt Hill
#
# Bulk Modulus (GPa) = 28.02972 53.68420 40.85696
# Shear Modulus (GPa) = 26.81235 42.34743 34.57989
#
# Velocity S-wave (km/s) = 3.18555 4.00342 3.61767
# Velocity P-wave (km/s) = 4.91313 6.45661 5.73702
#
# Compressibility (1/GPa) = 0.03567642
#
# Stress axis : x y z
#
# Youngs Moduli (GPa) = 32.85920 101.60613 66.41959
#
# Poissons Ratio (x) = 0.11887 0.31314
# Poissons Ratio (y) = 0.03844 0.26187
# Poissons Ratio (z) = 0.15492 0.40059
#
# Static dielectric constant tensor:
#      x y z
#    x 2.312410 0.248840 -0.073920 
#    y 0.248840 2.519710 -0.157770 
#    z -0.073920 -0.157770 2.073090 
# 
# From -- ./inp_files/114551.got.cif
#   From: 2010.05.17/outbox.cif.g08.bks.cpg/sg2_58_cif.got.tgz:114551.got - 2010.06.03 11:33:40.
