data_PCOD9015967
_publ_section_title
;
Structure prediction by ZEFSAII (Michael W. Deem and Ramdas Pophale) SiO2 
 PCOD9015967
Probable space group: P -1
;
_chemical_formula_sum "Si O2"
_cell_formula_units_Z 16
_cell_length_a 14.451854
_cell_length_b 11.569886
_cell_length_c 15.295509
_cell_angle_alpha 153.038146
_cell_angle_beta 144.748816
_cell_angle_gamma 40.389622
_cell_volume 663.655665
_symmetry_space_group_name_H-M "P -1"
_symmetry_group_IT_number 2
_symmetry_cell_setting 'triclinic'
loop_
_space_group_symop_operation_xyz
x,y,z
-x,-y,-z
loop_
_atom_site_type_symbol
_atom_site_label
_atom_site_fract_x
_atom_site_fract_y
_atom_site_fract_z
Si Si1 0.657991 0.224832 0.017649
Si Si2 0.993386 0.908213 0.771511
Si Si3 0.991853 0.552244 0.927400
Si Si4 0.098655 0.448272 0.407501
Si Si5 0.484566 0.747332 0.262548
Si Si6 0.428176 0.916858 0.702820
Si Si7 0.204839 0.398860 0.844150
Si Si8 0.327516 0.518151 0.475753
O O1 0.835017 0.084481 0.043946
O O2 0.641080 0.528655 0.228496
O O3 0.626850 0.207887 0.335155
O O4 0.573789 0.089794 0.940116
O O5 0.881119 0.808690 0.691616
O O6 0.043724 0.685996 0.589738
O O7 0.951252 0.174225 0.869624
O O8 0.121532 0.356568 0.843672
O O9 0.000000 0.500000 0.000000
O O10 0.813868 0.537836 0.739936
O O11 0.940696 0.461972 0.232649
O O12 0.248650 0.492329 0.491985
O O13 0.439367 0.810529 0.169802
O O14 0.500000 0.000000 0.500000
O O15 0.344779 0.583077 0.078040
O O16 0.284112 0.115443 0.684865
O O17 0.511239 0.682669 0.549516
#
# Coordination Sequence:
#
# PCOD9015967 Si02
#       8
#     2   2   2   2   2   2   2   2
#     4  10  21  42  66 101 142 181 227 296 345 415
#     4  11  23  44  69 100 142 177 240 290 352 416
#     4  11  26  42  66 100 138 182 233 293 348 417
#     4  10  24  42  74 102 135 186 230 295 353 412
#     4  10  22  40  69 102 142 181 231 282 359 424
#     4  10  22  42  70  95 138 182 230 285 350 419
#     4  10  23  44  69 102 135 184 231 292 355 415
#     4  10  23  44  69 100 131 190 233 287 355 413
#
# _framework density 24.108888
#
# number of rings (size 3 to 8) (size 9 to 14) (size 15 to 20)
#    0.000    1.750    2.500    0.000    3.500    8.000 
#    0.000    5.000    0.000    0.000    0.000    0.000 
#    0.000    0.000    0.000    0.000    0.000    0.000 
#
# Total GULP energy -89465.885580 kJ/mol
# GULP energy per Si atom -5591.617849 kJ/mol
# Density = 2.405402 g / cm^3
# Si number density = 24.108888 Si / 1000 Ang^3
#
#
#
# Elastic Constant Matrix: (Units=GPa)
#
#
# Indices 1 2 3 4 5 6 
#
# 1 188.3425 60.1272 35.6240 4.0726 5.3738 23.6465
# 2 60.1272 101.4448 35.7273 24.0258 3.5776 3.8828
# 3 35.6240 35.7273 84.0723 16.1236 -4.1093 12.8694
# 4 4.0726 24.0258 16.1236 30.8566 2.2759 3.4970
# 5 5.3738 3.5776 -4.1093 2.2759 36.7470 5.0961
# 6 23.6465 3.8828 12.8694 3.4970 5.0961 43.6955
#
#
#
# Elastic Compliance Matrix: (Units=1/GPa)
#
#
# Indices 1 2 3 4 5 6 
#
# 1 0.007426 -0.004660 -0.001398 0.003809 -0.000548 -0.003434
# 2 -0.004660 0.016235 -0.003429 -0.010502 -0.001056 0.003053
# 3 -0.001398 -0.003429 0.015614 -0.005136 0.003086 -0.003486
# 4 0.003809 -0.010502 -0.005136 0.043261 -0.002400 -0.002797
# 5 -0.000548 -0.001056 0.003086 -0.002400 0.028394 -0.003638
# 6 -0.003434 0.003053 -0.003486 -0.002797 -0.003638 0.026148
#
#
# Mechanical properties :
#
#
# Convention : Reuss Voigt Hill
#
# Bulk Modulus (GPa) = 49.26102 70.75739 60.00921
# Shear Modulus (GPa) = 30.70884 38.41856 34.56370
#
# Velocity S-wave (km/s) = 3.57284 3.99625 3.79046
# Velocity P-wave (km/s) = 6.12351 7.12083 6.64092
#
# Compressibility (1/GPa) = 0.02030003
#
# Stress axis : x y z
#
# Youngs Moduli (GPa) = 134.66040 61.59394 64.04630
#
# Poissons Ratio (x) = 0.28706 0.08952
# Poissons Ratio (y) = 0.62758 0.21964
# Poissons Ratio (z) = 0.18822 0.21123
#
# Static dielectric constant tensor:
#      x y z
#    x 1.937770 -0.024650 0.013450 
#    y -0.024650 1.955710 -0.011330 
#    z 0.013450 -0.011330 1.988000 
# 
# From -- ./inp_files/532193.got.cif
#   From: 2010.05.17/outbox.cif.g08.bks.cpg/sg2_267_cif.got.tgz:532193.got - 2010.06.03 11:33:40.
