data_PCOD9015758
_publ_section_title
;
Structure prediction by ZEFSAII (Michael W. Deem and Ramdas Pophale) SiO2 
 PCOD9015758
Probable space group: P -1
;
_chemical_formula_sum "Si O2"
_cell_formula_units_Z 16
_cell_length_a 13.013532
_cell_length_b 5.610322
_cell_length_c 9.107275
_cell_angle_alpha 87.409506
_cell_angle_beta 85.198217
_cell_angle_gamma 78.757613
_cell_volume 649.591371
_symmetry_space_group_name_H-M "P -1"
_symmetry_group_IT_number 2
_symmetry_cell_setting 'triclinic'
loop_
_space_group_symop_operation_xyz
x,y,z
-x,-y,-z
loop_
_atom_site_type_symbol
_atom_site_label
_atom_site_fract_x
_atom_site_fract_y
_atom_site_fract_z
Si Si1 0.094538 0.807992 0.358624
Si Si2 0.449427 0.767533 0.563543
Si Si3 0.597560 0.214872 0.097380
Si Si4 0.785466 0.970303 0.455985
Si Si5 0.769471 0.631015 0.745865
Si Si6 0.083078 0.325341 0.781455
Si Si7 0.047886 0.220470 0.109279
Si Si8 0.379402 0.291650 0.992438
O O1 0.205642 0.643234 0.304691
O O2 0.003847 0.657200 0.340755
O O3 0.116927 0.899894 0.514342
O O4 0.068154 0.010997 0.232375
O O5 0.500000 0.500000 0.500000
O O6 0.454120 0.751978 0.738669
O O7 0.500000 0.000000 0.500000
O O8 0.324304 0.844519 0.546567
O O9 0.660356 0.433833 0.066042
O O10 0.652891 0.935222 0.079394
O O11 0.506408 0.251547 0.981770
O O12 0.779224 0.795368 0.599894
O O13 0.814403 0.808035 0.311993
O O14 0.856448 0.644489 0.860325
O O15 0.661393 0.714887 0.837835
O O16 0.060755 0.596119 0.843772
O O17 0.061584 0.175242 0.934882
#
# Coordination Sequence:
#
# PCOD9015758 Si02
#       8
#     2   2   2   2   2   2   2   2
#     4  10  22  40  64  98 130 182 226 280 352 416
#     4  12  28  49  72 102 150 187 235 294 355 419
#     4  10  23  42  66 101 124 183 229 293 346 406
#     4  11  26  40  68  97 136 186 233 279 358 426
#     4  10  23  39  63  94 135 182 225 289 343 419
#     4  10  21  42  65 100 136 173 229 288 349 424
#     4   9  21  40  65  96 136 175 219 292 351 405
#     4  10  22  40  69  94 135 169 236 289 345 410
#
# _framework density 24.630870999999999
#
# number of rings (size 3 to 8) (size 9 to 14) (size 15 to 20)
#    0.000    1.750    0.000    2.250    8.750    6.500 
#    0.000    0.000    0.000    0.000    0.000    0.000 
#    0.000    0.000    0.000    0.000    0.000    0.000 
#
# Total GULP energy -89298.548350 kJ/mol
# GULP energy per Si atom -5581.159272 kJ/mol
# Density = 2.457481 g / cm^3
# Si number density = 24.630871 Si / 1000 Ang^3
#
#
#
# Elastic Constant Matrix: (Units=GPa)
#
#
# Indices 1 2 3 4 5 6 
#
# 1 75.6881 31.4943 32.8994 2.9254 12.6497 -23.5802
# 2 31.4943 152.4603 69.0754 21.7939 -5.5763 -2.0095
# 3 32.8994 69.0754 159.8438 13.3013 -10.5643 -8.2293
# 4 2.9254 21.7939 13.3013 38.6364 -7.6719 -9.1266
# 5 12.6497 -5.5763 -10.5643 -7.6719 38.5530 -3.4110
# 6 -23.5802 -2.0095 -8.2293 -9.1266 -3.4110 36.2495
#
#
#
# Elastic Compliance Matrix: (Units=1/GPa)
#
#
# Indices 1 2 3 4 5 6 
#
# 1 0.020879 -0.003576 -0.002770 0.003191 -0.006345 0.012961
# 2 -0.003576 0.009326 -0.003062 -0.004715 0.000422 -0.003651
# 3 -0.002770 -0.003062 0.008364 -0.000389 0.002688 0.000082
# 4 0.003191 -0.004715 -0.000389 0.031940 0.005430 0.010279
# 5 -0.006345 0.000422 0.002688 0.005430 0.029959 0.000692
# 6 0.012961 -0.003651 0.000082 0.010279 0.000692 0.038487
#
#
# Mechanical properties :
#
#
# Convention : Reuss Voigt Hill
#
# Bulk Modulus (GPa) = 50.62289 72.77005 61.69647
# Shear Modulus (GPa) = 30.42187 39.65598 35.03892
#
# Velocity S-wave (km/s) = 3.51823 4.01685 3.77578
# Velocity P-wave (km/s) = 6.09107 7.14995 6.64165
#
# Compressibility (1/GPa) = 0.01975391
#
# Stress axis : x y z
#
# Youngs Moduli (GPa) = 47.89521 107.22347 119.56375
#
# Poissons Ratio (x) = 0.38338 0.33117
# Poissons Ratio (y) = 0.17125 0.36612
# Poissons Ratio (z) = 0.13266 0.32834
#
# Static dielectric constant tensor:
#      x y z
#    x 2.059320 0.032570 -0.000640 
#    y 0.032570 2.031820 0.039830 
#    z -0.000640 0.039830 1.898790 
# 
# From -- ./inp_files/45424.got.cif
#   From: 2010.05.17/outbox.cif.g08.bks.cpg/sg2_23_cif.got.tgz:45424.got - 2010.06.03 11:33:40.
