data_PCOD9015002
_publ_section_title
;
Structure prediction by ZEFSAII (Michael W. Deem and Ramdas Pophale) SiO2 
 PCOD9015002
Probable space group: P -1
;
_chemical_formula_sum "Si O2"
_cell_formula_units_Z 14
_cell_length_a 12.357618
_cell_length_b 9.351339
_cell_length_c 15.319259
_cell_angle_alpha 51.481735
_cell_angle_beta 153.434270
_cell_angle_gamma 119.193548
_cell_volume 607.196333
_symmetry_space_group_name_H-M "P -1"
_symmetry_group_IT_number 2
_symmetry_cell_setting 'triclinic'
loop_
_space_group_symop_operation_xyz
x,y,z
-x,-y,-z
loop_
_atom_site_type_symbol
_atom_site_label
_atom_site_fract_x
_atom_site_fract_y
_atom_site_fract_z
Si Si1 0.448059 0.245408 0.299821
Si Si2 0.539528 0.433975 0.954505
Si Si3 0.945977 0.111376 0.030771
Si Si4 0.099515 0.311118 0.396910
Si Si5 0.116487 0.043089 0.358345
Si Si6 0.267427 0.169384 0.760462
Si Si7 0.218693 0.716558 0.317162
O O1 0.449068 0.400556 0.168158
O O2 0.184535 0.194213 0.143348
O O3 0.551234 0.304683 0.443494
O O4 0.642815 0.064815 0.476727
O O5 0.330518 0.328586 0.808970
O O6 0.500000 0.500000 0.000000
O O7 0.809862 0.303301 0.197462
O O8 0.925211 0.137786 0.109130
O O9 0.014567 0.889764 0.143588
O O10 0.739741 0.216177 0.776566
O O11 0.184902 0.185337 0.422862
O O12 0.233321 0.237563 0.610657
O O13 0.126708 0.523529 0.323492
O O14 0.980154 0.896054 0.363331
O O15 0.500000 0.000000 0.000000
#
# Coordination Sequence:
#
# PCOD9015002 Si02
#       7
#     2   2   2   2   2   2   2
#     4  11  23  47  67 103 137 177 233 280 336 406
#     4  12  27  42  74 102 133 182 230 285 338 407
#     4  10  23  45  69 100 139 180 228 281 336 401
#     4  12  25  47  66 105 138 178 229 283 338 411
#     4  11  25  43  72 100 141 183 225 280 343 408
#     4  12  27  48  67 101 144 177 225 287 348 401
#     4  10  21  41  70  95 137 176 226 276 332 398
#
# _framework density 23.056792000000002
#
# number of rings (size 3 to 8) (size 9 to 14) (size 15 to 20)
#    0.000    0.857    4.286    3.000    6.000    1.714 
#    2.571    2.857    0.000    0.000    0.000    0.000 
#    0.000    0.000    0.000    0.000    0.000    0.000 
#
# Total GULP energy -78415.248400 kJ/mol
# GULP energy per Si atom -5601.089171 kJ/mol
# Density = 2.300431 g / cm^3
# Si number density = 23.056792 Si / 1000 Ang^3
#
#
#
# Elastic Constant Matrix: (Units=GPa)
#
#
# Indices 1 2 3 4 5 6 
#
# 1 92.8475 61.9141 41.4172 5.1121 -41.8477 -14.2333
# 2 61.9141 173.4162 34.8872 22.9153 -27.7528 -2.7735
# 3 41.4172 34.8872 106.9206 8.0704 -44.0651 -6.3764
# 4 5.1121 22.9153 8.0704 30.0631 5.9902 -18.1801
# 5 -41.8477 -27.7528 -44.0651 5.9902 60.0464 12.9548
# 6 -14.2333 -2.7735 -6.3764 -18.1801 12.9548 33.3920
#
#
#
# Elastic Compliance Matrix: (Units=1/GPa)
#
#
# Indices 1 2 3 4 5 6 
#
# 1 0.020109 -0.006067 -0.002913 0.005284 0.006880 0.007719
# 2 -0.006067 0.010616 0.002195 -0.016978 0.006826 -0.013177
# 3 -0.002913 0.002195 0.016743 -0.016726 0.015763 -0.013084
# 4 0.005284 -0.016978 -0.016726 0.098464 -0.040729 0.067058
# 5 0.006880 0.006826 0.015763 -0.040729 0.047598 -0.034131
# 6 0.007719 -0.013177 -0.013084 0.067058 -0.034131 0.079395
#
#
# Mechanical properties :
#
#
# Convention : Reuss Voigt Hill
#
# Bulk Modulus (GPa) = 29.49968 72.18015 50.83992
# Shear Modulus (GPa) = 16.79008 40.36469 28.57739
#
# Velocity S-wave (km/s) = 2.70146 4.18863 3.52438
# Velocity P-wave (km/s) = 4.74896 7.40042 6.21767
#
# Compressibility (1/GPa) = 0.03389868
#
# Stress axis : x y z
#
# Youngs Moduli (GPa) = 49.72968 94.19580 59.72498
#
# Poissons Ratio (x) = 0.57149 0.17397
# Poissons Ratio (y) = 0.30171 -0.13110
# Poissons Ratio (z) = 0.14485 -0.20677
#
# Static dielectric constant tensor:
#      x y z
#    x 1.862340 -0.021500 -0.012710 
#    y -0.021500 1.848280 0.000740 
#    z -0.012710 0.000740 1.901870 
# 
# From -- ./inp_files/200091.got.cif
#   From: 2010.05.17/outbox.cif.g08.bks.cpg/sg2_101_cif.got.tgz:200091.got - 2010.06.03 11:33:40.
