data_PCOD9015492
_publ_section_title
;
Structure prediction by ZEFSAII (Michael W. Deem and Ramdas Pophale) SiO2 
 PCOD9015492
Probable space group: P -1
;
_chemical_formula_sum "Si O2"
_cell_formula_units_Z 12
_cell_length_a 14.581951
_cell_length_b 12.189102
_cell_length_c 6.547545
_cell_angle_alpha 92.046310
_cell_angle_beta 75.682792
_cell_angle_gamma 30.187747
_cell_volume 487.048013
_symmetry_space_group_name_H-M "P -1"
_symmetry_group_IT_number 2
_symmetry_cell_setting 'triclinic'
loop_
_space_group_symop_operation_xyz
x,y,z
-x,-y,-z
loop_
_atom_site_type_symbol
_atom_site_label
_atom_site_fract_x
_atom_site_fract_y
_atom_site_fract_z
Si Si1 0.989772 0.171538 0.910027
Si Si2 0.802433 0.628942 0.364636
Si Si3 0.210151 0.066274 0.114583
Si Si4 0.521345 0.063604 0.809050
Si Si5 0.726685 0.322675 0.404692
Si Si6 0.829657 0.401291 0.613857
O O1 0.883112 0.362179 0.816172
O O2 0.086366 0.965715 0.725503
O O3 0.186196 0.024538 0.916304
O O4 0.806007 0.323038 0.181463
O O5 0.732983 0.811546 0.532094
O O6 0.727013 0.609769 0.559187
O O7 0.058334 0.334118 0.178686
O O8 0.672915 0.748436 0.234024
O O9 0.425834 0.878489 0.098438
O O10 0.069556 0.142884 0.357531
O O11 0.500000 0.000000 0.000000
O O12 0.500000 0.500000 0.500000
O O13 0.713944 0.408903 0.620991
#
# Coordination Sequence:
#
# PCOD9015492 Si02
#       6
#     2   2   2   2   2   2
#     4  10  21  42  63  90 126 168 205 247 329 363
#     4   9  23  41  57  90 121 161 209 252 307 363
#     4   9  22  41  61  87 125 164 202 260 307 365
#     4  11  23  38  63  91 123 160 213 254 306 376
#     4  10  22  39  62  96 124 160 211 258 302 380
#     4   9  21  40  62  83 127 165 200 259 309 369
#
# _framework density 24.638231000000001
#
# number of rings (size 3 to 8) (size 9 to 14) (size 15 to 20)
#    1.000    1.333    0.000    1.000    2.333    6.667 
#    0.000    0.000    0.000    0.000    0.000    0.000 
#    0.000    0.000    0.000    0.000    0.000    0.000 
#
# Total GULP energy -67000.611414 kJ/mol
# GULP energy per Si atom -5583.384285 kJ/mol
# Density = 2.458215 g / cm^3
# Si number density = 24.638231 Si / 1000 Ang^3
#
#
#
# Elastic Constant Matrix: (Units=GPa)
#
#
# Indices 1 2 3 4 5 6 
#
# 1 110.4248 16.5996 31.1924 -18.8218 22.6335 -31.7150
# 2 16.5996 92.2924 42.3594 -32.6816 1.3933 -20.0819
# 3 31.1924 42.3594 78.4858 -36.0669 15.8068 -3.9115
# 4 -18.8218 -32.6816 -36.0669 50.3050 -1.4018 9.5631
# 5 22.6335 1.3933 15.8068 -1.4018 37.9536 4.5262
# 6 -31.7150 -20.0819 -3.9115 9.5631 4.5262 36.4088
#
#
#
# Elastic Compliance Matrix: (Units=1/GPa)
#
#
# Indices 1 2 3 4 5 6 
#
# 1 0.017429 0.003851 -0.005317 0.001575 -0.010363 0.017610
# 2 0.003851 0.018246 -0.008302 0.005187 -0.000659 0.011247
# 3 -0.005317 -0.008302 0.025903 0.012751 -0.005761 -0.009061
# 4 0.001575 0.005187 0.012751 0.033326 -0.004906 -0.002541
# 5 -0.010363 -0.000659 -0.005761 -0.004906 0.036349 -0.013239
# 6 0.017610 0.011247 -0.009061 -0.002541 -0.013239 0.050349
#
#
# Mechanical properties :
#
#
# Convention : Reuss Voigt Hill
#
# Bulk Modulus (GPa) = 23.78501 51.27844 37.53172
# Shear Modulus (GPa) = 23.23948 37.67026 30.45487
#
# Velocity S-wave (km/s) = 3.07453 3.91440 3.51961
# Velocity P-wave (km/s) = 4.71999 6.42556 5.63765
#
# Compressibility (1/GPa) = 0.04204329
#
# Stress axis : x y z
#
# Youngs Moduli (GPa) = 57.37534 54.80513 38.60581
#
# Poissons Ratio (x) = -0.21108 0.20528
# Poissons Ratio (y) = -0.22098 0.32050
# Poissons Ratio (z) = 0.30508 0.45498
#
# Static dielectric constant tensor:
#      x y z
#    x 1.969660 0.054570 0.018140 
#    y 0.054570 2.033060 0.079050 
#    z 0.018140 0.079050 1.983340 
# 
# From -- ./inp_files/47253.got.cif
#   From: 2010.05.17/outbox.cif.g08.bks.cpg/sg2_24_cif.got.tgz:47253.got - 2010.06.03 11:33:40.
