data_PCOD9015089
_publ_section_title
;
Structure prediction by ZEFSAII (Michael W. Deem and Ramdas Pophale) SiO2 
 PCOD9015089
Probable space group: P -1
;
_chemical_formula_sum "Si O2"
_cell_formula_units_Z 16
_cell_length_a 14.696369
_cell_length_b 10.551215
_cell_length_c 7.631466
_cell_angle_alpha 45.594400
_cell_angle_beta 60.439547
_cell_angle_gamma 85.256052
_cell_volume 666.529452
_symmetry_space_group_name_H-M "P -1"
_symmetry_group_IT_number 2
_symmetry_cell_setting 'triclinic'
loop_
_space_group_symop_operation_xyz
x,y,z
-x,-y,-z
loop_
_atom_site_type_symbol
_atom_site_label
_atom_site_fract_x
_atom_site_fract_y
_atom_site_fract_z
Si Si1 0.000571 0.024004 0.187890
Si Si2 0.454216 0.347635 0.856918
Si Si3 0.688135 0.409061 0.634045
Si Si4 0.766844 0.733903 0.658497
Si Si5 0.863509 0.435974 0.721802
Si Si6 0.319028 0.935859 0.217781
Si Si7 0.753419 0.855804 0.177070
Si Si8 0.920235 0.308966 0.146412
O O1 0.006104 0.226298 0.059704
O O2 0.877711 0.877428 0.523055
O O3 0.115860 0.002643 0.137503
O O4 0.000000 0.000000 0.000000
O O5 0.500000 0.500000 0.500000
O O6 0.562082 0.380518 0.849926
O O7 0.348792 0.376815 0.018537
O O8 0.396251 0.113831 0.097511
O O9 0.776934 0.352521 0.720026
O O10 0.655530 0.253112 0.657097
O O11 0.738503 0.642420 0.327387
O O12 0.824122 0.605254 0.640020
O O13 0.742747 0.844154 0.408711
O O14 0.000000 0.500000 0.500000
O O15 0.850749 0.330223 0.021148
O O16 0.186619 0.837541 0.499199
O O17 0.329436 0.062294 0.909955
O O18 0.000000 0.500000 0.000000
#
# Coordination Sequence:
#
# PCOD9015089 Si02
#       8
#     2   2   2   2   2   2   2   2
#     4  10  21  41  71 103 150 195 248 306 388 475
#     4  12  26  51  75 106 155 203 267 324 372 447
#     4  11  26  48  75 106 150 205 258 306 386 454
#     4  10  24  45  76 106 146 204 256 309 393 456
#     4  11  25  47  76 112 156 195 247 321 384 479
#     4  12  26  45  75 107 153 198 250 326 386 439
#     4  10  23  44  72 110 147 194 252 315 389 468
#     4  12  26  43  71 115 155 193 252 317 394 460
#
# _framework density 24.004940000000001
#
# number of rings (size 3 to 8) (size 9 to 14) (size 15 to 20)
#    0.000    1.000    2.500    4.125    8.750    3.500 
#    0.000    1.250    0.000    0.000    0.000    0.000 
#    0.000    0.000    0.000    0.000    0.000    0.000 
#
# Total GULP energy -89102.347060 kJ/mol
# GULP energy per Si atom -5568.896691 kJ/mol
# Density = 2.395030 g / cm^3
# Si number density = 24.004940 Si / 1000 Ang^3
#
#
#
# Elastic Constant Matrix: (Units=GPa)
#
#
# Indices 1 2 3 4 5 6 
#
# 1 103.9816 -3.1963 48.4860 12.7115 -18.2842 -6.3174
# 2 -3.1963 106.3257 16.3762 5.6839 -19.8881 7.4249
# 3 48.4860 16.3762 117.7690 21.1317 -16.8790 -2.9664
# 4 12.7115 5.6839 21.1317 27.7963 -3.5600 -13.8927
# 5 -18.2842 -19.8881 -16.8790 -3.5600 49.2638 2.7242
# 6 -6.3174 7.4249 -2.9664 -13.8927 2.7242 18.2489
#
#
#
# Elastic Compliance Matrix: (Units=1/GPa)
#
#
# Indices 1 2 3 4 5 6 
#
# 1 0.012758 0.001796 -0.004655 -0.001617 0.003685 0.001148
# 2 0.001796 0.011667 -0.000541 -0.007460 0.005243 -0.010675
# 3 -0.004655 -0.000541 0.012557 -0.011098 0.002002 -0.008098
# 4 -0.001617 -0.007460 -0.011098 0.075439 -0.005219 0.058881
# 5 0.003685 0.005243 0.002002 -0.005219 0.024544 -0.008169
# 6 0.001148 -0.010675 -0.008098 0.058881 -0.008169 0.104267
#
#
# Mechanical properties :
#
#
# Convention : Reuss Voigt Hill
#
# Bulk Modulus (GPa) = 33.13112 50.15646 41.64379
# Shear Modulus (GPa) = 19.37283 36.82249 28.09766
#
# Velocity S-wave (km/s) = 2.84392 3.92082 3.42496
# Velocity P-wave (km/s) = 4.96141 6.43714 5.74684
#
# Compressibility (1/GPa) = 0.03018311
#
# Stress axis : x y z
#
# Youngs Moduli (GPa) = 78.37970 85.71016 79.63490
#
# Poissons Ratio (x) = -0.15394 0.37072
# Poissons Ratio (y) = -0.14077 0.04306
# Poissons Ratio (z) = 0.36488 0.04635
#
# Static dielectric constant tensor:
#      x y z
#    x 2.171610 0.240350 -0.000040 
#    y 0.240350 1.837700 0.080740 
#    z -0.000040 0.080740 1.942400 
# 
# From -- ./inp_files/306177.got.cif
#   From: 2010.05.17/outbox.cif.g08.bks.cpg/sg2_154_cif.got.tgz:306177.got - 2010.06.03 11:33:40.
