data_PCOD9015981
_publ_section_title
;
Structure prediction by ZEFSAII (Michael W. Deem and Ramdas Pophale) SiO2 
 PCOD9015981
Probable space group: P -1
;
_chemical_formula_sum "Si O2"
_cell_formula_units_Z 16
_cell_length_a 10.792670
_cell_length_b 22.933836
_cell_length_c 10.937032
_cell_angle_alpha 29.022180
_cell_angle_beta 135.443899
_cell_angle_gamma 148.186534
_cell_volume 687.396727
_symmetry_space_group_name_H-M "P -1"
_symmetry_group_IT_number 2
_symmetry_cell_setting 'triclinic'
loop_
_space_group_symop_operation_xyz
x,y,z
-x,-y,-z
loop_
_atom_site_type_symbol
_atom_site_label
_atom_site_fract_x
_atom_site_fract_y
_atom_site_fract_z
Si Si1 0.924983 0.844038 0.170068
Si Si2 0.660375 0.913328 0.489390
Si Si3 0.457776 0.688797 0.971291
Si Si4 0.633098 0.612702 0.602331
Si Si5 0.808243 0.752371 0.732060
Si Si6 0.800854 0.436068 0.734851
Si Si7 0.796361 0.198586 0.720500
Si Si8 0.028728 0.644571 0.193226
O O1 0.700468 0.765157 0.071043
O O2 0.835231 0.719646 0.445257
O O3 0.125083 0.879187 0.160894
O O4 0.000000 0.000000 0.000000
O O5 0.703974 0.806101 0.648868
O O6 0.479233 0.903567 0.296616
O O7 0.518448 0.825591 0.675620
O O8 0.911990 0.087842 0.371788
O O9 0.395346 0.542279 0.118686
O O10 0.269648 0.621842 0.069640
O O11 0.699784 0.703531 0.610370
O O12 0.398955 0.568369 0.459835
O O13 0.803670 0.616239 0.036605
O O14 0.815702 0.320867 0.878022
O O15 0.047721 0.619971 0.559137
O O16 0.874150 0.230681 0.857094
O O17 0.000000 0.500000 0.500000
#
# Coordination Sequence:
#
# PCOD9015981 Si02
#       8
#     2   2   2   2   2   2   2   2
#     4  11  22  41  69 102 140 181 223 273 337 408
#     4  11  27  43  70  97 139 186 217 286 344 397
#     4  11  22  42  69  99 134 182 223 273 337 401
#     4  11  22  40  70  96 136 180 221 282 330 398
#     4  11  26  48  63 100 138 175 236 276 342 410
#     4  10  21  42  66 106 135 170 230 276 332 399
#     4  11  22  44  66 102 136 174 230 275 338 400
#     4  10  24  41  70  98 132 177 225 285 334 391
#
# _framework density 23.276223999999999
#
# number of rings (size 3 to 8) (size 9 to 14) (size 15 to 20)
#    0.000    1.250    2.500    3.000    5.250    5.500 
#    0.000    1.875    0.000    0.000    0.000    0.000 
#    0.000    0.000    0.000    0.000    0.000    0.000 
#
# Total GULP energy -89546.286515 kJ/mol
# GULP energy per Si atom -5596.642907 kJ/mol
# Density = 2.322325 g / cm^3
# Si number density = 23.276224 Si / 1000 Ang^3
#
#
#
# Elastic Constant Matrix: (Units=GPa)
#
#
# Indices 1 2 3 4 5 6 
#
# 1 126.2568 29.0505 13.0199 -13.8193 10.1555 -12.4870
# 2 29.0505 84.5871 8.1518 -5.0784 -10.4275 -9.8334
# 3 13.0199 8.1518 44.9430 -2.8653 -3.6996 -8.7942
# 4 -13.8193 -5.0784 -2.8653 25.5301 -7.4286 1.1478
# 5 10.1555 -10.4275 -3.6996 -7.4286 40.2188 -1.5159
# 6 -12.4870 -9.8334 -8.7942 1.1478 -1.5159 35.1938
#
#
#
# Elastic Compliance Matrix: (Units=1/GPa)
#
#
# Indices 1 2 3 4 5 6 
#
# 1 0.009589 -0.003012 -0.001860 0.003527 -0.002652 0.001867
# 2 -0.003012 0.013984 -0.000556 0.002382 0.004882 0.002832
# 3 -0.001860 -0.000556 0.024342 0.002304 0.003191 0.005330
# 4 0.003527 0.002382 0.002304 0.044117 0.008140 0.001404
# 5 -0.002652 0.004882 0.003191 0.008140 0.028679 0.002190
# 6 0.001867 0.002832 0.005330 0.001404 0.002190 0.031248
#
#
# Mechanical properties :
#
#
# Convention : Reuss Voigt Hill
#
# Bulk Modulus (GPa) = 26.98309 39.58126 33.28217
# Shear Modulus (GPa) = 28.54393 33.89286 31.21839
#
# Velocity S-wave (km/s) = 3.50567 3.82005 3.66623
# Velocity P-wave (km/s) = 5.29189 6.04144 5.67904
#
# Compressibility (1/GPa) = 0.03706025
#
# Stress axis : x y z
#
# Youngs Moduli (GPa) = 104.28415 71.50880 41.08048
#
# Poissons Ratio (x) = 0.21540 0.07640
# Poissons Ratio (y) = 0.31412 0.02284
# Poissons Ratio (z) = 0.19394 0.03975
#
# Static dielectric constant tensor:
#      x y z
#    x 1.857540 0.018140 -0.024520 
#    y 0.018140 1.804970 0.016280 
#    z -0.024520 0.016280 1.854440 
# 
# From -- ./inp_files/274249.got.cif
#   From: 2010.05.17/outbox.cif.g08.bks.cpg/sg2_138_cif.got.tgz:274249.got - 2010.06.03 11:33:40.
