data_PCOD9015203
_publ_section_title
;
Structure prediction by ZEFSAII (Michael W. Deem and Ramdas Pophale) SiO2 
 PCOD9015203
Probable space group: P -1
;
_chemical_formula_sum "Si O2"
_cell_formula_units_Z 14
_cell_length_a 16.177756
_cell_length_b 5.193542
_cell_length_c 12.794671
_cell_angle_alpha 116.698988
_cell_angle_beta 143.887314
_cell_angle_gamma 62.876819
_cell_volume 557.143357
_symmetry_space_group_name_H-M "P -1"
_symmetry_group_IT_number 2
_symmetry_cell_setting 'triclinic'
loop_
_space_group_symop_operation_xyz
x,y,z
-x,-y,-z
loop_
_atom_site_type_symbol
_atom_site_label
_atom_site_fract_x
_atom_site_fract_y
_atom_site_fract_z
Si Si1 0.867928 0.761880 0.900889
Si Si2 0.675378 0.201945 0.435613
Si Si3 0.646529 0.677498 0.175029
Si Si4 0.070471 0.147738 0.255068
Si Si5 0.535132 0.424560 0.844704
Si Si6 0.075788 0.659999 0.518188
Si Si7 0.433492 0.100523 0.338313
O O1 0.858282 0.831101 0.780837
O O2 0.716098 0.679571 0.764094
O O3 0.000000 0.500000 0.000000
O O4 0.923091 0.033693 0.064053
O O5 0.697092 0.966781 0.319848
O O6 0.825999 0.113913 0.627446
O O7 0.606711 0.486800 0.353243
O O8 0.551902 0.178036 0.392447
O O9 0.508280 0.699118 0.112244
O O10 0.761729 0.404879 0.284722
O O11 0.615403 0.670218 0.018600
O O12 0.064277 0.456065 0.366558
O O13 0.622045 0.176350 0.819663
O O14 0.000000 0.500000 0.500000
O O15 0.000000 0.000000 0.500000
O O16 0.500000 0.000000 0.500000
#
# Coordination Sequence:
#
# PCOD9015203 Si02
#       7
#     2   2   2   2   2   2   2
#     4  11  26  45  70  97 148 189 238 303 367 440
#     4  10  21  41  72  95 134 182 235 297 358 437
#     4   9  22  42  63 102 131 178 229 295 360 423
#     4  10  25  45  68 105 137 191 244 295 375 435
#     4  10  22  40  69  91 136 171 237 293 356 423
#     4  11  27  46  74 106 147 191 241 303 369 452
#     4  11  24  42  63 101 132 179 244 293 353 429
#
# _framework density 25.128181999999999
#
# number of rings (size 3 to 8) (size 9 to 14) (size 15 to 20)
#    0.000    1.714    1.429    0.429   10.000    2.857 
#    0.000    0.000    0.000    0.000    0.000    0.000 
#    0.000    0.000    0.000    0.000    0.000    0.000 
#
# Total GULP energy -78116.668610 kJ/mol
# GULP energy per Si atom -5579.762044 kJ/mol
# Density = 2.507099 g / cm^3
# Si number density = 25.128182 Si / 1000 Ang^3
#
#
#
# Elastic Constant Matrix: (Units=GPa)
#
#
# Indices 1 2 3 4 5 6 
#
# 1 97.6077 20.4658 56.0875 -3.7545 7.1512 -13.0912
# 2 20.4658 121.4675 50.7158 -4.1433 1.2406 -16.6293
# 3 56.0875 50.7158 157.3123 18.4572 -10.6188 -20.8835
# 4 -3.7545 -4.1433 18.4572 37.8441 -9.0176 -4.1995
# 5 7.1512 1.2406 -10.6188 -9.0176 34.8481 -9.8966
# 6 -13.0912 -16.6293 -20.8835 -4.1995 -9.8966 32.2554
#
#
#
# Elastic Compliance Matrix: (Units=1/GPa)
#
#
# Indices 1 2 3 4 5 6 
#
# 1 0.013914 0.000331 -0.005453 0.003536 -0.003104 0.001795
# 2 0.000331 0.010161 -0.003228 0.003277 0.000535 0.003874
# 3 -0.005453 -0.003228 0.010682 -0.004648 0.004357 0.003770
# 4 0.003536 0.003277 -0.004648 0.032039 0.007942 0.006723
# 5 -0.003104 0.000535 0.004357 0.007942 0.036711 0.014134
# 6 0.001795 0.003874 0.003770 0.006723 0.014134 0.041381
#
#
# Mechanical properties :
#
#
# Convention : Reuss Voigt Hill
#
# Bulk Modulus (GPa) = 55.38593 70.10285 62.74439
# Shear Modulus (GPa) = 29.83174 37.59740 33.71457
#
# Velocity S-wave (km/s) = 3.44929 3.87230 3.66690
# Velocity P-wave (km/s) = 6.16057 6.92471 6.55379
#
# Compressibility (1/GPa) = 0.01805513
#
# Stress axis : x y z
#
# Youngs Moduli (GPa) = 71.87240 98.41246 93.61871
#
# Poissons Ratio (x) = -0.03254 0.51054
# Poissons Ratio (y) = -0.02377 0.30219
# Poissons Ratio (z) = 0.39195 0.31767
#
# Static dielectric constant tensor:
#      x y z
#    x 2.068580 0.018590 0.093480 
#    y 0.018590 1.941880 -0.114770 
#    z 0.093480 -0.114770 1.986910 
# 
# From -- ./inp_files/442213.got.cif
#   From: 2010.05.17/outbox.cif.g08.bks.cpg/sg2_222_cif.got.tgz:442213.got - 2010.06.03 11:33:40.
