data_PCOD9015135
_publ_section_title
;
Structure prediction by ZEFSAII (Michael W. Deem and Ramdas Pophale) SiO2 
 PCOD9015135
Probable space group: P -1
;
_chemical_formula_sum "Si O2"
_cell_formula_units_Z 16
_cell_length_a 5.092371
_cell_length_b 22.796886
_cell_length_c 13.260687
_cell_angle_alpha 24.226554
_cell_angle_beta 84.926421
_cell_angle_gamma 87.275653
_cell_volume 627.157308
_symmetry_space_group_name_H-M "P -1"
_symmetry_group_IT_number 2
_symmetry_cell_setting 'triclinic'
loop_
_space_group_symop_operation_xyz
x,y,z
-x,-y,-z
loop_
_atom_site_type_symbol
_atom_site_label
_atom_site_fract_x
_atom_site_fract_y
_atom_site_fract_z
Si Si1 0.335218 0.538962 0.347988
Si Si2 0.401728 0.726524 0.448619
Si Si3 0.259477 0.993462 0.399878
Si Si4 0.070024 0.767454 0.908041
Si Si5 0.737776 0.860760 0.509800
Si Si6 0.076980 0.954392 0.181461
Si Si7 0.286323 0.415663 0.931474
Si Si8 0.935207 0.737668 0.294830
O O1 0.500000 0.500000 0.500000
O O2 0.126894 0.403646 0.546477
O O3 0.193508 0.686070 0.122938
O O4 0.519787 0.559596 0.209844
O O5 0.324554 0.860185 0.308289
O O6 0.704676 0.726483 0.405990
O O7 0.223365 0.739494 0.332547
O O8 0.293550 0.571437 0.737930
O O9 0.267545 0.893274 0.656687
O O10 0.509881 0.966871 0.366392
O O11 0.994726 0.920571 0.470473
O O12 0.188736 0.152476 0.179503
O O13 0.985218 0.647524 0.014168
O O14 0.643121 0.706595 0.801441
O O15 0.850607 0.859051 0.396705
O O16 0.106683 0.108522 0.994441
O O17 0.000000 0.000000 0.000000
#
# Coordination Sequence:
#
# PCOD9015135 Si02
#       8
#     2   2   2   2   2   2   2   2
#     4  11  23  41  69 102 146 189 229 283 347 422
#     4  10  21  41  71  98 132 180 225 296 344 412
#     4  10  24  41  70 101 137 186 231 284 346 409
#     4  10  21  42  69  97 145 182 235 280 342 419
#     4  11  24  43  69 102 136 182 230 296 344 410
#     4  10  24  46  72  98 137 181 238 288 355 414
#     4  10  22  41  67  99 143 175 235 283 352 409
#     4  10  22  43  66  97 138 184 229 279 347 412
#
# _framework density 25.511939999999999
#
# number of rings (size 3 to 8) (size 9 to 14) (size 15 to 20)
#    0.000    1.750    2.500    0.375    1.750    7.500 
#    9.000    0.000    0.000    9.000    0.000    0.000 
#    0.000    0.000    0.000    0.000    0.000    0.000 
#
# Total GULP energy -89583.052476 kJ/mol
# GULP energy per Si atom -5598.940780 kJ/mol
# Density = 2.545387 g / cm^3
# Si number density = 25.511940 Si / 1000 Ang^3
#
#
#
# Elastic Constant Matrix: (Units=GPa)
#
#
# Indices 1 2 3 4 5 6 
#
# 1 79.5140 13.1329 20.8868 6.5565 12.4641 -7.3181
# 2 13.1329 55.6161 46.4324 15.5731 8.9958 -8.0631
# 3 20.8868 46.4324 177.5663 -7.4998 16.3317 -3.1483
# 4 6.5565 15.5731 -7.4998 44.3305 -7.0457 -9.3720
# 5 12.4641 8.9958 16.3317 -7.0457 43.1684 -5.6818
# 6 -7.3181 -8.0631 -3.1483 -9.3720 -5.6818 39.4101
#
#
#
# Elastic Compliance Matrix: (Units=1/GPa)
#
#
# Indices 1 2 3 4 5 6 
#
# 1 0.013889 -0.000961 -0.001124 -0.002211 -0.003581 0.001250
# 2 -0.000961 0.028592 -0.007403 -0.011519 -0.004538 0.001686
# 3 -0.001124 -0.007403 0.007910 0.003979 -0.000505 -0.000218
# 4 -0.002211 -0.011519 0.003979 0.029951 0.007173 0.005707
# 5 -0.003581 -0.004538 -0.000505 0.007173 0.027029 0.003969
# 6 0.001250 0.001686 -0.000218 0.005707 0.003969 0.027863
#
#
# Mechanical properties :
#
#
# Convention : Reuss Voigt Hill
#
# Bulk Modulus (GPa) = 31.83232 52.62229 42.22731
# Shear Modulus (GPa) = 30.36137 40.86477 35.61307
#
# Velocity S-wave (km/s) = 3.45350 4.00658 3.74028
# Velocity P-wave (km/s) = 5.32980 6.48652 5.93640
#
# Compressibility (1/GPa) = 0.03141461
#
# Stress axis : x y z
#
# Youngs Moduli (GPa) = 71.99803 34.97522 126.41750
#
# Poissons Ratio (x) = 0.03362 0.14212
# Poissons Ratio (y) = 0.06922 0.93583
# Poissons Ratio (z) = 0.08094 0.25891
#
# Static dielectric constant tensor:
#      x y z
#    x 2.009710 0.023870 0.003740 
#    y 0.023870 2.103940 -0.015590 
#    z 0.003740 -0.015590 2.045720 
# 
# From -- ./inp_files/486134.got.cif
#   From: 2010.05.17/outbox.cif.g08.bks.cpg/sg2_244_cif.got.tgz:486134.got - 2010.06.03 11:33:40.
