data_PCOD9015536
_publ_section_title
;
Structure prediction by ZEFSAII (Michael W. Deem and Ramdas Pophale) SiO2 
 PCOD9015536
Probable space group: P -1
;
_chemical_formula_sum "Si O2"
_cell_formula_units_Z 14
_cell_length_a 5.321943
_cell_length_b 9.430960
_cell_length_c 23.256197
_cell_angle_alpha 34.330665
_cell_angle_beta 83.806640
_cell_angle_gamma 98.103914
_cell_volume 596.819851
_symmetry_space_group_name_H-M "P -1"
_symmetry_group_IT_number 2
_symmetry_cell_setting 'triclinic'
loop_
_space_group_symop_operation_xyz
x,y,z
-x,-y,-z
loop_
_atom_site_type_symbol
_atom_site_label
_atom_site_fract_x
_atom_site_fract_y
_atom_site_fract_z
Si Si1 0.203043 0.915897 0.441147
Si Si2 0.841605 0.200311 0.809686
Si Si3 0.218933 0.349864 0.646541
Si Si4 0.983347 0.135902 0.267298
Si Si5 0.325551 0.356492 0.372866
Si Si6 0.409032 0.686868 0.053539
Si Si7 0.861549 0.616743 0.147540
O O1 0.256327 0.643831 0.521152
O O2 0.920975 0.809110 0.521678
O O3 0.143011 0.038238 0.343504
O O4 0.405223 0.148949 0.401718
O O5 0.766864 0.464188 0.728855
O O6 0.086900 0.266647 0.828327
O O7 0.940425 0.215526 0.736692
O O8 0.590622 0.915109 0.927561
O O9 0.449060 0.432999 0.661733
O O10 0.211890 0.127102 0.675463
O O11 0.214530 0.374884 0.142861
O O12 0.822368 0.299446 0.247185
O O13 0.172374 0.765712 0.061928
O O14 0.624023 0.656852 0.104188
#
# Coordination Sequence:
#
# PCOD9015536 Si02
#       7
#     2   2   2   2   2   2   2
#     4  10  21  42  63  93 134 173 229 273 334 392
#     4  11  23  40  66  97 135 173 225 278 330 400
#     4  11  25  38  67  99 131 180 217 281 339 395
#     4  10  24  42  64  99 137 178 222 275 336 400
#     4  10  22  40  64  98 128 173 227 276 335 391
#     4  10  24  42  71 100 135 174 231 267 336 395
#     4  10  23  41  68 100 132 178 224 272 328 394
#
# _framework density 23.457663
#
# number of rings (size 3 to 8) (size 9 to 14) (size 15 to 20)
#    0.857    0.857    1.429    1.714    6.000    4.571 
#    0.000    1.429    0.000    0.000    0.000    0.000 
#    0.000    0.000    0.000    0.000    0.000    0.000 
#
# Total GULP energy -78199.446176 kJ/mol
# GULP energy per Si atom -5585.674727 kJ/mol
# Density = 2.340427 g / cm^3
# Si number density = 23.457663 Si / 1000 Ang^3
#
#
#
# Elastic Constant Matrix: (Units=GPa)
#
#
# Indices 1 2 3 4 5 6 
#
# 1 3.9136 10.4357 28.4546 -6.7707 -73.2122 -4.6441
# 2 10.4357 114.8925 25.5032 -33.5672 3.5636 11.5577
# 3 28.4546 25.5032 94.4017 -4.7699 22.0381 3.4147
# 4 -6.7707 -33.5672 -4.7699 30.7955 -9.3245 -4.5439
# 5 -73.2122 3.5636 22.0381 -9.3245 -37.7088 -13.6274
# 6 -4.6441 11.5577 3.4147 -4.5439 -13.6274 21.1694
#
#
#
# Elastic Compliance Matrix: (Units=1/GPa)
#
#
# Indices 1 2 3 4 5 6 
#
# 1 0.008214 -0.000992 0.000708 -0.003857 -0.012315 -0.006526
# 2 -0.000992 0.013844 -0.002567 0.013797 -0.000071 -0.004446
# 3 0.000708 -0.002567 0.010199 0.000314 0.003467 0.002211
# 4 -0.003857 0.013797 0.000314 0.045983 -0.002365 -0.000082
# 5 -0.012315 -0.000071 0.003467 -0.002365 0.001090 -0.003028
# 6 -0.006526 -0.004446 0.002211 -0.000082 -0.003028 0.045910
#
#
# Mechanical properties :
#
#
# Convention : Reuss Voigt Hill
#
# Bulk Modulus (GPa) = 37.65432 37.99943 37.82688
# Shear Modulus (GPa) = 35.76703 12.77217 24.26960
#
# Velocity S-wave (km/s) = 3.90904 2.33594 3.22003
# Velocity P-wave (km/s) = 6.03829 4.84869 5.47589
#
# Compressibility (1/GPa) = 0.02655738
#
# Stress axis : x y z
#
# Youngs Moduli (GPa) = 121.74239 72.23370 98.04418
#
# Poissons Ratio (x) = 0.07163 -0.06944
# Poissons Ratio (y) = 0.12073 0.25164
# Poissons Ratio (z) = -0.08622 0.18539
#
# Static dielectric constant tensor:
#      x y z
#    x 1.932120 -0.020480 -0.064470 
#    y -0.020480 1.841510 -0.042830 
#    z -0.064470 -0.042830 1.959650 
# 
# From -- ./inp_files/43372.got.cif
#   From: 2010.05.17/outbox.cif.g08.bks.cpg/sg2_22_cif.got.tgz:43372.got - 2010.06.03 11:33:40.
