data_PCOD9015194
_publ_section_title
;
Structure prediction by ZEFSAII (Michael W. Deem and Ramdas Pophale) SiO2 
 PCOD9015194
Probable space group: P -1
;
_chemical_formula_sum "Si O2"
_cell_formula_units_Z 16
_cell_length_a 18.316770
_cell_length_b 8.899994
_cell_length_c 11.729254
_cell_angle_alpha 36.997332
_cell_angle_beta 36.410932
_cell_angle_gamma 39.159475
_cell_volume 634.160618
_symmetry_space_group_name_H-M "P -1"
_symmetry_group_IT_number 2
_symmetry_cell_setting 'triclinic'
loop_
_space_group_symop_operation_xyz
x,y,z
-x,-y,-z
loop_
_atom_site_type_symbol
_atom_site_label
_atom_site_fract_x
_atom_site_fract_y
_atom_site_fract_z
Si Si1 0.431910 0.417504 0.244388
Si Si2 0.134544 0.441622 0.939811
Si Si3 0.311546 0.722909 0.872935
Si Si4 0.748379 0.704216 0.628644
Si Si5 0.201512 0.922351 0.289586
Si Si6 0.036951 0.095271 0.013166
Si Si7 0.657260 0.328982 0.398693
Si Si8 0.009304 0.757404 0.472218
O O1 0.551311 0.258839 0.272505
O O2 0.338862 0.286131 0.380180
O O3 0.341168 0.682202 0.267111
O O4 0.500000 0.500000 0.000000
O O5 0.249320 0.562240 0.706716
O O6 0.054321 0.595103 0.057869
O O7 0.000000 0.500000 0.000000
O O8 0.208845 0.130597 0.058100
O O9 0.310697 0.643581 0.791155
O O10 0.282406 0.497442 0.121979
O O11 0.193402 0.004944 0.873964
O O12 0.903945 0.545670 0.496936
O O13 0.701235 0.006600 0.550783
O O14 0.102841 0.796310 0.432272
O O15 0.134851 0.100451 0.375139
O O16 0.006089 0.950422 0.251245
O O17 0.000000 0.000000 0.000000
O O18 0.500000 0.500000 0.500000
#
# Coordination Sequence:
#
# PCOD9015194 Si02
#       8
#     2   2   2   2   2   2   2   2
#     4   9  20  41  75 103 144 201 251 287 375 462
#     4  12  27  47  74 107 153 198 245 321 378 454
#     4  10  23  46  73 105 144 200 245 304 377 446
#     4   9  22  46  72 104 149 190 244 314 366 452
#     4  10  21  41  72 110 145 189 250 310 374 439
#     4  11  22  45  71 103 143 189 249 305 380 446
#     4  12  29  48  69 112 149 195 256 308 382 448
#     4   9  20  42  71 107 140 188 249 309 377 441
#
# _framework density 25.230201999999998
#
# number of rings (size 3 to 8) (size 9 to 14) (size 15 to 20)
#    0.000    1.750    2.500    0.750    5.250    2.000 
#    4.500    1.875    0.000    0.000    0.000    0.000 
#    0.000    0.000    0.000    0.000    0.000    0.000 
#
# Total GULP energy -89393.018757 kJ/mol
# GULP energy per Si atom -5587.063672 kJ/mol
# Density = 2.517278 g / cm^3
# Si number density = 25.230202 Si / 1000 Ang^3
#
#
#
# Elastic Constant Matrix: (Units=GPa)
#
#
# Indices 1 2 3 4 5 6 
#
# 1 123.4856 24.2683 27.8445 7.8011 -15.8477 -24.3314
# 2 24.2683 148.6784 40.6500 16.6515 -21.8499 -23.6960
# 3 27.8445 40.6500 95.6026 5.3701 -2.8178 -4.0244
# 4 7.8011 16.6515 5.3701 43.5200 5.5950 -2.8360
# 5 -15.8477 -21.8499 -2.8178 5.5950 46.1278 6.2287
# 6 -24.3314 -23.6960 -4.0244 -2.8360 6.2287 42.5357
#
#
#
# Elastic Compliance Matrix: (Units=1/GPa)
#
#
# Indices 1 2 3 4 5 6 
#
# 1 0.010169 0.000609 -0.002806 -0.001762 0.003106 0.005318
# 2 0.000609 0.009329 -0.003640 -0.003492 0.004242 0.004347
# 3 -0.002806 -0.003640 0.012662 0.000407 -0.001672 -0.002163
# 4 -0.001762 -0.003492 0.000407 0.025222 -0.005231 -0.000467
# 5 0.003106 0.004242 -0.001672 -0.005231 0.025298 -0.000071
# 6 0.005318 0.004347 -0.002163 -0.000467 -0.000071 0.028748
#
#
# Mechanical properties :
#
#
# Convention : Reuss Voigt Hill
#
# Bulk Modulus (GPa) = 48.81522 61.47691 55.14607
# Shear Modulus (GPa) = 38.48223 44.77027 41.62625
#
# Velocity S-wave (km/s) = 3.90967 4.21702 4.06625
# Velocity P-wave (km/s) = 6.30640 6.93760 6.62952
#
# Compressibility (1/GPa) = 0.02048541
#
# Stress axis : x y z
#
# Youngs Moduli (GPa) = 98.33688 107.19229 78.97808
#
# Poissons Ratio (x) = -0.06527 0.22163
# Poissons Ratio (y) = -0.05988 0.28747
# Poissons Ratio (z) = 0.27596 0.39017
#
# Static dielectric constant tensor:
#      x y z
#    x 2.026640 0.040630 -0.031760 
#    y 0.040630 2.012840 -0.044870 
#    z -0.031760 -0.044870 2.134070 
# 
# From -- ./inp_files/461800.got.cif
#   From: 2010.05.17/outbox.cif.g08.bks.cpg/sg2_231_cif.got.tgz:461800.got - 2010.06.03 11:33:40.
