data_PCOD9015079
_publ_section_title
;
Structure prediction by ZEFSAII (Michael W. Deem and Ramdas Pophale) SiO2 
 PCOD9015079
Probable space group: P -1
;
_chemical_formula_sum "Si O2"
_cell_formula_units_Z 12
_cell_length_a 7.253024
_cell_length_b 12.164298
_cell_length_c 12.906932
_cell_angle_alpha 43.942730
_cell_angle_beta 135.620497
_cell_angle_gamma 136.383277
_cell_volume 498.632110
_symmetry_space_group_name_H-M "P -1"
_symmetry_group_IT_number 2
_symmetry_cell_setting 'triclinic'
loop_
_space_group_symop_operation_xyz
x,y,z
-x,-y,-z
loop_
_atom_site_type_symbol
_atom_site_label
_atom_site_fract_x
_atom_site_fract_y
_atom_site_fract_z
Si Si1 0.875811 0.687643 0.036934
Si Si2 0.582455 0.168904 0.492868
Si Si3 0.937746 0.839915 0.161889
Si Si4 0.676500 0.302470 0.237713
Si Si5 0.774214 0.710613 0.585472
Si Si6 0.507036 0.284136 0.749949
O O1 0.817516 0.680863 0.140741
O O2 0.764658 0.487814 0.091326
O O3 0.221733 0.767409 0.106985
O O4 0.675649 0.774191 0.850218
O O5 0.769814 0.320532 0.383267
O O6 0.334255 0.212000 0.415277
O O7 0.776987 0.155226 0.673028
O O8 0.500000 0.000000 0.500000
O O9 0.710421 0.814410 0.178206
O O10 0.000000 0.000000 0.000000
O O11 0.873485 0.218913 0.321322
O O12 0.634667 0.496321 0.676188
O O13 0.659118 0.754048 0.401255
#
# Coordination Sequence:
#
# PCOD9015079 Si02
#       6
#     2   2   2   2   2   2
#     4  10  22  42  68 100 135 171 220 278 333 390
#     4  12  25  42  64  96 136 181 223 271 331 399
#     4  12  25  42  64  96 136 181 223 271 331 399
#     4  10  22  42  68 100 135 171 220 278 333 390
#     4  10  21  41  71 102 129 170 226 277 329 392
#     4  10  21  41  71 102 129 170 226 277 329 392
#
# _framework density 24.065839
#
# number of rings (size 3 to 8) (size 9 to 14) (size 15 to 20)
#    0.000    1.333    3.333    2.000    0.000    4.000 
#    0.000    5.000    0.000    0.000    0.000    0.000 
#    0.000    0.000    0.000    0.000    0.000    0.000 
#
# Total GULP energy -67017.835117 kJ/mol
# GULP energy per Si atom -5584.819593 kJ/mol
# Density = 2.401106 g / cm^3
# Si number density = 24.065839 Si / 1000 Ang^3
#
#
#
# Elastic Constant Matrix: (Units=GPa)
#
#
# Indices 1 2 3 4 5 6 
#
# 1 202.4306 11.9228 68.2982 11.2444 32.4657 -6.3312
# 2 11.9228 53.8283 24.8503 2.3179 4.9771 -14.4626
# 3 68.2982 24.8503 137.6553 12.4291 28.3851 8.3287
# 4 11.2444 2.3179 12.4291 35.3672 7.9085 -3.4222
# 5 32.4657 4.9771 28.3851 7.9085 53.7634 0.5248
# 6 -6.3312 -14.4626 8.3287 -3.4222 0.5248 36.9634
#
#
#
# Elastic Compliance Matrix: (Units=1/GPa)
#
#
# Indices 1 2 3 4 5 6 
#
# 1 0.006324 0.000694 -0.002873 -0.000330 -0.002338 0.002005
# 2 0.000694 0.023742 -0.005373 0.001162 -0.000056 0.010727
# 3 -0.002873 -0.005373 0.010823 -0.002352 -0.003085 -0.005207
# 4 -0.000330 0.001162 -0.002352 0.030198 -0.003145 0.003769
# 5 -0.002338 -0.000056 -0.003085 -0.003145 0.022112 -0.000332
# 6 0.002005 0.010727 -0.005207 0.003769 -0.000332 0.033121
#
#
# Mechanical properties :
#
#
# Convention : Reuss Voigt Hill
#
# Bulk Modulus (GPa) = 38.77930 67.11742 52.94836
# Shear Modulus (GPa) = 33.32928 44.47498 38.90213
#
# Velocity S-wave (km/s) = 3.72549 4.30356 4.02492
# Velocity P-wave (km/s) = 5.88681 7.25561 6.60675
#
# Compressibility (1/GPa) = 0.02578695
#
# Stress axis : x y z
#
# Youngs Moduli (GPa) = 158.12287 42.12020 92.39255
#
# Poissons Ratio (x) = -0.02925 0.26541
# Poissons Ratio (y) = -0.10980 0.49641
# Poissons Ratio (z) = 0.45422 0.22631
#
# Static dielectric constant tensor:
#      x y z
#    x 1.889690 0.039920 0.021260 
#    y 0.039920 2.069430 -0.065700 
#    z 0.021260 -0.065700 1.954830 
# 
# From -- ./inp_files/60569.got.cif
#   From: 2010.05.17/outbox.cif.g08.bks.cpg/sg2_31_cif.got.tgz:60569.got - 2010.06.03 11:33:40.
