data_PCOD9015638
_publ_section_title
;
Structure prediction by ZEFSAII (Michael W. Deem and Ramdas Pophale) SiO2 
 PCOD9015638
Probable space group: P -1
;
_chemical_formula_sum "Si O2"
_cell_formula_units_Z 16
_cell_length_a 13.348007
_cell_length_b 18.742622
_cell_length_c 11.071631
_cell_angle_alpha 28.863235
_cell_angle_beta 127.517305
_cell_angle_gamma 145.568483
_cell_volume 687.743243
_symmetry_space_group_name_H-M "P -1"
_symmetry_group_IT_number 2
_symmetry_cell_setting 'triclinic'
loop_
_space_group_symop_operation_xyz
x,y,z
-x,-y,-z
loop_
_atom_site_type_symbol
_atom_site_label
_atom_site_fract_x
_atom_site_fract_y
_atom_site_fract_z
Si Si1 0.632421 0.840404 0.551480
Si Si2 0.849702 0.429280 0.736107
Si Si3 0.738078 0.563492 0.647717
Si Si4 0.926836 0.270861 0.749531
Si Si5 0.550432 0.855573 0.206019
Si Si6 0.769615 0.681132 0.004365
Si Si7 0.948999 0.308348 0.170457
Si Si8 0.633308 0.627396 0.251934
O O1 0.646407 0.920117 0.310774
O O2 0.408669 0.586556 0.769122
O O3 0.729559 0.048085 0.403122
O O4 0.758626 0.804975 0.718714
O O5 0.758968 0.433775 0.776659
O O6 0.654914 0.240734 0.792580
O O7 0.997249 0.669246 0.420600
O O8 0.960391 0.383741 0.931251
O O9 0.760770 0.713359 0.340047
O O10 0.528554 0.394424 0.806737
O O11 0.904360 0.689587 0.683251
O O12 0.000000 0.500000 0.500000
O O13 0.040014 0.247307 0.943571
O O14 0.700079 0.049518 0.930987
O O15 0.490767 0.635256 0.454724
O O16 0.725438 0.711965 0.060598
O O17 0.000000 0.500000 0.000000
#
# Coordination Sequence:
#
# PCOD9015638 Si02
#       8
#     2   2   2   2   2   2   2   2
#     4  10  21  42  64  90 133 174 207 278 335 378
#     4  10  21  45  61  91 138 167 220 276 320 391
#     4   9  18  38  66  88 122 175 214 259 325 383
#     4  12  24  38  63  99 126 168 221 267 326 406
#     4  10  22  40  67  92 124 176 218 267 341 377
#     4  10  22  42  63  98 134 164 217 281 333 378
#     4  10  22  38  64  93 126 177 217 263 326 392
#     4   9  18  41  67  91 127 169 218 271 325 393
#
# _framework density 23.264496000000001
#
# number of rings (size 3 to 8) (size 9 to 14) (size 15 to 20)
#    0.000    2.000    3.750    0.750    3.500    1.500 
#   11.250    8.750    0.000    7.500    0.000    0.000 
#    0.000    0.000    0.000    0.000    0.000    0.000 
#
# Total GULP energy -89171.310586 kJ/mol
# GULP energy per Si atom -5573.206912 kJ/mol
# Density = 2.321155 g / cm^3
# Si number density = 23.264496 Si / 1000 Ang^3
#
#
#
# Elastic Constant Matrix: (Units=GPa)
#
#
# Indices 1 2 3 4 5 6 
#
# 1 82.0831 24.6554 9.1943 6.0904 -6.3063 9.1661
# 2 24.6554 135.7181 41.5092 30.0146 -6.9394 14.8195
# 3 9.1943 41.5092 85.2523 8.2292 -5.6153 4.1622
# 4 6.0904 30.0146 8.2292 40.7605 4.1563 9.8626
# 5 -6.3063 -6.9394 -5.6153 4.1563 20.4962 -7.3449
# 6 9.1661 14.8195 4.1622 9.8626 -7.3449 22.8407
#
#
#
# Elastic Compliance Matrix: (Units=1/GPa)
#
#
# Indices 1 2 3 4 5 6 
#
# 1 0.013315 -0.001879 -0.000216 0.000039 0.002174 -0.003403
# 2 -0.001879 0.010778 -0.004141 -0.006668 0.002662 -0.001749
# 3 -0.000216 -0.004141 0.013928 -0.000342 0.002887 0.001311
# 4 0.000039 -0.006668 -0.000342 0.034763 -0.014920 -0.015436
# 5 0.002174 0.002662 0.002887 -0.014920 0.062576 0.023439
# 6 -0.003403 -0.001749 0.001311 -0.015436 0.023439 0.060246
#
#
# Mechanical properties :
#
#
# Convention : Reuss Voigt Hill
#
# Bulk Modulus (GPa) = 39.13725 50.41902 44.77813
# Shear Modulus (GPa) = 23.08476 31.99914 27.54195
#
# Velocity S-wave (km/s) = 3.15346 3.71273 3.44446
# Velocity P-wave (km/s) = 5.48801 6.33232 5.92522
#
# Compressibility (1/GPa) = 0.02555110
#
# Stress axis : x y z
#
# Youngs Moduli (GPa) = 75.10075 92.78459 71.79571
#
# Poissons Ratio (x) = 0.17434 0.01548
# Poissons Ratio (y) = 0.14111 0.29728
# Poissons Ratio (z) = 0.01619 0.38419
#
# Static dielectric constant tensor:
#      x y z
#    x 1.980810 -0.091540 0.009070 
#    y -0.091540 2.047820 0.029650 
#    z 0.009070 0.029650 1.897880 
# 
# From -- ./inp_files/457633.got.cif
#   From: 2010.05.17/outbox.cif.g08.bks.cpg/sg2_229_cif.got.tgz:457633.got - 2010.06.03 11:33:40.
