data_PCOD9015270
_publ_section_title
;
Structure prediction by ZEFSAII (Michael W. Deem and Ramdas Pophale) SiO2 
 PCOD9015270
Probable space group: P -1
;
_chemical_formula_sum "Si O2"
_cell_formula_units_Z 16
_cell_length_a 14.843012
_cell_length_b 10.212756
_cell_length_c 8.551319
_cell_angle_alpha 88.087334
_cell_angle_beta 44.779534
_cell_angle_gamma 115.963809
_cell_volume 689.130320
_symmetry_space_group_name_H-M "P -1"
_symmetry_group_IT_number 2
_symmetry_cell_setting 'triclinic'
loop_
_space_group_symop_operation_xyz
x,y,z
-x,-y,-z
loop_
_atom_site_type_symbol
_atom_site_label
_atom_site_fract_x
_atom_site_fract_y
_atom_site_fract_z
Si Si1 0.038103 0.077380 0.619916
Si Si2 0.980512 0.183330 0.112773
Si Si3 0.380085 0.923701 0.498028
Si Si4 0.644072 0.360397 0.650193
Si Si5 0.875332 0.522380 0.832510
Si Si6 0.480789 0.743186 0.850759
Si Si7 0.017322 0.675706 0.320953
Si Si8 0.290689 0.326274 0.501967
O O1 0.929910 0.138367 0.775880
O O2 0.225478 0.264916 0.405224
O O3 0.000000 0.000000 0.500000
O O4 0.034807 0.950320 0.744201
O O5 0.119051 0.228347 0.815218
O O6 0.195067 0.872948 0.733873
O O7 0.068016 0.358755 0.094191
O O8 0.359194 0.765558 0.454554
O O9 0.500000 0.000000 0.500000
O O10 0.482940 0.083544 0.243422
O O11 0.837024 0.514026 0.469817
O O12 0.602040 0.470943 0.616582
O O13 0.528064 0.269214 0.950180
O O14 0.002798 0.641176 0.527354
O O15 0.866170 0.361532 0.884789
O O16 0.694385 0.432310 0.989303
O O17 0.612857 0.742920 0.592298
#
# Coordination Sequence:
#
# PCOD9015270 Si02
#       8
#     2   2   2   2   2   2   2   2
#     4  11  22  42  72 108 139 191 250 298 354 436
#     4  12  25  48  75 102 156 192 236 310 370 439
#     4  12  28  49  72 110 149 191 246 303 376 434
#     4  10  23  48  76 102 139 194 242 308 361 430
#     4  10  21  41  74 106 141 190 239 300 361 430
#     4  11  25  48  73 105 150 189 246 307 360 435
#     4   9  19  40  72 108 137 181 251 291 355 434
#     4  11  26  47  71 107 151 193 243 296 372 439
#
# _framework density 23.217669999999998
#
# number of rings (size 3 to 8) (size 9 to 14) (size 15 to 20)
#    0.000    1.250    3.750    1.125    1.750    3.000 
#    4.500    0.000    0.000    0.000    0.000    0.000 
#    0.000    0.000    0.000    0.000    0.000    0.000 
#
# Total GULP energy -89267.198765 kJ/mol
# GULP energy per Si atom -5579.199923 kJ/mol
# Density = 2.316483 g / cm^3
# Si number density = 23.217670 Si / 1000 Ang^3
#
#
#
# Elastic Constant Matrix: (Units=GPa)
#
#
# Indices 1 2 3 4 5 6 
#
# 1 85.2242 72.1761 35.9413 15.8722 11.3819 -7.7498
# 2 72.1761 202.4263 56.0177 26.4840 1.9772 -14.6666
# 3 35.9413 56.0177 77.3942 14.8991 3.4820 -0.4496
# 4 15.8722 26.4840 14.8991 33.4190 -7.7974 6.0783
# 5 11.3819 1.9772 3.4820 -7.7974 23.5888 -3.8355
# 6 -7.7498 -14.6666 -0.4496 6.0783 -3.8355 41.6990
#
#
#
# Elastic Compliance Matrix: (Units=1/GPa)
#
#
# Indices 1 2 3 4 5 6 
#
# 1 0.020694 -0.005093 -0.004099 -0.006874 -0.010898 0.002010
# 2 -0.005093 0.008111 -0.003053 -0.002684 0.001735 0.002424
# 3 -0.004099 -0.003053 0.017840 -0.003792 -0.001858 -0.001261
# 4 -0.006874 -0.002684 -0.003792 0.042204 0.016937 -0.006856
# 5 -0.010898 0.001735 -0.001858 0.016937 0.053545 0.001021
# 6 0.002010 0.002424 -0.001261 -0.006856 0.001021 0.026287
#
#
# Mechanical properties :
#
#
# Convention : Reuss Voigt Hill
#
# Bulk Modulus (GPa) = 45.13434 77.03498 61.08466
# Shear Modulus (GPa) = 24.93088 33.13534 29.03311
#
# Velocity S-wave (km/s) = 3.28043 3.78188 3.54004
# Velocity P-wave (km/s) = 5.81637 7.23337 6.56322
#
# Compressibility (1/GPa) = 0.02215608
#
# Stress axis : x y z
#
# Youngs Moduli (GPa) = 48.32353 123.29665 56.05385
#
# Poissons Ratio (x) = 0.62794 0.22974
# Poissons Ratio (y) = 0.24611 0.17111
# Poissons Ratio (z) = 0.19806 0.37638
#
# Static dielectric constant tensor:
#      x y z
#    x 1.964430 -0.056410 -0.018680 
#    y -0.056410 1.853450 -0.005130 
#    z -0.018680 -0.005130 1.944300 
# 
# From -- ./inp_files/329119.got.cif
#   From: 2010.05.17/outbox.cif.g08.bks.cpg/sg2_165_cif.got.tgz:329119.got - 2010.06.03 11:33:40.
