data_PCOD9015158
_publ_section_title
;
Structure prediction by ZEFSAII (Michael W. Deem and Ramdas Pophale) SiO2 
 PCOD9015158
Probable space group: P -1
;
_chemical_formula_sum "Si O2"
_cell_formula_units_Z 15
_cell_length_a 12.509465
_cell_length_b 9.534439
_cell_length_c 13.951313
_cell_angle_alpha 28.931237
_cell_angle_beta 131.322503
_cell_angle_gamma 131.898671
_cell_volume 585.724396
_symmetry_space_group_name_H-M "P -1"
_symmetry_group_IT_number 2
_symmetry_cell_setting 'triclinic'
loop_
_space_group_symop_operation_xyz
x,y,z
-x,-y,-z
loop_
_atom_site_type_symbol
_atom_site_label
_atom_site_fract_x
_atom_site_fract_y
_atom_site_fract_z
Si Si1 0.985971 0.317355 0.768528
Si Si2 0.690163 0.432619 0.228164
Si Si3 0.421898 0.175824 0.772322
Si Si4 0.083590 0.433209 0.227938
Si Si5 0.657778 0.740743 0.612484
Si Si6 0.000000 0.500000 0.500000
Si Si7 0.602564 0.418112 0.973594
Si Si8 0.884207 0.020845 0.209092
O O1 0.135844 0.449045 0.711595
O O2 0.963932 0.525712 0.716929
O O3 0.876836 0.306688 0.623836
O O4 0.000000 0.000000 0.000000
O O5 0.565791 0.551842 0.137408
O O6 0.646763 0.075864 0.421482
O O7 0.682876 0.533373 0.052268
O O8 0.518959 0.508645 0.621973
O O9 0.266883 0.176670 0.723698
O O10 0.500000 0.000000 0.000000
O O11 0.400794 0.933738 0.820110
O O12 0.209766 0.269912 0.374700
O O13 0.948482 0.250822 0.194898
O O14 0.139092 0.768035 0.018609
O O15 0.674034 0.589850 0.817135
O O16 0.989611 0.822825 0.356016
#
# Coordination Sequence:
#
# PCOD9015158 Si02
#       8
#     2   2   2   2   2   1   2   2
#     4  12  28  46  72 105 147 189 237 303 357 428
#     4  11  26  44  69 104 144 180 241 291 356 433
#     4  10  21  41  72 100 138 190 231 289 354 423
#     4  11  24  46  74 103 146 193 239 293 364 431
#     4  11  24  44  74 103 138 188 239 294 358 422
#     4  12  28  46  72 110 138 194 238 300 356 424
#     4  10  23  45  70 103 138 190 228 294 359 424
#     4  11  23  45  73 107 145 189 243 291 362 434
#
# _framework density 25.609314999999999
#
# number of rings (size 3 to 8) (size 9 to 14) (size 15 to 20)
#    0.000    1.067    4.000    2.000    7.467    4.800 
#    7.200    0.000    0.000    0.000    0.000    0.000 
#    0.000    0.000    0.000    0.000    0.000    0.000 
#
# Total GULP energy -83839.120753 kJ/mol
# GULP energy per Si atom -5589.274717 kJ/mol
# Density = 2.555103 g / cm^3
# Si number density = 25.609315 Si / 1000 Ang^3
#
#
#
# Elastic Constant Matrix: (Units=GPa)
#
#
# Indices 1 2 3 4 5 6 
#
# 1 136.8035 59.1706 45.3779 1.0265 18.7101 -19.2707
# 2 59.1706 92.4286 19.5272 -0.9908 -7.1250 -25.3675
# 3 45.3779 19.5272 136.6620 -16.6681 6.5693 -13.9140
# 4 1.0265 -0.9908 -16.6681 34.3519 -4.0688 -5.4486
# 5 18.7101 -7.1250 6.5693 -4.0688 51.0427 2.2809
# 6 -19.2707 -25.3675 -13.9140 -5.4486 2.2809 61.9750
#
#
#
# Elastic Compliance Matrix: (Units=1/GPa)
#
#
# Indices 1 2 3 4 5 6 
#
# 1 0.012475 -0.007796 -0.003107 -0.002762 -0.005479 -0.000051
# 2 -0.007796 0.017440 0.000641 0.002436 0.005185 0.004882
# 3 -0.003107 0.000641 0.009000 0.004796 0.000375 0.001725
# 4 -0.002762 0.002436 0.004796 0.032593 0.003156 0.003964
# 5 -0.005479 0.005185 0.000375 0.003156 0.022529 -0.000049
# 6 -0.000051 0.004882 0.001725 0.003964 -0.000049 0.018856
#
#
# Mechanical properties :
#
#
# Convention : Reuss Voigt Hill
#
# Bulk Modulus (GPa) = 54.37072 68.22727 61.29900
# Shear Modulus (GPa) = 35.83040 45.59515 40.71278
#
# Velocity S-wave (km/s) = 3.74453 4.22407 3.99151
# Velocity P-wave (km/s) = 6.32237 7.10562 6.72540
#
# Compressibility (1/GPa) = 0.01839225
#
# Stress axis : x y z
#
# Youngs Moduli (GPa) = 80.15929 57.33954 111.11218
#
# Poissons Ratio (x) = 0.44700 0.34523
# Poissons Ratio (y) = 0.62490 -0.07127
# Poissons Ratio (z) = 0.24906 -0.03678
#
# Static dielectric constant tensor:
#      x y z
#    x 1.984270 -0.007000 -0.042540 
#    y -0.007000 2.265190 0.210080 
#    z -0.042540 0.210080 2.195950 
# 
# From -- ./inp_files/513912.got.cif
#   From: 2010.05.17/outbox.cif.g08.bks.cpg/sg2_257_cif.got.tgz:513912.got - 2010.06.03 11:33:40.
