data_PCOD9015106
_publ_section_title
;
Structure prediction by ZEFSAII (Michael W. Deem and Ramdas Pophale) SiO2 
 PCOD9015106
Probable space group: P -1
;
_chemical_formula_sum "Si O2"
_cell_formula_units_Z 14
_cell_length_a 8.717898
_cell_length_b 9.132476
_cell_length_c 8.749837
_cell_angle_alpha 100.266350
_cell_angle_beta 119.427900
_cell_angle_gamma 90.719731
_cell_volume 592.941794
_symmetry_space_group_name_H-M "P -1"
_symmetry_group_IT_number 2
_symmetry_cell_setting 'triclinic'
loop_
_space_group_symop_operation_xyz
x,y,z
-x,-y,-z
loop_
_atom_site_type_symbol
_atom_site_label
_atom_site_fract_x
_atom_site_fract_y
_atom_site_fract_z
Si Si1 0.409528 0.547608 0.308131
Si Si2 0.767034 0.676962 0.449829
Si Si3 0.402989 0.089357 0.094259
Si Si4 0.123773 0.875920 0.091069
Si Si5 0.506849 0.837079 0.535006
Si Si6 0.032712 0.430041 0.200458
Si Si7 0.888398 0.747935 0.197866
O O1 0.500000 0.500000 0.500000
O O2 0.584223 0.570553 0.289624
O O3 0.374553 0.718456 0.353833
O O4 0.216427 0.457840 0.197396
O O5 0.903008 0.592804 0.598675
O O6 0.849097 0.764425 0.360491
O O7 0.694613 0.787316 0.561073
O O8 0.517915 0.182683 0.299152
O O9 0.275386 0.195486 0.967035
O O10 0.500000 0.000000 0.000000
O O11 0.305203 0.959219 0.130472
O O12 0.075024 0.719376 0.947622
O O13 0.059169 0.846141 0.228003
O O14 0.000000 0.000000 0.000000
O O15 0.500000 0.000000 0.500000
O O16 0.927613 0.574774 0.171991
#
# Coordination Sequence:
#
# PCOD9015106 Si02
#       7
#     2   2   2   2   2   2   2
#     4   8  20  39  70  90 130 172 226 267 324 375
#     4   9  20  41  66 101 131 172 224 268 323 391
#     4  11  25  48  66  96 135 172 228 270 332 408
#     4  10  24  43  64  94 137 176 207 276 341 386
#     4  10  21  41  71  91 127 171 229 270 323 382
#     4  11  21  44  66  98 135 175 224 270 332 394
#     4  11  23  40  68  98 134 174 213 280 338 383
#
# _framework density 23.611087999999999
#
# number of rings (size 3 to 8) (size 9 to 14) (size 15 to 20)
#    0.857    1.143    0.000    3.429    2.000    0.000 
#    7.714    7.857    0.000    0.000    0.000    0.000 
#    0.000    0.000    0.000    0.000    0.000    0.000 
#
# Total GULP energy -78012.414203 kJ/mol
# GULP energy per Si atom -5572.315300 kJ/mol
# Density = 2.355735 g / cm^3
# Si number density = 23.611088 Si / 1000 Ang^3
#
#
#
# Elastic Constant Matrix: (Units=GPa)
#
#
# Indices 1 2 3 4 5 6 
#
# 1 99.8609 21.0246 40.1000 -15.1909 -29.8088 -4.4021
# 2 21.0246 130.1267 26.0012 -23.5248 -3.6718 -11.0549
# 3 40.1000 26.0012 109.6633 -25.7252 -17.2209 -3.8227
# 4 -15.1909 -23.5248 -25.7252 44.3866 6.2768 2.5500
# 5 -29.8088 -3.6718 -17.2209 6.2768 41.5012 -8.6861
# 6 -4.4021 -11.0549 -3.8227 2.5500 -8.6861 45.3995
#
#
#
# Elastic Compliance Matrix: (Units=1/GPa)
#
#
# Indices 1 2 3 4 5 6 
#
# 1 0.014654 -0.001025 -0.003284 0.001079 0.009462 0.002645
# 2 -0.001025 0.008837 -0.000851 0.003820 -0.000537 0.001664
# 3 -0.003284 -0.000851 0.012037 0.005099 0.001908 0.000567
# 4 0.001079 0.003820 0.005099 0.028049 -0.001080 -0.000318
# 5 0.009462 -0.000537 0.001908 -0.001080 0.033346 0.007388
# 6 0.002645 0.001664 0.000567 -0.000318 0.007388 0.024167
#
#
# Mechanical properties :
#
#
# Convention : Reuss Voigt Hill
#
# Bulk Modulus (GPa) = 39.66941 57.10028 48.38485
# Shear Modulus (GPa) = 35.76218 43.09248 39.42733
#
# Velocity S-wave (km/s) = 3.89605 4.27675 4.09083
# Velocity P-wave (km/s) = 6.08906 6.97306 6.54600
#
# Compressibility (1/GPa) = 0.02520834
#
# Stress axis : x y z
#
# Youngs Moduli (GPa) = 68.24265 113.15813 83.07736
#
# Poissons Ratio (x) = 0.11595 0.27285
# Poissons Ratio (y) = 0.06993 0.07068
# Poissons Ratio (z) = 0.22413 0.09627
#
# Static dielectric constant tensor:
#      x y z
#    x 1.933160 -0.010590 0.083170 
#    y -0.010590 2.053720 0.029390 
#    z 0.083170 0.029390 2.151490 
# 
# From -- ./inp_files/158953.got.cif
#   From: 2010.05.17/outbox.cif.g08.bks.cpg/sg2_80_cif.got.tgz:158953.got - 2010.06.03 11:33:40.
