data_PCOD9015072
_publ_section_title
;
Structure prediction by ZEFSAII (Michael W. Deem and Ramdas Pophale) SiO2 
 PCOD9015072
Probable space group: P -1
;
_chemical_formula_sum "Si O2"
_cell_formula_units_Z 14
_cell_length_a 22.878174
_cell_length_b 8.406385
_cell_length_c 19.262937
_cell_angle_alpha 149.055930
_cell_angle_beta 19.396504
_cell_angle_gamma 149.075330
_cell_volume 606.204011
_symmetry_space_group_name_H-M "P -1"
_symmetry_group_IT_number 2
_symmetry_cell_setting 'triclinic'
loop_
_space_group_symop_operation_xyz
x,y,z
-x,-y,-z
loop_
_atom_site_type_symbol
_atom_site_label
_atom_site_fract_x
_atom_site_fract_y
_atom_site_fract_z
Si Si1 0.369451 0.014481 0.912221
Si Si2 0.156911 0.840515 0.449339
Si Si3 0.679402 0.709552 0.437713
Si Si4 0.954523 0.086105 0.160855
Si Si5 0.550799 0.730167 0.940425
Si Si6 0.129570 0.230748 0.496496
Si Si7 0.169146 0.826032 0.929679
O O1 0.328111 0.042341 0.049999
O O2 0.478853 0.753972 0.681811
O O3 0.217866 0.969529 0.005592
O O4 0.516991 0.359046 0.861361
O O5 0.350302 0.784644 0.186942
O O6 0.000000 0.500000 0.500000
O O7 0.201663 0.028379 0.542281
O O8 0.101157 0.075738 0.545740
O O9 0.674967 0.347079 0.328712
O O10 0.781707 0.830233 0.295535
O O11 0.909176 0.425295 0.336436
O O12 0.000000 0.000000 0.000000
O O13 0.122040 0.065614 0.016715
O O14 0.663902 0.759998 0.754691
O O15 0.000000 0.000000 0.500000
O O16 0.000000 0.500000 0.000000
#
# Coordination Sequence:
#
# PCOD9015072 Si02
#       7
#     2   2   2   2   2   2   2
#     4  10  21  41  71 100 140 180 234 286 353 416
#     4  11  25  43  74 104 139 181 236 293 359 423
#     4  10  21  43  67  99 131 183 235 282 354 417
#     4  11  24  44  62  98 141 182 232 290 344 418
#     4  10  24  43  71 104 144 184 229 294 353 419
#     4  12  26  43  69 105 144 186 235 296 350 413
#     4  10  23  39  69  96 133 181 230 279 340 419
#
# _framework density 23.094536000000002
#
# number of rings (size 3 to 8) (size 9 to 14) (size 15 to 20)
#    0.000    1.429    1.429    2.571   10.000    2.286 
#    0.000    1.429    0.000    0.000    0.000    0.000 
#    0.000    0.000    0.000    0.000    0.000    0.000 
#
# Total GULP energy -78268.252293 kJ/mol
# GULP energy per Si atom -5590.589450 kJ/mol
# Density = 2.304197 g / cm^3
# Si number density = 23.094536 Si / 1000 Ang^3
#
#
#
# Elastic Constant Matrix: (Units=GPa)
#
#
# Indices 1 2 3 4 5 6 
#
# 1 178.1710 66.7908 68.4692 4.3790 -7.7218 0.8948
# 2 66.7908 90.1266 50.6724 15.0416 -0.9824 0.4836
# 3 68.4692 50.6724 145.0985 21.8118 0.8073 -8.2785
# 4 4.3790 15.0416 21.8118 32.2457 -7.3589 -7.9798
# 5 -7.7218 -0.9824 0.8073 -7.3589 46.7112 2.0681
# 6 0.8948 0.4836 -8.2785 -7.9798 2.0681 44.7761
#
#
#
# Elastic Compliance Matrix: (Units=1/GPa)
#
#
# Indices 1 2 3 4 5 6 
#
# 1 0.008737 -0.005514 -0.002766 0.003689 0.001960 -0.000060
# 2 -0.005514 0.017783 -0.002728 -0.006441 -0.001431 -0.001668
# 3 -0.002766 -0.002728 0.010003 -0.005206 -0.001555 0.001078
# 4 0.003689 -0.006441 -0.005206 0.039994 0.006606 0.005856
# 5 0.001960 -0.001431 -0.001555 0.006606 0.022778 -0.000186
# 6 -0.000060 -0.001668 0.001078 0.005856 -0.000186 0.023604
#
#
# Mechanical properties :
#
#
# Convention : Reuss Voigt Hill
#
# Bulk Modulus (GPa) = 68.92719 87.25122 78.08921
# Shear Modulus (GPa) = 33.38908 39.91082 36.64995
#
# Velocity S-wave (km/s) = 3.80644 4.16161 3.98798
# Velocity P-wave (km/s) = 7.01634 7.80731 7.42237
#
# Compressibility (1/GPa) = 0.01450806
#
# Stress axis : x y z
#
# Youngs Moduli (GPa) = 114.45494 56.23223 99.97451
#
# Poissons Ratio (x) = 0.31004 0.27655
# Poissons Ratio (y) = 0.63106 0.27270
# Poissons Ratio (z) = 0.31661 0.15338
#
# Static dielectric constant tensor:
#      x y z
#    x 1.945300 0.001120 -0.044270 
#    y 0.001120 1.853660 0.002310 
#    z -0.044270 0.002310 1.999640 
# 
# From -- ./inp_files/601962.got.cif
#   From: 2010.05.17/outbox.cif.g08.bks.cpg/sg2_301_cif.got.tgz:601962.got - 2010.06.03 11:33:40.
