data_PCOD9015390
_publ_section_title
;
Structure prediction by ZEFSAII (Michael W. Deem and Ramdas Pophale) SiO2 
 PCOD9015390
Probable space group: P -1
;
_chemical_formula_sum "Si O2"
_cell_formula_units_Z 16
_cell_length_a 8.969046
_cell_length_b 7.877597
_cell_length_c 20.901236
_cell_angle_alpha 35.745057
_cell_angle_beta 53.553148
_cell_angle_gamma 47.747844
_cell_volume 634.558643
_symmetry_space_group_name_H-M "P -1"
_symmetry_group_IT_number 2
_symmetry_cell_setting 'triclinic'
loop_
_space_group_symop_operation_xyz
x,y,z
-x,-y,-z
loop_
_atom_site_type_symbol
_atom_site_label
_atom_site_fract_x
_atom_site_fract_y
_atom_site_fract_z
Si Si1 0.227541 0.661869 0.674804
Si Si2 0.615472 0.974179 0.393057
Si Si3 0.742827 0.321946 0.998616
Si Si4 0.257148 0.035528 0.163802
Si Si5 0.155335 0.808609 0.841365
Si Si6 0.284638 0.190280 0.916673
Si Si7 0.796318 0.267361 0.604668
Si Si8 0.755692 0.155939 0.511861
O O1 0.227515 0.392906 0.803624
O O2 0.272694 0.574522 0.616260
O O3 0.388093 0.781739 0.626643
O O4 0.020085 0.980705 0.634588
O O5 0.765566 0.626943 0.487760
O O6 0.388659 0.007571 0.426809
O O7 0.717044 0.063513 0.277740
O O8 0.795511 0.176818 0.101275
O O9 0.795116 0.082546 0.997472
O O10 0.500000 0.500000 0.000000
O O11 0.813512 0.611859 0.895094
O O12 0.081722 0.015255 0.170139
O O13 0.470468 0.954861 0.099340
O O14 0.288253 0.802106 0.286832
O O15 0.208366 0.442485 0.916780
O O16 0.690805 0.221300 0.581148
O O17 0.000000 0.000000 0.500000
#
# Coordination Sequence:
#
# PCOD9015390 Si02
#       8
#     2   2   2   2   2   2   2   2
#     4  10  21  42  61  98 140 175 232 280 343 420
#     4  11  22  39  66  94 138 186 215 289 347 407
#     4  10  25  45  76 101 136 185 235 291 354 413
#     4  11  23  44  69 101 141 184 233 291 342 423
#     4  11  25  47  70 106 141 177 241 284 353 415
#     4  10  23  45  71 100 140 183 229 297 344 410
#     4  11  22  40  65  97 141 178 225 287 343 407
#     4  10  23  37  60  93 135 177 229 275 334 417
#
# _framework density 25.214375
#
# number of rings (size 3 to 8) (size 9 to 14) (size 15 to 20)
#    0.000    1.500    2.500    2.250    5.250    3.500 
#    4.500    2.500    2.750    0.000    0.000    0.000 
#    0.000    0.000    0.000    0.000    0.000    0.000 
#
# Total GULP energy -89370.375424 kJ/mol
# GULP energy per Si atom -5585.648464 kJ/mol
# Density = 2.515699 g / cm^3
# Si number density = 25.214375 Si / 1000 Ang^3
#
#
#
# Elastic Constant Matrix: (Units=GPa)
#
#
# Indices 1 2 3 4 5 6 
#
# 1 118.2202 46.9812 40.6303 19.7773 11.0798 0.4916
# 2 46.9812 103.2894 22.8018 0.4431 4.0602 -17.2825
# 3 40.6303 22.8018 113.0647 -0.3925 23.4892 -9.0154
# 4 19.7773 0.4431 -0.3925 39.5704 3.8912 -8.0894
# 5 11.0798 4.0602 23.4892 3.8912 45.7686 10.6448
# 6 0.4916 -17.2825 -9.0154 -8.0894 10.6448 41.4734
#
#
#
# Elastic Compliance Matrix: (Units=1/GPa)
#
#
# Indices 1 2 3 4 5 6 
#
# 1 0.013719 -0.006235 -0.004481 -0.008155 0.001556 -0.005725
# 2 -0.006235 0.013693 0.000510 0.004671 -0.002070 0.007333
# 3 -0.004481 0.000510 0.012232 0.004155 -0.006870 0.005498
# 4 -0.008155 0.004671 0.004155 0.032091 -0.005787 0.010691
# 5 0.001556 -0.002070 -0.006870 -0.005787 0.028170 -0.010733
# 6 -0.005725 0.007333 0.005498 0.010691 -0.010733 0.033271
#
#
# Mechanical properties :
#
#
# Convention : Reuss Voigt Hill
#
# Bulk Modulus (GPa) = 51.99485 61.71121 56.85303
# Shear Modulus (GPa) = 31.25063 40.30657 35.77860
#
# Velocity S-wave (km/s) = 3.52433 4.00253 3.77102
# Velocity P-wave (km/s) = 6.10140 6.77407 6.44652
#
# Compressibility (1/GPa) = 0.01923267
#
# Stress axis : x y z
#
# Youngs Moduli (GPa) = 72.89393 73.02904 81.75371
#
# Poissons Ratio (x) = 0.45532 0.36630
# Poissons Ratio (y) = 0.45448 -0.04169
# Poissons Ratio (z) = 0.32660 -0.03724
#
# Static dielectric constant tensor:
#      x y z
#    x 1.997080 -0.023320 -0.025490 
#    y -0.023320 2.136910 -0.035610 
#    z -0.025490 -0.035610 2.014200 
# 
# From -- ./inp_files/606547.got.cif
#   From: 2010.05.17/outbox.cif.g08.bks.cpg/sg2_304_cif.got.tgz:606547.got - 2010.06.03 11:33:40.
