data_PCOD9015459
_publ_section_title
;
Structure prediction by ZEFSAII (Michael W. Deem and Ramdas Pophale) SiO2 
 PCOD9015459
Probable space group: P -1
;
_chemical_formula_sum "Si O2"
_cell_formula_units_Z 16
_cell_length_a 13.908328
_cell_length_b 5.698053
_cell_length_c 23.297123
_cell_angle_alpha 100.277244
_cell_angle_beta 158.939057
_cell_angle_gamma 77.104709
_cell_volume 644.403918
_symmetry_space_group_name_H-M "P -1"
_symmetry_group_IT_number 2
_symmetry_cell_setting 'triclinic'
loop_
_space_group_symop_operation_xyz
x,y,z
-x,-y,-z
loop_
_atom_site_type_symbol
_atom_site_label
_atom_site_fract_x
_atom_site_fract_y
_atom_site_fract_z
Si Si1 0.056756 0.015861 0.941317
Si Si2 0.859848 0.644053 0.317679
Si Si3 0.719512 0.360793 0.042528
Si Si4 0.121760 0.675637 0.255541
Si Si5 0.434880 0.494638 0.574769
Si Si6 0.111562 0.096816 0.346592
Si Si7 0.599927 0.863948 0.762085
Si Si8 0.001776 0.870847 0.584668
O O1 0.200256 0.776581 0.978843
O O2 0.814793 0.959170 0.843935
O O3 0.937950 0.188724 0.831701
O O4 0.270939 0.131346 0.103457
O O5 0.123613 0.605657 0.421676
O O6 0.900408 0.419909 0.376451
O O7 0.599712 0.624224 0.133219
O O8 0.848719 0.916055 0.348506
O O9 0.838227 0.606431 0.114540
O O10 0.893387 0.223153 0.184701
O O11 0.355893 0.458666 0.356982
O O12 0.207491 0.839754 0.360453
O O13 0.367243 0.232927 0.506686
O O14 0.565528 0.596806 0.708893
O O15 0.974716 0.094570 0.331969
O O16 0.313340 0.042909 0.603625
#
# Coordination Sequence:
#
# PCOD9015459 Si02
#       8
#     2   2   2   2   2   2   2   2
#     4  10  22  43  66  98 129 173 222 280 337 395
#     4  10  24  43  68  94 142 177 227 272 335 407
#     4  11  25  43  63 100 134 174 218 276 334 400
#     4  11  23  41  67  96 133 170 224 277 336 396
#     4  10  21  42  62  99 125 174 219 271 330 398
#     4  10  24  40  68  95 135 173 220 276 335 397
#     4  10  21  43  70  95 131 170 228 280 333 397
#     4  10  23  44  67 100 133 181 228 275 334 406
#
# _framework density 24.829146000000001
#
# number of rings (size 3 to 8) (size 9 to 14) (size 15 to 20)
#    0.000    1.750    1.250    1.875    8.750    4.500 
#    6.750    3.125    0.000    0.000    0.000    0.000 
#    0.000    0.000    0.000    0.000    0.000    0.000 
#
# Total GULP energy -89306.967146 kJ/mol
# GULP energy per Si atom -5581.685447 kJ/mol
# Density = 2.477263 g / cm^3
# Si number density = 24.829146 Si / 1000 Ang^3
#
#
#
# Elastic Constant Matrix: (Units=GPa)
#
#
# Indices 1 2 3 4 5 6 
#
# 1 65.6927 12.2753 35.1088 7.1190 -5.2388 -10.3117
# 2 12.2753 87.2826 52.8124 27.7334 -7.3320 8.7488
# 3 35.1088 52.8124 167.2977 32.0666 -11.0925 -8.0518
# 4 7.1190 27.7334 32.0666 36.5621 -2.3909 -2.5216
# 5 -5.2388 -7.3320 -11.0925 -2.3909 37.8245 15.5560
# 6 -10.3117 8.7488 -8.0518 -2.5216 15.5560 4.4294
#
#
#
# Elastic Compliance Matrix: (Units=1/GPa)
#
#
# Indices 1 2 3 4 5 6 
#
# 1 0.014387 0.004654 -0.004176 -0.003486 0.010364 -0.021675
# 2 0.004654 0.008346 -0.002010 -0.003818 -0.013843 0.037141
# 3 -0.004176 -0.002010 0.008453 -0.005234 0.003484 -0.005602
# 4 -0.003486 -0.003818 -0.005234 0.034386 0.010094 -0.025964
# 5 0.010364 -0.013843 0.003484 0.010094 -0.001607 0.069192
# 6 -0.021675 0.037141 -0.005602 -0.025964 0.069192 -0.166019
#
#
# Mechanical properties :
#
#
# Convention : Reuss Voigt Hill
#
# Bulk Modulus (GPa) = 35.55931 57.85178 46.70555
# Shear Modulus (GPa) = -55.79341 30.43496 -12.67922
#
# Velocity S-wave (km/s) = -4.74549 3.50491 -2.26223
# Velocity P-wave (km/s) = 3.95899 6.30315 3.46815
#
# Compressibility (1/GPa) = 0.02812203
#
# Stress axis : x y z
#
# Youngs Moduli (GPa) = 69.50886 119.81821 118.30140
#
# Poissons Ratio (x) = -0.55769 0.49406
# Poissons Ratio (y) = -0.32353 0.23778
# Poissons Ratio (z) = 0.29029 0.24083
#
# Static dielectric constant tensor:
#      x y z
#    x 1.966890 -0.010200 0.043590 
#    y -0.010200 2.147890 -0.048880 
#    z 0.043590 -0.048880 1.940260 
# 
# From -- ./inp_files/364726.got.cif
#   From: 2010.05.17/outbox.cif.g08.bks.cpg/sg2_183_cif.got.tgz:364726.got - 2010.06.03 11:33:40.
