data_PCOD9015123
_publ_section_title
;
Structure prediction by ZEFSAII (Michael W. Deem and Ramdas Pophale) SiO2 
 PCOD9015123
Probable space group: P -1
;
_chemical_formula_sum "Si O2"
_cell_formula_units_Z 14
_cell_length_a 16.333162
_cell_length_b 7.621332
_cell_length_c 10.545409
_cell_angle_alpha 133.274328
_cell_angle_beta 134.700260
_cell_angle_gamma 40.810638
_cell_volume 575.739073
_symmetry_space_group_name_H-M "P -1"
_symmetry_group_IT_number 2
_symmetry_cell_setting 'triclinic'
loop_
_space_group_symop_operation_xyz
x,y,z
-x,-y,-z
loop_
_atom_site_type_symbol
_atom_site_label
_atom_site_fract_x
_atom_site_fract_y
_atom_site_fract_z
Si Si1 0.741965 0.152195 0.100821
Si Si2 0.253443 0.298626 0.982187
Si Si3 0.240769 0.344792 0.710249
Si Si4 0.863913 0.839997 0.703171
Si Si5 0.977857 0.219077 0.915691
Si Si6 0.475814 0.695283 0.691894
Si Si7 0.576827 0.164958 0.689679
O O1 0.702103 0.476081 0.203022
O O2 0.736181 0.999814 0.144952
O O3 0.642545 0.127198 0.880712
O O4 0.902274 0.966298 0.143566
O O5 0.194658 0.450997 0.857133
O O6 0.162536 0.477423 0.093692
O O7 0.397475 0.267034 0.132177
O O8 0.132805 0.364051 0.502178
O O9 0.348833 0.010791 0.685509
O O10 0.920163 0.026876 0.802530
O O11 0.707880 0.035992 0.675789
O O12 0.946024 0.711468 0.857837
O O13 0.500000 0.500000 0.500000
O O14 0.481776 0.496085 0.714066
O O15 0.500000 0.000000 0.500000
#
# Coordination Sequence:
#
# PCOD9015123 Si02
#       7
#     2   2   2   2   2   2   2
#     4  11  26  42  69 103 136 185 226 286 336 401
#     4  12  24  44  68 101 139 179 229 282 342 405
#     4  12  25  43  66 104 144 176 224 284 357 396
#     4  10  21  41  71  96 131 183 221 286 340 399
#     4  10  21  46  72  96 132 181 244 269 337 409
#     4  12  23  44  68  96 137 185 226 277 340 412
#     4  11  22  42  67 102 132 180 235 272 334 409
#
# _framework density 24.316571
#
# number of rings (size 3 to 8) (size 9 to 14) (size 15 to 20)
#    0.000    0.857    4.286    3.429    0.000    4.000 
#    0.000    4.286    0.000    0.000    0.000    0.000 
#    0.000    0.000    0.000    0.000    0.000    0.000 
#
# Total GULP energy -78246.372013 kJ/mol
# GULP energy per Si atom -5589.026572 kJ/mol
# Density = 2.426123 g / cm^3
# Si number density = 24.316571 Si / 1000 Ang^3
#
#
#
# Elastic Constant Matrix: (Units=GPa)
#
#
# Indices 1 2 3 4 5 6 
#
# 1 76.8560 27.3400 34.3640 10.4671 32.4679 18.6709
# 2 27.3400 79.4354 -6.8016 29.1027 22.6123 9.9336
# 3 34.3640 -6.8016 114.0526 -2.4561 25.1262 5.2356
# 4 10.4671 29.1027 -2.4561 28.1203 5.5933 -1.2777
# 5 32.4679 22.6123 25.1262 5.5933 36.5796 6.8783
# 6 18.6709 9.9336 5.2356 -1.2777 6.8783 51.8328
#
#
#
# Elastic Compliance Matrix: (Units=1/GPa)
#
#
# Indices 1 2 3 4 5 6 
#
# 1 0.024075 -0.001518 -0.003630 -0.004782 -0.016078 -0.005999
# 2 -0.001518 0.026919 0.004844 -0.024220 -0.014200 -0.003814
# 3 -0.003630 0.004844 0.011830 -0.001075 -0.007770 0.000189
# 4 -0.004782 -0.024220 -0.001075 0.060749 0.009402 0.006723
# 5 -0.016078 -0.014200 -0.007770 0.009402 0.053838 0.002385
# 6 -0.005999 -0.003814 0.000189 0.006723 0.002385 0.022015
#
#
# Mechanical properties :
#
#
# Convention : Reuss Voigt Hill
#
# Bulk Modulus (GPa) = 16.07268 42.23876 29.15572
# Shear Modulus (GPa) = 22.64788 37.66932 30.15860
#
# Velocity S-wave (km/s) = 3.05516 3.94016 3.52554
# Velocity P-wave (km/s) = 4.36686 6.17316 5.34683
#
# Compressibility (1/GPa) = 0.06221737
#
# Stress axis : x y z
#
# Youngs Moduli (GPa) = 41.53657 37.14904 84.52776
#
# Poissons Ratio (x) = 0.05639 0.30683
# Poissons Ratio (y) = 0.06305 -0.40949
# Poissons Ratio (z) = 0.15077 -0.17997
#
# Static dielectric constant tensor:
#      x y z
#    x 1.984430 -0.048990 -0.070600 
#    y -0.048990 2.054750 0.004210 
#    z -0.070600 0.004210 1.909390 
# 
# From -- ./inp_files/462582.got.cif
#   From: 2010.05.17/outbox.cif.g08.bks.cpg/sg2_232_cif.got.tgz:462582.got - 2010.06.03 11:33:40.
