data_PCOD9015370
_publ_section_title
;
Structure prediction by ZEFSAII (Michael W. Deem and Ramdas Pophale) SiO2 
 PCOD9015370
Probable space group: P -1
;
_chemical_formula_sum "Si O2"
_cell_formula_units_Z 16
_cell_length_a 25.873992
_cell_length_b 8.355358
_cell_length_c 23.005533
_cell_angle_alpha 140.837628
_cell_angle_beta 15.782948
_cell_angle_gamma 147.017805
_cell_volume 719.167471
_symmetry_space_group_name_H-M "P -1"
_symmetry_group_IT_number 2
_symmetry_cell_setting 'triclinic'
loop_
_space_group_symop_operation_xyz
x,y,z
-x,-y,-z
loop_
_atom_site_type_symbol
_atom_site_label
_atom_site_fract_x
_atom_site_fract_y
_atom_site_fract_z
Si Si1 0.737503 0.922817 0.591489
Si Si2 0.560743 0.826091 0.046119
Si Si3 0.134973 0.422685 0.716954
Si Si4 0.321025 0.295340 0.587563
Si Si5 0.545798 0.165910 0.708169
Si Si6 0.534105 0.753500 0.307169
Si Si7 0.037079 0.150381 0.564927
Si Si8 0.964898 0.140034 0.020731
O O1 0.513215 0.582071 0.738042
O O2 0.857737 0.974892 0.538061
O O3 0.898034 0.881588 0.360695
O O4 0.645598 0.132461 0.734933
O O5 0.797837 0.068188 0.827245
O O6 0.500000 0.500000 0.000000
O O7 0.579351 0.844309 0.100797
O O8 0.390090 0.080155 0.425048
O O9 0.282539 0.468475 0.627155
O O10 0.286557 0.667080 0.571738
O O11 0.500000 0.500000 0.500000
O O12 0.961788 0.516202 0.948819
O O13 0.093562 0.115879 0.819992
O O14 0.413547 0.113958 0.776355
O O15 0.774685 0.495935 0.546032
O O16 0.709865 0.953992 0.221987
O O17 0.000000 0.000000 0.500000
O O18 0.000000 0.000000 0.000000
#
# Coordination Sequence:
#
# PCOD9015370 Si02
#       8
#     2   2   2   2   2   2   2   2
#     4   9  24  43  69 102 141 180 231 296 352 421
#     4  12  25  46  75 103 143 186 233 300 366 418
#     4  10  21  42  61  91 141 171 228 286 340 406
#     4  12  25  40  65  98 143 177 232 288 343 418
#     4  11  23  48  68 104 140 182 237 294 351 427
#     4   9  21  42  64  93 137 175 227 289 342 413
#     4  11  25  47  74 104 142 184 242 294 359 430
#     4  12  24  37  66  99 131 192 237 276 355 415
#
# _framework density 22.247947
#
# number of rings (size 3 to 8) (size 9 to 14) (size 15 to 20)
#    0.750    0.500    2.500    3.000    1.750    3.000 
#    0.000    0.000    0.000    0.000    0.000    0.000 
#    0.000    0.000    0.000    0.000    0.000    0.000 
#
# Total GULP energy -89326.835505 kJ/mol
# GULP energy per Si atom -5582.927219 kJ/mol
# Density = 2.219731 g / cm^3
# Si number density = 22.247947 Si / 1000 Ang^3
#
#
#
# Elastic Constant Matrix: (Units=GPa)
#
#
# Indices 1 2 3 4 5 6 
#
# 1 159.8549 43.8428 27.0685 22.2065 15.1229 0.5080
# 2 43.8428 97.0898 29.0535 29.3125 -7.8235 -2.8272
# 3 27.0685 29.0535 88.3659 11.1703 16.4307 7.1223
# 4 22.2065 29.3125 11.1703 38.6022 -1.5615 -2.6519
# 5 15.1229 -7.8235 16.4307 -1.5615 39.4419 5.8564
# 6 0.5080 -2.8272 7.1223 -2.6519 5.8564 25.9763
#
#
#
# Elastic Compliance Matrix: (Units=1/GPa)
#
#
# Indices 1 2 3 4 5 6 
#
# 1 0.007793 -0.002980 -0.000498 -0.002202 -0.003492 0.000222
# 2 -0.002980 0.016158 -0.004387 -0.008999 0.005698 0.000817
# 3 -0.000498 -0.004387 0.014462 -0.001036 -0.006281 -0.003123
# 4 -0.002202 -0.008999 -0.001036 0.034514 0.000446 0.002771
# 5 -0.003492 0.005698 -0.006281 0.000446 0.031135 -0.004563
# 6 0.000222 0.000817 -0.003123 0.002771 -0.004563 0.040749
#
#
# Mechanical properties :
#
#
# Convention : Reuss Voigt Hill
#
# Bulk Modulus (GPa) = 44.08614 60.58222 52.33418
# Shear Modulus (GPa) = 29.74385 37.16045 33.45215
#
# Velocity S-wave (km/s) = 3.66037 4.09135 3.88184
# Velocity P-wave (km/s) = 6.14192 7.04333 6.60801
#
# Compressibility (1/GPa) = 0.02268286
#
# Stress axis : x y z
#
# Youngs Moduli (GPa) = 128.32291 61.88765 69.14627
#
# Poissons Ratio (x) = 0.18444 0.03440
# Poissons Ratio (y) = 0.38244 0.30337
# Poissons Ratio (z) = 0.06384 0.27153
#
# Static dielectric constant tensor:
#      x y z
#    x 1.819350 0.024700 -0.042800 
#    y 0.024700 1.850430 0.017390 
#    z -0.042800 0.017390 2.362890 
# 
# From -- ./inp_files/601861.got.cif
#   From: 2010.05.17/outbox.cif.g08.bks.cpg/sg2_301_cif.got.tgz:601861.got - 2010.06.03 11:33:40.
