data_PCOD9015355
_publ_section_title
;
Structure prediction by ZEFSAII (Michael W. Deem and Ramdas Pophale) SiO2 
 PCOD9015355
Probable space group: P -1
;
_chemical_formula_sum "Si O2"
_cell_formula_units_Z 16
_cell_length_a 11.366135
_cell_length_b 6.898057
_cell_length_c 9.802719
_cell_angle_alpha 92.768516
_cell_angle_beta 55.968808
_cell_angle_gamma 110.754846
_cell_volume 584.342043
_symmetry_space_group_name_H-M "P -1"
_symmetry_group_IT_number 2
_symmetry_cell_setting 'triclinic'
loop_
_space_group_symop_operation_xyz
x,y,z
-x,-y,-z
loop_
_atom_site_type_symbol
_atom_site_label
_atom_site_fract_x
_atom_site_fract_y
_atom_site_fract_z
Si Si1 0.357272 0.237324 0.513298
Si Si2 0.605228 0.227600 0.188041
Si Si3 0.161295 0.976046 0.415521
Si Si4 0.498656 0.757264 0.290137
Si Si5 0.852759 0.566540 0.197090
Si Si6 0.335676 0.414911 0.181633
Si Si7 0.171639 0.195280 0.041973
Si Si8 0.855643 0.247124 0.833003
O O1 0.495731 0.342795 0.315672
O O2 0.225367 0.022984 0.529496
O O3 0.458191 0.230274 0.577762
O O4 0.257396 0.366958 0.630266
O O5 0.753944 0.335483 0.192118
O O6 0.497684 0.985847 0.271730
O O7 0.688711 0.233163 0.990907
O O8 0.288511 0.177452 0.261058
O O9 0.142769 0.774665 0.330946
O O10 0.000000 0.000000 0.500000
O O11 0.357784 0.579535 0.295357
O O12 0.656895 0.769428 0.118443
O O13 0.893920 0.729634 0.045798
O O14 0.997938 0.572324 0.187940
O O15 0.500000 0.500000 0.000000
O O16 0.199373 0.358176 0.155357
O O17 0.114853 0.957915 0.129608
#
# Coordination Sequence:
#
# PCOD9015355 Si02
#       8
#     2   2   2   2   2   2   2   2
#     4  11  24  39  64  92 124 166 217 258 317 385
#     4  11  24  39  61  95 127 166 212 271 316 376
#     4  11  23  41  67  97 127 165 219 270 315 379
#     4   9  20  39  60  88 128 166 201 263 325 371
#     4  11  21  38  66  91 124 166 221 257 319 385
#     4   9  19  37  64  90 131 161 209 263 323 371
#     4   8  18  35  61  93 117 166 216 256 311 383
#     4  10  21  42  61  89 131 167 204 272 327 366
#
# _framework density 27.381225000000001
#
# number of rings (size 3 to 8) (size 9 to 14) (size 15 to 20)
#    0.000    2.000    1.250    2.250    7.000    0.500 
#    2.250    0.000    0.000    1.500    0.000    0.000 
#    0.000    0.000    0.000    0.000    0.000    0.000 
#
# Total GULP energy -89339.872850 kJ/mol
# GULP energy per Si atom -5583.742053 kJ/mol
# Density = 2.731890 g / cm^3
# Si number density = 27.381225 Si / 1000 Ang^3
#
#
#
# Elastic Constant Matrix: (Units=GPa)
#
#
# Indices 1 2 3 4 5 6 
#
# 1 119.9639 18.7387 30.5925 23.3282 9.4483 18.3814
# 2 18.7387 77.7132 -1.0557 26.7219 23.3515 19.0088
# 3 30.5925 -1.0557 125.8974 34.2865 -9.7089 9.5061
# 4 23.3282 26.7219 34.2865 46.1146 7.4290 17.8724
# 5 9.4483 23.3515 -9.7089 7.4290 44.2780 12.5860
# 6 18.3814 19.0088 9.5061 17.8724 12.5860 50.9688
#
#
#
# Elastic Compliance Matrix: (Units=1/GPa)
#
#
# Indices 1 2 3 4 5 6 
#
# 1 0.009704 -0.000786 -0.001682 -0.002324 -0.001124 -0.001800
# 2 -0.000786 0.019577 0.003043 -0.011351 -0.007056 -0.001863
# 3 -0.001682 0.003043 0.011249 -0.009771 0.002832 0.000101
# 4 -0.002324 -0.011351 -0.009771 0.039408 -0.000327 -0.006844
# 5 -0.001124 -0.007056 0.002832 -0.000327 0.028474 -0.004408
# 6 -0.001800 -0.001863 0.000101 -0.006844 -0.004408 0.024434
#
#
# Mechanical properties :
#
#
# Convention : Reuss Voigt Hill
#
# Bulk Modulus (GPa) = 23.99220 46.68060 35.33640
# Shear Modulus (GPa) = 34.34296 46.62555 40.48426
#
# Velocity S-wave (km/s) = 3.54538 4.13101 3.84935
# Velocity P-wave (km/s) = 5.05381 6.31182 5.71752
#
# Compressibility (1/GPa) = 0.04168021
#
# Stress axis : x y z
#
# Youngs Moduli (GPa) = 103.05158 51.07917 88.89602
#
# Poissons Ratio (x) = 0.04013 0.14955
# Poissons Ratio (y) = 0.08095 -0.27049
# Poissons Ratio (z) = 0.17337 -0.15542
#
# Static dielectric constant tensor:
#      x y z
#    x 2.196830 -0.037740 0.104770 
#    y -0.037740 2.199090 0.029990 
#    z 0.104770 0.029990 2.226970 
# 
# From -- ./inp_files/446305.got.cif
#   From: 2010.05.17/outbox.cif.g08.bks.cpg/sg2_224_cif.got.tgz:446305.got - 2010.06.03 11:33:40.
