data_PCOD9015127
_publ_section_title
;
Structure prediction by ZEFSAII (Michael W. Deem and Ramdas Pophale) SiO2 
 PCOD9015127
Probable space group: P -1
;
_chemical_formula_sum "Si O2"
_cell_formula_units_Z 14
_cell_length_a 14.446917
_cell_length_b 9.495371
_cell_length_c 7.328219
_cell_angle_alpha 111.943480
_cell_angle_beta 111.066041
_cell_angle_gamma 34.022969
_cell_volume 519.327717
_symmetry_space_group_name_H-M "P -1"
_symmetry_group_IT_number 2
_symmetry_cell_setting 'triclinic'
loop_
_space_group_symop_operation_xyz
x,y,z
-x,-y,-z
loop_
_atom_site_type_symbol
_atom_site_label
_atom_site_fract_x
_atom_site_fract_y
_atom_site_fract_z
Si Si1 0.642488 0.081692 0.829328
Si Si2 0.671508 0.687606 0.341950
Si Si3 0.477937 0.482803 0.264287
Si Si4 0.933285 0.543272 0.671324
Si Si5 0.176989 0.647723 0.241045
Si Si6 0.185363 0.793970 0.724442
Si Si7 0.256135 0.222683 0.923618
O O1 0.833486 0.810601 0.799544
O O2 0.513044 0.135844 0.647222
O O3 0.604186 0.290047 0.815511
O O4 0.621122 0.029140 0.988637
O O5 0.791434 0.598260 0.543495
O O6 0.752497 0.425134 0.217761
O O7 0.673778 0.800706 0.229154
O O8 0.500000 0.500000 0.500000
O O9 0.338475 0.524539 0.201830
O O10 0.669317 0.258151 0.216297
O O11 0.000000 0.500000 0.500000
O O12 0.095136 0.320740 0.799907
O O13 0.176919 0.728108 0.483282
O O14 0.198955 0.441186 0.105278
O O15 0.988354 0.928276 0.191431
#
# Coordination Sequence:
#
# PCOD9015127 Si02
#       7
#     2   2   2   2   2   2   2
#     4  11  22  43  70 101 138 177 235 295 349 412
#     4  10  22  42  69  96 137 187 235 283 348 425
#     4   9  21  42  68 102 136 182 238 284 346 429
#     4  10  23  41  65  98 137 180 232 280 345 424
#     4  10  21  41  71  96 143 180 229 295 349 419
#     4   9  20  41  68  99 133 189 235 279 356 419
#     4  11  24  42  66 108 140 179 231 290 360 409
#
# _framework density 26.957927000000002
#
# number of rings (size 3 to 8) (size 9 to 14) (size 15 to 20)
#    0.000    2.000    0.000    2.143    4.000    2.857 
#    5.143    1.429    0.000    0.000    0.000    0.000 
#    0.000    0.000    0.000    0.000    0.000    0.000 
#
# Total GULP energy -78115.527278 kJ/mol
# GULP energy per Si atom -5579.680520 kJ/mol
# Density = 2.689657 g / cm^3
# Si number density = 26.957927 Si / 1000 Ang^3
#
#
#
# Elastic Constant Matrix: (Units=GPa)
#
#
# Indices 1 2 3 4 5 6 
#
# 1 128.1596 58.3069 47.7790 -11.5574 10.4208 -11.0614
# 2 58.3069 138.5392 25.6418 -6.4793 5.3249 -9.3085
# 3 47.7790 25.6418 151.2657 -22.7697 -7.4992 9.8035
# 4 -11.5574 -6.4793 -22.7697 32.0882 -5.9551 4.4804
# 5 10.4208 5.3249 -7.4992 -5.9551 53.1674 4.0058
# 6 -11.0614 -9.3085 9.8035 4.4804 4.0058 49.4219
#
#
#
# Elastic Compliance Matrix: (Units=1/GPa)
#
#
# Indices 1 2 3 4 5 6 
#
# 1 0.011152 -0.003840 -0.003125 0.000218 -0.002411 0.002568
# 2 -0.003840 0.008978 -0.000387 -0.000026 -0.000274 0.000933
# 3 -0.003125 -0.000387 0.008945 0.006138 0.002852 -0.003334
# 4 0.000218 -0.000026 0.006138 0.037288 0.005378 -0.004990
# 5 -0.002411 -0.000274 0.002852 0.005378 0.020563 -0.003311
# 6 0.002568 0.000933 -0.003334 -0.004990 -0.003311 0.022367
#
#
# Mechanical properties :
#
#
# Convention : Reuss Voigt Hill
#
# Bulk Modulus (GPa) = 69.58102 75.71332 72.64717
# Shear Modulus (GPa) = 38.82417 46.01797 42.42107
#
# Velocity S-wave (km/s) = 3.79908 4.13610 3.97117
# Velocity P-wave (km/s) = 6.71648 7.13838 6.93064
#
# Compressibility (1/GPa) = 0.01437174
#
# Stress axis : x y z
#
# Youngs Moduli (GPa) = 89.67002 111.38514 111.79486
#
# Poissons Ratio (x) = 0.42769 0.34933
# Poissons Ratio (y) = 0.34431 0.04327
# Poissons Ratio (z) = 0.28020 0.04311
#
# Static dielectric constant tensor:
#      x y z
#    x 2.103260 0.019070 0.015410 
#    y 0.019070 2.109670 0.094730 
#    z 0.015410 0.094730 2.197060 
# 
# From -- ./inp_files/293044.got.cif
#   From: 2010.05.17/outbox.cif.g08.bks.cpg/sg2_147_cif.got.tgz:293044.got - 2010.06.03 11:33:40.
