data_PCOD9015952
_publ_section_title
;
Structure prediction by ZEFSAII (Michael W. Deem and Ramdas Pophale) SiO2 
 PCOD9015952
Probable space group: P -1
;
_chemical_formula_sum "Si O2"
_cell_formula_units_Z 14
_cell_length_a 4.920898
_cell_length_b 8.345930
_cell_length_c 13.177609
_cell_angle_alpha 93.540891
_cell_angle_beta 97.260974
_cell_angle_gamma 80.702095
_cell_volume 529.331375
_symmetry_space_group_name_H-M "P -1"
_symmetry_group_IT_number 2
_symmetry_cell_setting 'triclinic'
loop_
_space_group_symop_operation_xyz
x,y,z
-x,-y,-z
loop_
_atom_site_type_symbol
_atom_site_label
_atom_site_fract_x
_atom_site_fract_y
_atom_site_fract_z
Si Si1 0.270976 0.127011 0.932372
Si Si2 0.144606 0.846308 0.811522
Si Si3 0.153550 0.434636 0.269091
Si Si4 0.790544 0.125008 0.602390
Si Si5 0.489776 0.818660 0.620590
Si Si6 0.302106 0.267512 0.718533
Si Si7 0.625129 0.603780 0.927231
O O1 0.362809 0.201659 0.833263
O O2 0.057928 0.013308 0.874521
O O3 0.176042 0.283322 0.004369
O O4 0.500000 0.000000 0.000000
O O5 0.312188 0.860380 0.716027
O O6 0.367018 0.730745 0.882776
O O7 0.904898 0.743376 0.775833
O O8 0.360211 0.369149 0.366859
O O9 0.263957 0.496019 0.170854
O O10 0.872941 0.552016 0.285153
O O11 0.716493 0.162885 0.483953
O O12 0.581175 0.247220 0.666910
O O13 0.091937 0.162630 0.647683
O O14 0.700216 0.949253 0.615373
O O15 0.500000 0.500000 0.000000
#
# Coordination Sequence:
#
# PCOD9015952 Si02
#       7
#     2   2   2   2   2   2   2
#     4  10  22  44  70  99 142 186 242 296 355 430
#     4  10  21  42  66 100 138 183 241 288 356 425
#     4  11  26  42  71 104 146 190 234 305 355 437
#     4  11  27  47  75 107 143 193 242 299 353 434
#     4  10  24  45  74 102 145 188 241 295 362 422
#     4  12  27  46  72 108 147 186 243 297 361 427
#     4  10  23  41  66  99 138 185 236 293 359 421
#
# _framework density 26.448459
#
# number of rings (size 3 to 8) (size 9 to 14) (size 15 to 20)
#    0.000    1.429    1.429    1.714    8.000    5.143 
#    2.571    0.000    0.000    0.000    0.000    0.000 
#    0.000    0.000    0.000    0.000    0.000    0.000 
#
# Total GULP energy -78391.727826 kJ/mol
# GULP energy per Si atom -5599.409130 kJ/mol
# Density = 2.638826 g / cm^3
# Si number density = 26.448459 Si / 1000 Ang^3
#
#
#
# Elastic Constant Matrix: (Units=GPa)
#
#
# Indices 1 2 3 4 5 6 
#
# 1 60.8805 4.6426 12.7481 -3.9020 -6.6378 0.7857
# 2 4.6426 110.5223 60.9972 -16.3743 -2.3211 -8.8630
# 3 12.7481 60.9972 157.4864 -29.6163 -1.9618 -2.1226
# 4 -3.9020 -16.3743 -29.6163 52.3215 0.4860 4.6531
# 5 -6.6378 -2.3211 -1.9618 0.4860 35.4477 5.4238
# 6 0.7857 -8.8630 -2.1226 4.6531 5.4238 38.7138
#
#
#
# Elastic Compliance Matrix: (Units=1/GPa)
#
#
# Indices 1 2 3 4 5 6 
#
# 1 0.017094 0.000066 -0.001262 0.000634 0.003270 -0.000935
# 2 0.000066 0.011783 -0.004343 0.001027 0.000176 0.002310
# 3 -0.001262 -0.004343 0.008801 0.003611 0.000059 -0.000928
# 4 0.000634 0.001027 0.003611 0.021721 0.000432 -0.002251
# 5 0.003270 0.000176 0.000059 0.000432 0.029475 -0.004204
# 6 -0.000935 0.002310 -0.000928 -0.002251 -0.004204 0.027187
#
#
# Mechanical properties :
#
#
# Convention : Reuss Voigt Hill
#
# Bulk Modulus (GPa) = 37.59241 53.96278 45.77759
# Shear Modulus (GPa) = 36.76318 41.99668 39.37993
#
# Velocity S-wave (km/s) = 3.73231 3.98913 3.86285
# Velocity P-wave (km/s) = 5.72868 6.45483 6.10257
#
# Compressibility (1/GPa) = 0.02660112
#
# Stress axis : x y z
#
# Youngs Moduli (GPa) = 58.49992 84.86819 113.62223
#
# Poissons Ratio (x) = -0.00560 0.14338
# Poissons Ratio (y) = -0.00386 0.49341
# Poissons Ratio (z) = 0.07382 0.36855
#
# Static dielectric constant tensor:
#      x y z
#    x 2.080390 0.055970 0.078330 
#    y 0.055970 2.153090 0.013370 
#    z 0.078330 0.013370 2.130430 
# 
# From -- ./inp_files/27906.got.cif
#   From: 2010.05.17/outbox.cif.g08.bks.cpg/sg2_14_cif.got.tgz:27906.got - 2010.06.03 11:33:40.
