data_PCOD9015384
_publ_section_title
;
Structure prediction by ZEFSAII (Michael W. Deem and Ramdas Pophale) SiO2 
 PCOD9015384
Probable space group: P -1
;
_chemical_formula_sum "Si O2"
_cell_formula_units_Z 16
_cell_length_a 8.359003
_cell_length_b 15.476494
_cell_length_c 6.523403
_cell_angle_alpha 67.460430
_cell_angle_beta 64.321523
_cell_angle_gamma 92.398683
_cell_volume 680.203069
_symmetry_space_group_name_H-M "P -1"
_symmetry_group_IT_number 2
_symmetry_cell_setting 'triclinic'
loop_
_space_group_symop_operation_xyz
x,y,z
-x,-y,-z
loop_
_atom_site_type_symbol
_atom_site_label
_atom_site_fract_x
_atom_site_fract_y
_atom_site_fract_z
Si Si1 0.937070 0.388820 0.466333
Si Si2 0.141347 0.085561 0.453775
Si Si3 0.991987 0.746164 0.771484
Si Si4 0.299730 0.479640 0.395569
Si Si5 0.413638 0.352112 0.779187
Si Si6 0.553970 0.908476 0.452954
Si Si7 0.497252 0.851480 0.084181
Si Si8 0.240919 0.779019 0.974920
O O1 0.837129 0.475339 0.426437
O O2 0.907060 0.322568 0.342954
O O3 0.155396 0.429660 0.348464
O O4 0.851297 0.323617 0.772548
O O5 0.047563 0.173737 0.429503
O O6 0.231948 0.076329 0.630534
O O7 0.320627 0.107040 0.187194
O O8 0.000000 0.000000 0.500000
O O9 0.097516 0.794145 0.871795
O O10 0.793249 0.685366 0.001257
O O11 0.394127 0.407015 0.528997
O O12 0.466096 0.574500 0.188874
O O13 0.498101 0.260668 0.785751
O O14 0.507886 0.903100 0.246067
O O15 0.432288 0.807432 0.712262
O O16 0.500000 0.000000 0.500000
O O17 0.312871 0.849472 0.062403
#
# Coordination Sequence:
#
# PCOD9015384 Si02
#       8
#     2   2   2   2   2   2   2   2
#     4  11  23  41  64  95 130 177 214 272 325 372
#     4  10  24  43  65 100 132 165 220 261 320 395
#     4  11  24  40  68  97 130 175 214 266 328 385
#     4  10  22  41  63  91 134 167 224 268 318 392
#     4  10  21  42  61  95 130 170 219 269 326 377
#     4  11  25  43  69 100 126 171 219 257 324 395
#     4  10  23  43  68  90 136 174 206 273 320 378
#     4  11  22  42  64  95 133 165 221 258 322 389
#
# _framework density 23.522390000000001
#
# number of rings (size 3 to 8) (size 9 to 14) (size 15 to 20)
#    0.000    1.500    2.500    1.500    1.750    4.500 
#    0.000    0.000    0.000    0.000    0.000    0.000 
#    0.000    0.000    0.000    0.000    0.000    0.000 
#
# Total GULP energy -89317.626044 kJ/mol
# GULP energy per Si atom -5582.351628 kJ/mol
# Density = 2.346885 g / cm^3
# Si number density = 23.522390 Si / 1000 Ang^3
#
#
#
# Elastic Constant Matrix: (Units=GPa)
#
#
# Indices 1 2 3 4 5 6 
#
# 1 142.0213 39.6375 29.2295 0.3049 15.0912 44.3470
# 2 39.6375 93.4006 25.1442 3.0096 8.0591 20.2344
# 3 29.2295 25.1442 34.7797 16.6814 3.1732 10.5382
# 4 0.3049 3.0096 16.6814 35.3547 10.6935 0.0804
# 5 15.0912 8.0591 3.1732 10.6935 41.4458 -4.1537
# 6 44.3470 20.2344 10.5382 0.0804 -4.1537 51.2934
#
#
#
# Elastic Compliance Matrix: (Units=1/GPa)
#
#
# Indices 1 2 3 4 5 6 
#
# 1 0.012903 -0.000262 -0.010489 0.006866 -0.006562 -0.009439
# 2 -0.000262 0.014877 -0.011705 0.005368 -0.003641 -0.003541
# 3 -0.010489 -0.011705 0.058511 -0.029383 0.009445 0.002476
# 4 0.006866 0.005368 -0.029383 0.045693 -0.013402 -0.003174
# 5 -0.006562 -0.003641 0.009445 -0.013402 0.030729 0.007679
# 6 -0.009439 -0.003541 0.002476 -0.003174 0.007679 0.029172
#
#
# Mechanical properties :
#
#
# Convention : Reuss Voigt Hill
#
# Bulk Modulus (GPa) = 24.16677 50.91378 37.54028
# Shear Modulus (GPa) = 19.95293 37.36479 28.65886
#
# Velocity S-wave (km/s) = 2.91564 3.98989 3.49430
# Velocity P-wave (km/s) = 4.65090 6.55114 5.68104
#
# Compressibility (1/GPa) = 0.04137913
#
# Stress axis : x y z
#
# Youngs Moduli (GPa) = 77.50032 67.21746 17.09093
#
# Poissons Ratio (x) = 0.01763 0.17927
# Poissons Ratio (y) = 0.02032 0.20004
# Poissons Ratio (z) = 0.81289 0.78676
#
# Static dielectric constant tensor:
#      x y z
#    x 1.899880 0.014510 0.026040 
#    y 0.014510 1.922020 -0.061280 
#    z 0.026040 -0.061280 1.982560 
# 
# From -- ./inp_files/37966.got.cif
#   From: 2010.05.17/outbox.cif.g08.bks.cpg/sg2_19_cif.got.tgz:37966.got - 2010.06.03 11:33:40.
