data_PCOD9015620
_publ_section_title
;
Structure prediction by ZEFSAII (Michael W. Deem and Ramdas Pophale) SiO2 
 PCOD9015620
Probable space group: P -1
;
_chemical_formula_sum "Si O2"
_cell_formula_units_Z 16
_cell_length_a 13.570385
_cell_length_b 8.780182
_cell_length_c 14.140462
_cell_angle_alpha 85.154945
_cell_angle_beta 149.911394
_cell_angle_gamma 76.335484
_cell_volume 660.902128
_symmetry_space_group_name_H-M "P -1"
_symmetry_group_IT_number 2
_symmetry_cell_setting 'triclinic'
loop_
_space_group_symop_operation_xyz
x,y,z
-x,-y,-z
loop_
_atom_site_type_symbol
_atom_site_label
_atom_site_fract_x
_atom_site_fract_y
_atom_site_fract_z
Si Si1 0.335171 0.152652 0.435658
Si Si2 0.408311 0.878178 0.650023
Si Si3 0.585756 0.209796 0.032557
Si Si4 0.757976 0.436360 0.138319
Si Si5 0.615004 0.394547 0.467861
Si Si6 0.791055 0.868256 0.343041
Si Si7 0.036460 0.439778 0.858208
Si Si8 0.721709 0.199195 0.768168
O O1 0.117866 0.371716 0.212336
O O2 0.534425 0.162567 0.656278
O O3 0.500000 0.000000 0.500000
O O4 0.249790 0.057308 0.436654
O O5 0.360360 0.724210 0.596338
O O6 0.348499 0.975178 0.696569
O O7 0.704189 0.752398 0.879651
O O8 0.469362 0.359041 0.016349
O O9 0.371146 0.202395 0.814604
O O10 0.680181 0.305627 0.042579
O O11 0.794280 0.989182 0.253813
O O12 0.946737 0.309431 0.387914
O O13 0.888575 0.486073 0.170362
O O14 0.845454 0.400599 0.669204
O O15 0.631502 0.282795 0.582061
O O16 0.352822 0.612888 0.245713
O O17 0.000000 0.000000 0.000000
#
# Coordination Sequence:
#
# PCOD9015620 Si02
#       8
#     2   2   2   2   2   2   2   2
#     4  11  23  42  64  92 129 170 225 265 323 394
#     4  12  24  42  66  98 134 172 218 275 329 382
#     4  10  24  44  70  99 131 173 221 261 337 398
#     4  11  22  45  68  97 133 174 217 268 328 394
#     4  10  24  41  62  92 128 167 220 269 320 389
#     4  11  23  44  67 100 132 171 217 273 324 395
#     4  11  25  43  62  98 135 170 218 274 324 386
#     4  10  21  42  64  89 121 170 221 269 327 381
#
# _framework density 24.209333000000001
#
# number of rings (size 3 to 8) (size 9 to 14) (size 15 to 20)
#    0.000    1.250    3.750    1.500    1.750    2.500 
#    2.250    0.000    0.000    0.000    0.000    0.000 
#    0.000    0.000    0.000    0.000    0.000    0.000 
#
# Total GULP energy -89431.572928 kJ/mol
# GULP energy per Si atom -5589.473308 kJ/mol
# Density = 2.415423 g / cm^3
# Si number density = 24.209333 Si / 1000 Ang^3
#
#
#
# Elastic Constant Matrix: (Units=GPa)
#
#
# Indices 1 2 3 4 5 6 
#
# 1 64.7839 32.9143 -0.5305 -1.9219 8.6002 16.2039
# 2 32.9143 148.8824 25.2293 9.8667 -0.1700 20.8610
# 3 -0.5305 25.2293 85.8511 -19.8330 4.8743 12.9739
# 4 -1.9219 9.8667 -19.8330 41.7078 5.8079 2.9877
# 5 8.6002 -0.1700 4.8743 5.8079 26.5307 -4.3003
# 6 16.2039 20.8610 12.9739 2.9877 -4.3003 36.9909
#
#
#
# Elastic Compliance Matrix: (Units=1/GPa)
#
#
# Indices 1 2 3 4 5 6 
#
# 1 0.022476 -0.004866 0.005573 0.007256 -0.011713 -0.011004
# 2 -0.004866 0.008836 -0.003712 -0.004461 0.003159 -0.000822
# 3 0.005573 -0.003712 0.017068 0.011056 -0.008722 -0.008241
# 4 0.007256 -0.004461 0.011056 0.033068 -0.013066 -0.008731
# 5 -0.011713 0.003159 -0.008722 -0.013066 0.048088 0.013054
# 6 -0.011004 -0.000822 -0.008241 -0.008731 0.013054 0.037431
#
#
# Mechanical properties :
#
#
# Convention : Reuss Voigt Hill
#
# Bulk Modulus (GPa) = 23.60135 46.08262 34.84198
# Shear Modulus (GPa) = 26.72347 37.17284 31.94816
#
# Velocity S-wave (km/s) = 3.32603 3.92277 3.63666
# Velocity P-wave (km/s) = 4.95177 6.29236 5.66188
#
# Compressibility (1/GPa) = 0.04237047
#
# Stress axis : x y z
#
# Youngs Moduli (GPa) = 44.49135 113.17456 58.58805
#
# Poissons Ratio (x) = 0.55068 -0.32652
# Poissons Ratio (y) = 0.21648 0.21750
# Poissons Ratio (z) = -0.24796 0.42015
#
# Static dielectric constant tensor:
#      x y z
#    x 1.989890 0.031510 0.020850 
#    y 0.031510 1.963150 0.019700 
#    z 0.020850 0.019700 1.934210 
# 
# From -- ./inp_files/315341.got.cif
#   From: 2010.05.17/outbox.cif.g08.bks.cpg/sg2_158_cif.got.tgz:315341.got - 2010.06.03 11:33:40.
