data_PCOD9015659
_publ_section_title
;
Structure prediction by ZEFSAII (Michael W. Deem and Ramdas Pophale) SiO2 
 PCOD9015659
Probable space group: P -1
;
_chemical_formula_sum "Si O2"
_cell_formula_units_Z 14
_cell_length_a 11.635747
_cell_length_b 14.063010
_cell_length_c 9.242620
_cell_angle_alpha 141.229224
_cell_angle_beta 140.860462
_cell_angle_gamma 52.865064
_cell_volume 597.803262
_symmetry_space_group_name_H-M "P -1"
_symmetry_group_IT_number 2
_symmetry_cell_setting 'triclinic'
loop_
_space_group_symop_operation_xyz
x,y,z
-x,-y,-z
loop_
_atom_site_type_symbol
_atom_site_label
_atom_site_fract_x
_atom_site_fract_y
_atom_site_fract_z
Si Si1 0.397194 0.950341 0.484781
Si Si2 0.238775 0.638778 0.597921
Si Si3 0.805951 0.408520 0.830032
Si Si4 0.647369 0.737495 0.046291
Si Si5 0.522434 0.833343 0.752153
Si Si6 0.048051 0.829237 0.872622
Si Si7 0.902257 0.602356 0.649090
O O1 0.534695 0.877919 0.649498
O O2 0.237924 0.832106 0.150342
O O3 0.500000 0.000000 0.500000
O O4 0.305109 0.102666 0.643517
O O5 0.156003 0.601051 0.315869
O O6 0.432653 0.715582 0.848457
O O7 0.261460 0.492443 0.552110
O O8 0.109746 0.245213 0.273167
O O9 0.737045 0.580282 0.994846
O O10 0.648932 0.281383 0.546369
O O11 0.964349 0.374980 0.057785
O O12 0.664361 0.756324 0.910638
O O13 0.500000 0.000000 0.000000
O O14 0.099456 0.744000 0.674155
O O15 0.000000 0.000000 0.000000
O O16 0.000000 0.500000 0.500000
#
# Coordination Sequence:
#
# PCOD9015659 Si02
#       7
#     2   2   2   2   2   2   2
#     4  11  21  41  64  88 125 168 210 260 311 360
#     4  10  21  42  64  92 125 162 206 254 314 371
#     4  11  21  42  68  94 125 161 209 258 318 372
#     4  10  22  39  67  97 123 160 204 263 314 374
#     4   9  19  37  61  90 127 158 195 260 316 354
#     4  11  24  44  60  89 127 169 212 255 307 369
#     4  10  23  42  63  89 128 168 202 261 304 373
#
# _framework density 23.419073999999998
#
# number of rings (size 3 to 8) (size 9 to 14) (size 15 to 20)
#    0.000    1.714    2.857    2.143    4.000    0.000 
#    5.143    4.286    0.000    0.000    0.000    0.000 
#    0.000    0.000    0.000    0.000    0.000    0.000 
#
# Total GULP energy -78172.310080 kJ/mol
# GULP energy per Si atom -5583.736434 kJ/mol
# Density = 2.336577 g / cm^3
# Si number density = 23.419074 Si / 1000 Ang^3
#
#
#
# Elastic Constant Matrix: (Units=GPa)
#
#
# Indices 1 2 3 4 5 6 
#
# 1 101.9719 49.3649 31.6731 -2.2637 -25.3675 16.8820
# 2 49.3649 118.5807 -3.2658 24.3448 -11.5042 30.8863
# 3 31.6731 -3.2658 96.1737 8.1766 -19.2476 4.5475
# 4 -2.2637 24.3448 8.1766 37.3222 6.0676 -5.1990
# 5 -25.3675 -11.5042 -19.2476 6.0676 28.2654 -3.1949
# 6 16.8820 30.8863 4.5475 -5.1990 -3.1949 43.0815
#
#
#
# Elastic Compliance Matrix: (Units=1/GPa)
#
#
# Indices 1 2 3 4 5 6 
#
# 1 0.017101 -0.008086 -0.005011 0.006338 0.007390 0.000937
# 2 -0.008086 0.020147 0.007219 -0.018461 0.008279 -0.013651
# 3 -0.005011 0.007219 0.015648 -0.010953 0.010840 -0.005382
# 4 0.006338 -0.018461 -0.010953 0.046725 -0.017477 0.016250
# 5 0.007390 0.008279 0.010840 -0.017477 0.055615 -0.007960
# 6 0.000937 -0.013651 -0.005382 0.016250 -0.007960 0.034570
#
#
# Mechanical properties :
#
#
# Convention : Reuss Voigt Hill
#
# Bulk Modulus (GPa) = 24.30624 52.47451 38.39038
# Shear Modulus (GPa) = 23.22610 37.66410 30.44510
#
# Velocity S-wave (km/s) = 3.15264 4.01467 3.60948
# Velocity P-wave (km/s) = 4.86349 6.62914 5.81373
#
# Compressibility (1/GPa) = 0.04114170
#
# Stress axis : x y z
#
# Youngs Moduli (GPa) = 58.47518 49.63528 63.90467
#
# Poissons Ratio (x) = 0.40133 0.32021
# Poissons Ratio (y) = 0.47281 -0.46133
# Poissons Ratio (z) = 0.29300 -0.35832
#
# Static dielectric constant tensor:
#      x y z
#    x 1.897580 -0.016340 0.012850 
#    y -0.016340 1.920060 0.008450 
#    z 0.012850 0.008450 1.918550 
# 
# From -- ./inp_files/308655.got.cif
#   From: 2010.05.17/outbox.cif.g08.bks.cpg/sg2_155_cif.got.tgz:308655.got - 2010.06.03 11:33:40.
