data_PCOD9015108
_publ_section_title
;
Structure prediction by ZEFSAII (Michael W. Deem and Ramdas Pophale) SiO2 
 PCOD9015108
Probable space group: P -1
;
_chemical_formula_sum "Si O2"
_cell_formula_units_Z 16
_cell_length_a 13.753032
_cell_length_b 12.512615
_cell_length_c 11.400625
_cell_angle_alpha 145.607839
_cell_angle_beta 144.641869
_cell_angle_gamma 36.777838
_cell_volume 590.094328
_symmetry_space_group_name_H-M "P -1"
_symmetry_group_IT_number 2
_symmetry_cell_setting 'triclinic'
loop_
_space_group_symop_operation_xyz
x,y,z
-x,-y,-z
loop_
_atom_site_type_symbol
_atom_site_label
_atom_site_fract_x
_atom_site_fract_y
_atom_site_fract_z
Si Si1 0.299949 0.687150 0.210717
Si Si2 0.349585 0.246035 0.824288
Si Si3 0.044886 0.575848 0.293818
Si Si4 0.077529 0.213601 0.212679
Si Si5 0.795027 0.785126 0.027259
Si Si6 0.404915 0.863075 0.692768
Si Si7 0.834551 0.379856 0.334220
Si Si8 0.588019 0.208941 0.818080
O O1 0.306359 0.764636 0.418274
O O2 0.408734 0.771362 0.301155
O O3 0.391111 0.440998 0.081363
O O4 0.098763 0.754611 0.014562
O O5 0.134411 0.335235 0.719765
O O6 0.415082 0.212819 0.724614
O O7 0.426570 0.040617 0.790599
O O8 0.964134 0.683395 0.189965
O O9 0.174775 0.654908 0.567660
O O10 0.129865 0.332231 0.127022
O O11 0.139355 0.405341 0.445095
O O12 0.996884 0.221978 0.272535
O O13 0.249652 0.004377 0.175795
O O14 0.714847 0.019508 0.207408
O O15 0.613975 0.730131 0.814703
O O16 0.660602 0.376929 0.093393
#
# Coordination Sequence:
#
# PCOD9015108 Si02
#       8
#     2   2   2   2   2   2   2   2
#     4  11  23  42  66 100 140 172 212 268 332 393
#     4  11  25  41  64 101 137 172 218 261 328 405
#     4  10  21  43  73  90 132 173 220 273 333 380
#     4  10  23  40  67 103 129 175 227 256 321 413
#     4   9  22  44  69  97 122 176 228 277 334 377
#     4  10  24  44  71  95 136 169 220 284 328 378
#     4  10  21  41  71  91 136 174 208 274 328 382
#     4  11  26  39  65 106 136 171 222 256 321 411
#
# _framework density 27.11431
#
# number of rings (size 3 to 8) (size 9 to 14) (size 15 to 20)
#    0.000    1.750    1.250    1.875   10.500    0.500 
#    0.000    6.250    0.000    0.000    0.000    0.000 
#    0.000    0.000    0.000    0.000    0.000    0.000 
#
# Total GULP energy -89373.761261 kJ/mol
# GULP energy per Si atom -5585.860079 kJ/mol
# Density = 2.705260 g / cm^3
# Si number density = 27.114310 Si / 1000 Ang^3
#
#
#
# Elastic Constant Matrix: (Units=GPa)
#
#
# Indices 1 2 3 4 5 6 
#
# 1 99.8128 18.5514 22.2314 2.4527 -13.6448 -25.2830
# 2 18.5514 66.5391 31.1136 -1.7180 -6.4598 -3.3433
# 3 22.2314 31.1136 161.6930 -18.2120 -33.4620 -10.6936
# 4 2.4527 -1.7180 -18.2120 31.1515 14.5904 -1.2246
# 5 -13.6448 -6.4598 -33.4620 14.5904 45.3464 16.0726
# 6 -25.2830 -3.3433 -10.6936 -1.2246 16.0726 41.9183
#
#
#
# Elastic Compliance Matrix: (Units=1/GPa)
#
#
# Indices 1 2 3 4 5 6 
#
# 1 0.012591 -0.002772 -0.000740 -0.001799 0.001040 0.006733
# 2 -0.002772 0.017164 -0.003081 -0.000645 -0.000072 -0.001080
# 3 -0.000740 -0.003081 0.008092 0.002429 0.004649 -0.000339
# 4 -0.001799 -0.000645 0.002429 0.040411 -0.013978 0.006023
# 5 0.001040 -0.000072 0.004649 -0.013978 0.034472 -0.011818
# 6 0.006733 -0.001080 -0.000339 0.006023 -0.011818 0.032452
#
#
# Mechanical properties :
#
#
# Convention : Reuss Voigt Hill
#
# Bulk Modulus (GPa) = 40.54699 52.42641 46.48670
# Shear Modulus (GPa) = 30.01447 40.75981 35.38714
#
# Velocity S-wave (km/s) = 3.33071 3.88139 3.61655
# Velocity P-wave (km/s) = 5.45693 6.28206 5.88398
#
# Compressibility (1/GPa) = 0.02466274
#
# Stress axis : x y z
#
# Youngs Moduli (GPa) = 79.42484 58.26117 123.57517
#
# Poissons Ratio (x) = 0.16147 0.09143
# Poissons Ratio (y) = 0.22013 0.38069
# Poissons Ratio (z) = 0.05877 0.17948
#
# Static dielectric constant tensor:
#      x y z
#    x 2.172440 0.040410 0.029210 
#    y 0.040410 2.232040 -0.045860 
#    z 0.029210 -0.045860 2.153500 
# 
# From -- ./inp_files/455290.got.cif
#   From: 2010.05.17/outbox.cif.g08.bks.cpg/sg2_228_cif.got.tgz:455290.got - 2010.06.03 11:33:40.
