data_PCOD9015764
_publ_section_title
;
Structure prediction by ZEFSAII (Michael W. Deem and Ramdas Pophale) SiO2 
 PCOD9015764
Probable space group: P -1
;
_chemical_formula_sum "Si O2"
_cell_formula_units_Z 13
_cell_length_a 9.237633
_cell_length_b 13.053379
_cell_length_c 6.693976
_cell_angle_alpha 136.164094
_cell_angle_beta 97.971386
_cell_angle_gamma 99.121939
_cell_volume 512.797923
_symmetry_space_group_name_H-M "P -1"
_symmetry_group_IT_number 2
_symmetry_cell_setting 'triclinic'
loop_
_space_group_symop_operation_xyz
x,y,z
-x,-y,-z
loop_
_atom_site_type_symbol
_atom_site_label
_atom_site_fract_x
_atom_site_fract_y
_atom_site_fract_z
Si Si1 0.563093 0.245375 0.406289
Si Si2 0.697751 0.824644 0.426755
Si Si3 0.958693 0.154065 0.426197
Si Si4 0.327672 0.431516 0.274330
Si Si5 0.067733 0.387165 0.469319
Si Si6 0.641312 0.982361 0.281284
Si Si7 0.000000 0.500000 0.000000
O O1 0.415507 0.248163 0.510532
O O2 0.695005 0.416711 0.621598
O O3 0.627877 0.140615 0.410290
O O4 0.881558 0.516145 0.177582
O O5 0.880485 0.876956 0.588454
O O6 0.505597 0.843042 0.939481
O O7 0.672314 0.691159 0.065874
O O8 0.941951 0.220263 0.294713
O O9 0.813603 0.002138 0.258513
O O10 0.351245 0.045154 0.519999
O O11 0.500000 0.500000 0.500000
O O12 0.799688 0.633589 0.669306
O O13 0.000000 0.500000 0.500000
O O14 0.029146 0.691441 0.218696
#
# Coordination Sequence:
#
# PCOD9015764 Si02
#       7
#     2   2   2   2   2   2   1
#     4  11  26  47  67 103 138 188 229 277 344 420
#     4  12  25  46  69 104 135 183 234 283 345 402
#     4  10  23  43  70 102 135 178 228 287 340 406
#     4  12  24  44  73 101 139 181 229 288 341 404
#     4  10  21  42  65 101 135 174 227 283 336 397
#     4  11  25  47  67  98 143 182 227 282 351 405
#     4   8  22  40  64 104 128 176 228 278 338 392
#
# _framework density 25.351116999999999
#
# number of rings (size 3 to 8) (size 9 to 14) (size 15 to 20)
#    0.923    0.308    1.538    4.154    2.154    1.846 
#   11.077    0.000    0.000    0.000    0.000    0.000 
#    0.000    0.000    0.000    0.000    0.000    0.000 
#
# Total GULP energy -72456.481337 kJ/mol
# GULP energy per Si atom -5573.575487 kJ/mol
# Density = 2.529342 g / cm^3
# Si number density = 25.351117 Si / 1000 Ang^3
#
#
#
# Elastic Constant Matrix: (Units=GPa)
#
#
# Indices 1 2 3 4 5 6 
#
# 1 66.7202 -15.4688 4.5356 -6.8076 -15.6664 9.6214
# 2 -15.4688 124.5126 6.1017 -1.9661 1.3806 -7.0853
# 3 4.5356 6.1017 56.9323 1.6712 -9.4287 -4.5336
# 4 -6.8076 -1.9661 1.6712 34.3899 -3.4502 -3.8024
# 5 -15.6664 1.3806 -9.4287 -3.4502 35.0113 -0.2739
# 6 9.6214 -7.0853 -4.5336 -3.8024 -0.2739 50.7029
#
#
#
# Elastic Compliance Matrix: (Units=1/GPa)
#
#
# Indices 1 2 3 4 5 6 
#
# 1 0.018338 0.002123 -0.000662 0.004303 0.008345 -0.002875
# 2 0.002123 0.008398 -0.000961 0.001079 0.000472 0.000768
# 3 -0.000662 -0.000961 0.018649 -0.000435 0.004734 0.001652
# 4 0.004303 0.001079 -0.000435 0.030674 0.004801 0.001622
# 5 0.008345 0.000472 0.004734 0.004801 0.034022 -0.000550
# 6 -0.002875 0.000768 0.001652 0.001622 -0.000550 0.020642
#
#
# Mechanical properties :
#
#
# Convention : Reuss Voigt Hill
#
# Bulk Modulus (GPa) = 21.55931 26.50023 24.02977
# Shear Modulus (GPa) = 34.43898 40.88725 37.66311
#
# Velocity S-wave (km/s) = 3.68975 4.02037 3.85861
# Velocity P-wave (km/s) = 5.16480 5.65925 5.41767
#
# Compressibility (1/GPa) = 0.04638368
#
# Stress axis : x y z
#
# Youngs Moduli (GPa) = 54.53106 119.08093 53.62277
#
# Poissons Ratio (x) = -0.25275 0.03547
# Poissons Ratio (y) = -0.11574 0.05155
# Poissons Ratio (z) = 0.03607 0.11449
#
# Static dielectric constant tensor:
#      x y z
#    x 2.234340 -0.343520 0.217590 
#    y -0.343520 2.397920 -0.228740 
#    z 0.217590 -0.228740 2.222940 
# 
# From -- ./inp_files/166388.got.cif
#   From: 2010.05.17/outbox.cif.g08.bks.cpg/sg2_84_cif.got.tgz:166388.got - 2010.06.03 11:33:40.
