data_PCOD9015119
_publ_section_title
;
Structure prediction by ZEFSAII (Michael W. Deem and Ramdas Pophale) SiO2 
 PCOD9015119
Probable space group: P -1
;
_chemical_formula_sum "Si O2"
_cell_formula_units_Z 16
_cell_length_a 12.868575
_cell_length_b 8.501436
_cell_length_c 8.162243
_cell_angle_alpha 53.097668
_cell_angle_beta 83.125200
_cell_angle_gamma 102.431654
_cell_volume 660.935344
_symmetry_space_group_name_H-M "P -1"
_symmetry_group_IT_number 2
_symmetry_cell_setting 'triclinic'
loop_
_space_group_symop_operation_xyz
x,y,z
-x,-y,-z
loop_
_atom_site_type_symbol
_atom_site_label
_atom_site_fract_x
_atom_site_fract_y
_atom_site_fract_z
Si Si1 0.645285 0.004612 0.495182
Si Si2 0.568442 0.609046 0.577761
Si Si3 0.240204 0.524540 0.843609
Si Si4 0.009312 0.948754 0.222075
Si Si5 0.130388 0.811640 0.806670
Si Si6 0.205107 0.447857 0.513845
Si Si7 0.612061 0.735248 0.980448
Si Si8 0.224380 0.900915 0.102388
O O1 0.578494 0.846695 0.465236
O O2 0.658285 0.246435 0.328005
O O3 0.777213 0.038348 0.428761
O O4 0.601767 0.885643 0.745100
O O5 0.500000 0.500000 0.500000
O O6 0.693716 0.616410 0.527127
O O7 0.502372 0.450776 0.833534
O O8 0.140456 0.585672 0.906331
O O9 0.206021 0.450243 0.710587
O O10 0.295371 0.371071 0.009381
O O11 0.913558 0.721201 0.415238
O O12 0.131149 0.937787 0.214611
O O13 0.978932 0.126022 0.215163
O O14 0.000000 0.000000 0.000000
O O15 0.181393 0.871039 0.942768
O O16 0.230751 0.682463 0.297852
O O17 0.663963 0.896014 0.021207
#
# Coordination Sequence:
#
# PCOD9015119 Si02
#       8
#     2   2   2   2   2   2   2   2
#     4  10  23  45  62 100 138 170 228 272 334 396
#     4  12  25  42  72  95 136 183 224 273 333 402
#     4  10  22  41  66  94 139 171 219 283 323 396
#     4  10  21  41  71  95 131 178 220 280 332 404
#     4   9  20  41  65  95 132 173 218 276 326 392
#     4  12  22  45  65 100 135 174 230 274 337 398
#     4  12  24  44  66 100 137 183 220 276 335 392
#     4  11  23  42  69 100 134 178 226 270 338 403
#
# _framework density 24.208117999999999
#
# number of rings (size 3 to 8) (size 9 to 14) (size 15 to 20)
#    0.750    0.500    3.750    3.000    1.750    1.000 
#    0.000    8.125    0.000    0.000    0.000    0.000 
#    0.000    0.000    0.000    0.000    0.000    0.000 
#
# Total GULP energy -89428.388015 kJ/mol
# GULP energy per Si atom -5589.274251 kJ/mol
# Density = 2.415302 g / cm^3
# Si number density = 24.208118 Si / 1000 Ang^3
#
#
#
# Elastic Constant Matrix: (Units=GPa)
#
#
# Indices 1 2 3 4 5 6 
#
# 1 45.1779 24.7309 4.1043 -0.6841 -10.6747 -15.5800
# 2 24.7309 112.1867 21.3454 -26.4287 -5.7792 5.1749
# 3 4.1043 21.3454 63.8516 -20.0244 -3.5431 6.7928
# 4 -0.6841 -26.4287 -20.0244 47.3428 -0.3209 -8.6562
# 5 -10.6747 -5.7792 -3.5431 -0.3209 38.0375 -1.5308
# 6 -15.5800 5.1749 6.7928 -8.6562 -1.5308 35.6123
#
#
#
# Elastic Compliance Matrix: (Units=1/GPa)
#
#
# Indices 1 2 3 4 5 6 
#
# 1 0.034401 -0.007976 -0.001241 -0.001405 0.008978 0.016490
# 2 -0.007976 0.012395 -0.001557 0.005467 -0.000603 -0.003691
# 3 -0.001241 -0.001557 0.018627 0.006593 0.001116 -0.002219
# 4 -0.001405 0.005467 0.006593 0.027708 0.001450 0.004131
# 5 0.008978 -0.000603 0.001116 0.001450 0.029052 0.005404
# 6 0.016490 -0.003691 -0.002219 0.004131 0.005404 0.037490
#
#
# Mechanical properties :
#
#
# Convention : Reuss Voigt Hill
#
# Bulk Modulus (GPa) = 22.79288 35.73082 29.26185
# Shear Modulus (GPa) = 25.52996 35.60091 30.56543
#
# Velocity S-wave (km/s) = 3.25099 3.83902 3.55718
# Velocity P-wave (km/s) = 4.85054 5.86879 5.38379
#
# Compressibility (1/GPa) = 0.04387334
#
# Stress axis : x y z
#
# Youngs Moduli (GPa) = 29.06908 80.67505 53.68408
#
# Poissons Ratio (x) = 0.64349 0.06665
# Poissons Ratio (y) = 0.23186 0.08361
# Poissons Ratio (z) = 0.03609 0.12565
#
# Static dielectric constant tensor:
#      x y z
#    x 1.925680 -0.003870 -0.018730 
#    y -0.003870 1.961740 0.020130 
#    z -0.018730 0.020130 1.910540 
# 
# From -- ./inp_files/294065.got.cif
#   From: 2010.05.17/outbox.cif.g08.bks.cpg/sg2_148_cif.got.tgz:294065.got - 2010.06.03 11:33:40.
