data_PCOD9015322
_publ_section_title
;
Structure prediction by ZEFSAII (Michael W. Deem and Ramdas Pophale) SiO2 
 PCOD9015322
Probable space group: P -1
;
_chemical_formula_sum "Si O2"
_cell_formula_units_Z 14
_cell_length_a 7.123809
_cell_length_b 14.584672
_cell_length_c 16.473163
_cell_angle_alpha 26.011042
_cell_angle_beta 77.079118
_cell_angle_gamma 91.851100
_cell_volume 613.044505
_symmetry_space_group_name_H-M "P -1"
_symmetry_group_IT_number 2
_symmetry_cell_setting 'triclinic'
loop_
_space_group_symop_operation_xyz
x,y,z
-x,-y,-z
loop_
_atom_site_type_symbol
_atom_site_label
_atom_site_fract_x
_atom_site_fract_y
_atom_site_fract_z
Si Si1 0.472460 0.705675 0.965358
Si Si2 0.886119 0.205727 0.761412
Si Si3 0.390579 0.784278 0.085446
Si Si4 0.637673 0.636212 0.459547
Si Si5 0.616848 0.216033 0.514690
Si Si6 0.247981 0.807633 0.770965
Si Si7 0.767908 0.484296 0.140528
O O1 0.317850 0.647014 0.947450
O O2 0.666632 0.004059 0.698207
O O3 0.345210 0.699034 0.065212
O O4 0.572759 0.538442 0.100468
O O5 0.789221 0.163760 0.896258
O O6 0.000000 0.500000 0.500000
O O7 0.094276 0.177263 0.738806
O O8 0.651581 0.024207 0.879323
O O9 0.380203 0.567543 0.313315
O O10 0.500000 0.500000 0.500000
O O11 0.502565 0.743697 0.430525
O O12 0.800204 0.455494 0.255885
O O13 0.420466 0.081356 0.570721
O O14 0.260441 0.744416 0.727645
O O15 0.995501 0.717709 0.893805
#
# Coordination Sequence:
#
# PCOD9015322 Si02
#       7
#     2   2   2   2   2   2   2
#     4  10  23  40  65  95 126 165 214 257 320 385
#     4   9  22  38  62  85 119 168 213 257 317 371
#     4  10  21  42  60  88 128 169 207 271 314 370
#     4  11  24  40  61  93 127 169 212 265 317 378
#     4  10  24  40  62  97 124 166 216 256 316 386
#     4   9  24  40  68  96 124 168 218 253 325 393
#     4  11  20  48  63  92 136 163 204 278 316 368
#
# _framework density 22.836841
#
# number of rings (size 3 to 8) (size 9 to 14) (size 15 to 20)
#    0.857    1.143    1.429    0.857    8.000    1.714 
#    5.143    1.429    0.000    0.000    0.000    0.000 
#    0.000    0.000    0.000    0.000    0.000    0.000 
#
# Total GULP energy -78063.040454 kJ/mol
# GULP energy per Si atom -5575.931461 kJ/mol
# Density = 2.278486 g / cm^3
# Si number density = 22.836841 Si / 1000 Ang^3
#
#
#
# Elastic Constant Matrix: (Units=GPa)
#
#
# Indices 1 2 3 4 5 6 
#
# 1 51.8334 18.0171 37.0733 10.5600 6.2406 -7.1818
# 2 18.0171 100.2068 18.4657 31.6844 -18.4828 -15.7538
# 3 37.0733 18.4657 59.1176 7.7577 -9.4429 -5.1918
# 4 10.5600 31.6844 7.7577 34.2764 -6.3497 4.0657
# 5 6.2406 -18.4828 -9.4429 -6.3497 42.0355 0.7984
# 6 -7.1818 -15.7538 -5.1918 4.0657 0.7984 21.4256
#
#
#
# Elastic Compliance Matrix: (Units=1/GPa)
#
#
# Indices 1 2 3 4 5 6 
#
# 1 0.045233 -0.000558 -0.028231 -0.011098 -0.015180 0.010583
# 2 -0.000558 0.020230 -0.000970 -0.019420 0.005486 0.017933
# 3 -0.028231 -0.000970 0.036163 0.004048 0.012550 -0.002649
# 4 -0.011098 -0.019420 0.004048 0.053340 0.002593 -0.027236
# 5 -0.015180 0.005486 0.012550 0.002593 0.031660 0.000315
# 6 0.010583 0.017933 -0.002649 -0.027236 0.000315 0.067921
#
#
# Mechanical properties :
#
#
# Convention : Reuss Voigt Hill
#
# Bulk Modulus (GPa) = 23.74755 39.80778 31.77767
# Shear Modulus (GPa) = 15.23923 28.72094 21.98009
#
# Velocity S-wave (km/s) = 2.58604 3.55020 3.10576
# Velocity P-wave (km/s) = 4.39751 5.85444 5.17748
#
# Compressibility (1/GPa) = 0.04210960
#
# Stress axis : x y z
#
# Youngs Moduli (GPa) = 22.10764 49.43183 27.65246
#
# Poissons Ratio (x) = 0.02757 0.78066
# Poissons Ratio (y) = 0.01233 0.02681
# Poissons Ratio (z) = 0.62412 0.04793
#
# Static dielectric constant tensor:
#      x y z
#    x 1.825560 -0.006240 -0.024250 
#    y -0.006240 1.857410 -0.002740 
#    z -0.024250 -0.002740 1.938330 
# 
# From -- ./inp_files/561115.got.cif
#   From: 2010.05.17/outbox.cif.g08.bks.cpg/sg2_281_cif.got.tgz:561115.got - 2010.06.03 11:33:40.
