data_PCOD9015584
_publ_section_title
;
Structure prediction by ZEFSAII (Michael W. Deem and Ramdas Pophale) SiO2 
 PCOD9015584
Probable space group: P -1
;
_chemical_formula_sum "Si O2"
_cell_formula_units_Z 16
_cell_length_a 8.764670
_cell_length_b 8.911657
_cell_length_c 15.710611
_cell_angle_alpha 139.538262
_cell_angle_beta 126.629221
_cell_angle_gamma 46.034659
_cell_volume 566.977897
_symmetry_space_group_name_H-M "P -1"
_symmetry_group_IT_number 2
_symmetry_cell_setting 'triclinic'
loop_
_space_group_symop_operation_xyz
x,y,z
-x,-y,-z
loop_
_atom_site_type_symbol
_atom_site_label
_atom_site_fract_x
_atom_site_fract_y
_atom_site_fract_z
Si Si1 0.371820 0.717603 0.377926
Si Si2 0.936547 0.799749 0.588853
Si Si3 0.622557 0.499535 0.208182
Si Si4 0.107657 0.435410 0.099491
Si Si5 0.234510 0.228862 0.751779
Si Si6 0.579540 0.076411 0.926971
Si Si7 0.123733 0.144674 0.219888
Si Si8 0.830491 0.334177 0.553120
O O1 0.574472 0.562321 0.318561
O O2 0.203897 0.629223 0.242194
O O3 0.356890 0.666561 0.450728
O O4 0.275100 0.023613 0.459897
O O5 0.869148 0.946729 0.720101
O O6 0.121253 0.777141 0.574694
O O7 0.000000 0.500000 0.500000
O O8 0.607714 0.734235 0.246294
O O9 0.868820 0.291362 0.188609
O O10 0.495368 0.355361 0.064286
O O11 0.917094 0.504896 0.133779
O O12 0.293893 0.148503 0.059216
O O13 0.000000 0.500000 0.000000
O O14 0.388185 0.054130 0.803452
O O15 0.056732 0.191714 0.621004
O O16 0.748822 0.045400 0.895432
O O17 0.199681 0.371213 0.338093
#
# Coordination Sequence:
#
# PCOD9015584 Si02
#       8
#     2   2   2   2   2   2   2   2
#     4  11  22  42  65  97 139 168 227 280 333 401
#     4  10  22  41  73  95 126 178 229 282 348 391
#     4  11  23  38  65 100 136 180 226 274 335 400
#     4  11  25  42  62  98 140 182 219 276 335 402
#     4  10  22  41  64  94 133 177 228 275 330 395
#     4  12  22  41  69  93 142 182 227 265 334 403
#     4  10  21  42  63  99 131 179 225 274 326 407
#     4   9  20  45  64  93 134 172 219 285 340 386
#
# _framework density 28.219795999999999
#
# number of rings (size 3 to 8) (size 9 to 14) (size 15 to 20)
#    0.000    1.500    3.750    2.625    1.750    2.000 
#    2.250   11.875    0.000    0.000    0.000    0.000 
#    0.000    0.000    0.000    0.000    0.000    0.000 
#
# Total GULP energy -89511.797312 kJ/mol
# GULP energy per Si atom -5594.487332 kJ/mol
# Density = 2.815557 g / cm^3
# Si number density = 28.219796 Si / 1000 Ang^3
#
#
#
# Elastic Constant Matrix: (Units=GPa)
#
#
# Indices 1 2 3 4 5 6 
#
# 1 157.8802 47.5661 74.3909 -12.0715 -33.9597 16.9834
# 2 47.5661 137.2622 44.0362 -28.5680 3.4077 26.1281
# 3 74.3909 44.0362 122.9840 -10.7524 -21.1139 11.7066
# 4 -12.0715 -28.5680 -10.7524 42.4694 2.5689 -8.2712
# 5 -33.9597 3.4077 -21.1139 2.5689 70.5970 -6.0612
# 6 16.9834 26.1281 11.7066 -8.2712 -6.0612 51.0911
#
#
#
# Elastic Compliance Matrix: (Units=1/GPa)
#
#
# Indices 1 2 3 4 5 6 
#
# 1 0.009916 -0.001853 -0.004668 0.000015 0.003387 -0.000875
# 2 -0.001853 0.010556 -0.002278 0.005436 -0.002597 -0.003689
# 3 -0.004668 -0.002278 0.012019 0.000125 0.001468 0.000158
# 4 0.000015 0.005436 0.000125 0.027602 -0.001091 0.001525
# 5 0.003387 -0.002597 0.001468 -0.001091 0.016540 0.001651
# 6 -0.000875 -0.003689 0.000158 0.001525 0.001651 0.022157
#
#
# Mechanical properties :
#
#
# Convention : Reuss Voigt Hill
#
# Bulk Modulus (GPa) = 67.15299 83.34586 75.24943
# Shear Modulus (GPa) = 41.20217 49.64040 45.42129
#
# Velocity S-wave (km/s) = 3.82520 4.19867 4.01628
# Velocity P-wave (km/s) = 6.58465 7.28723 6.94483
#
# Compressibility (1/GPa) = 0.01489137
#
# Stress axis : x y z
#
# Youngs Moduli (GPa) = 100.85105 94.72881 83.20410
#
# Poissons Ratio (x) = 0.17553 0.38841
# Poissons Ratio (y) = 0.18688 0.18958
# Poissons Ratio (z) = 0.47079 0.21584
#
# Static dielectric constant tensor:
#      x y z
#    x 2.221490 -0.002120 0.025210 
#    y -0.002120 2.278970 0.004750 
#    z 0.025210 0.004750 2.211480 
# 
# From -- ./inp_files/557601.got.cif
#   From: 2010.05.17/outbox.cif.g08.bks.cpg/sg2_279_cif.got.tgz:557601.got - 2010.06.03 11:33:40.
