data_PCOD9015447
_publ_section_title
;
Structure prediction by ZEFSAII (Michael W. Deem and Ramdas Pophale) SiO2 
 PCOD9015447
Probable space group: P -1
;
_chemical_formula_sum "Si O2"
_cell_formula_units_Z 14
_cell_length_a 11.285866
_cell_length_b 13.574397
_cell_length_c 9.046306
_cell_angle_alpha 47.678167
_cell_angle_beta 108.509991
_cell_angle_gamma 138.329801
_cell_volume 630.903052
_symmetry_space_group_name_H-M "P -1"
_symmetry_group_IT_number 2
_symmetry_cell_setting 'triclinic'
loop_
_space_group_symop_operation_xyz
x,y,z
-x,-y,-z
loop_
_atom_site_type_symbol
_atom_site_label
_atom_site_fract_x
_atom_site_fract_y
_atom_site_fract_z
Si Si1 0.424379 0.332362 0.765131
Si Si2 0.772494 0.027881 0.149218
Si Si3 0.427774 0.748821 0.495766
Si Si4 0.143204 0.312916 0.655137
Si Si5 0.531378 0.675389 0.887104
Si Si6 0.840690 0.258988 0.703287
Si Si7 0.973226 0.008673 0.653665
O O1 0.500000 0.500000 0.500000
O O2 0.374018 0.157911 0.837311
O O3 0.229594 0.249410 0.825557
O O4 0.529227 0.377517 0.911675
O O5 0.649311 0.925022 0.353202
O O6 0.953895 0.076166 0.171250
O O7 0.813427 0.205112 0.919700
O O8 0.298253 0.548799 0.537339
O O9 0.419378 0.683069 0.723812
O O10 0.345351 0.830314 0.358134
O O11 0.110210 0.234341 0.552419
O O12 0.938803 0.206161 0.730446
O O13 0.500000 0.500000 0.000000
O O14 0.759311 0.877888 0.744706
O O15 0.000000 0.500000 0.500000
O O16 0.000000 0.000000 0.500000
#
# Coordination Sequence:
#
# PCOD9015447 Si02
#       7
#     2   2   2   2   2   2   2
#     4  11  21  38  67  97 128 164 213 272 327 385
#     4  11  21  40  66  93 128 173 217 267 328 382
#     4  11  22  41  66  94 131 173 217 262 317 395
#     4  10  21  42  62  94 131 168 214 260 329 380
#     4  12  23  38  63 100 131 165 214 275 328 379
#     4  10  23  40  63  91 128 180 224 258 310 397
#     4  11  24  39  66 101 133 162 212 284 330 383
#
# _framework density 22.190415000000002
#
# number of rings (size 3 to 8) (size 9 to 14) (size 15 to 20)
#    0.000    1.143    4.286    2.143    4.000    2.286 
#    0.000    2.857    0.000    2.571    0.000    0.000 
#    0.000    0.000    0.000    0.000    0.000    0.000 
#
# Total GULP energy -77960.898516 kJ/mol
# GULP energy per Si atom -5568.635608 kJ/mol
# Density = 2.213991 g / cm^3
# Si number density = 22.190415 Si / 1000 Ang^3
#
#
#
# Elastic Constant Matrix: (Units=GPa)
#
#
# Indices 1 2 3 4 5 6 
#
# 1 81.6456 2.7163 20.3809 15.2257 6.8397 25.0136
# 2 2.7163 78.1320 44.6232 13.7877 -5.8210 1.0543
# 3 20.3809 44.6232 145.4426 25.9105 7.4638 -1.5023
# 4 15.2257 13.7877 25.9105 37.7734 6.2634 -2.9251
# 5 6.8397 -5.8210 7.4638 6.2634 32.2373 5.8373
# 6 25.0136 1.0543 -1.5023 -2.9251 5.8373 28.8345
#
#
#
# Elastic Compliance Matrix: (Units=1/GPa)
#
#
# Indices 1 2 3 4 5 6 
#
# 1 0.020127 0.002647 -0.002270 -0.009325 0.001990 -0.019024
# 2 0.002647 0.016934 -0.004988 -0.005114 0.005516 -0.004811
# 3 -0.002270 -0.004988 0.009435 -0.003099 -0.002515 0.002838
# 4 -0.009325 -0.005114 -0.003099 0.036547 -0.007753 0.013392
# 5 0.001990 0.005516 -0.002515 -0.007753 0.035499 -0.010032
# 6 -0.019024 -0.004811 0.002838 0.013392 -0.010032 0.054897
#
#
# Mechanical properties :
#
#
# Convention : Reuss Voigt Hill
#
# Bulk Modulus (GPa) = 26.82841 48.96234 37.89538
# Shear Modulus (GPa) = 25.62977 35.60235 30.61606
#
# Velocity S-wave (km/s) = 3.40221 4.00984 3.71846
# Velocity P-wave (km/s) = 5.24878 6.59932 5.96241
#
# Compressibility (1/GPa) = 0.03727392
#
# Stress axis : x y z
#
# Youngs Moduli (GPa) = 49.68367 59.05302 105.99312
#
# Poissons Ratio (x) = -0.15633 0.24060
# Poissons Ratio (y) = -0.13152 0.52872
# Poissons Ratio (z) = 0.11278 0.29457
#
# Static dielectric constant tensor:
#      x y z
#    x 1.907800 0.063560 -0.069110 
#    y 0.063560 1.924880 -0.035020 
#    z -0.069110 -0.035020 1.938210 
# 
# From -- ./inp_files/271861.got.cif
#   From: 2010.05.17/outbox.cif.g08.bks.cpg/sg2_136_cif.got.tgz:271861.got - 2010.06.03 11:33:40.
