data_PCOD9015120
_publ_section_title
;
Structure prediction by ZEFSAII (Michael W. Deem and Ramdas Pophale) SiO2 
 PCOD9015120
Probable space group: P -1
;
_chemical_formula_sum "Si O2"
_cell_formula_units_Z 12
_cell_length_a 9.370572
_cell_length_b 16.045530
_cell_length_c 16.481090
_cell_angle_alpha 153.936923
_cell_angle_beta 153.379247
_cell_angle_gamma 35.494670
_cell_volume 487.074750
_symmetry_space_group_name_H-M "P -1"
_symmetry_group_IT_number 2
_symmetry_cell_setting 'triclinic'
loop_
_space_group_symop_operation_xyz
x,y,z
-x,-y,-z
loop_
_atom_site_type_symbol
_atom_site_label
_atom_site_fract_x
_atom_site_fract_y
_atom_site_fract_z
Si Si1 0.304782 0.325982 0.716703
Si Si2 0.804665 0.085590 0.850777
Si Si3 0.379499 0.163534 0.309631
Si Si4 0.249894 0.845925 0.762115
Si Si5 0.634847 0.394767 0.777272
Si Si6 0.307223 0.220016 0.929085
O O1 0.469632 0.168419 0.721509
O O2 0.405251 0.334898 0.680176
O O3 0.922955 0.308107 0.514330
O O4 0.500000 0.500000 0.000000
O O5 0.759052 0.943972 0.777405
O O6 0.952018 0.981176 0.756462
O O7 0.091019 0.210222 0.140588
O O8 0.527172 0.338475 0.582298
O O9 0.631843 0.000961 0.259421
O O10 0.405511 0.751080 0.837723
O O11 0.500000 0.000000 0.000000
O O12 0.974891 0.277177 0.854382
O O13 0.668724 0.622370 0.991587
#
# Coordination Sequence:
#
# PCOD9015120 Si02
#       6
#     2   2   2   2   2   2
#     4  12  26  43  69 101 137 177 226 281 335 401
#     4  10  22  42  65  98 130 175 225 274 334 404
#     4  10  21  41  71  95 132 177 223 274 338 403
#     4  11  24  44  68  98 135 180 225 277 336 401
#     4  11  23  44  69  96 139 175 222 283 336 396
#     4  10  24  42  67 104 130 175 228 277 336 404
#
# _framework density 24.636873999999999
#
# number of rings (size 3 to 8) (size 9 to 14) (size 15 to 20)
#    0.000    1.333    1.667    3.000    4.667    0.667 
#   12.000    1.667    0.000    0.000    0.000    0.000 
#    0.000    0.000    0.000    0.000    0.000    0.000 
#
# Total GULP energy -66906.523004 kJ/mol
# GULP energy per Si atom -5575.543584 kJ/mol
# Density = 2.458080 g / cm^3
# Si number density = 24.636874 Si / 1000 Ang^3
#
#
#
# Elastic Constant Matrix: (Units=GPa)
#
#
# Indices 1 2 3 4 5 6 
#
# 1 52.4710 22.8880 23.4425 8.4532 13.4928 5.3543
# 2 22.8880 50.9203 34.1744 -8.4943 -7.2503 10.5429
# 3 23.4425 34.1744 114.5268 -4.7113 -0.1558 -1.8731
# 4 8.4532 -8.4943 -4.7113 30.7461 4.2010 1.8948
# 5 13.4928 -7.2503 -0.1558 4.2010 41.6684 -1.5983
# 6 5.3543 10.5429 -1.8731 1.8948 -1.5983 20.7078
#
#
#
# Elastic Compliance Matrix: (Units=1/GPa)
#
#
# Indices 1 2 3 4 5 6 
#
# 1 0.032564 -0.017104 -0.002081 -0.012338 -0.012274 0.000282
# 2 -0.017104 0.040270 -0.008200 0.014216 0.010417 -0.017318
# 3 -0.002081 -0.008200 0.011690 -0.000192 -0.000469 0.005752
# 4 -0.012338 0.014216 -0.000192 0.039987 0.002146 -0.007558
# 5 -0.012274 0.010417 -0.000469 0.002146 0.029565 -0.000087
# 6 0.000282 -0.017318 0.005752 -0.007558 -0.000087 0.058240
#
#
# Mechanical properties :
#
#
# Convention : Reuss Voigt Hill
#
# Bulk Modulus (GPa) = 33.60950 42.10311 37.85631
# Shear Modulus (GPa) = 18.05024 27.78533 22.91778
#
# Velocity S-wave (km/s) = 2.70969 3.36191 3.05326
# Velocity P-wave (km/s) = 4.84370 5.67419 5.27532
#
# Compressibility (1/GPa) = 0.02975349
#
# Stress axis : x y z
#
# Youngs Moduli (GPa) = 30.70865 24.83230 85.54404
#
# Poissons Ratio (x) = 0.42474 0.17804
# Poissons Ratio (y) = 0.52525 0.70143
# Poissons Ratio (z) = 0.06391 0.20362
#
# Static dielectric constant tensor:
#      x y z
#    x 1.994290 -0.028110 -0.037900 
#    y -0.028110 1.754750 -0.223300 
#    z -0.037900 -0.223300 1.959020 
# 
# From -- ./inp_files/190286.got.cif
#   From: 2010.05.17/outbox.cif.g08.bks.cpg/sg2_96_cif.got.tgz:190286.got - 2010.06.03 11:33:40.
