data_PCOD9015395
_publ_section_title
;
Structure prediction by ZEFSAII (Michael W. Deem and Ramdas Pophale) SiO2 
 PCOD9015395
Probable space group: P -1
;
_chemical_formula_sum "Si O2"
_cell_formula_units_Z 14
_cell_length_a 9.204075
_cell_length_b 15.283793
_cell_length_c 9.284315
_cell_angle_alpha 88.536780
_cell_angle_beta 59.602870
_cell_angle_gamma 45.631067
_cell_volume 681.661295
_symmetry_space_group_name_H-M "P -1"
_symmetry_group_IT_number 2
_symmetry_cell_setting 'triclinic'
loop_
_space_group_symop_operation_xyz
x,y,z
-x,-y,-z
loop_
_atom_site_type_symbol
_atom_site_label
_atom_site_fract_x
_atom_site_fract_y
_atom_site_fract_z
Si Si1 0.107170 0.454166 0.610478
Si Si2 0.340821 0.773531 0.789166
Si Si3 0.030532 0.582280 0.051751
Si Si4 0.317011 0.141715 0.953832
Si Si5 0.516870 0.507344 0.819576
Si Si6 0.820888 0.379556 0.396747
Si Si7 0.700868 0.040256 0.014108
O O1 0.437359 0.304671 0.445057
O O2 0.968452 0.438787 0.778190
O O3 0.072471 0.565767 0.682820
O O4 0.000000 0.500000 0.500000
O O5 0.401264 0.652513 0.831916
O O6 0.032102 0.908132 0.876261
O O7 0.399101 0.827707 0.870543
O O8 0.787780 0.748272 0.118310
O O9 0.000000 0.500000 0.000000
O O10 0.306729 0.518655 0.871683
O O11 0.388818 0.015214 0.865216
O O12 0.055799 0.232179 0.193495
O O13 0.564132 0.083285 0.924231
O O14 0.789200 0.381848 0.586387
O O15 0.500000 0.500000 0.000000
O O16 0.500000 0.500000 0.500000
#
# Coordination Sequence:
#
# PCOD9015395 Si02
#       7
#     2   2   2   2   2   2   2
#     4  11  22  37  62  93 122 154 193 252 316 359
#     4  10  21  42  62  84 121 163 205 236 303 361
#     4  12  22  37  60  97 125 147 197 263 308 354
#     4  11  21  38  63  90 118 160 209 240 302 354
#     4  11  23  37  63  96 122 150 196 260 313 350
#     4  11  19  38  61  89 121 152 191 251 309 351
#     4  10  22  39  64  79 119 174 205 235 282 376
#
# _framework density 20.538057999999999
#
# number of rings (size 3 to 8) (size 9 to 14) (size 15 to 20)
#    0.000    1.143    4.286    3.429    2.000    0.000 
#    0.000    1.429   12.571    0.000    0.000    0.000 
#    0.000    0.000    0.000    0.000    0.000    0.000 
#
# Total GULP energy -78036.804154 kJ/mol
# GULP energy per Si atom -5574.057440 kJ/mol
# Density = 2.049131 g / cm^3
# Si number density = 20.538058 Si / 1000 Ang^3
#
#
#
# Elastic Constant Matrix: (Units=GPa)
#
#
# Indices 1 2 3 4 5 6 
#
# 1 114.5079 24.0780 13.5890 -2.6479 -1.1733 21.5810
# 2 24.0780 79.4150 36.3076 -19.7912 -2.9121 15.7680
# 3 13.5890 36.3076 86.5297 -24.9732 -4.4781 5.6958
# 4 -2.6479 -19.7912 -24.9732 35.2708 1.5684 1.6051
# 5 -1.1733 -2.9121 -4.4781 1.5684 30.5940 -0.0463
# 6 21.5810 15.7680 5.6958 1.6051 -0.0463 48.1011
#
#
#
# Elastic Compliance Matrix: (Units=1/GPa)
#
#
# Indices 1 2 3 4 5 6 
#
# 1 0.009937 -0.002194 -0.000613 -0.000759 0.000116 -0.003641
# 2 -0.002194 0.018139 -0.005018 0.006645 0.000560 -0.004589
# 3 -0.000613 -0.005018 0.016355 0.008668 0.001448 -0.000305
# 4 -0.000759 0.006645 0.008668 0.038354 -0.000100 -0.004144
# 5 0.000116 0.000560 0.001448 -0.000100 0.032960 -0.000372
# 6 -0.003641 -0.004589 -0.000305 -0.004144 -0.000372 0.024101
#
#
# Mechanical properties :
#
#
# Convention : Reuss Voigt Hill
#
# Bulk Modulus (GPa) = 34.74580 47.60020 41.17300
# Shear Modulus (GPa) = 30.28634 36.55836 33.42235
#
# Velocity S-wave (km/s) = 3.84428 4.22362 4.03840
# Velocity P-wave (km/s) = 6.05468 6.85654 6.46805
#
# Compressibility (1/GPa) = 0.02878045
#
# Stress axis : x y z
#
# Youngs Moduli (GPa) = 100.63336 55.12977 61.14311
#
# Poissons Ratio (x) = 0.12098 0.03749
# Poissons Ratio (y) = 0.22084 0.30680
# Poissons Ratio (z) = 0.06170 0.27663
#
# Static dielectric constant tensor:
#      x y z
#    x 1.839590 -0.028580 0.050270 
#    y -0.028580 1.761070 0.007160 
#    z 0.050270 0.007160 1.770170 
# 
# From -- ./inp_files/159385.got.cif
#   From: 2010.05.17/outbox.cif.g08.bks.cpg/sg2_80_cif.got.tgz:159385.got - 2010.06.03 11:33:40.
