data_PCOD9015323
_publ_section_title
;
Structure prediction by ZEFSAII (Michael W. Deem and Ramdas Pophale) SiO2 
 PCOD9015323
Probable space group: P -1
;
_chemical_formula_sum "Si O2"
_cell_formula_units_Z 14
_cell_length_a 14.865812
_cell_length_b 6.774619
_cell_length_c 9.345066
_cell_angle_alpha 129.831364
_cell_angle_beta 117.398060
_cell_angle_gamma 60.302529
_cell_volume 613.244767
_symmetry_space_group_name_H-M "P -1"
_symmetry_group_IT_number 2
_symmetry_cell_setting 'triclinic'
loop_
_space_group_symop_operation_xyz
x,y,z
-x,-y,-z
loop_
_atom_site_type_symbol
_atom_site_label
_atom_site_fract_x
_atom_site_fract_y
_atom_site_fract_z
Si Si1 0.561446 0.709062 0.599260
Si Si2 0.359227 0.093330 0.503441
Si Si3 0.242942 0.224679 0.755396
Si Si4 0.608109 0.015762 0.015334
Si Si5 0.074340 0.143231 0.032854
Si Si6 0.310879 0.748643 0.058921
Si Si7 0.984564 0.741982 0.287485
O O1 0.500000 0.500000 0.500000
O O2 0.627508 0.674541 0.484852
O O3 0.464793 0.980319 0.623032
O O4 0.633014 0.763644 0.805270
O O5 0.262691 0.160352 0.573335
O O6 0.351765 0.857526 0.281481
O O7 0.309112 0.994514 0.803094
O O8 0.122621 0.300078 0.747545
O O9 0.293712 0.463050 0.933248
O O10 0.500000 0.000000 0.000000
O O11 0.612429 0.249815 0.017976
O O12 0.067778 0.444210 0.223504
O O13 0.194949 0.954911 0.036402
O O14 0.031970 0.185331 0.858553
O O15 0.000000 0.000000 0.000000
O O16 0.000000 0.000000 0.500000
#
# Coordination Sequence:
#
# PCOD9015323 Si02
#       7
#     2   2   2   2   2   2   2
#     4  10  21  42  60  88 132 176 218 271 324 382
#     4  10  24  39  62  97 128 170 226 267 323 394
#     4  12  24  43  69  99 134 177 227 279 338 406
#     4  11  23  42  64  97 137 179 224 274 329 397
#     4  11  24  48  71  97 139 177 220 287 351 405
#     4  11  25  44  67  99 138 178 224 272 345 406
#     4  11  27  46  72 103 134 174 232 286 342 413
#
# _framework density 22.829383
#
# number of rings (size 3 to 8) (size 9 to 14) (size 15 to 20)
#    0.000    1.143    4.286    0.857    4.000    2.286 
#    5.143    0.000    0.000    0.000    0.000    0.000 
#    0.000    0.000    0.000    0.000    0.000    0.000 
#
# Total GULP energy -78246.070682 kJ/mol
# GULP energy per Si atom -5589.005049 kJ/mol
# Density = 2.277742 g / cm^3
# Si number density = 22.829383 Si / 1000 Ang^3
#
#
#
# Elastic Constant Matrix: (Units=GPa)
#
#
# Indices 1 2 3 4 5 6 
#
# 1 96.2036 24.7734 8.7636 -11.5800 -20.0584 37.4728
# 2 24.7734 83.6886 30.5983 2.9376 -13.3206 22.9637
# 3 8.7636 30.5983 100.9090 8.4877 -13.6440 29.1013
# 4 -11.5800 2.9376 8.4877 34.0030 13.1642 1.4286
# 5 -20.0584 -13.3206 -13.6440 13.1642 37.9669 -3.9226
# 6 37.4728 22.9637 29.1013 1.4286 -3.9226 50.2724
#
#
#
# Elastic Compliance Matrix: (Units=1/GPa)
#
#
# Indices 1 2 3 4 5 6 
#
# 1 0.018093 -0.001668 0.003932 0.002876 0.007895 -0.014466
# 2 -0.001668 0.015166 -0.002594 -0.002631 0.004027 -0.003793
# 3 0.003932 -0.002594 0.014348 -0.004269 0.006833 -0.009397
# 4 0.002876 -0.002631 -0.004269 0.037070 -0.013853 -0.000605
# 5 0.007895 0.004027 0.006833 -0.013853 0.038324 -0.008296
# 6 -0.014466 -0.003793 -0.009397 -0.000605 -0.008296 0.037217
#
#
# Mechanical properties :
#
#
# Convention : Reuss Voigt Hill
#
# Bulk Modulus (GPa) = 21.30101 45.45243 33.37672
# Shear Modulus (GPa) = 28.32419 38.89285 33.60852
#
# Velocity S-wave (km/s) = 3.52616 4.13198 3.84104
# Velocity P-wave (km/s) = 5.09207 6.53584 5.85860
#
# Compressibility (1/GPa) = 0.04694613
#
# Stress axis : x y z
#
# Youngs Moduli (GPa) = 55.26952 65.93891 69.69622
#
# Poissons Ratio (x) = 0.11002 -0.27405
# Poissons Ratio (y) = 0.09221 0.18079
# Poissons Ratio (z) = -0.21733 0.17104
#
# Static dielectric constant tensor:
#      x y z
#    x 1.875630 0.026830 -0.028210 
#    y 0.026830 1.897260 0.012000 
#    z -0.028210 0.012000 1.866140 
# 
# From -- ./inp_files/37133.got.cif
#   From: 2010.05.17/outbox.cif.g08.bks.cpg/sg2_19_cif.got.tgz:37133.got - 2010.06.03 11:33:40.
