data_PCOD9015896
_publ_section_title
;
Structure prediction by ZEFSAII (Michael W. Deem and Ramdas Pophale) SiO2 
 PCOD9015896
Probable space group: P -1
;
_chemical_formula_sum "Si O2"
_cell_formula_units_Z 14
_cell_length_a 13.223220
_cell_length_b 6.472692
_cell_length_c 13.193301
_cell_angle_alpha 70.822536
_cell_angle_beta 34.257395
_cell_angle_gamma 85.205579
_cell_volume 561.617368
_symmetry_space_group_name_H-M "P -1"
_symmetry_group_IT_number 2
_symmetry_cell_setting 'triclinic'
loop_
_space_group_symop_operation_xyz
x,y,z
-x,-y,-z
loop_
_atom_site_type_symbol
_atom_site_label
_atom_site_fract_x
_atom_site_fract_y
_atom_site_fract_z
Si Si1 0.475100 0.751511 0.261656
Si Si2 0.888220 0.214360 0.167681
Si Si3 0.693883 0.569438 0.259163
Si Si4 0.849720 0.758315 0.375300
Si Si5 0.374172 0.316379 0.053595
Si Si6 0.935150 0.539699 0.803713
Si Si7 0.204586 0.992012 0.425286
O O1 0.650022 0.733308 0.184213
O O2 0.315598 0.494559 0.454258
O O3 0.393393 0.954416 0.322671
O O4 0.512951 0.775968 0.106857
O O5 0.730537 0.324748 0.244694
O O6 0.973294 0.340763 0.185330
O O7 0.808914 0.943858 0.305576
O O8 0.079447 0.280959 0.928912
O O9 0.500000 0.500000 0.500000
O O10 0.860766 0.856142 0.463942
O O11 0.039258 0.704274 0.197703
O O12 0.272885 0.454865 0.044878
O O13 0.241663 0.107402 0.266656
O O14 0.500000 0.500000 0.000000
O O15 0.057006 0.727700 0.588737
#
# Coordination Sequence:
#
# PCOD9015896 Si02
#       7
#     2   2   2   2   2   2   2
#     4  11  23  43  65  94 136 165 215 275 318 387
#     4  10  23  44  67  97 132 169 220 269 328 394
#     4  11  22  43  72  96 128 175 217 268 334 388
#     4  10  21  42  65  96 130 168 216 265 323 390
#     4  12  23  41  63  98 129 171 217 263 322 385
#     4  10  22  43  65  89 134 170 212 269 317 387
#     4  10  22  41  64  92 130 175 215 258 325 384
#
# _framework density 24.928003
#
# number of rings (size 3 to 8) (size 9 to 14) (size 15 to 20)
#    0.000    1.429    2.857    3.429    0.000    2.286 
#    7.714    7.857    0.000    0.000    0.000    0.000 
#    0.000    0.000    0.000    0.000    0.000    0.000 
#
# Total GULP energy -78155.241947 kJ/mol
# GULP energy per Si atom -5582.517282 kJ/mol
# Density = 2.487127 g / cm^3
# Si number density = 24.928003 Si / 1000 Ang^3
#
#
#
# Elastic Constant Matrix: (Units=GPa)
#
#
# Indices 1 2 3 4 5 6 
#
# 1 84.0865 30.7119 12.5602 20.8508 5.8906 -21.7126
# 2 30.7119 118.7822 33.5289 19.1181 4.0886 -22.4450
# 3 12.5602 33.5289 114.0601 12.9264 16.6870 -3.4031
# 4 20.8508 19.1181 12.9264 54.1134 -11.3582 1.1139
# 5 5.8906 4.0886 16.6870 -11.3582 38.3656 6.9197
# 6 -21.7126 -22.4450 -3.4031 1.1139 6.9197 35.4817
#
#
#
# Elastic Compliance Matrix: (Units=1/GPa)
#
#
# Indices 1 2 3 4 5 6 
#
# 1 0.017978 -0.000870 0.000770 -0.008694 -0.007798 0.012319
# 2 -0.000870 0.011289 -0.002220 -0.003789 -0.002488 0.007000
# 3 0.000770 -0.002220 0.010573 -0.003256 -0.005677 0.001290
# 4 -0.008694 -0.003789 -0.003256 0.026952 0.013199 -0.011450
# 5 -0.007798 -0.002488 -0.005677 0.013199 0.036506 -0.014424
# 6 0.012319 0.007000 0.001290 -0.011450 -0.014424 0.043446
#
#
# Mechanical properties :
#
#
# Convention : Reuss Voigt Hill
#
# Bulk Modulus (GPa) = 28.41010 52.28118 40.34564
# Shear Modulus (GPa) = 30.65252 41.60066 36.12659
#
# Velocity S-wave (km/s) = 3.51043 4.08957 3.81101
# Velocity P-wave (km/s) = 5.27754 6.58163 5.96533
#
# Compressibility (1/GPa) = 0.03519875
#
# Stress axis : x y z
#
# Youngs Moduli (GPa) = 55.62208 88.58495 94.57821
#
# Poissons Ratio (x) = 0.07709 -0.07280
# Poissons Ratio (y) = 0.04840 0.21000
# Poissons Ratio (z) = -0.04282 0.19669
#
# Static dielectric constant tensor:
#      x y z
#    x 2.036610 -0.029270 -0.069800 
#    y -0.029270 1.984260 0.009470 
#    z -0.069800 0.009470 2.112240 
# 
# From -- ./inp_files/91123.got.cif
#   From: 2010.05.17/outbox.cif.g08.bks.cpg/sg2_46_cif.got.tgz:91123.got - 2010.06.03 11:33:40.
