data_PCOD9015060
_publ_section_title
;
Structure prediction by ZEFSAII (Michael W. Deem and Ramdas Pophale) SiO2 
 PCOD9015060
Probable space group: P -1
;
_chemical_formula_sum "Si O2"
_cell_formula_units_Z 14
_cell_length_a 8.646586
_cell_length_b 15.948875
_cell_length_c 12.771678
_cell_angle_alpha 27.586559
_cell_angle_beta 45.523005
_cell_angle_gamma 57.243985
_cell_volume 564.694956
_symmetry_space_group_name_H-M "P -1"
_symmetry_group_IT_number 2
_symmetry_cell_setting 'triclinic'
loop_
_space_group_symop_operation_xyz
x,y,z
-x,-y,-z
loop_
_atom_site_type_symbol
_atom_site_label
_atom_site_fract_x
_atom_site_fract_y
_atom_site_fract_z
Si Si1 0.506386 0.812533 0.922544
Si Si2 0.846539 0.624029 0.889637
Si Si3 0.600433 0.947425 0.120010
Si Si4 0.320392 0.446216 0.549941
Si Si5 0.942053 0.847946 0.388784
Si Si6 0.517432 0.341876 0.250784
Si Si7 0.828430 0.222531 0.078787
O O1 0.754858 0.782707 0.816240
O O2 0.524424 0.997450 0.780555
O O3 0.373814 0.632030 0.249963
O O4 0.358579 0.804575 0.895341
O O5 0.617631 0.465469 0.162421
O O6 0.941874 0.704285 0.642429
O O7 0.000000 0.500000 0.000000
O O8 0.841033 0.091569 0.850108
O O9 0.500000 0.000000 0.000000
O O10 0.633620 0.740166 0.319178
O O11 0.500000 0.500000 0.500000
O O12 0.055031 0.385458 0.774009
O O13 0.729595 0.780386 0.490153
O O14 0.910754 0.034522 0.252293
O O15 0.696447 0.244989 0.221668
O O16 0.500000 0.500000 0.000000
#
# Coordination Sequence:
#
# PCOD9015060 Si02
#       7
#     2   2   2   2   2   2   2
#     4  12  26  45  75 109 143 186 254 291 357 439
#     4  11  27  45  71 109 144 189 245 295 363 433
#     4  11  26  47  74 105 147 192 236 297 373 419
#     4  11  26  45  74 105 151 192 235 303 370 425
#     4  10  24  47  72  99 145 189 233 304 359 429
#     4  10  21  41  70  99 142 188 231 291 365 418
#     4  11  24  46  73 106 141 193 246 291 365 430
#
# _framework density 24.792147
#
# number of rings (size 3 to 8) (size 9 to 14) (size 15 to 20)
#    0.000    1.143    4.286    0.857    8.000    4.571 
#    0.000    1.429    0.000    0.000    0.000    0.000 
#    0.000    0.000    0.000    0.000    0.000    0.000 
#
# Total GULP energy -78321.114674 kJ/mol
# GULP energy per Si atom -5594.365334 kJ/mol
# Density = 2.473572 g / cm^3
# Si number density = 24.792147 Si / 1000 Ang^3
#
#
#
# Elastic Constant Matrix: (Units=GPa)
#
#
# Indices 1 2 3 4 5 6 
#
# 1 71.3839 27.9915 18.6408 4.1628 2.6740 -11.7962
# 2 27.9915 169.7309 7.4958 -11.0328 5.8238 -4.9492
# 3 18.6408 7.4958 84.1921 -4.1656 10.3505 2.9590
# 4 4.1628 -11.0328 -4.1656 27.2671 -0.1841 -1.2434
# 5 2.6740 5.8238 10.3505 -0.1841 40.9369 -7.3570
# 6 -11.7962 -4.9492 2.9590 -1.2434 -7.3570 31.9044
#
#
#
# Elastic Compliance Matrix: (Units=1/GPa)
#
#
# Indices 1 2 3 4 5 6 
#
# 1 0.017505 -0.002828 -0.004247 -0.004154 0.001502 0.006612
# 2 -0.002828 0.006573 0.000303 0.003126 -0.000835 -0.000125
# 3 -0.004247 0.000303 0.013515 0.002648 -0.003809 -0.003552
# 4 -0.004154 0.003126 0.002648 0.038977 -0.000655 0.000072
# 5 0.001502 -0.000835 -0.003809 -0.000655 0.026649 0.006899
# 6 0.006612 -0.000125 -0.003552 0.000072 0.006899 0.035692
#
#
# Mechanical properties :
#
#
# Convention : Reuss Voigt Hill
#
# Bulk Modulus (GPa) = 41.58139 48.17368 44.87754
# Shear Modulus (GPa) = 31.15830 38.10025 34.62928
#
# Velocity S-wave (km/s) = 3.54896 3.92444 3.74141
# Velocity P-wave (km/s) = 5.79671 6.32520 6.06671
#
# Compressibility (1/GPa) = 0.02404922
#
# Stress axis : x y z
#
# Youngs Moduli (GPa) = 57.12561 152.13875 73.99169
#
# Poissons Ratio (x) = 0.43027 0.31421
# Poissons Ratio (y) = 0.16156 -0.02240
# Poissons Ratio (z) = 0.24259 -0.04606
#
# Static dielectric constant tensor:
#      x y z
#    x 1.998450 -0.022580 -0.007090 
#    y -0.022580 2.083430 0.043110 
#    z -0.007090 0.043110 1.992460 
# 
# From -- ./inp_files/398034.got.cif
#   From: 2010.05.17/outbox.cif.g08.bks.cpg/sg2_200_cif.got.tgz:398034.got - 2010.06.03 11:33:40.
