data_PCOD9015816
_publ_section_title
;
Structure prediction by ZEFSAII (Michael W. Deem and Ramdas Pophale) SiO2 
 PCOD9015816
Probable space group: P -1
;
_chemical_formula_sum "Si O2"
_cell_formula_units_Z 14
_cell_length_a 11.521253
_cell_length_b 8.877244
_cell_length_c 11.733059
_cell_angle_alpha 61.447760
_cell_angle_beta 105.528216
_cell_angle_gamma 143.635029
_cell_volume 608.969448
_symmetry_space_group_name_H-M "P -1"
_symmetry_group_IT_number 2
_symmetry_cell_setting 'triclinic'
loop_
_space_group_symop_operation_xyz
x,y,z
-x,-y,-z
loop_
_atom_site_type_symbol
_atom_site_label
_atom_site_fract_x
_atom_site_fract_y
_atom_site_fract_z
Si Si1 0.702996 0.882367 0.249556
Si Si2 0.012468 0.587674 0.598506
Si Si3 0.096046 0.352135 0.858652
Si Si4 0.780037 0.825571 0.516188
Si Si5 0.639428 0.313675 0.735671
Si Si6 0.679473 0.718656 0.058291
Si Si7 0.121327 0.469454 0.072838
O O1 0.679418 0.717140 0.403915
O O2 0.600567 0.944134 0.243551
O O3 0.635234 0.774524 0.140876
O O4 0.946414 0.165482 0.201412
O O5 0.075389 0.503837 0.729012
O O6 0.792862 0.408964 0.648964
O O7 0.000000 0.500000 0.500000
O O8 0.174816 0.928506 0.521501
O O9 0.240902 0.372740 0.837838
O O10 0.177771 0.455648 0.972357
O O11 0.870356 0.021028 0.935224
O O12 0.677623 0.564014 0.660877
O O13 0.000000 0.000000 0.500000
O O14 0.703622 0.302644 0.874601
O O15 0.500000 0.500000 0.000000
O O16 0.000000 0.500000 0.000000
#
# Coordination Sequence:
#
# PCOD9015816 Si02
#       7
#     2   2   2   2   2   2   2
#     4  11  22  39  69  93 125 170 219 265 314 390
#     4  11  24  42  66  94 131 172 210 271 327 372
#     4  10  22  41  64  92 131 163 218 260 325 380
#     4  10  21  42  65  91 129 173 216 256 320 388
#     4  11  23  41  68  96 129 170 223 261 320 388
#     4  10  23  41  64  96 129 170 209 265 327 382
#     4  11  20  40  64  93 125 167 210 268 317 381
#
# _framework density 22.989659
#
# number of rings (size 3 to 8) (size 9 to 14) (size 15 to 20)
#    0.000    1.429    4.286    1.286    4.000    2.857 
#    5.143    0.714    0.000    0.000    0.000    0.000 
#    0.000    0.000    0.000    0.000    0.000    0.000 
#
# Total GULP energy -78091.086570 kJ/mol
# GULP energy per Si atom -5577.934755 kJ/mol
# Density = 2.293733 g / cm^3
# Si number density = 22.989659 Si / 1000 Ang^3
#
#
#
# Elastic Constant Matrix: (Units=GPa)
#
#
# Indices 1 2 3 4 5 6 
#
# 1 123.2179 26.4631 46.2272 12.5645 5.8137 0.7001
# 2 26.4631 79.4419 36.6919 18.9148 -0.1771 -3.4265
# 3 46.2272 36.6919 108.2540 6.9037 13.9592 0.1228
# 4 12.5645 18.9148 6.9037 43.7726 -3.7567 10.6716
# 5 5.8137 -0.1771 13.9592 -3.7567 42.4551 0.6686
# 6 0.7001 -3.4265 0.1228 10.6716 0.6686 31.3468
#
#
#
# Elastic Compliance Matrix: (Units=1/GPa)
#
#
# Indices 1 2 3 4 5 6 
#
# 1 0.009956 -0.001145 -0.003702 -0.001883 -0.000323 0.000315
# 2 -0.001145 0.017224 -0.005040 -0.007287 0.001172 0.004384
# 3 -0.003702 -0.005040 0.012930 0.001085 -0.003657 -0.000810
# 4 -0.001883 -0.007287 0.001085 0.029212 0.002625 -0.010760
# 5 -0.000323 0.001172 -0.003657 0.002625 0.025058 -0.001278
# 6 0.000315 0.004384 -0.000810 -0.010760 -0.001278 0.036067
#
#
# Mechanical properties :
#
#
# Convention : Reuss Voigt Hill
#
# Bulk Modulus (GPa) = 49.17631 58.85313 54.01472
# Shear Modulus (GPa) = 31.84703 36.95032 34.39868
#
# Velocity S-wave (km/s) = 3.72597 4.01341 3.87236
# Velocity P-wave (km/s) = 6.32040 6.86528 6.59847
#
# Compressibility (1/GPa) = 0.02033499
#
# Stress axis : x y z
#
# Youngs Moduli (GPa) = 100.44196 58.05829 77.33984
#
# Poissons Ratio (x) = 0.06650 0.28630
# Poissons Ratio (y) = 0.11504 0.38981
# Poissons Ratio (z) = 0.37183 0.29263
#
# Static dielectric constant tensor:
#      x y z
#    x 1.922820 0.028210 -0.050310 
#    y 0.028210 2.104510 -0.109580 
#    z -0.050310 -0.109580 1.896650 
# 
# From -- ./inp_files/416634.got.cif
#   From: 2010.05.17/outbox.cif.g08.bks.cpg/sg2_209_cif.got.tgz:416634.got - 2010.06.03 11:33:40.
