data_PCOD9015950
_publ_section_title
;
Structure prediction by ZEFSAII (Michael W. Deem and Ramdas Pophale) SiO2 
 PCOD9015950
Probable space group: P -1
;
_chemical_formula_sum "Si O2"
_cell_formula_units_Z 16
_cell_length_a 7.926542
_cell_length_b 22.274833
_cell_length_c 14.080969
_cell_angle_alpha 150.951746
_cell_angle_beta 130.564790
_cell_angle_gamma 32.846725
_cell_volume 620.435589
_symmetry_space_group_name_H-M "P -1"
_symmetry_group_IT_number 2
_symmetry_cell_setting 'triclinic'
loop_
_space_group_symop_operation_xyz
x,y,z
-x,-y,-z
loop_
_atom_site_type_symbol
_atom_site_label
_atom_site_fract_x
_atom_site_fract_y
_atom_site_fract_z
Si Si1 0.155747 0.722649 0.139864
Si Si2 0.747910 0.579926 0.643316
Si Si3 0.666172 0.358233 0.244271
Si Si4 0.268982 0.496881 0.109675
Si Si5 0.722218 0.596680 0.272141
Si Si6 0.908937 0.910747 0.578608
Si Si7 0.809147 0.037515 0.080000
Si Si8 0.558836 0.071096 0.477063
O O1 0.349439 0.704287 0.273958
O O2 0.434145 0.617937 0.017112
O O3 0.084894 0.606800 0.970100
O O4 0.825953 0.934440 0.304602
O O5 0.687379 0.496707 0.431126
O O6 0.549881 0.602111 0.691303
O O7 0.570462 0.779308 0.826866
O O8 0.120112 0.438700 0.618315
O O9 0.472475 0.382509 0.119683
O O10 0.036107 0.158965 0.116693
O O11 0.089896 0.703917 0.340233
O O12 0.000000 0.500000 0.000000
O O13 0.707529 0.724274 0.378215
O O14 0.604135 0.991212 0.642990
O O15 0.104696 0.919600 0.733820
O O16 0.744323 0.031285 0.588164
O O17 0.000000 0.000000 0.000000
#
# Coordination Sequence:
#
# PCOD9015950 Si02
#       8
#     2   2   2   2   2   2   2   2
#     4  11  26  46  69 107 142 194 236 295 372 438
#     4  10  21  42  66 100 137 187 240 296 353 420
#     4  10  22  38  66 100 138 183 237 296 357 417
#     4  12  25  45  74 110 146 183 242 308 364 432
#     4  11  24  43  70  96 141 193 234 288 366 428
#     4  11  24  43  71 114 144 183 250 300 350 424
#     4  10  23  39  66 104 141 183 238 305 344 414
#     4  11  26  43  71 105 149 188 232 297 363 430
#
# _framework density 25.788333999999999
#
# number of rings (size 3 to 8) (size 9 to 14) (size 15 to 20)
#    0.000    1.250    1.250    4.125   12.250    0.000 
#    0.000    1.250    0.000    1.500    0.000    0.000 
#    0.000    0.000    0.000    0.000    0.000    0.000 
#
# Total GULP energy -89380.968990 kJ/mol
# GULP energy per Si atom -5586.310562 kJ/mol
# Density = 2.572964 g / cm^3
# Si number density = 25.788334 Si / 1000 Ang^3
#
#
#
# Elastic Constant Matrix: (Units=GPa)
#
#
# Indices 1 2 3 4 5 6 
#
# 1 75.3162 9.0171 33.4027 8.6538 -10.8535 7.0317
# 2 9.0171 117.4409 21.5917 5.6345 -6.4533 14.2203
# 3 33.4027 21.5917 81.9435 24.6202 -1.1903 -3.3287
# 4 8.6538 5.6345 24.6202 42.7566 -0.6729 9.2632
# 5 -10.8535 -6.4533 -1.1903 -0.6729 25.8110 8.2707
# 6 7.0317 14.2203 -3.3287 9.2632 8.2707 23.7622
#
#
#
# Elastic Compliance Matrix: (Units=1/GPa)
#
#
# Indices 1 2 3 4 5 6 
#
# 1 0.021196 0.003171 -0.011792 0.006081 0.014888 -0.017374
# 2 0.003171 0.011163 -0.005906 0.004211 0.008097 -0.012906
# 3 -0.011792 -0.005906 0.023783 -0.015178 -0.012323 0.020562
# 4 0.006081 0.004211 -0.015178 0.035831 0.011689 -0.024482
# 5 0.014888 0.008097 -0.012323 0.011689 0.058237 -0.035804
# 6 -0.017374 -0.012906 0.020562 -0.024482 -0.035804 0.079835
#
#
# Mechanical properties :
#
#
# Convention : Reuss Voigt Hill
#
# Bulk Modulus (GPa) = 36.91700 44.74705 40.83203
# Shear Modulus (GPa) = 18.64774 32.51189 25.57981
#
# Velocity S-wave (km/s) = 2.69198 3.55452 3.15288
# Velocity P-wave (km/s) = 4.89988 5.85111 5.39649
#
# Compressibility (1/GPa) = 0.02708779
#
# Stress axis : x y z
#
# Youngs Moduli (GPa) = 47.17772 89.58299 42.04651
#
# Poissons Ratio (x) = -0.28403 0.49582
# Poissons Ratio (y) = -0.14958 0.24832
# Poissons Ratio (z) = 0.55633 0.52905
#
# Static dielectric constant tensor:
#      x y z
#    x 2.077430 0.039190 -0.043030 
#    y 0.039190 2.002430 -0.043120 
#    z -0.043030 -0.043120 2.086100 
# 
# From -- ./inp_files/508740.got.cif
#   From: 2010.05.17/outbox.cif.g08.bks.cpg/sg2_255_cif.got.tgz:508740.got - 2010.06.03 11:33:40.
