data_PCOD9015972
_publ_section_title
;
Structure prediction by ZEFSAII (Michael W. Deem and Ramdas Pophale) SiO2 
 PCOD9015972
Probable space group: P -1
;
_chemical_formula_sum "Si O2"
_cell_formula_units_Z 16
_cell_length_a 5.015780
_cell_length_b 22.985034
_cell_length_c 11.619832
_cell_angle_alpha 147.119773
_cell_angle_beta 102.606325
_cell_angle_gamma 70.117346
_cell_volume 677.931199
_symmetry_space_group_name_H-M "P -1"
_symmetry_group_IT_number 2
_symmetry_cell_setting 'triclinic'
loop_
_space_group_symop_operation_xyz
x,y,z
-x,-y,-z
loop_
_atom_site_type_symbol
_atom_site_label
_atom_site_fract_x
_atom_site_fract_y
_atom_site_fract_z
Si Si1 0.161286 0.692685 0.055093
Si Si2 0.884528 0.534044 0.247411
Si Si3 0.137805 0.226743 0.282306
Si Si4 0.792533 0.118451 0.226598
Si Si5 0.883140 0.819829 0.444384
Si Si6 0.431512 0.028760 0.674332
Si Si7 0.311043 0.386818 0.864651
Si Si8 0.148395 0.834668 0.072327
O O1 0.112009 0.571078 0.847634
O O2 0.409415 0.675480 0.143294
O O3 0.917692 0.784650 0.254323
O O4 0.227573 0.738148 0.015936
O O5 0.873935 0.643839 0.498594
O O6 0.637735 0.574450 0.193813
O O7 0.142525 0.484791 0.098793
O O8 0.454696 0.146998 0.215712
O O9 0.904900 0.208227 0.317502
O O10 0.023107 0.197892 0.102495
O O11 0.877604 0.136679 0.396306
O O12 0.000000 0.000000 0.000000
O O13 0.855688 0.707108 0.314841
O O14 0.598613 0.923961 0.593968
O O15 0.096173 0.063238 0.723894
O O16 0.579969 0.127068 0.876461
O O17 0.500000 0.000000 0.500000
#
# Coordination Sequence:
#
# PCOD9015972 Si02
#       8
#     2   2   2   2   2   2   2   2
#     4  11  24  40  69 100 133 180 233 286 342 402
#     4  10  23  41  68  98 136 178 227 288 345 395
#     4  12  26  47  69  98 144 183 222 280 344 407
#     4  12  26  46  69 102 136 182 230 277 341 412
#     4  11  23  39  71 101 134 177 228 290 344 402
#     4  12  25  46  70 104 141 181 227 281 341 405
#     4  10  21  42  66 102 134 168 238 287 347 394
#     4  12  27  46  68 103 142 183 230 276 339 419
#
# _framework density 23.601216000000001
#
# number of rings (size 3 to 8) (size 9 to 14) (size 15 to 20)
#    0.000    0.750    2.500    4.875    5.250    0.500 
#    0.000    0.625    0.000    0.000    0.000    0.000 
#    0.000    0.000    0.000    0.000    0.000    0.000 
#
# Total GULP energy -89479.653931 kJ/mol
# GULP energy per Si atom -5592.478371 kJ/mol
# Density = 2.354750 g / cm^3
# Si number density = 23.601216 Si / 1000 Ang^3
#
#
#
# Elastic Constant Matrix: (Units=GPa)
#
#
# Indices 1 2 3 4 5 6 
#
# 1 73.0520 11.5915 -0.5988 6.1171 9.9443 1.1455
# 2 11.5915 84.5386 16.8531 21.2866 0.8563 -1.3466
# 3 -0.5988 16.8531 112.7339 2.7037 19.5700 0.9733
# 4 6.1171 21.2866 2.7037 36.4595 0.6226 5.8291
# 5 9.9443 0.8563 19.5700 0.6226 21.9723 -2.4638
# 6 1.1455 -1.3466 0.9733 5.8291 -2.4638 32.4521
#
#
#
# Elastic Compliance Matrix: (Units=1/GPa)
#
#
# Indices 1 2 3 4 5 6 
#
# 1 0.015340 -0.002134 0.001946 -0.001141 -0.008688 -0.001143
# 2 -0.002134 0.014802 -0.002603 -0.008554 0.003235 0.002550
# 3 0.001946 -0.002603 0.011157 0.000789 -0.010905 -0.001481
# 4 -0.001141 -0.008554 0.000789 0.033619 -0.001534 -0.006493
# 5 -0.008688 0.003235 -0.010905 -0.001534 0.059699 0.005576
# 6 -0.001143 0.002550 -0.001481 -0.006493 0.005576 0.032595
#
#
# Mechanical properties :
#
#
# Convention : Reuss Voigt Hill
#
# Bulk Modulus (GPa) = 27.99806 36.22400 32.11103
# Shear Modulus (GPa) = 27.07110 34.34203 30.70657
#
# Velocity S-wave (km/s) = 3.39044 3.81871 3.61093
# Velocity P-wave (km/s) = 5.21685 5.90128 5.56959
#
# Compressibility (1/GPa) = 0.03571676
#
# Stress axis : x y z
#
# Youngs Moduli (GPa) = 65.19057 67.55803 89.63209
#
# Poissons Ratio (x) = 0.14418 -0.17443
# Poissons Ratio (y) = 0.13913 0.23328
# Poissons Ratio (z) = -0.12686 0.17583
#
# Static dielectric constant tensor:
#      x y z
#    x 1.987850 -0.048350 -0.015480 
#    y -0.048350 1.962630 0.027510 
#    z -0.015480 0.027510 1.941960 
# 
# From -- ./inp_files/78800.got.cif
#   From: 2010.05.17/outbox.cif.g08.bks.cpg/sg2_40_cif.got.tgz:78800.got - 2010.06.03 11:33:40.
