data_PCOD9015058
_publ_section_title
;
Structure prediction by ZEFSAII (Michael W. Deem and Ramdas Pophale) SiO2 
 PCOD9015058
Probable space group: P -1
;
_chemical_formula_sum "Si O2"
_cell_formula_units_Z 10
_cell_length_a 12.243080
_cell_length_b 19.618836
_cell_length_c 12.888070
_cell_angle_alpha 19.880542
_cell_angle_beta 33.260465
_cell_angle_gamma 23.456746
_cell_volume 410.926558
_symmetry_space_group_name_H-M "P -1"
_symmetry_group_IT_number 2
_symmetry_cell_setting 'triclinic'
loop_
_space_group_symop_operation_xyz
x,y,z
-x,-y,-z
loop_
_atom_site_type_symbol
_atom_site_label
_atom_site_fract_x
_atom_site_fract_y
_atom_site_fract_z
Si Si1 0.205831 0.240599 0.631214
Si Si2 0.265818 0.673303 0.642706
Si Si3 0.187413 0.803567 0.232723
Si Si4 0.344617 0.772730 0.663900
Si Si5 0.822203 0.704064 0.665962
O O1 0.511544 0.118206 0.580863
O O2 0.109326 0.357143 0.423319
O O3 0.000000 0.500000 0.500000
O O4 0.212172 0.998655 0.990025
O O5 0.512124 0.483279 0.635822
O O6 0.387335 0.683040 0.638357
O O7 0.167702 0.517417 0.971811
O O8 0.983693 0.993387 0.386706
O O9 0.017061 0.739235 0.508796
O O10 0.000000 0.000000 0.000000
O O11 0.500000 0.500000 0.000000
O O12 0.500000 0.000000 0.500000
#
# Coordination Sequence:
#
# PCOD9015058 Si02
#       5
#     2   2   2   2   2
#     4  11  23  40  68 102 141 178 229 290 340 405
#     4  11  23  45  70 101 138 188 228 281 352 413
#     4  10  21  41  70  99 141 178 229 281 349 409
#     4  11  24  43  68 102 139 180 234 291 343 405
#     4  11  21  42  73  97 139 191 223 281 352 411
#
# _framework density 24.335249000000001
#
# number of rings (size 3 to 8) (size 9 to 14) (size 15 to 20)
#    0.000    1.200    6.000    2.400    0.000    0.800 
#    3.600    4.000    0.000    0.000    0.000    0.000 
#    0.000    0.000    0.000    0.000    0.000    0.000 
#
# Total GULP energy -56080.130223 kJ/mol
# GULP energy per Si atom -5608.013022 kJ/mol
# Density = 2.427986 g / cm^3
# Si number density = 24.335249 Si / 1000 Ang^3
#
#
#
# Elastic Constant Matrix: (Units=GPa)
#
#
# Indices 1 2 3 4 5 6 
#
# 1 110.2172 53.9152 49.2792 0.9096 -22.4506 1.3142
# 2 53.9152 148.2855 55.7131 -12.8840 -12.2257 3.7314
# 3 49.2792 55.7131 132.4190 3.1989 -17.2536 -14.0758
# 4 0.9096 -12.8840 3.1989 60.8851 -13.9452 -10.6822
# 5 -22.4506 -12.2257 -17.2536 -13.9452 49.1723 3.8443
# 6 1.3142 3.7314 -14.0758 -10.6822 3.8443 52.4493
#
#
#
# Elastic Compliance Matrix: (Units=1/GPa)
#
#
# Indices 1 2 3 4 5 6 
#
# 1 0.012824 -0.003148 -0.003042 0.000031 0.004108 -0.001208
# 2 -0.003148 0.009179 -0.002769 0.002095 0.000540 -0.000930
# 3 -0.003042 -0.002769 0.010325 -0.000292 0.001236 0.002894
# 4 0.000031 0.002095 -0.000292 0.018697 0.005487 0.003178
# 5 0.004108 0.000540 0.001236 0.005487 0.024374 -0.000479
# 6 -0.001208 -0.000930 0.002894 0.003178 -0.000479 0.020621
#
#
# Mechanical properties :
#
#
# Convention : Reuss Voigt Hill
#
# Bulk Modulus (GPa) = 69.40116 78.74853 74.07484
# Shear Modulus (GPa) = 42.10841 47.96895 45.03868
#
# Velocity S-wave (km/s) = 4.16426 4.44460 4.30671
# Velocity P-wave (km/s) = 7.19041 7.66612 7.43208
#
# Compressibility (1/GPa) = 0.01440898
#
# Stress axis : x y z
#
# Youngs Moduli (GPa) = 77.97927 108.94607 96.85451
#
# Poissons Ratio (x) = 0.34296 0.29461
# Poissons Ratio (y) = 0.24548 0.26824
# Poissons Ratio (z) = 0.23720 0.30172
#
# Static dielectric constant tensor:
#      x y z
#    x 2.029480 0.011030 0.029230 
#    y 0.011030 1.914120 0.025040 
#    z 0.029230 0.025040 1.934610 
# 
# From -- ./inp_files/375738.got.cif
#   From: 2010.05.17/outbox.cif.g08.bks.cpg/sg2_188_cif.got.tgz:375738.got - 2010.06.03 11:33:40.
