data_PCOD9015944
_publ_section_title
;
Structure prediction by ZEFSAII (Michael W. Deem and Ramdas Pophale) SiO2 
 PCOD9015944
Probable space group: P -1
;
_chemical_formula_sum "Si O2"
_cell_formula_units_Z 14
_cell_length_a 13.692476
_cell_length_b 5.014733
_cell_length_c 14.877496
_cell_angle_alpha 113.104994
_cell_angle_beta 139.961164
_cell_angle_gamma 50.444238
_cell_volume 497.271837
_symmetry_space_group_name_H-M "P -1"
_symmetry_group_IT_number 2
_symmetry_cell_setting 'triclinic'
loop_
_space_group_symop_operation_xyz
x,y,z
-x,-y,-z
loop_
_atom_site_type_symbol
_atom_site_label
_atom_site_fract_x
_atom_site_fract_y
_atom_site_fract_z
Si Si1 0.418489 0.258922 0.813742
Si Si2 0.141536 0.676625 0.140684
Si Si3 0.498266 0.795972 0.593832
Si Si4 0.009562 0.786630 0.603786
Si Si5 0.146135 0.252173 0.321143
Si Si6 0.349589 0.698197 0.662577
Si Si7 0.169047 0.222991 0.949587
O O1 0.224338 0.629567 0.744683
O O2 0.436325 0.339302 0.731229
O O3 0.371788 0.977016 0.770771
O O4 0.624476 0.095649 0.971650
O O5 0.290658 0.342030 0.262910
O O6 0.180299 0.526310 0.047320
O O7 0.173433 0.971869 0.229165
O O8 0.937346 0.828972 0.052683
O O9 0.500000 0.500000 0.500000
O O10 0.439258 0.730170 0.640194
O O11 0.345258 0.153312 0.481124
O O12 0.000000 0.500000 0.500000
O O13 0.928412 0.815503 0.648816
O O14 0.861716 0.141972 0.492677
O O15 0.976521 0.623655 0.213765
#
# Coordination Sequence:
#
# PCOD9015944 Si02
#       7
#     2   2   2   2   2   2   2
#     4  11  23  41  69  97 131 180 225 273 341 406
#     4  10  22  42  61  96 135 181 224 273 339 410
#     4   9  19  40  62  96 127 173 225 283 328 395
#     4   9  21  45  69  97 132 174 229 287 337 397
#     4  10  22  42  65  97 135 169 234 277 344 398
#     4  10  21  42  66 100 128 175 230 274 335 403
#     4  11  24  38  65  99 136 184 212 281 339 419
#
# _framework density 28.153616
#
# number of rings (size 3 to 8) (size 9 to 14) (size 15 to 20)
#    0.000    2.000    1.429    0.857    2.000    5.714 
#   28.286    0.714    0.000    0.000    0.000    0.000 
#    0.000    0.000    0.000    0.000    0.000    0.000 
#
# Total GULP energy -78261.209361 kJ/mol
# GULP energy per Si atom -5590.086383 kJ/mol
# Density = 2.808954 g / cm^3
# Si number density = 28.153616 Si / 1000 Ang^3
#
#
#
# Elastic Constant Matrix: (Units=GPa)
#
#
# Indices 1 2 3 4 5 6 
#
# 1 94.8811 38.6072 42.2680 -16.9922 32.8328 16.5023
# 2 38.6072 107.6093 45.2332 -23.3108 8.9327 11.3558
# 3 42.2680 45.2332 215.0275 -51.9639 27.4301 1.2988
# 4 -16.9922 -23.3108 -51.9639 60.4422 -16.3743 4.5774
# 5 32.8328 8.9327 27.4301 -16.3743 48.9260 -20.9662
# 6 16.5023 11.3558 1.2988 4.5774 -20.9662 37.0924
#
#
#
# Elastic Compliance Matrix: (Units=1/GPa)
#
#
# Indices 1 2 3 4 5 6 
#
# 1 0.027144 -0.004303 -0.000695 -0.000361 -0.028692 -0.026908
# 2 -0.004303 0.011916 -0.001189 0.002968 0.001966 -0.000947
# 3 -0.000695 -0.001189 0.006345 0.004371 -0.001911 -0.001169
# 4 -0.000361 0.002968 0.004371 0.022598 0.004265 -0.001279
# 5 -0.028692 0.001966 -0.001911 0.004265 0.061823 0.046649
# 6 -0.026908 -0.000947 -0.001169 -0.001279 0.046649 0.065787
#
#
# Mechanical properties :
#
#
# Convention : Reuss Voigt Hill
#
# Bulk Modulus (GPa) = 30.27495 74.41496 52.34496
# Shear Modulus (GPa) = 22.83124 48.71943 35.77534
#
# Velocity S-wave (km/s) = 2.85081 4.16442 3.56858
# Velocity P-wave (km/s) = 4.64898 7.04361 5.96764
#
# Compressibility (1/GPa) = 0.03303060
#
# Stress axis : x y z
#
# Youngs Moduli (GPa) = 36.84054 83.91997 157.61584
#
# Poissons Ratio (x) = 0.36114 0.10957
# Poissons Ratio (y) = 0.15854 0.18733
# Poissons Ratio (z) = 0.02561 0.09974
#
# Static dielectric constant tensor:
#      x y z
#    x 2.208270 -0.068750 0.003480 
#    y -0.068750 2.319650 0.028320 
#    z 0.003480 0.028320 2.233160 
# 
# From -- ./inp_files/45705.got.cif
#   From: 2010.05.17/outbox.cif.g08.bks.cpg/sg2_23_cif.got.tgz:45705.got - 2010.06.03 11:33:40.
