data_PCOD9015436
_publ_section_title
;
Structure prediction by ZEFSAII (Michael W. Deem and Ramdas Pophale) SiO2 
 PCOD9015436
Probable space group: P -1
;
_chemical_formula_sum "Si O2"
_cell_formula_units_Z 16
_cell_length_a 12.970872
_cell_length_b 9.835713
_cell_length_c 12.848824
_cell_angle_alpha 47.660350
_cell_angle_beta 43.823758
_cell_angle_gamma 64.342338
_cell_volume 834.503618
_symmetry_space_group_name_H-M "P -1"
_symmetry_group_IT_number 2
_symmetry_cell_setting 'triclinic'
loop_
_space_group_symop_operation_xyz
x,y,z
-x,-y,-z
loop_
_atom_site_type_symbol
_atom_site_label
_atom_site_fract_x
_atom_site_fract_y
_atom_site_fract_z
Si Si1 0.090788 0.326718 0.000867
Si Si2 0.666019 0.066685 0.162827
Si Si3 0.018747 0.962882 0.128058
Si Si4 0.345307 0.226565 0.010182
Si Si5 0.719691 0.747916 0.451657
Si Si6 0.666679 0.487217 0.430544
Si Si7 0.532062 0.417582 0.131738
Si Si8 0.423493 0.906733 0.260515
O O1 0.215837 0.397934 0.788215
O O2 0.185248 0.260729 0.062718
O O3 0.000000 0.500000 0.000000
O O4 0.996459 0.146843 0.113981
O O5 0.653480 0.271631 0.107254
O O6 0.679606 0.925241 0.321467
O O7 0.518911 0.996955 0.240361
O O8 0.806684 0.069204 0.979883
O O9 0.892652 0.797960 0.331688
O O10 0.000000 0.000000 0.000000
O O11 0.342540 0.060167 0.180096
O O12 0.414018 0.414035 0.918655
O O13 0.457184 0.172381 0.865177
O O14 0.691281 0.579671 0.477676
O O15 0.612838 0.697485 0.652443
O O16 0.500000 0.500000 0.500000
O O17 0.684378 0.270617 0.533569
O O18 0.500000 0.500000 0.000000
#
# Coordination Sequence:
#
# PCOD9015436 Si02
#       8
#     2   2   2   2   2   2   2   2
#     4  12  25  41  68  99 130 166 216 272 319 386
#     4  11  21  40  67  95 128 167 214 272 316 384
#     4  10  21  42  62  92 133 170 208 254 332 386
#     4  11  23  41  64  93 129 173 209 263 334 371
#     4  11  22  39  66  93 129 170 214 265 322 386
#     4  12  19  40  67 100 122 162 227 265 310 383
#     4  12  25  40  62  99 131 160 220 273 324 371
#     4  11  21  39  70  91 127 167 219 266 319 383
#
# _framework density 19.173075000000001
#
# number of rings (size 3 to 8) (size 9 to 14) (size 15 to 20)
#    0.000    0.750    8.750    0.375    3.500    1.000 
#    0.000    1.250    0.000    0.000    0.000    0.000 
#    0.000    0.000    0.000    0.000    0.000    0.000 
#
# Total GULP energy -89357.510554 kJ/mol
# GULP energy per Si atom -5584.844410 kJ/mol
# Density = 1.912944 g / cm^3
# Si number density = 19.173075 Si / 1000 Ang^3
#
#
#
# Elastic Constant Matrix: (Units=GPa)
#
#
# Indices 1 2 3 4 5 6 
#
# 1 86.9884 32.9594 35.8639 -11.3026 0.8367 3.6315
# 2 32.9594 111.0714 24.3360 -15.0501 -6.7094 3.0817
# 3 35.8639 24.3360 73.3434 -12.4764 5.6629 3.5822
# 4 -11.3026 -15.0501 -12.4764 32.8811 1.0839 1.2352
# 5 0.8367 -6.7094 5.6629 1.0839 27.3760 -10.4197
# 6 3.6315 3.0817 3.5822 1.2352 -10.4197 30.0370
#
#
#
# Elastic Compliance Matrix: (Units=1/GPa)
#
#
# Indices 1 2 3 4 5 6 
#
# 1 0.015447 -0.002998 -0.006202 0.001635 -0.000376 -0.001018
# 2 -0.002998 0.010912 -0.001893 0.003123 0.003206 0.000452
# 3 -0.006202 -0.001893 0.018640 0.004387 -0.005599 -0.003401
# 4 0.001635 0.003123 0.004387 0.034292 -0.002860 -0.003444
# 5 -0.000376 0.003206 -0.005599 -0.002860 0.044688 0.016004
# 6 -0.001018 0.000452 -0.003401 -0.003444 0.016004 0.039468
#
#
# Mechanical properties :
#
#
# Convention : Reuss Voigt Hill
#
# Bulk Modulus (GPa) = 43.83415 50.85797 47.34606
# Shear Modulus (GPa) = 25.87489 29.94173 27.90831
#
# Velocity S-wave (km/s) = 3.67760 3.95607 3.81937
# Velocity P-wave (km/s) = 6.39882 6.88844 6.64814
#
# Compressibility (1/GPa) = 0.02281326
#
# Stress axis : x y z
#
# Youngs Moduli (GPa) = 64.73691 91.64320 53.64849
#
# Poissons Ratio (x) = 0.27474 0.33272
# Poissons Ratio (y) = 0.19407 0.10156
# Poissons Ratio (z) = 0.40148 0.17349
#
# Static dielectric constant tensor:
#      x y z
#    x 1.676180 -0.013990 -0.011040 
#    y -0.013990 1.688020 0.011180 
#    z -0.011040 0.011180 1.678190 
# 
# From -- ./inp_files/189457.got.cif
#   From: 2010.05.17/outbox.cif.g08.bks.cpg/sg2_95_cif.got.tgz:189457.got - 2010.06.03 11:33:40.
