data_PCOD9015428
_publ_section_title
;
Structure prediction by ZEFSAII (Michael W. Deem and Ramdas Pophale) SiO2 
 PCOD9015428
Probable space group: P -1
;
_chemical_formula_sum "Si O2"
_cell_formula_units_Z 12
_cell_length_a 8.884199
_cell_length_b 11.997912
_cell_length_c 8.944828
_cell_angle_alpha 110.153069
_cell_angle_beta 128.969579
_cell_angle_gamma 46.597721
_cell_volume 532.062448
_symmetry_space_group_name_H-M "P -1"
_symmetry_group_IT_number 2
_symmetry_cell_setting 'triclinic'
loop_
_space_group_symop_operation_xyz
x,y,z
-x,-y,-z
loop_
_atom_site_type_symbol
_atom_site_label
_atom_site_fract_x
_atom_site_fract_y
_atom_site_fract_z
Si Si1 0.587044 0.174659 0.461686
Si Si2 0.270492 0.159897 0.009351
Si Si3 0.949397 0.999382 0.142526
Si Si4 0.728864 0.551514 0.363952
Si Si5 0.612150 0.674901 0.020020
Si Si6 0.595651 0.384781 0.370159
O O1 0.394445 0.169153 0.241815
O O2 0.434568 0.307800 0.554792
O O3 0.700431 0.224678 0.437427
O O4 0.828410 0.028731 0.633342
O O5 0.209771 0.287793 0.909519
O O6 0.066136 0.137877 0.903397
O O7 0.500000 0.000000 0.000000
O O8 0.674991 0.161008 0.084628
O O9 0.000000 0.000000 0.000000
O O10 0.751864 0.408549 0.371490
O O11 0.000000 0.500000 0.500000
O O12 0.633186 0.606604 0.161708
O O13 0.633785 0.568167 0.855875
O O14 0.500000 0.500000 0.500000
#
# Coordination Sequence:
#
# PCOD9015428 Si02
#       6
#     2   2   2   2   2   2
#     4  10  22  44  64  92 124 161 209 249 314 366
#     4   9  22  40  62  94 125 160 200 251 311 370
#     4  11  22  40  67  94 124 160 200 263 311 364
#     4  11  23  40  62  92 123 161 207 253 302 361
#     4  10  21  42  62  92 124 158 206 252 308 363
#     4   9  21  41  63  86 122 166 205 247 297 369
#
# _framework density 22.553743000000001
#
# number of rings (size 3 to 8) (size 9 to 14) (size 15 to 20)
#    0.000    2.000    1.667    0.500    2.333    8.000 
#    9.000    2.500    0.000    0.000    0.000    0.000 
#    0.000    0.000    0.000    0.000    0.000    0.000 
#
# Total GULP energy -66931.705797 kJ/mol
# GULP energy per Si atom -5577.642150 kJ/mol
# Density = 2.250241 g / cm^3
# Si number density = 22.553743 Si / 1000 Ang^3
#
#
#
# Elastic Constant Matrix: (Units=GPa)
#
#
# Indices 1 2 3 4 5 6 
#
# 1 131.3690 17.4366 25.0030 1.5434 -18.7681 20.4057
# 2 17.4366 26.6536 18.7379 6.4600 -8.0014 -3.0981
# 3 25.0030 18.7379 113.9708 7.9210 -36.1224 6.2043
# 4 1.5434 6.4600 7.9210 34.7188 -3.2123 2.6881
# 5 -18.7681 -8.0014 -36.1224 -3.2123 46.1612 2.3828
# 6 20.4057 -3.0981 6.2043 2.6881 2.3828 29.3927
#
#
#
# Elastic Compliance Matrix: (Units=1/GPa)
#
#
# Indices 1 2 3 4 5 6 
#
# 1 0.010365 -0.007414 0.000524 0.001825 0.003908 -0.008571
# 2 -0.007414 0.050637 -0.007150 -0.008558 -0.001092 0.012865
# 3 0.000524 -0.007150 0.013108 -0.000454 0.009437 -0.004608
# 4 0.001825 -0.008558 -0.000454 0.030927 0.001314 -0.005008
# 5 0.003908 -0.001092 0.009437 0.001314 0.030924 -0.007448
# 6 -0.008571 0.012865 -0.004608 -0.005008 -0.007448 0.043363
#
#
# Mechanical properties :
#
#
# Convention : Reuss Voigt Hill
#
# Bulk Modulus (GPa) = 21.72560 43.81649 32.77104
# Shear Modulus (GPa) = 22.44682 36.10894 29.27788
#
# Velocity S-wave (km/s) = 3.15820 4.00561 3.60688
# Velocity P-wave (km/s) = 4.79089 6.39242 5.64870
#
# Compressibility (1/GPa) = 0.04602864
#
# Stress axis : x y z
#
# Youngs Moduli (GPa) = 96.47990 19.74837 76.28676
#
# Poissons Ratio (x) = 0.14641 -0.03994
# Poissons Ratio (y) = 0.71530 0.54549
# Poissons Ratio (z) = -0.05051 0.14121
#
# Static dielectric constant tensor:
#      x y z
#    x -0.874950 -1.188230 3.070740 
#    y -1.188230 1.421370 1.404640 
#    z 3.070740 1.404640 -1.605580 
# 
# From -- ./inp_files/27346.got.cif
#   From: 2010.05.17/outbox.cif.g08.bks.cpg/sg2_14_cif.got.tgz:27346.got - 2010.06.03 11:33:40.
