data_PCOD9015065
_publ_section_title
;
Structure prediction by ZEFSAII (Michael W. Deem and Ramdas Pophale) SiO2 
 PCOD9015065
Probable space group: P -1
;
_chemical_formula_sum "Si O2"
_cell_formula_units_Z 14
_cell_length_a 28.211381
_cell_length_b 5.378552
_cell_length_c 14.535900
_cell_angle_alpha 72.911011
_cell_angle_beta 163.420775
_cell_angle_gamma 106.736430
_cell_volume 601.406561
_symmetry_space_group_name_H-M "P -1"
_symmetry_group_IT_number 2
_symmetry_cell_setting 'triclinic'
loop_
_space_group_symop_operation_xyz
x,y,z
-x,-y,-z
loop_
_atom_site_type_symbol
_atom_site_label
_atom_site_fract_x
_atom_site_fract_y
_atom_site_fract_z
Si Si1 0.642305 0.214159 0.919997
Si Si2 0.694058 0.973191 0.382315
Si Si3 0.384966 0.751554 0.334967
Si Si4 0.883105 0.345178 0.028631
Si Si5 0.763196 0.560169 0.400349
Si Si6 0.723287 0.902805 0.660163
Si Si7 0.640535 0.651791 0.981244
O O1 0.636662 0.362513 0.795577
O O2 0.459231 0.124033 0.628798
O O3 0.730474 0.396888 0.138993
O O4 0.722251 0.933897 0.086554
O O5 0.773154 0.258098 0.477449
O O6 0.753589 0.746558 0.450030
O O7 0.714354 0.907412 0.533482
O O8 0.500000 0.000000 0.000000
O O9 0.201021 0.798270 0.025003
O O10 0.482020 0.639928 0.617222
O O11 0.500000 0.000000 0.500000
O O12 0.825108 0.643528 0.899875
O O13 0.806954 0.171642 0.822145
O O14 0.077338 0.354882 0.371667
O O15 0.612074 0.607182 0.041783
#
# Coordination Sequence:
#
# PCOD9015065 Si02
#       7
#     2   2   2   2   2   2   2
#     4  11  21  39  68 102 123 168 235 278 306 391
#     4  12  27  45  74  98 131 178 230 270 333 398
#     4  10  21  41  71 100 128 178 229 269 326 398
#     4  12  26  41  69  98 143 173 218 274 341 391
#     4  12  27  46  64 104 142 170 218 282 335 396
#     4  12  23  42  69  97 130 180 224 272 328 389
#     4  11  21  39  67  92 131 173 215 274 328 383
#
# _framework density 23.278763000000001
#
# number of rings (size 3 to 8) (size 9 to 14) (size 15 to 20)
#    0.000    0.571    4.286    5.143    0.000    3.429 
#    0.000    3.571    0.000    0.000    0.000    0.000 
#    0.000    0.000    0.000    0.000    0.000    0.000 
#
# Total GULP energy -78108.859261 kJ/mol
# GULP energy per Si atom -5579.204233 kJ/mol
# Density = 2.322578 g / cm^3
# Si number density = 23.278763 Si / 1000 Ang^3
#
#
#
# Elastic Constant Matrix: (Units=GPa)
#
#
# Indices 1 2 3 4 5 6 
#
# 1 154.2929 20.4255 34.8677 8.9442 -2.7001 -27.6269
# 2 20.4255 114.8130 11.0009 16.5967 2.1280 -30.7917
# 3 34.8677 11.0009 51.1029 12.4574 19.4121 1.4116
# 4 8.9442 16.5967 12.4574 19.9519 4.3805 -1.4926
# 5 -2.7001 2.1280 19.4121 4.3805 32.7800 5.8256
# 6 -27.6269 -30.7917 1.4116 -1.4926 5.8256 48.6393
#
#
#
# Elastic Compliance Matrix: (Units=1/GPa)
#
#
# Indices 1 2 3 4 5 6 
#
# 1 0.009362 0.000468 -0.008474 0.000043 0.004814 0.005285
# 2 0.000468 0.012096 -0.000734 -0.009135 -0.000463 0.007720
# 3 -0.008474 -0.000734 0.036606 -0.014474 -0.019606 -0.004436
# 4 0.000043 -0.009135 -0.014474 0.066281 0.000918 -0.003414
# 5 0.004814 -0.000463 -0.019606 0.000918 0.042792 -0.002087
# 6 0.005285 0.007720 -0.004436 -0.003414 -0.002087 0.028723
#
#
# Mechanical properties :
#
#
# Convention : Reuss Voigt Hill
#
# Bulk Modulus (GPa) = 24.63885 50.31077 37.47481
# Shear Modulus (GPa) = 22.03934 37.20187 29.62061
#
# Velocity S-wave (km/s) = 3.08028 4.00197 3.57098
# Velocity P-wave (km/s) = 4.82266 6.55847 5.75637
#
# Compressibility (1/GPa) = 0.04058630
#
# Stress axis : x y z
#
# Youngs Moduli (GPa) = 106.81349 82.66956 27.31762
#
# Poissons Ratio (x) = -0.03871 0.23148
# Poissons Ratio (y) = -0.05002 0.02005
# Poissons Ratio (z) = 0.90510 0.06068
#
# Static dielectric constant tensor:
#      x y z
#    x 2.087010 0.098010 -0.126260 
#    y 0.098010 2.076050 -0.147290 
#    z -0.126260 -0.147290 2.030960 
# 
# From -- ./inp_files/543578.got.cif
#   From: 2010.05.17/outbox.cif.g08.bks.cpg/sg2_272_cif.got.tgz:543578.got - 2010.06.03 11:33:40.
