data_PCOD9015473
_publ_section_title
;
Structure prediction by ZEFSAII (Michael W. Deem and Ramdas Pophale) SiO2 
 PCOD9015473
Probable space group: P -1
;
_chemical_formula_sum "Si O2"
_cell_formula_units_Z 16
_cell_length_a 21.579065
_cell_length_b 8.573959
_cell_length_c 11.570070
_cell_angle_alpha 107.998432
_cell_angle_beta 41.567960
_cell_angle_gamma 142.175794
_cell_volume 627.929010
_symmetry_space_group_name_H-M "P -1"
_symmetry_group_IT_number 2
_symmetry_cell_setting 'triclinic'
loop_
_space_group_symop_operation_xyz
x,y,z
-x,-y,-z
loop_
_atom_site_type_symbol
_atom_site_label
_atom_site_fract_x
_atom_site_fract_y
_atom_site_fract_z
Si Si1 0.427268 0.472417 0.421945
Si Si2 0.292460 0.560499 0.069265
Si Si3 0.652959 0.595122 0.845337
Si Si4 0.132842 0.734573 0.048878
Si Si5 0.856035 0.811937 0.403792
Si Si6 0.898313 0.557357 0.150622
Si Si7 0.047075 0.429578 0.507933
Si Si8 0.501158 0.764833 0.613971
O O1 0.247098 0.196393 0.518931
O O2 0.388322 0.529425 0.600984
O O3 0.462387 0.346940 0.393639
O O4 0.632490 0.861005 0.163840
O O5 0.387495 0.568679 0.020056
O O6 0.244715 0.644300 0.234464
O O7 0.407811 0.747827 0.830507
O O8 0.072198 0.163827 0.240248
O O9 0.700217 0.539805 0.663901
O O10 0.865026 0.016519 0.663650
O O11 0.500000 0.500000 0.000000
O O12 0.094619 0.490213 0.002040
O O13 0.978783 0.541472 0.320581
O O14 0.081501 0.769409 0.018014
O O15 0.873959 0.703596 0.256253
O O16 0.703408 0.160347 0.378153
O O17 0.000000 0.500000 0.500000
#
# Coordination Sequence:
#
# PCOD9015473 Si02
#       8
#     2   2   2   2   2   2   2   2
#     4  10  22  40  64  87 125 166 205 257 306 373
#     4  11  24  42  64  90 131 168 203 255 310 378
#     4  11  23  42  66  88 122 172 210 249 311 377
#     4  10  21  42  63  86 122 164 206 248 312 368
#     4  11  22  39  61  92 122 164 210 247 314 373
#     4  10  22  38  66  90 117 160 205 260 304 361
#     4  11  24  40  62  92 125 163 206 256 304 364
#     4  10  22  40  60  93 125 162 210 255 308 359
#
# _framework density 25.480588999999998
#
# number of rings (size 3 to 8) (size 9 to 14) (size 15 to 20)
#    0.000    1.500    0.000    6.000    0.000    9.500 
#    0.000    1.875    0.000    0.000    0.000    0.000 
#    0.000    0.000    0.000    0.000    0.000    0.000 
#
# Total GULP energy -89528.281544 kJ/mol
# GULP energy per Si atom -5595.517597 kJ/mol
# Density = 2.542259 g / cm^3
# Si number density = 25.480589 Si / 1000 Ang^3
#
#
#
# Elastic Constant Matrix: (Units=GPa)
#
#
# Indices 1 2 3 4 5 6 
#
# 1 83.8690 13.5413 22.8731 -0.8963 -11.9242 22.3157
# 2 13.5413 93.6012 37.9467 22.0652 2.1471 9.0950
# 3 22.8731 37.9467 153.9618 46.4225 18.3051 14.6105
# 4 -0.8963 22.0652 46.4225 47.4798 9.5684 0.5204
# 5 -11.9242 2.1471 18.3051 9.5684 34.7415 -2.1559
# 6 22.3157 9.0950 14.6105 0.5204 -2.1559 18.3760
#
#
#
# Elastic Compliance Matrix: (Units=1/GPa)
#
#
# Indices 1 2 3 4 5 6 
#
# 1 0.018791 -0.000446 -0.001860 0.001439 0.005790 -0.020481
# 2 -0.000446 0.012834 -0.001313 -0.004798 0.000785 -0.004538
# 3 -0.001860 -0.001313 0.010939 -0.009217 -0.004156 -0.006015
# 4 0.001439 -0.004798 -0.009217 0.032859 -0.002989 0.006675
# 5 0.005790 0.000785 -0.004156 -0.002989 0.033731 -0.000074
# 6 -0.020481 -0.004538 -0.006015 0.006675 -0.000074 0.086122
#
#
# Mechanical properties :
#
#
# Convention : Reuss Voigt Hill
#
# Bulk Modulus (GPa) = 28.30816 53.35046 40.82931
# Shear Modulus (GPa) = 23.33271 37.25752 30.29511
#
# Velocity S-wave (km/s) = 3.02935 3.82801 3.45185
# Velocity P-wave (km/s) = 4.83422 6.36564 5.65204
#
# Compressibility (1/GPa) = 0.03532550
#
# Stress axis : x y z
#
# Youngs Moduli (GPa) = 53.21717 77.91520 91.41490
#
# Poissons Ratio (x) = 0.03476 0.17005
# Poissons Ratio (y) = 0.02374 0.12004
# Poissons Ratio (z) = 0.09900 0.10231
#
# Static dielectric constant tensor:
#      x y z
#    x 1.981000 0.053270 0.001160 
#    y 0.053270 2.067120 0.072170 
#    z 0.001160 0.072170 2.086880 
# 
# From -- ./inp_files/470049.got.cif
#   From: 2010.05.17/outbox.cif.g08.bks.cpg/sg2_236_cif.got.tgz:470049.got - 2010.06.03 11:33:40.
