data_PCOD9015511
_publ_section_title
;
Structure prediction by ZEFSAII (Michael W. Deem and Ramdas Pophale) SiO2 
 PCOD9015511
Probable space group: P -1
;
_chemical_formula_sum "Si O2"
_cell_formula_units_Z 16
_cell_length_a 7.638510
_cell_length_b 14.268675
_cell_length_c 7.024021
_cell_angle_alpha 112.096095
_cell_angle_beta 62.764921
_cell_angle_gamma 86.733966
_cell_volume 605.810007
_symmetry_space_group_name_H-M "P -1"
_symmetry_group_IT_number 2
_symmetry_cell_setting 'triclinic'
loop_
_space_group_symop_operation_xyz
x,y,z
-x,-y,-z
loop_
_atom_site_type_symbol
_atom_site_label
_atom_site_fract_x
_atom_site_fract_y
_atom_site_fract_z
Si Si1 0.620404 0.261301 0.907961
Si Si2 0.078443 0.167669 0.191734
Si Si3 0.969614 0.352518 0.685619
Si Si4 0.662741 0.198269 0.257569
Si Si5 0.650359 0.523694 0.730806
Si Si6 0.337571 0.414446 0.667337
Si Si7 0.163082 0.948580 0.542367
Si Si8 0.463319 0.005728 0.793648
O O1 0.806635 0.314133 0.860188
O O2 0.701002 0.172650 0.644726
O O3 0.618813 0.200351 0.057007
O O4 0.416515 0.357146 0.064264
O O5 0.086025 0.252472 0.416787
O O6 0.886102 0.215385 0.188118
O O7 0.005686 0.068483 0.234726
O O8 0.290169 0.116837 0.941426
O O9 0.840939 0.443552 0.676799
O O10 0.118900 0.392648 0.780634
O O11 0.499057 0.300251 0.495015
O O12 0.632659 0.090518 0.273412
O O13 0.449887 0.478828 0.796377
O O14 0.683723 0.535807 0.497433
O O15 0.337634 0.006734 0.445781
O O16 0.000000 0.000000 0.500000
O O17 0.500000 0.000000 0.000000
#
# Coordination Sequence:
#
# PCOD9015511 Si02
#       8
#     2   2   2   2   2   2   2   2
#     4  10  23  39  65  92 130 168 211 276 323 380
#     4  11  24  41  65  97 134 169 221 271 325 391
#     4  11  22  41  66  94 127 174 215 264 330 388
#     4  11  22  43  62  93 133 169 214 274 325 386
#     4  10  21  42  63  92 129 169 214 269 321 384
#     4  10  22  39  66  93 127 168 215 264 327 385
#     4  11  23  42  65  97 129 170 222 270 325 389
#     4  12  22  40  69  93 127 178 218 262 331 391
#
# _framework density 26.410920999999998
#
# number of rings (size 3 to 8) (size 9 to 14) (size 15 to 20)
#    0.000    1.250    3.750    1.875    3.500    1.000 
#    2.250    0.000    0.000    0.000    0.000    0.000 
#    0.000    0.000    0.000    0.000    0.000    0.000 
#
# Total GULP energy -89466.520424 kJ/mol
# GULP energy per Si atom -5591.657526 kJ/mol
# Density = 2.635081 g / cm^3
# Si number density = 26.410921 Si / 1000 Ang^3
#
#
#
# Elastic Constant Matrix: (Units=GPa)
#
#
# Indices 1 2 3 4 5 6 
#
# 1 123.8174 12.1343 18.8862 27.6045 -24.4294 11.1565
# 2 12.1343 72.9791 20.7213 5.2420 -15.3759 0.8854
# 3 18.8862 20.7213 109.5771 24.5635 -5.2907 6.2503
# 4 27.6045 5.2420 24.5635 38.2752 2.2804 2.7130
# 5 -24.4294 -15.3759 -5.2907 2.2804 36.5677 -0.8850
# 6 11.1565 0.8854 6.2503 2.7130 -0.8850 42.3674
#
#
#
# Elastic Compliance Matrix: (Units=1/GPa)
#
#
# Indices 1 2 3 4 5 6 
#
# 1 0.012011 0.000413 0.000526 -0.009406 0.008801 -0.002463
# 2 0.000413 0.015827 -0.002461 -0.001293 0.006659 0.000145
# 3 0.000526 -0.002461 0.011267 -0.007265 0.001369 -0.001255
# 4 -0.009406 -0.001293 -0.007265 0.038296 -0.010245 0.000909
# 5 0.008801 0.006659 0.001369 -0.010245 0.036833 -0.001233
# 6 -0.002463 0.000145 -0.001255 0.000909 -0.001233 0.024350
#
#
# Mechanical properties :
#
#
# Convention : Reuss Voigt Hill
#
# Bulk Modulus (GPa) = 27.73048 45.53969 36.63508
# Shear Modulus (GPa) = 32.54174 40.41751 36.47962
#
# Velocity S-wave (km/s) = 3.51398 3.91619 3.72053
# Velocity P-wave (km/s) = 5.19485 6.14239 5.68838
#
# Compressibility (1/GPa) = 0.03606141
#
# Stress axis : x y z
#
# Youngs Moduli (GPa) = 83.25543 63.18436 88.75346
#
# Poissons Ratio (x) = -0.02612 -0.04665
# Poissons Ratio (y) = -0.03442 0.21842
# Poissons Ratio (z) = -0.04376 0.15549
#
# Static dielectric constant tensor:
#      x y z
#    x -6.291590 2.875630 -5.408660 
#    y 2.875630 1.139670 1.803630 
#    z -5.408660 1.803630 -1.415350 
# 
# From -- ./inp_files/202877.got.cif
#   From: 2010.05.17/outbox.cif.g08.bks.cpg/sg2_102_cif.got.tgz:202877.got - 2010.06.03 11:33:40.
