data_PCOD9015760
_publ_section_title
;
Structure prediction by ZEFSAII (Michael W. Deem and Ramdas Pophale) SiO2 
 PCOD9015760
Probable space group: P -1
;
_chemical_formula_sum "Si O2"
_cell_formula_units_Z 12
_cell_length_a 12.593861
_cell_length_b 5.250669
_cell_length_c 9.436164
_cell_angle_alpha 117.256332
_cell_angle_beta 108.077009
_cell_angle_gamma 62.717940
_cell_volume 488.996788
_symmetry_space_group_name_H-M "P -1"
_symmetry_group_IT_number 2
_symmetry_cell_setting 'triclinic'
loop_
_space_group_symop_operation_xyz
x,y,z
-x,-y,-z
loop_
_atom_site_type_symbol
_atom_site_label
_atom_site_fract_x
_atom_site_fract_y
_atom_site_fract_z
Si Si1 0.972984 0.155167 0.682184
Si Si2 0.218881 0.961260 0.907674
Si Si3 0.435614 0.402102 0.735502
Si Si4 0.387196 0.312071 0.074674
Si Si5 0.826233 0.869721 0.745670
Si Si6 0.404413 0.264367 0.393546
O O1 0.917682 0.522210 0.728543
O O2 0.095002 0.048965 0.796303
O O3 0.000000 0.000000 0.500000
O O4 0.882384 0.038649 0.702254
O O5 0.315005 0.626524 0.816048
O O6 0.276359 0.218352 0.959180
O O7 0.199397 0.963373 0.069204
O O8 0.550227 0.443461 0.867188
O O9 0.421392 0.475113 0.579593
O O10 0.473983 0.035642 0.655957
O O11 0.363784 0.381104 0.249640
O O12 0.500000 0.000000 0.000000
O O13 0.704497 0.840738 0.629235
#
# Coordination Sequence:
#
# PCOD9015760 Si02
#       6
#     2   2   2   2   2   2
#     4  12  26  50  73 104 140 184 239 291 353 417
#     4  10  23  44  70 103 138 184 233 290 350 418
#     4  10  21  42  65 100 136 178 230 284 351 410
#     4   9  20  38  60  94 132 175 221 277 342 411
#     4  11  26  46  74 103 142 184 235 292 349 418
#     4  10  22  40  66 100 135 180 229 286 346 415
#
# _framework density 24.540037999999999
#
# number of rings (size 3 to 8) (size 9 to 14) (size 15 to 20)
#    0.000    1.667    0.000    3.000    4.667    6.000 
#   24.000    0.000    0.000    0.000    0.000    0.000 
#    0.000    0.000    0.000    0.000    0.000    0.000 
#
# Total GULP energy -67105.959842 kJ/mol
# GULP energy per Si atom -5592.163320 kJ/mol
# Density = 2.448418 g / cm^3
# Si number density = 24.540038 Si / 1000 Ang^3
#
#
#
# Elastic Constant Matrix: (Units=GPa)
#
#
# Indices 1 2 3 4 5 6 
#
# 1 127.6029 56.4817 72.7595 0.4270 5.0117 -2.9038
# 2 56.4817 94.6434 36.8561 15.0139 -19.8267 -9.9453
# 3 72.7595 36.8561 174.6544 1.9784 -22.3536 -3.6992
# 4 0.4270 15.0139 1.9784 40.1758 -10.2109 -5.0371
# 5 5.0117 -19.8267 -22.3536 -10.2109 56.9945 -4.7100
# 6 -2.9038 -9.9453 -3.6992 -5.0371 -4.7100 49.5344
#
#
#
# Elastic Compliance Matrix: (Units=1/GPa)
#
#
# Indices 1 2 3 4 5 6 
#
# 1 0.014753 -0.008482 -0.005196 0.001497 -0.006155 -0.001659
# 2 -0.008482 0.017796 0.000757 -0.004478 0.006705 0.003315
# 3 -0.005196 0.000757 0.008273 0.000530 0.004135 0.000912
# 4 0.001497 -0.004478 0.000530 0.027761 0.003691 0.002402
# 5 -0.006155 0.006705 0.004135 0.003691 0.023021 0.003859
# 6 -0.001659 0.003315 0.000912 0.002402 0.003859 0.021436
#
#
# Mechanical properties :
#
#
# Convention : Reuss Voigt Hill
#
# Bulk Modulus (GPa) = 66.75157 81.01059 73.88108
# Shear Modulus (GPa) = 34.75227 44.72784 39.74005
#
# Velocity S-wave (km/s) = 3.76725 4.27388 4.02854
# Velocity P-wave (km/s) = 6.79581 7.57879 7.19795
#
# Compressibility (1/GPa) = 0.01498092
#
# Stress axis : x y z
#
# Youngs Moduli (GPa) = 67.78308 56.19105 120.87584
#
# Poissons Ratio (x) = 0.47662 0.62805
# Poissons Ratio (y) = 0.57494 -0.09153
# Poissons Ratio (z) = 0.35219 -0.04255
#
# Static dielectric constant tensor:
#      x y z
#    x 1.965520 0.083170 -0.034150 
#    y 0.083170 2.124910 -0.048120 
#    z -0.034150 -0.048120 1.953280 
# 
# From -- ./inp_files/31152.got.cif
#   From: 2010.05.17/outbox.cif.g08.bks.cpg/sg2_16_cif.got.tgz:31152.got - 2010.06.03 11:33:40.
