data_PCOD9015982
_publ_section_title
;
Structure prediction by ZEFSAII (Michael W. Deem and Ramdas Pophale) SiO2 
 PCOD9015982
Probable space group: P -1
;
_chemical_formula_sum "Si O2"
_cell_formula_units_Z 16
_cell_length_a 11.294039
_cell_length_b 20.103122
_cell_length_c 9.802657
_cell_angle_alpha 106.403431
_cell_angle_beta 92.932802
_cell_angle_gamma 150.358512
_cell_volume 824.144707
_symmetry_space_group_name_H-M "P -1"
_symmetry_group_IT_number 2
_symmetry_cell_setting 'triclinic'
loop_
_space_group_symop_operation_xyz
x,y,z
-x,-y,-z
loop_
_atom_site_type_symbol
_atom_site_label
_atom_site_fract_x
_atom_site_fract_y
_atom_site_fract_z
Si Si1 0.727410 0.855233 0.594743
Si Si2 0.716600 0.630229 0.789925
Si Si3 0.422213 0.240200 0.789956
Si Si4 0.630335 0.953523 0.626443
Si Si5 0.342906 0.910664 0.087439
Si Si6 0.644328 0.652269 0.065241
Si Si7 0.792418 0.740550 0.572240
Si Si8 0.485857 0.123693 0.735270
O O1 0.652642 0.805688 0.401332
O O2 0.576843 0.847087 0.621185
O O3 0.649416 0.739563 0.589285
O O4 0.095393 0.062374 0.746920
O O5 0.827257 0.719278 0.703704
O O6 0.428661 0.425438 0.628886
O O7 0.648349 0.656102 0.903471
O O8 0.988119 0.734232 0.935717
O O9 0.538549 0.380043 0.908175
O O10 0.594086 0.261380 0.846114
O O11 0.480850 0.878084 0.423693
O O12 0.539648 0.964882 0.732214
O O13 0.003211 0.158138 0.751089
O O14 0.384164 0.861576 0.142860
O O15 0.500000 0.000000 0.000000
O O16 0.500000 0.500000 0.000000
O O17 0.118748 0.926365 0.627237
#
# Coordination Sequence:
#
# PCOD9015982 Si02
#       8
#     2   2   2   2   2   2   2   2
#     4   8  14  29  50  74  98 125 166 214 249 293
#     4  10  21  32  49  77 105 133 173 206 256 310
#     4   8  15  27  48  78  99 126 167 206 253 300
#     4   9  19  32  53  79  98 132 181 204 247 311
#     4  11  21  36  49  75 107 138 167 213 256 294
#     4  10  17  30  50  79 109 128 162 220 259 291
#     4  10  18  33  54  75 101 136 167 211 259 303
#     4  10  18  34  57  75 102 138 169 209 249 304
#
# _framework density 19.414066999999999
#
# number of rings (size 3 to 8) (size 9 to 14) (size 15 to 20)
#    0.000    2.500    1.250    4.125    0.000    0.000 
#    2.250    2.500    0.000   15.750    0.000    0.000 
#    0.000    0.000    0.000    0.000    0.000    0.000 
#
# Total GULP energy -89151.811055 kJ/mol
# GULP energy per Si atom -5571.988191 kJ/mol
# Density = 1.936988 g / cm^3
# Si number density = 19.414067 Si / 1000 Ang^3
#
#
#
# Elastic Constant Matrix: (Units=GPa)
#
#
# Indices 1 2 3 4 5 6 
#
# 1 149.2642 23.3464 51.6055 -18.4626 -14.2925 -32.9069
# 2 23.3464 31.9946 13.2040 -7.5752 -5.9473 -7.5302
# 3 51.6055 13.2040 69.4970 -16.3048 -8.5758 -12.8659
# 4 -18.4626 -7.5752 -16.3048 19.9087 -3.3913 -3.2963
# 5 -14.2925 -5.9473 -8.5758 -3.3913 30.5870 -4.8503
# 6 -32.9069 -7.5302 -12.8659 -3.2963 -4.8503 26.6576
#
#
#
# Elastic Compliance Matrix: (Units=1/GPa)
#
#
# Indices 1 2 3 4 5 6 
#
# 1 0.016528 0.002435 -0.000866 0.022345 0.014568 0.026086
# 2 0.002435 0.043617 0.002947 0.028077 0.017263 0.023362
# 3 -0.000866 0.002947 0.025576 0.026433 0.013086 0.017756
# 4 0.022345 0.028077 0.026433 0.123523 0.048483 0.072367
# 5 0.014568 0.017263 0.013086 0.048483 0.059186 0.045939
# 6 0.026086 0.023362 0.017756 0.072367 0.045939 0.102190
#
#
# Mechanical properties :
#
#
# Convention : Reuss Voigt Hill
#
# Bulk Modulus (GPa) = 10.55378 47.45196 29.00287
# Shear Modulus (GPa) = 12.71707 26.27065 19.49386
#
# Velocity S-wave (km/s) = 2.56216 3.68254 3.17221
# Velocity P-wave (km/s) = 3.76840 6.52508 5.32811
#
# Compressibility (1/GPa) = 0.09475274
#
# Stress axis : x y z
#
# Youngs Moduli (GPa) = 60.50416 22.92681 39.09927
#
# Poissons Ratio (x) = -0.05583 0.03387
# Poissons Ratio (y) = -0.14734 -0.11523
# Poissons Ratio (z) = 0.05241 -0.06757
#
# Static dielectric constant tensor:
#      x y z
#    x 1.739740 0.001200 -0.025170 
#    y 0.001200 1.703490 0.000800 
#    z -0.025170 0.000800 1.688590 
# 
# From -- ./inp_files/255069.got.cif
#   From: 2010.05.17/outbox.cif.g08.bks.cpg/sg2_128_cif.got.tgz:255069.got - 2010.06.03 11:33:40.
