data_PCOD9015222
_publ_section_title
;
Structure prediction by ZEFSAII (Michael W. Deem and Ramdas Pophale) SiO2 
 PCOD9015222
Probable space group: P -1
;
_chemical_formula_sum "Si O2"
_cell_formula_units_Z 16
_cell_length_a 8.167554
_cell_length_b 11.652519
_cell_length_c 12.672922
_cell_angle_alpha 49.315989
_cell_angle_beta 57.354870
_cell_angle_gamma 87.090895
_cell_volume 679.260225
_symmetry_space_group_name_H-M "P -1"
_symmetry_group_IT_number 2
_symmetry_cell_setting 'triclinic'
loop_
_space_group_symop_operation_xyz
x,y,z
-x,-y,-z
loop_
_atom_site_type_symbol
_atom_site_label
_atom_site_fract_x
_atom_site_fract_y
_atom_site_fract_z
Si Si1 0.247571 0.049650 0.248322
Si Si2 0.407103 0.493789 0.687831
Si Si3 0.788075 0.043996 0.457152
Si Si4 0.345451 0.705766 0.761193
Si Si5 0.194739 0.928677 0.100523
Si Si6 0.215351 0.582599 0.304380
Si Si7 0.360463 0.587903 0.040707
Si Si8 0.723652 0.784536 0.252826
O O1 0.453074 0.236020 0.080213
O O2 0.024640 0.062021 0.339155
O O3 0.250560 0.940358 0.414245
O O4 0.242999 0.984976 0.171092
O O5 0.333007 0.558173 0.776957
O O6 0.591204 0.437890 0.691926
O O7 0.521649 0.654495 0.471970
O O8 0.233508 0.331871 0.779075
O O9 0.763564 0.188663 0.315218
O O10 0.600148 0.853270 0.602655
O O11 0.252048 0.628398 0.954097
O O12 0.245891 0.772201 0.161662
O O13 0.937895 0.871225 0.200028
O O14 0.315334 0.077533 0.882582
O O15 0.000000 0.500000 0.500000
O O16 0.195980 0.495162 0.249200
O O17 0.500000 0.500000 0.000000
#
# Coordination Sequence:
#
# PCOD9015222 Si02
#       8
#     2   2   2   2   2   2   2   2
#     4  10  22  41  70  98 141 182 230 293 349 427
#     4  11  22  43  67 102 145 183 231 289 363 416
#     4   9  21  40  67 109 134 186 235 280 361 420
#     4  10  21  41  72  99 143 183 227 296 342 434
#     4  11  24  44  68  98 138 183 237 292 348 430
#     4  12  26  44  72 103 138 194 237 295 359 424
#     4  11  24  44  67 100 142 183 230 286 358 420
#     4  10  24  41  65  99 141 183 225 294 354 419
#
# _framework density 23.555038
#
# number of rings (size 3 to 8) (size 9 to 14) (size 15 to 20)
#    0.000    1.500    2.500    1.500    0.000   10.000 
#    2.250    0.625    0.000    0.000    0.000    0.000 
#    0.000    0.000    0.000    0.000    0.000    0.000 
#
# Total GULP energy -89584.642796 kJ/mol
# GULP energy per Si atom -5599.040175 kJ/mol
# Density = 2.350143 g / cm^3
# Si number density = 23.555038 Si / 1000 Ang^3
#
#
#
# Elastic Constant Matrix: (Units=GPa)
#
#
# Indices 1 2 3 4 5 6 
#
# 1 67.1419 29.8779 35.8169 6.6807 28.4095 10.0934
# 2 29.8779 117.9643 39.0953 17.6251 18.0015 12.1883
# 3 35.8169 39.0953 103.3462 10.2305 32.1910 -7.3107
# 4 6.6807 17.6251 10.2305 37.6315 -1.0570 5.9137
# 5 28.4095 18.0015 32.1910 -1.0570 37.9464 1.7275
# 6 10.0934 12.1883 -7.3107 5.9137 1.7275 33.9670
#
#
#
# Elastic Compliance Matrix: (Units=1/GPa)
#
#
# Indices 1 2 3 4 5 6 
#
# 1 0.024994 -0.001952 -0.003706 -0.001904 -0.014401 -0.006460
# 2 -0.001952 0.011018 -0.003028 -0.003495 -0.001141 -0.003359
# 3 -0.003706 -0.003028 0.015977 -0.003602 -0.009750 0.006750
# 4 -0.001904 -0.003495 -0.003602 0.030457 0.007198 -0.004624
# 5 -0.014401 -0.001141 -0.009750 0.007198 0.046194 -0.001012
# 6 -0.006460 -0.003359 0.006750 -0.004624 -0.001012 0.034874
#
#
# Mechanical properties :
#
#
# Convention : Reuss Voigt Hill
#
# Bulk Modulus (GPa) = 28.88787 55.33695 42.11241
# Shear Modulus (GPa) = 25.98396 34.15314 30.06855
#
# Velocity S-wave (km/s) = 3.32492 3.81192 3.57672
# Velocity P-wave (km/s) = 5.19911 6.55118 5.91391
#
# Compressibility (1/GPa) = 0.03461660
#
# Stress axis : x y z
#
# Youngs Moduli (GPa) = 40.00987 90.75662 62.58905
#
# Poissons Ratio (x) = 0.17720 0.23198
# Poissons Ratio (y) = 0.07812 0.18950
# Poissons Ratio (z) = 0.14829 0.27478
#
# Static dielectric constant tensor:
#      x y z
#    x 1.891050 0.032310 -0.007790 
#    y 0.032310 1.879600 0.017900 
#    z -0.007790 0.017900 1.971600 
# 
# From -- ./inp_files/392031.got.cif
#   From: 2010.05.17/outbox.cif.g08.bks.cpg/sg2_197_cif.got.tgz:392031.got - 2010.06.03 11:33:40.
