data_PCOD9015020
_publ_section_title
;
Structure prediction by ZEFSAII (Michael W. Deem and Ramdas Pophale) SiO2 
 PCOD9015020
Probable space group: P -1
;
_chemical_formula_sum "Si O2"
_cell_formula_units_Z 16
_cell_length_a 20.799615
_cell_length_b 10.859110
_cell_length_c 7.315772
_cell_angle_alpha 63.261086
_cell_angle_beta 79.098068
_cell_angle_gamma 30.260526
_cell_volume 666.594685
_symmetry_space_group_name_H-M "P -1"
_symmetry_group_IT_number 2
_symmetry_cell_setting 'triclinic'
loop_
_space_group_symop_operation_xyz
x,y,z
-x,-y,-z
loop_
_atom_site_type_symbol
_atom_site_label
_atom_site_fract_x
_atom_site_fract_y
_atom_site_fract_z
Si Si1 0.548866 0.346874 0.880200
Si Si2 0.793933 0.350104 0.020676
Si Si3 0.271656 0.193418 0.647082
Si Si4 0.143029 0.637155 0.674263
Si Si5 0.962854 0.729733 0.861773
Si Si6 0.652391 0.376077 0.504336
Si Si7 0.034080 0.714667 0.208063
Si Si8 0.449239 0.249048 0.391534
O O1 0.573979 0.501030 0.270830
O O2 0.676731 0.004202 0.090271
O O3 0.500000 0.500000 0.000000
O O4 0.601447 0.361644 0.696626
O O5 0.863176 0.355301 0.879551
O O6 0.672295 0.509225 0.858324
O O7 0.756690 0.476420 0.155452
O O8 0.920947 0.003148 0.201509
O O9 0.230926 0.421633 0.595548
O O10 0.130513 0.423876 0.454966
O O11 0.405276 0.943221 0.605181
O O12 0.085647 0.597930 0.805116
O O13 0.000000 0.000000 0.500000
O O14 0.819501 0.035937 0.627728
O O15 0.000000 0.500000 0.000000
O O16 0.949236 0.807033 0.025561
O O17 0.610869 0.594285 0.485162
O O18 0.500000 0.000000 0.500000
#
# Coordination Sequence:
#
# PCOD9015020 Si02
#       8
#     2   2   2   2   2   2   2   2
#     4  11  26  49  72 105 145 191 235 300 366 428
#     4  10  21  42  65  95 142 188 230 287 363 423
#     4  12  25  43  69 106 142 184 243 294 361 435
#     4  11  25  43  67 103 143 185 232 307 367 418
#     4  11  25  45  73 102 137 190 251 292 358 438
#     4  11  26  49  75 102 146 191 242 297 363 431
#     4  10  21  41  70  96 139 187 231 292 356 425
#     4  12  25  41  70 106 141 188 241 291 357 433
#
# _framework density 24.002593000000001
#
# number of rings (size 3 to 8) (size 9 to 14) (size 15 to 20)
#    0.000    1.000    5.000    0.750    5.250    1.500 
#    2.250    1.250    0.000    0.000    0.000    0.000 
#    0.000    0.000    0.000    0.000    0.000    0.000 
#
# Total GULP energy -89451.980842 kJ/mol
# GULP energy per Si atom -5590.748803 kJ/mol
# Density = 2.394796 g / cm^3
# Si number density = 24.002593 Si / 1000 Ang^3
#
#
#
# Elastic Constant Matrix: (Units=GPa)
#
#
# Indices 1 2 3 4 5 6 
#
# 1 75.2264 24.8296 34.5761 0.4361 -1.5709 15.6460
# 2 24.8296 114.6633 43.5096 -5.3164 1.7248 20.4746
# 3 34.5761 43.5096 152.6593 -13.5318 12.2326 11.2489
# 4 0.4361 -5.3164 -13.5318 45.2635 6.5308 0.6876
# 5 -1.5709 1.7248 12.2326 6.5308 45.1945 -2.1699
# 6 15.6460 20.4746 11.2489 0.6876 -2.1699 28.1450
#
#
#
# Elastic Compliance Matrix: (Units=1/GPa)
#
#
# Indices 1 2 3 4 5 6 
#
# 1 0.016621 -0.001257 -0.003119 -0.001326 0.001328 -0.006944
# 2 -0.001257 0.011061 -0.002303 0.000759 -0.000263 -0.006466
# 3 -0.003119 -0.002303 0.008379 0.002655 -0.002682 -0.000212
# 4 -0.001326 0.000759 0.002655 0.023635 -0.004295 -0.001784
# 5 0.001328 -0.000263 -0.002682 -0.004295 0.023647 0.002453
# 6 -0.006944 -0.006466 -0.000212 -0.001784 0.002453 0.044411
#
#
# Mechanical properties :
#
#
# Convention : Reuss Voigt Hill
#
# Bulk Modulus (GPa) = 44.04593 60.93106 52.48850
# Shear Modulus (GPa) = 33.62909 39.69617 36.66263
#
# Velocity S-wave (km/s) = 3.74714 4.07114 3.91249
# Velocity P-wave (km/s) = 6.09194 6.89487 6.50580
#
# Compressibility (1/GPa) = 0.02270357
#
# Stress axis : x y z
#
# Youngs Moduli (GPa) = 60.16400 90.40723 119.34513
#
# Poissons Ratio (x) = 0.11368 0.37218
# Poissons Ratio (y) = 0.07565 0.27485
# Poissons Ratio (z) = 0.18762 0.20821
#
# Static dielectric constant tensor:
#      x y z
#    x 1.986330 -0.026560 -0.030010 
#    y -0.026560 1.979880 -0.018370 
#    z -0.030010 -0.018370 1.974350 
# 
# From -- ./inp_files/353024.got.cif
#   From: 2010.05.17/outbox.cif.g08.bks.cpg/sg2_177_cif.got.tgz:353024.got - 2010.06.03 11:33:40.
