data_PCOD9015682
_publ_section_title
;
Structure prediction by ZEFSAII (Michael W. Deem and Ramdas Pophale) SiO2 
 PCOD9015682
Probable space group: P -1
;
_chemical_formula_sum "Si O2"
_cell_formula_units_Z 14
_cell_length_a 14.583713
_cell_length_b 26.281630
_cell_length_c 25.074330
_cell_angle_alpha 11.278434
_cell_angle_beta 156.934333
_cell_angle_gamma 159.019448
_cell_volume 671.674866
_symmetry_space_group_name_H-M "P -1"
_symmetry_group_IT_number 2
_symmetry_cell_setting 'triclinic'
loop_
_space_group_symop_operation_xyz
x,y,z
-x,-y,-z
loop_
_atom_site_type_symbol
_atom_site_label
_atom_site_fract_x
_atom_site_fract_y
_atom_site_fract_z
Si Si1 0.996340 0.784485 0.641175
Si Si2 0.143656 0.492728 0.853815
Si Si3 0.089248 0.575398 0.614980
Si Si4 0.339551 0.041583 0.459013
Si Si5 0.704084 0.118750 0.190100
Si Si6 0.570963 0.259209 0.812687
Si Si7 0.777261 0.949104 0.054006
O O1 0.206106 0.891098 0.691333
O O2 0.132338 0.907977 0.531820
O O3 0.784610 0.904509 0.418985
O O4 0.867792 0.442816 0.925277
O O5 0.079834 0.540515 0.710099
O O6 0.876380 0.383645 0.855120
O O7 0.333432 0.785430 0.681729
O O8 0.257789 0.256936 0.160192
O O9 0.383862 0.778412 0.552811
O O10 0.907421 0.729563 0.342400
O O11 0.989383 0.263958 0.856013
O O12 0.407823 0.050597 0.093307
O O13 0.500000 0.500000 0.500000
O O14 0.409914 0.151591 0.890942
O O15 0.500000 0.000000 0.000000
#
# Coordination Sequence:
#
# PCOD9015682 Si02
#       7
#     2   2   2   2   2   2   2
#     4  10  21  42  64  94 115 147 202 251 296 348
#     4  12  23  40  60  86 118 164 201 245 290 341
#     4  12  25  40  56  86 128 162 198 240 282 364
#     4  12  24  40  62  85 118 163 207 238 288 349
#     4  10  22  40  68  90 118 149 191 256 308 350
#     4  12  21  36  57  83 115 146 190 244 286 342
#     4  12  22  40  59  88 122 159 193 240 312 342
#
# _framework density 20.843418
#
# number of rings (size 3 to 8) (size 9 to 14) (size 15 to 20)
#    0.000    0.571    2.857    6.857    0.000    0.000 
#    0.000    1.429    0.000    0.000    0.000    0.000 
#    0.000    0.000    0.000    0.000    0.000    0.000 
#
# Total GULP energy -78406.236930 kJ/mol
# GULP energy per Si atom -5600.445495 kJ/mol
# Density = 2.079598 g / cm^3
# Si number density = 20.843418 Si / 1000 Ang^3
#
#
#
# Elastic Constant Matrix: (Units=GPa)
#
#
# Indices 1 2 3 4 5 6 
#
# 1 21.2601 -2.4858 12.4575 -3.4842 -0.9363 -7.1203
# 2 -2.4858 69.9256 -3.3594 3.5524 -13.7966 -1.0944
# 3 12.4575 -3.3594 110.9637 3.8275 -9.5883 -6.4203
# 4 -3.4842 3.5524 3.8275 40.6283 -0.4293 -4.0174
# 5 -0.9363 -13.7966 -9.5883 -0.4293 14.1657 3.6166
# 6 -7.1203 -1.0944 -6.4203 -4.0174 3.6166 22.9050
#
#
#
# Elastic Compliance Matrix: (Units=1/GPa)
#
#
# Indices 1 2 3 4 5 6 
#
# 1 0.057747 0.000951 -0.005972 0.007189 -0.003721 0.018171
# 2 0.000951 0.018401 0.002123 -0.001681 0.019792 -0.001650
# 3 -0.005972 0.002123 0.010543 -0.001646 0.008885 -0.000492
# 4 0.007189 -0.001681 -0.001646 0.026170 -0.003217 0.006791
# 5 -0.003721 0.019792 0.008885 -0.003217 0.099097 -0.013932
# 6 0.018171 -0.001650 -0.000492 0.006791 -0.013932 0.052482
#
#
# Mechanical properties :
#
#
# Convention : Reuss Voigt Hill
#
# Bulk Modulus (GPa) = 12.36174 23.93046 18.14610
# Shear Modulus (GPa) = 16.82363 28.57560 22.69961
#
# Velocity S-wave (km/s) = 2.84411 3.70667 3.30366
# Velocity P-wave (km/s) = 4.09010 5.46125 4.82463
#
# Compressibility (1/GPa) = 0.08089479
#
# Stress axis : x y z
#
# Youngs Moduli (GPa) = 17.31678 54.34366 94.85164
#
# Poissons Ratio (x) = -0.05168 0.56650
# Poissons Ratio (y) = -0.01647 -0.20138
# Poissons Ratio (z) = 0.10342 -0.11538
#
# Static dielectric constant tensor:
#      x y z
#    x 1.723700 0.002210 -0.005920 
#    y 0.002210 1.757300 -0.001810 
#    z -0.005920 -0.001810 1.717840 
# 
# From -- ./inp_files/70852.got.cif
#   From: 2010.05.17/outbox.cif.g08.bks.cpg/sg2_36_cif.got.tgz:70852.got - 2010.06.03 11:33:40.
