data_PCOD9015857
_publ_section_title
;
Structure prediction by ZEFSAII (Michael W. Deem and Ramdas Pophale) SiO2 
 PCOD9015857
Probable space group: P -1
;
_chemical_formula_sum "Si O2"
_cell_formula_units_Z 14
_cell_length_a 15.151215
_cell_length_b 12.686983
_cell_length_c 7.838884
_cell_angle_alpha 45.694166
_cell_angle_beta 47.179190
_cell_angle_gamma 35.822889
_cell_volume 607.563049
_symmetry_space_group_name_H-M "P -1"
_symmetry_group_IT_number 2
_symmetry_cell_setting 'triclinic'
loop_
_space_group_symop_operation_xyz
x,y,z
-x,-y,-z
loop_
_atom_site_type_symbol
_atom_site_label
_atom_site_fract_x
_atom_site_fract_y
_atom_site_fract_z
Si Si1 0.535551 0.641642 0.322297
Si Si2 0.448206 0.350298 0.088678
Si Si3 0.713160 0.980149 0.327413
Si Si4 0.754514 0.270508 0.876603
Si Si5 0.859498 0.404494 0.344152
Si Si6 0.661852 0.953055 0.793544
Si Si7 0.884705 0.701030 0.099090
O O1 0.500000 0.500000 0.500000
O O2 0.381632 0.840809 0.369176
O O3 0.677849 0.557686 0.357928
O O4 0.575011 0.676766 0.044422
O O5 0.530918 0.158708 0.311043
O O6 0.300028 0.553285 0.128579
O O7 0.592588 0.354353 0.896530
O O8 0.799674 0.827721 0.234009
O O9 0.718234 0.889059 0.599567
O O10 0.791389 0.083021 0.121857
O O11 0.875818 0.242486 0.614104
O O12 0.955065 0.343064 0.112540
O O13 0.904419 0.509730 0.282037
O O14 0.780405 0.818272 0.937181
O O15 0.500000 0.000000 0.000000
#
# Coordination Sequence:
#
# PCOD9015857 Si02
#       7
#     2   2   2   2   2   2   2
#     4  12  20  39  67  98 124 168 219 267 314 379
#     4   9  18  33  65  97 123 156 211 276 310 362
#     4  10  21  42  65  94 129 164 216 270 317 378
#     4   9  18  39  63  94 129 165 213 266 323 368
#     4  11  24  44  63  90 137 175 211 262 326 382
#     4  12  24  42  69  98 127 164 222 265 321 388
#     4  11  26  45  62  94 138 174 209 263 323 391
#
# _framework density 23.042874999999999
#
# number of rings (size 3 to 8) (size 9 to 14) (size 15 to 20)
#    0.857    0.571    4.286    1.714    0.000    2.286 
#    2.571    2.143    0.000    0.000    0.000    0.000 
#    0.000    0.000    0.000    0.000    0.000    0.000 
#
# Total GULP energy -78167.042509 kJ/mol
# GULP energy per Si atom -5583.360179 kJ/mol
# Density = 2.299043 g / cm^3
# Si number density = 23.042875 Si / 1000 Ang^3
#
#
#
# Elastic Constant Matrix: (Units=GPa)
#
#
# Indices 1 2 3 4 5 6 
#
# 1 22.1128 13.6257 30.6450 5.0543 15.7653 6.9245
# 2 13.6257 86.5125 31.8966 13.3649 2.9759 26.5120
# 3 30.6450 31.8966 135.8698 8.9038 7.1989 20.4797
# 4 5.0543 13.3649 8.9038 26.3531 14.2468 9.7489
# 5 15.7653 2.9759 7.1989 14.2468 34.6163 7.9604
# 6 6.9245 26.5120 20.4797 9.7489 7.9604 28.5428
#
#
#
# Elastic Compliance Matrix: (Units=1/GPa)
#
#
# Indices 1 2 3 4 5 6 
#
# 1 0.122928 -0.015099 -0.024026 0.020956 -0.060907 0.011270
# 2 -0.015099 0.019056 0.001153 -0.007790 0.011766 -0.015485
# 3 -0.024026 0.001153 0.013148 -0.004153 0.011291 -0.006407
# 4 0.020956 -0.007790 -0.004153 0.058049 -0.030477 -0.006195
# 5 -0.060907 0.011766 0.011291 -0.030477 0.068808 -0.013035
# 6 0.011270 -0.015485 -0.006407 -0.006195 -0.013035 0.057032
#
#
# Mechanical properties :
#
#
# Convention : Reuss Voigt Hill
#
# Bulk Modulus (GPa) = 12.62824 44.09219 28.36021
# Shear Modulus (GPa) = 11.32860 29.12429 20.22645
#
# Velocity S-wave (km/s) = 2.21968 3.55902 2.96594
# Velocity P-wave (km/s) = 3.47297 6.00543 4.90544
#
# Compressibility (1/GPa) = 0.07918763
#
# Stress axis : x y z
#
# Youngs Moduli (GPa) = 8.13487 52.47621 76.05783
#
# Poissons Ratio (x) = 0.79233 1.82739
# Poissons Ratio (y) = 0.12283 -0.08770
# Poissons Ratio (z) = 0.19545 -0.06051
#
# Static dielectric constant tensor:
#      x y z
#    x 1.860120 0.010010 -0.012740 
#    y 0.010010 1.900060 -0.025870 
#    z -0.012740 -0.025870 1.948610 
# 
# From -- ./inp_files/330658.got.cif
#   From: 2010.05.17/outbox.cif.g08.bks.cpg/sg2_166_cif.got.tgz:330658.got - 2010.06.03 11:33:40.
