data_PCOD9015195
_publ_section_title
;
Structure prediction by ZEFSAII (Michael W. Deem and Ramdas Pophale) SiO2 
 PCOD9015195
Probable space group: P -1
;
_chemical_formula_sum "Si O2"
_cell_formula_units_Z 12
_cell_length_a 14.915115
_cell_length_b 9.399360
_cell_length_c 6.156646
_cell_angle_alpha 86.143242
_cell_angle_beta 91.699487
_cell_angle_gamma 145.248827
_cell_volume 490.375691
_symmetry_space_group_name_H-M "P -1"
_symmetry_group_IT_number 2
_symmetry_cell_setting 'triclinic'
loop_
_space_group_symop_operation_xyz
x,y,z
-x,-y,-z
loop_
_atom_site_type_symbol
_atom_site_label
_atom_site_fract_x
_atom_site_fract_y
_atom_site_fract_z
Si Si1 0.629809 0.193416 0.681749
Si Si2 0.097903 0.982911 0.053605
Si Si3 0.232808 0.956481 0.729493
Si Si4 0.906788 0.498212 0.359013
Si Si5 0.398014 0.299499 0.321630
Si Si6 0.506090 0.239976 0.007629
O O1 0.788371 0.408014 0.535418
O O2 0.500000 0.000000 0.500000
O O3 0.593318 0.012994 0.853001
O O4 0.620044 0.311788 0.838615
O O5 0.995511 0.738445 0.215534
O O6 0.268523 0.216026 0.171759
O O7 0.123626 0.933106 0.831472
O O8 0.000000 0.000000 0.000000
O O9 0.179895 0.724231 0.787963
O O10 0.280007 0.040829 0.475143
O O11 0.391891 0.178125 0.851726
O O12 0.000000 0.500000 0.500000
O O13 0.500000 0.500000 0.500000
O O14 0.528739 0.380316 0.189067
#
# Coordination Sequence:
#
# PCOD9015195 Si02
#       6
#     2   2   2   2   2   2
#     4  11  21  41  70 114 153 180 254 331 384 446
#     4  11  27  49  75 116 155 203 261 321 395 460
#     4  11  22  48  75 106 149 199 266 305 393 461
#     4  12  22  47  80 107 150 203 249 325 384 465
#     4  11  24  49  76 105 155 212 259 311 386 471
#     4  10  21  41  72 110 148 189 261 318 377 459
#
# _framework density 24.471034
#
# number of rings (size 3 to 8) (size 9 to 14) (size 15 to 20)
#    0.000    1.000    5.000    1.500    0.000    3.333 
#    9.000    1.667    0.000    0.000    0.000    0.000 
#    0.000    0.000    0.000    0.000    0.000    0.000 
#
# Total GULP energy -66922.686755 kJ/mol
# GULP energy per Si atom -5576.890563 kJ/mol
# Density = 2.441534 g / cm^3
# Si number density = 24.471034 Si / 1000 Ang^3
#
#
#
# Elastic Constant Matrix: (Units=GPa)
#
#
# Indices 1 2 3 4 5 6 
#
# 1 166.3560 52.1162 88.6870 -4.2570 -40.6832 -16.9045
# 2 52.1162 111.2094 52.6209 -4.1128 -13.0392 -16.2269
# 3 88.6870 52.6209 144.8303 0.0399 -26.8302 -6.0063
# 4 -4.2570 -4.1128 0.0399 58.8039 -6.9479 -2.3636
# 5 -40.6832 -13.0392 -26.8302 -6.9479 68.7394 1.4357
# 6 -16.9045 -16.2269 -6.0063 -2.3636 1.4357 34.4451
#
#
#
# Elastic Compliance Matrix: (Units=1/GPa)
#
#
# Indices 1 2 3 4 5 6 
#
# 1 0.010536 -0.001541 -0.004997 0.001277 0.004049 0.003492
# 2 -0.001541 0.011900 -0.003180 0.000910 0.000105 0.004353
# 3 -0.004997 -0.003180 0.011180 -0.000582 0.000788 -0.002074
# 4 0.001277 0.000910 -0.000582 0.017532 0.002430 0.002056
# 5 0.004049 0.000105 0.000788 0.002430 0.017483 0.001612
# 6 0.003492 0.004353 -0.002074 0.002056 0.001612 0.032508
#
#
# Mechanical properties :
#
#
# Convention : Reuss Voigt Hill
#
# Bulk Modulus (GPa) = 70.52684 89.91598 80.22141
# Shear Modulus (GPa) = 39.90315 47.66245 43.78280
#
# Velocity S-wave (km/s) = 4.04248 4.41807 4.23445
# Velocity P-wave (km/s) = 7.11843 7.92776 7.53397
#
# Compressibility (1/GPa) = 0.01417900
#
# Stress axis : x y z
#
# Youngs Moduli (GPa) = 94.91437 84.03145 89.44533
#
# Poissons Ratio (x) = 0.12953 0.44696
# Poissons Ratio (y) = 0.14631 0.28444
# Poissons Ratio (z) = 0.47429 0.26723
#
# Static dielectric constant tensor:
#      x y z
#    x 1.984770 0.023990 -0.004470 
#    y 0.023990 2.132520 0.005420 
#    z -0.004470 0.005420 1.969990 
# 
# From -- ./inp_files/87624.got.cif
#   From: 2010.05.17/outbox.cif.g08.bks.cpg/sg2_44_cif.got.tgz:87624.got - 2010.06.03 11:33:40.
