data_PCOD9015375
_publ_section_title
;
Structure prediction by ZEFSAII (Michael W. Deem and Ramdas Pophale) SiO2 
 PCOD9015375
Probable space group: P -1
;
_chemical_formula_sum "Si O2"
_cell_formula_units_Z 16
_cell_length_a 6.201651
_cell_length_b 17.496130
_cell_length_c 20.774521
_cell_angle_alpha 159.720313
_cell_angle_beta 119.321750
_cell_angle_gamma 66.316428
_cell_volume 668.674893
_symmetry_space_group_name_H-M "P -1"
_symmetry_group_IT_number 2
_symmetry_cell_setting 'triclinic'
loop_
_space_group_symop_operation_xyz
x,y,z
-x,-y,-z
loop_
_atom_site_type_symbol
_atom_site_label
_atom_site_fract_x
_atom_site_fract_y
_atom_site_fract_z
Si Si1 0.900461 0.207374 0.446893
Si Si2 0.794079 0.039467 0.091250
Si Si3 0.927275 0.325573 0.221855
Si Si4 0.003929 0.531499 0.199864
Si Si5 0.224106 0.674853 0.221358
Si Si6 0.356139 0.162999 0.959531
Si Si7 0.638129 0.976286 0.595981
Si Si8 0.537758 0.662910 0.072352
O O1 0.919004 0.311435 0.603560
O O2 0.936547 0.424582 0.578127
O O3 0.145384 0.094794 0.386815
O O4 0.667693 0.005547 0.237981
O O5 0.916363 0.262700 0.246323
O O6 0.787562 0.004555 0.138728
O O7 0.500000 0.000000 0.000000
O O8 0.920463 0.843598 0.924700
O O9 0.640831 0.267114 0.105517
O O10 0.023187 0.666915 0.242183
O O11 0.198427 0.361351 0.087839
O O12 0.719002 0.394322 0.052155
O O13 0.484663 0.767431 0.370238
O O14 0.237614 0.847509 0.301213
O O15 0.240455 0.426901 0.002722
O O16 0.452096 0.093384 0.703944
O O17 0.500000 0.500000 0.000000
#
# Coordination Sequence:
#
# PCOD9015375 Si02
#       8
#     2   2   2   2   2   2   2   2
#     4  12  24  43  66 100 139 175 225 274 339 400
#     4   9  20  45  76  98 135 173 215 269 331 403
#     4  10  22  45  72  99 136 173 213 280 327 395
#     4  12  24  42  62  94 136 177 223 281 329 397
#     4  10  23  41  63  85 128 175 227 279 331 385
#     4  11  24  43  67 103 134 175 222 270 337 404
#     4  10  21  42  61  93 124 172 227 277 332 396
#     4  10  22  42  63  88 125 174 226 279 331 387
#
# _framework density 23.92792
#
# number of rings (size 3 to 8) (size 9 to 14) (size 15 to 20)
#    0.000    1.500    3.750    0.750    0.000    4.000 
#    4.500    5.625    0.000    0.000    0.000    0.000 
#    0.000    0.000    0.000    0.000    0.000    0.000 
#
# Total GULP energy -89469.848471 kJ/mol
# GULP energy per Si atom -5591.865529 kJ/mol
# Density = 2.387346 g / cm^3
# Si number density = 23.927920 Si / 1000 Ang^3
#
#
#
# Elastic Constant Matrix: (Units=GPa)
#
#
# Indices 1 2 3 4 5 6 
#
# 1 67.4881 10.1316 22.7193 7.8881 2.3989 1.3629
# 2 10.1316 69.2559 19.8048 12.7598 -7.0812 8.8324
# 3 22.7193 19.8048 120.7127 -2.1812 -6.2403 0.5890
# 4 7.8881 12.7598 -2.1812 35.7306 -2.6966 -5.4243
# 5 2.3989 -7.0812 -6.2403 -2.6966 36.8343 -3.2561
# 6 1.3629 8.8324 0.5890 -5.4243 -3.2561 48.6948
#
#
#
# Elastic Compliance Matrix: (Units=1/GPa)
#
#
# Indices 1 2 3 4 5 6 
#
# 1 0.016551 -0.000939 -0.003136 -0.003796 -0.002140 -0.000821
# 2 -0.000939 0.017209 -0.002636 -0.006492 0.002125 -0.003644
# 3 -0.003136 -0.002636 0.009427 0.002452 0.001547 0.000829
# 4 -0.003796 -0.006492 0.002452 0.032218 0.002214 0.004991
# 5 -0.002140 0.002125 0.001547 0.002214 0.028279 0.001793
# 6 -0.000821 -0.003644 0.000829 0.004991 0.001793 0.021886
#
#
# Mechanical properties :
#
#
# Convention : Reuss Voigt Hill
#
# Bulk Modulus (GPa) = 33.59846 40.30757 36.95302
# Shear Modulus (GPa) = 33.57652 37.90536 35.74094
#
# Velocity S-wave (km/s) = 3.75004 3.98445 3.86902
# Velocity P-wave (km/s) = 5.72909 6.16845 5.95283
#
# Compressibility (1/GPa) = 0.02976327
#
# Stress axis : x y z
#
# Youngs Moduli (GPa) = 60.42111 58.11055 106.07672
#
# Poissons Ratio (x) = 0.05457 0.33267
# Poissons Ratio (y) = 0.05674 0.27964
# Poissons Ratio (z) = 0.18949 0.15319
#
# Static dielectric constant tensor:
#      x y z
#    x 1.938570 0.037660 0.013920 
#    y 0.037660 1.961890 -0.029500 
#    z 0.013920 -0.029500 1.877440 
# 
# From -- ./inp_files/584105.got.cif
#   From: 2010.05.17/outbox.cif.g08.bks.cpg/sg2_293_cif.got.tgz:584105.got - 2010.06.03 11:33:40.
