data_PCOD9015668
_publ_section_title
;
Structure prediction by ZEFSAII (Michael W. Deem and Ramdas Pophale) SiO2 
 PCOD9015668
Probable space group: P -1
;
_chemical_formula_sum "Si O2"
_cell_formula_units_Z 16
_cell_length_a 5.572431
_cell_length_b 16.566885
_cell_length_c 10.152457
_cell_angle_alpha 57.680275
_cell_angle_beta 62.570850
_cell_angle_gamma 96.488824
_cell_volume 617.108734
_symmetry_space_group_name_H-M "P -1"
_symmetry_group_IT_number 2
_symmetry_cell_setting 'triclinic'
loop_
_space_group_symop_operation_xyz
x,y,z
-x,-y,-z
loop_
_atom_site_type_symbol
_atom_site_label
_atom_site_fract_x
_atom_site_fract_y
_atom_site_fract_z
Si Si1 0.309323 0.153309 0.664331
Si Si2 0.315801 0.431896 0.773674
Si Si3 0.807834 0.605757 0.684612
Si Si4 0.384566 0.200190 0.128815
Si Si5 0.707689 0.946618 0.959954
Si Si6 0.559315 0.352237 0.569424
Si Si7 0.707527 0.398003 0.020748
Si Si8 0.335652 0.870892 0.633527
O O1 0.338327 0.271495 0.582091
O O2 0.591588 0.164829 0.494846
O O3 0.271116 0.110185 0.861833
O O4 0.028217 0.052706 0.749672
O O5 0.611320 0.518960 0.699420
O O6 0.359631 0.343537 0.755816
O O7 0.278639 0.517589 0.610050
O O8 0.011366 0.386501 0.980199
O O9 0.819719 0.525926 0.866080
O O10 0.154927 0.673835 0.483444
O O11 0.586374 0.648455 0.767483
O O12 0.432166 0.139818 0.045513
O O13 0.511438 0.166747 0.255834
O O14 0.027008 0.167905 0.240452
O O15 0.577212 0.330115 0.978275
O O16 0.500000 0.000000 0.000000
O O17 0.500000 0.000000 0.500000
#
# Coordination Sequence:
#
# PCOD9015668 Si02
#       8
#     2   2   2   2   2   2   2   2
#     4  11  26  45  73  99 144 187 241 297 364 434
#     4  10  22  40  65  95 137 170 232 290 350 424
#     4  10  21  42  64  92 141 171 237 284 360 418
#     4  12  28  46  79 106 147 192 245 295 368 432
#     4  11  27  46  69 103 143 188 242 303 361 429
#     4  10  23  40  64  99 129 183 228 288 358 428
#     4  10  24  39  65 101 131 186 229 293 350 433
#     4  12  26  49  73 106 144 191 244 303 358 425
#
# _framework density 25.92736
#
# number of rings (size 3 to 8) (size 9 to 14) (size 15 to 20)
#    0.000    1.250    1.250    2.625   10.500    1.000 
#    0.000    0.000    0.000    0.000    0.000    0.000 
#    0.000    0.000    0.000    0.000    0.000    0.000 
#
# Total GULP energy -89398.091163 kJ/mol
# GULP energy per Si atom -5587.380698 kJ/mol
# Density = 2.586835 g / cm^3
# Si number density = 25.927360 Si / 1000 Ang^3
#
#
#
# Elastic Constant Matrix: (Units=GPa)
#
#
# Indices 1 2 3 4 5 6 
#
# 1 89.1139 32.0290 41.5068 9.6752 -14.4012 2.3098
# 2 32.0290 209.4166 52.1770 27.0955 4.3855 13.7068
# 3 41.5068 52.1770 85.3068 18.8876 -19.5064 -9.1110
# 4 9.6752 27.0955 18.8876 59.2427 -2.7068 -0.6995
# 5 -14.4012 4.3855 -19.5064 -2.7068 28.5402 4.5881
# 6 2.3098 13.7068 -9.1110 -0.6995 4.5881 46.9104
#
#
#
# Elastic Compliance Matrix: (Units=1/GPa)
#
#
# Indices 1 2 3 4 5 6 
#
# 1 0.015051 -0.000676 -0.006279 0.000000 0.003749 -0.002130
# 2 -0.000676 0.006436 -0.004443 -0.001634 -0.004147 -0.002329
# 3 -0.006279 -0.004443 0.021188 -0.003143 0.010957 0.004604
# 4 0.000000 -0.001634 -0.003143 0.018624 -0.000157 0.000160
# 5 0.003749 -0.004147 0.010957 -0.000157 0.045246 -0.001272
# 6 -0.002130 -0.002329 0.004604 0.000160 -0.001272 0.023124
#
#
# Mechanical properties :
#
#
# Convention : Reuss Voigt Hill
#
# Bulk Modulus (GPa) = 50.30787 70.58475 60.44631
# Shear Modulus (GPa) = 31.42842 44.14696 37.78769
#
# Velocity S-wave (km/s) = 3.48540 4.13088 3.82179
# Velocity P-wave (km/s) = 5.97017 7.07357 6.54516
#
# Compressibility (1/GPa) = 0.01987760
#
# Stress axis : x y z
#
# Youngs Moduli (GPa) = 66.44275 155.36937 47.19597
#
# Poissons Ratio (x) = 0.10509 0.29636
# Poissons Ratio (y) = 0.04494 0.20969
# Poissons Ratio (z) = 0.41722 0.69030
#
# Static dielectric constant tensor:
#      x y z
#    x 2.237410 -0.118290 0.074560 
#    y -0.118290 2.037060 -0.063320 
#    z 0.074560 -0.063320 2.302920 
# 
# From -- ./inp_files/367658.got.cif
#   From: 2010.05.17/outbox.cif.g08.bks.cpg/sg2_184_cif.got.tgz:367658.got - 2010.06.03 11:33:40.
