data_PCOD9015257
_publ_section_title
;
Structure prediction by ZEFSAII (Michael W. Deem and Ramdas Pophale) SiO2 
 PCOD9015257
Probable space group: P -1
;
_chemical_formula_sum "Si O2"
_cell_formula_units_Z 16
_cell_length_a 8.542776
_cell_length_b 11.961870
_cell_length_c 11.509805
_cell_angle_alpha 94.884011
_cell_angle_beta 121.149884
_cell_angle_gamma 123.128274
_cell_volume 723.464604
_symmetry_space_group_name_H-M "P -1"
_symmetry_group_IT_number 2
_symmetry_cell_setting 'triclinic'
loop_
_space_group_symop_operation_xyz
x,y,z
-x,-y,-z
loop_
_atom_site_type_symbol
_atom_site_label
_atom_site_fract_x
_atom_site_fract_y
_atom_site_fract_z
Si Si1 0.714936 0.136384 0.233259
Si Si2 0.585545 0.414366 0.074118
Si Si3 0.548165 0.676100 0.627791
Si Si4 0.296279 0.127057 0.105621
Si Si5 0.864608 0.618577 0.411278
Si Si6 0.485473 0.328823 0.656637
Si Si7 0.035070 0.326752 0.146367
Si Si8 0.448628 0.803867 0.141655
O O1 0.444220 0.082453 0.111668
O O2 0.882013 0.253653 0.201600
O O3 0.867167 0.234132 0.417549
O O4 0.659901 0.980476 0.193149
O O5 0.384388 0.268405 0.070681
O O6 0.824738 0.539189 0.265004
O O7 0.500000 0.500000 0.000000
O O8 0.605969 0.329678 0.971966
O O9 0.588801 0.810277 0.716168
O O10 0.280846 0.516348 0.557451
O O11 0.582324 0.692247 0.506134
O O12 0.766160 0.689951 0.767836
O O13 0.000000 0.000000 0.000000
O O14 0.692641 0.657825 0.344458
O O15 0.462996 0.202314 0.700597
O O16 0.778722 0.490094 0.785868
O O17 0.817421 0.242749 0.959506
#
# Coordination Sequence:
#
# PCOD9015257 Si02
#       8
#     2   2   2   2   2   2   2   2
#     4  12  24  44  70 104 136 177 233 281 338 409
#     4  11  24  45  68 102 137 179 228 283 341 403
#     4  10  21  41  73  97 134 182 232 276 331 413
#     4  11  26  45  70  98 138 182 228 283 344 405
#     4  10  21  42  71  98 134 180 235 273 335 412
#     4  11  21  42  67 101 136 181 223 281 342 403
#     4  11  21  42  70  98 134 179 234 272 327 419
#     4  12  26  40  68 107 141 177 223 286 348 395
#
# _framework density 22.115801999999999
#
# number of rings (size 3 to 8) (size 9 to 14) (size 15 to 20)
#    0.000    1.000    5.000    2.250    1.750    3.500 
#    4.500    0.625    0.000    0.000    0.000    0.000 
#    0.000    0.000    0.000    0.000    0.000    0.000 
#
# Total GULP energy -89288.768153 kJ/mol
# GULP energy per Si atom -5580.548010 kJ/mol
# Density = 2.206547 g / cm^3
# Si number density = 22.115802 Si / 1000 Ang^3
#
#
#
# Elastic Constant Matrix: (Units=GPa)
#
#
# Indices 1 2 3 4 5 6 
#
# 1 59.0413 23.7421 18.2245 8.2721 1.6581 -0.7528
# 2 23.7421 100.2583 37.2851 1.2720 8.9074 -11.8262
# 3 18.2245 37.2851 98.2897 0.7553 0.2472 -12.5384
# 4 8.2721 1.2720 0.7553 26.3686 5.6312 -4.0279
# 5 1.6581 8.9074 0.2472 5.6312 32.4948 8.0812
# 6 -0.7528 -11.8262 -12.5384 -4.0279 8.0812 15.4039
#
#
#
# Elastic Compliance Matrix: (Units=1/GPa)
#
#
# Indices 1 2 3 4 5 6 
#
# 1 0.021008 -0.005302 -0.003133 -0.008761 0.004467 -0.010229
# 2 -0.005302 0.014592 -0.002752 0.004947 -0.008110 0.014253
# 3 -0.003133 -0.002752 0.013096 0.002788 -0.002228 0.010292
# 4 -0.008761 0.004947 0.002788 0.047755 -0.015772 0.026401
# 5 0.004467 -0.008110 -0.002228 -0.015772 0.044266 -0.035169
# 6 -0.010229 0.014253 0.010292 0.026401 -0.035169 0.109092
#
#
# Mechanical properties :
#
#
# Convention : Reuss Voigt Hill
#
# Bulk Modulus (GPa) = 37.98975 46.23254 42.11115
# Shear Modulus (GPa) = 17.79635 26.74264 22.26950
#
# Velocity S-wave (km/s) = 2.83978 3.48114 3.17669
# Velocity P-wave (km/s) = 5.28842 6.09163 5.70418
#
# Compressibility (1/GPa) = 0.02632289
#
# Stress axis : x y z
#
# Youngs Moduli (GPa) = 47.60078 68.52989 76.36041
#
# Poissons Ratio (x) = 0.36336 0.23921
# Poissons Ratio (y) = 0.25239 0.21012
# Poissons Ratio (z) = 0.14912 0.18858
#
# Static dielectric constant tensor:
#      x y z
#    x 1.844910 -0.055440 -0.023550 
#    y -0.055440 1.822070 0.026410 
#    z -0.023550 0.026410 1.866810 
# 
# From -- ./inp_files/392656.got.cif
#   From: 2010.05.17/outbox.cif.g08.bks.cpg/sg2_197_cif.got.tgz:392656.got - 2010.06.03 11:33:40.
