data_PCOD9015796
_publ_section_title
;
Structure prediction by ZEFSAII (Michael W. Deem and Ramdas Pophale) SiO2 
 PCOD9015796
Probable space group: P -1
;
_chemical_formula_sum "Si O2"
_cell_formula_units_Z 16
_cell_length_a 12.368031
_cell_length_b 11.871324
_cell_length_c 14.510327
_cell_angle_alpha 116.119328
_cell_angle_beta 30.539873
_cell_angle_gamma 94.935145
_cell_volume 744.840775
_symmetry_space_group_name_H-M "P -1"
_symmetry_group_IT_number 2
_symmetry_cell_setting 'triclinic'
loop_
_space_group_symop_operation_xyz
x,y,z
-x,-y,-z
loop_
_atom_site_type_symbol
_atom_site_label
_atom_site_fract_x
_atom_site_fract_y
_atom_site_fract_z
Si Si1 0.799992 0.689107 0.683807
Si Si2 0.080165 0.138403 0.902506
Si Si3 0.252296 0.938529 0.528229
Si Si4 0.830883 0.140156 0.751909
Si Si5 0.051695 0.332509 0.644419
Si Si6 0.850173 0.681964 0.948503
Si Si7 0.626763 0.113426 0.234070
Si Si8 0.000555 0.199172 0.274974
O O1 0.819572 0.700183 0.564040
O O2 0.910573 0.769662 0.684796
O O3 0.000000 0.500000 0.500000
O O4 0.489338 0.776696 0.976996
O O5 0.220896 0.054850 0.671857
O O6 0.254632 0.992397 0.797596
O O7 0.076305 0.280861 0.994640
O O8 0.772473 0.194206 0.148173
O O9 0.251591 0.801532 0.526953
O O10 0.527575 0.841862 0.230496
O O11 0.984358 0.048834 0.701205
O O12 0.873817 0.272813 0.754140
O O13 0.000000 0.000000 0.500000
O O14 0.301031 0.232715 0.499538
O O15 0.883077 0.522097 0.858656
O O16 0.030530 0.681534 0.736579
O O17 0.761577 0.979969 0.005577
#
# Coordination Sequence:
#
# PCOD9015796 Si02
#       8
#     2   2   2   2   2   2   2   2
#     4  12  25  42  67  96 132 173 213 270 334 384
#     4   9  19  40  66  90 123 172 223 256 317 392
#     4  11  23  42  70  92 126 174 224 259 314 395
#     4  12  27  45  69  98 131 175 224 267 319 393
#     4  12  26  41  65  98 137 164 216 278 332 379
#     4  11  23  39  64  96 131 170 208 275 329 376
#     4   9  19  39  66  92 124 168 216 264 319 383
#     4  10  21  42  65  89 124 170 215 260 316 395
#
# _framework density 21.481102
#
# number of rings (size 3 to 8) (size 9 to 14) (size 15 to 20)
#    0.000    1.250    1.250    6.375    1.750    2.500 
#    0.000    2.500    0.000    0.000    0.000    0.000 
#    0.000    0.000    0.000    0.000    0.000    0.000 
#
# Total GULP energy -89447.300901 kJ/mol
# GULP energy per Si atom -5590.456306 kJ/mol
# Density = 2.143221 g / cm^3
# Si number density = 21.481102 Si / 1000 Ang^3
#
#
#
# Elastic Constant Matrix: (Units=GPa)
#
#
# Indices 1 2 3 4 5 6 
#
# 1 114.9253 22.3609 29.4396 12.2844 23.0863 15.5320
# 2 22.3609 97.7465 7.1960 -7.5162 19.5794 27.0882
# 3 29.4396 7.1960 55.4621 -6.6791 15.7285 10.2630
# 4 12.2844 -7.5162 -6.6791 29.9264 4.0928 3.2752
# 5 23.0863 19.5794 15.7285 4.0928 25.8600 -1.4929
# 6 15.5320 27.0882 10.2630 3.2752 -1.4929 43.9575
#
#
#
# Elastic Compliance Matrix: (Units=1/GPa)
#
#
# Indices 1 2 3 4 5 6 
#
# 1 0.012323 -0.000685 -0.004529 -0.004970 -0.007100 -0.002746
# 2 -0.000685 0.019163 0.008164 0.011512 -0.021555 -0.015063
# 3 -0.004529 0.008164 0.030216 0.015247 -0.023646 -0.012424
# 4 -0.004970 0.011512 0.015247 0.046135 -0.021609 -0.013070
# 5 -0.007100 -0.021555 -0.023646 -0.021609 0.080611 0.025660
# 6 -0.002746 -0.015063 -0.012424 -0.013070 0.025660 0.037748
#
#
# Mechanical properties :
#
#
# Convention : Reuss Voigt Hill
#
# Bulk Modulus (GPa) = 14.79245 42.90299 28.84772
# Shear Modulus (GPa) = 20.59031 33.89127 27.24079
#
# Velocity S-wave (km/s) = 3.09937 3.97637 3.56494
# Velocity P-wave (km/s) = 4.43952 6.41076 5.51394
#
# Compressibility (1/GPa) = 0.06760204
#
# Stress axis : x y z
#
# Youngs Moduli (GPa) = 81.14630 52.18286 33.09483
#
# Poissons Ratio (x) = 0.03573 0.14990
# Poissons Ratio (y) = 0.05556 -0.27017
# Poissons Ratio (z) = 0.36754 -0.42600
#
# Static dielectric constant tensor:
#      x y z
#    x 1.781500 0.000690 -0.008780 
#    y 0.000690 1.834670 -0.030690 
#    z -0.008780 -0.030690 1.766100 
# 
# From -- ./inp_files/519796.got.cif
#   From: 2010.05.17/outbox.cif.g08.bks.cpg/sg2_260_cif.got.tgz:519796.got - 2010.06.03 11:33:40.
