data_PCOD9015291
_publ_section_title
;
Structure prediction by ZEFSAII (Michael W. Deem and Ramdas Pophale) SiO2 
 PCOD9015291
Probable space group: P -1
;
_chemical_formula_sum "Si O2"
_cell_formula_units_Z 16
_cell_length_a 5.443059
_cell_length_b 15.063176
_cell_length_c 9.359716
_cell_angle_alpha 100.389043
_cell_angle_beta 98.669871
_cell_angle_gamma 79.104171
_cell_volume 735.786696
_symmetry_space_group_name_H-M "P -1"
_symmetry_group_IT_number 2
_symmetry_cell_setting 'triclinic'
loop_
_space_group_symop_operation_xyz
x,y,z
-x,-y,-z
loop_
_atom_site_type_symbol
_atom_site_label
_atom_site_fract_x
_atom_site_fract_y
_atom_site_fract_z
Si Si1 0.608605 0.511044 0.241753
Si Si2 0.763340 0.575997 0.979731
Si Si3 0.929510 0.755785 0.122619
Si Si4 0.537348 0.198109 0.718435
Si Si5 0.947302 0.333200 0.315615
Si Si6 0.502353 0.676020 0.505403
Si Si7 0.966626 0.856594 0.898155
Si Si8 0.644722 0.033825 0.886853
O O1 0.399228 0.447793 0.173368
O O2 0.854124 0.434337 0.268783
O O3 0.544824 0.585807 0.380995
O O4 0.612685 0.568956 0.112468
O O5 0.876564 0.667412 0.009274
O O6 0.000000 0.500000 0.000000
O O7 0.745260 0.759860 0.242249
O O8 0.219515 0.761632 0.183689
O O9 0.825692 0.835612 0.025942
O O10 0.545588 0.230552 0.565469
O O11 0.560224 0.095520 0.756434
O O12 0.741547 0.329199 0.421448
O O13 0.234320 0.326233 0.390346
O O14 0.941105 0.240768 0.195952
O O15 0.800930 0.936480 0.817064
O O16 0.189478 0.902793 0.995021
O O17 0.500000 0.000000 0.000000
#
# Coordination Sequence:
#
# PCOD9015291 Si02
#       8
#     2   2   2   2   2   2   2   2
#     4  11  26  43  66 100 134 179 238 277 342 389
#     4  11  24  38  68 102 132 173 215 307 341 387
#     4  11  22  39  70  96 138 165 213 293 345 392
#     4  11  23  43  69 100 131 176 224 271 343 403
#     4  12  29  45  69  93 141 191 230 271 317 409
#     4  12  27  48  65  93 139 197 230 268 316 403
#     4  10  24  42  67 109 132 168 225 274 357 402
#     4  10  21  41  76 103 133 163 209 300 355 405
#
# _framework density 21.745432999999998
#
# number of rings (size 3 to 8) (size 9 to 14) (size 15 to 20)
#    0.000    1.000    2.500    3.000   12.250    0.000 
#    0.000    1.250    0.000    0.000    0.000    0.000 
#    0.000    0.000    0.000    0.000    0.000    0.000 
#
# Total GULP energy -89156.394722 kJ/mol
# GULP energy per Si atom -5572.274670 kJ/mol
# Density = 2.169594 g / cm^3
# Si number density = 21.745433 Si / 1000 Ang^3
#
#
#
# Elastic Constant Matrix: (Units=GPa)
#
#
# Indices 1 2 3 4 5 6 
#
# 1 89.9879 27.3522 12.0744 -8.3481 -2.8110 18.1596
# 2 27.3522 125.0093 30.7491 -22.4470 2.8861 10.6412
# 3 12.0744 30.7491 45.3751 0.9249 -8.3438 5.1310
# 4 -8.3481 -22.4470 0.9249 35.6867 -5.3357 -1.5335
# 5 -2.8110 2.8861 -8.3438 -5.3357 35.3055 -7.3581
# 6 18.1596 10.6412 5.1310 -1.5335 -7.3581 36.2268
#
#
#
# Elastic Compliance Matrix: (Units=1/GPa)
#
#
# Indices 1 2 3 4 5 6 
#
# 1 0.013190 -0.001601 -0.001837 0.001847 -0.000192 -0.005842
# 2 -0.001601 0.011697 -0.007865 0.006775 -0.002272 -0.001694
# 3 -0.001837 -0.007865 0.029160 -0.005126 0.006663 0.000237
# 4 0.001847 0.006775 -0.005126 0.033353 0.003404 -0.000086
# 5 -0.000192 -0.002272 0.006663 0.003404 0.031928 0.006449
# 6 -0.005842 -0.001694 0.000237 -0.000086 0.006449 0.032303
#
#
# Mechanical properties :
#
#
# Convention : Reuss Voigt Hill
#
# Bulk Modulus (GPa) = 31.80560 44.52485 38.16522
# Shear Modulus (GPa) = 27.06829 34.12358 30.59593
#
# Velocity S-wave (km/s) = 3.53197 3.96565 3.75508
# Velocity P-wave (km/s) = 5.59385 6.44115 6.03240
#
# Compressibility (1/GPa) = 0.03144101
#
# Stress axis : x y z
#
# Youngs Moduli (GPa) = 75.81534 85.48894 34.29319
#
# Poissons Ratio (x) = 0.13685 0.06301
# Poissons Ratio (y) = 0.12136 0.26972
# Poissons Ratio (z) = 0.13930 0.67239
#
# Static dielectric constant tensor:
#      x y z
#    x 1.832790 -0.009010 -0.058470 
#    y -0.009010 1.865900 -0.061310 
#    z -0.058470 -0.061310 1.827780 
# 
# From -- ./inp_files/135741.got.cif
#   From: 2010.05.17/outbox.cif.g08.bks.cpg/sg2_68_cif.got.tgz:135741.got - 2010.06.03 11:33:40.
