data_PCOD9015415
_publ_section_title
;
Structure prediction by ZEFSAII (Michael W. Deem and Ramdas Pophale) SiO2 
 PCOD9015415
Probable space group: P -1
;
_chemical_formula_sum "Si O2"
_cell_formula_units_Z 14
_cell_length_a 15.372039
_cell_length_b 5.375524
_cell_length_c 8.669998
_cell_angle_alpha 63.148765
_cell_angle_beta 109.254658
_cell_angle_gamma 118.779400
_cell_volume 554.422039
_symmetry_space_group_name_H-M "P -1"
_symmetry_group_IT_number 2
_symmetry_cell_setting 'triclinic'
loop_
_space_group_symop_operation_xyz
x,y,z
-x,-y,-z
loop_
_atom_site_type_symbol
_atom_site_label
_atom_site_fract_x
_atom_site_fract_y
_atom_site_fract_z
Si Si1 0.349619 0.424708 0.401003
Si Si2 0.387467 0.893320 0.037782
Si Si3 0.490557 0.286992 0.344619
Si Si4 0.050955 0.922417 0.809304
Si Si5 0.351141 0.487622 0.853738
Si Si6 0.078008 0.752428 0.196480
Si Si7 0.195008 0.431498 0.526916
O O1 0.380719 0.258281 0.328728
O O2 0.426839 0.440443 0.581517
O O3 0.241855 0.316384 0.443406
O O4 0.375655 0.747081 0.241291
O O5 0.329719 0.619729 0.961739
O O6 0.339326 0.141429 0.938578
O O7 0.500000 0.000000 0.000000
O O8 0.533066 0.346783 0.182778
O O9 0.500000 0.000000 0.500000
O O10 0.003490 0.586239 0.802251
O O11 0.112916 0.159040 0.649305
O O12 0.111536 0.906123 0.004609
O O13 0.969622 0.046112 0.794249
O O14 0.285863 0.565862 0.663702
O O15 0.155147 0.672530 0.368242
#
# Coordination Sequence:
#
# PCOD9015415 Si02
#       7
#     2   2   2   2   2   2   2
#     4  10  24  40  64  97 135 180 232 285 351 400
#     4  12  24  46  67  95 134 194 242 286 339 408
#     4  10  21  42  62  90 132 188 228 283 339 419
#     4  10  23  47  76 104 141 177 233 273 349 436
#     4  11  27  41  69  97 137 180 238 292 340 400
#     4  10  23  47  76 104 135 189 222 278 350 435
#     4  11  25  46  69 109 143 179 226 301 351 408
#
# _framework density 25.251521
#
# number of rings (size 3 to 8) (size 9 to 14) (size 15 to 20)
#    0.000    1.429    1.429    2.143    8.000    2.286 
#   10.286    0.000    0.000    0.000    0.000    0.000 
#    0.000    0.000    0.000    0.000    0.000    0.000 
#
# Total GULP energy -78284.196813 kJ/mol
# GULP energy per Si atom -5591.728344 kJ/mol
# Density = 2.519405 g / cm^3
# Si number density = 25.251521 Si / 1000 Ang^3
#
#
#
# Elastic Constant Matrix: (Units=GPa)
#
#
# Indices 1 2 3 4 5 6 
#
# 1 82.1472 21.3742 53.9998 -5.3419 -12.6320 -7.6703
# 2 21.3742 84.7576 28.0794 1.4786 -2.9564 -30.7086
# 3 53.9998 28.0794 190.7614 -5.1003 13.7261 -8.1510
# 4 -5.3419 1.4786 -5.1003 38.6988 -9.2266 3.3566
# 5 -12.6320 -2.9564 13.7261 -9.2266 42.8099 -2.1090
# 6 -7.6703 -30.7086 -8.1510 3.3566 -2.1090 30.5527
#
#
#
# Elastic Compliance Matrix: (Units=1/GPa)
#
#
# Indices 1 2 3 4 5 6 
#
# 1 0.017520 -0.002201 -0.005035 0.003529 0.007440 0.000969
# 2 -0.002201 0.020131 -0.001692 -0.002596 0.001691 0.019632
# 3 -0.005035 -0.001692 0.007140 -0.000549 -0.004073 -0.001281
# 4 0.003529 -0.002596 -0.000549 0.028400 0.006937 -0.004511
# 5 0.007440 0.001691 -0.004073 0.006937 0.028654 0.003697
# 6 0.000969 0.019632 -0.001281 -0.004511 0.003697 0.053114
#
#
# Mechanical properties :
#
#
# Convention : Reuss Voigt Hill
#
# Bulk Modulus (GPa) = 37.12779 62.73034 49.92907
# Shear Modulus (GPa) = 27.50353 39.35981 33.43167
#
# Velocity S-wave (km/s) = 3.30386 3.95233 3.64256
# Velocity P-wave (km/s) = 5.41194 6.76196 6.12426
#
# Compressibility (1/GPa) = 0.02693400
#
# Stress axis : x y z
#
# Youngs Moduli (GPa) = 57.07810 49.67420 140.05137
#
# Poissons Ratio (x) = 0.10934 0.70517
# Poissons Ratio (y) = 0.12564 0.23702
# Poissons Ratio (z) = 0.28739 0.08407
#
# Static dielectric constant tensor:
#      x y z
#    x 1.982840 0.053690 0.013060 
#    y 0.053690 2.113880 0.064370 
#    z 0.013060 0.064370 2.039050 
# 
# From -- ./inp_files/288398.got.cif
#   From: 2010.05.17/outbox.cif.g08.bks.cpg/sg2_145_cif.got.tgz:288398.got - 2010.06.03 11:33:40.
