data_PCOD9015238
_publ_section_title
;
Structure prediction by ZEFSAII (Michael W. Deem and Ramdas Pophale) SiO2 
 PCOD9015238
Probable space group: P -1
;
_chemical_formula_sum "Si O2"
_cell_formula_units_Z 15
_cell_length_a 18.054909
_cell_length_b 11.455775
_cell_length_c 14.441778
_cell_angle_alpha 46.346176
_cell_angle_beta 151.282930
_cell_angle_gamma 150.742657
_cell_volume 664.878615
_symmetry_space_group_name_H-M "P -1"
_symmetry_group_IT_number 2
_symmetry_cell_setting 'triclinic'
loop_
_space_group_symop_operation_xyz
x,y,z
-x,-y,-z
loop_
_atom_site_type_symbol
_atom_site_label
_atom_site_fract_x
_atom_site_fract_y
_atom_site_fract_z
Si Si1 0.937893 0.080244 0.307137
Si Si2 0.916915 0.425333 0.060044
Si Si3 0.583803 0.506884 0.489904
Si Si4 0.533183 0.940982 0.333958
Si Si5 0.334615 0.968817 0.267284
Si Si6 0.000000 0.500000 0.500000
Si Si7 0.258044 0.253151 0.103956
Si Si8 0.412927 0.574427 0.930821
O O1 0.139201 0.222708 0.369947
O O2 0.972413 0.301299 0.240931
O O3 0.000000 0.000000 0.500000
O O4 0.666365 0.842693 0.103799
O O5 0.060454 0.683034 0.126428
O O6 0.630871 0.209757 0.854893
O O7 0.000000 0.500000 0.000000
O O8 0.500000 0.500000 0.500000
O O9 0.521366 0.265883 0.554975
O O10 0.432288 0.449742 0.269197
O O11 0.423042 0.993387 0.248927
O O12 0.806670 0.195044 0.470780
O O13 0.500000 0.000000 0.500000
O O14 0.356003 0.169892 0.208201
O O15 0.774687 0.446293 0.302655
O O16 0.263539 0.387665 0.956743
O O17 0.000000 0.000000 0.000000
O O18 0.500000 0.500000 0.000000
#
# Coordination Sequence:
#
# PCOD9015238 Si02
#       8
#     2   2   2   2   2   1   2   2
#     4  12  24  49  74 111 157 201 267 330 396 476
#     4  10  21  41  73 105 139 197 259 311 386 472
#     4  12  27  46  75 110 155 205 260 327 398 479
#     4  11  23  44  73 108 143 203 262 313 391 469
#     4  11  22  43  73 104 144 191 255 324 381 464
#     4  12  26  50  72 112 160 200 268 328 386 484
#     4  12  27  47  72 116 152 199 263 327 396 473
#     4  12  29  48  79 112 157 212 257 328 409 474
#
# _framework density 22.560510000000001
#
# number of rings (size 3 to 8) (size 9 to 14) (size 15 to 20)
#    0.000    0.533    6.667    1.600    7.467    0.000 
#    0.000    0.000    0.000    4.000    0.000    0.000 
#    0.000    0.000    0.000    0.000    0.000    0.000 
#
# Total GULP energy -83504.792016 kJ/mol
# GULP energy per Si atom -5566.986134 kJ/mol
# Density = 2.250916 g / cm^3
# Si number density = 22.560510 Si / 1000 Ang^3
#
#
#
# Elastic Constant Matrix: (Units=GPa)
#
#
# Indices 1 2 3 4 5 6 
#
# 1 66.3568 24.4554 20.4773 13.5506 8.5848 -1.9130
# 2 24.4554 118.5096 32.8234 19.5484 6.1655 27.5774
# 3 20.4773 32.8234 107.8909 20.8015 12.6870 5.7680
# 4 13.5506 19.5484 20.8015 57.2610 7.6405 8.4570
# 5 8.5848 6.1655 12.6870 7.6405 31.9795 8.9298
# 6 -1.9130 27.5774 5.7680 8.4570 8.9298 37.5937
#
#
#
# Elastic Compliance Matrix: (Units=1/GPa)
#
#
# Indices 1 2 3 4 5 6 
#
# 1 0.018320 -0.004036 -0.001514 -0.002660 -0.004523 0.005798
# 2 -0.004036 0.012149 -0.002499 -0.001290 0.002569 -0.009054
# 3 -0.001514 -0.002499 0.011130 -0.002601 -0.003302 0.001418
# 4 -0.002660 -0.001290 -0.002601 0.020170 -0.002030 -0.002845
# 5 -0.004523 0.002569 -0.003302 -0.002030 0.036528 -0.009828
# 6 0.005798 -0.009054 0.001418 -0.002845 -0.009828 0.036294
#
#
# Mechanical properties :
#
#
# Convention : Reuss Voigt Hill
#
# Bulk Modulus (GPa) = 39.21601 49.80773 44.51187
# Shear Modulus (GPa) = 31.40854 39.70028 35.55441
#
# Velocity S-wave (km/s) = 3.73526 4.19946 3.97414
# Velocity P-wave (km/s) = 6.00193 6.75568 6.38993
#
# Compressibility (1/GPa) = 0.02549979
#
# Stress axis : x y z
#
# Youngs Moduli (GPa) = 54.58391 82.30847 89.84468
#
# Poissons Ratio (x) = 0.33222 0.13607
# Poissons Ratio (y) = 0.22031 0.22456
# Poissons Ratio (z) = 0.08267 0.20573
#
# Static dielectric constant tensor:
#      x y z
#    x 1.849660 0.003800 -0.004560 
#    y 0.003800 1.917430 -0.045250 
#    z -0.004560 -0.045250 1.898820 
# 
# From -- ./inp_files/538233.got.cif
#   From: 2010.05.17/outbox.cif.g08.bks.cpg/sg2_270_cif.got.tgz:538233.got - 2010.06.03 11:33:40.
