data_PCOD9015383
_publ_section_title
;
Structure prediction by ZEFSAII (Michael W. Deem and Ramdas Pophale) SiO2 
 PCOD9015383
Probable space group: P -1
;
_chemical_formula_sum "Si O2"
_cell_formula_units_Z 12
_cell_length_a 6.960281
_cell_length_b 9.045433
_cell_length_c 14.288854
_cell_angle_alpha 126.986806
_cell_angle_beta 76.862581
_cell_angle_gamma 130.120201
_cell_volume 530.212546
_symmetry_space_group_name_H-M "P -1"
_symmetry_group_IT_number 2
_symmetry_cell_setting 'triclinic'
loop_
_space_group_symop_operation_xyz
x,y,z
-x,-y,-z
loop_
_atom_site_type_symbol
_atom_site_label
_atom_site_fract_x
_atom_site_fract_y
_atom_site_fract_z
Si Si1 0.510185 0.458324 0.759653
Si Si2 0.014303 0.963597 0.838143
Si Si3 0.240164 0.106821 0.338401
Si Si4 0.772319 0.579833 0.392065
Si Si5 0.679399 0.174136 0.633109
Si Si6 0.643792 0.915313 0.997783
O O1 0.784255 0.669810 0.755598
O O2 0.288292 0.328535 0.656327
O O3 0.556468 0.285823 0.730345
O O4 0.487072 0.627367 0.889596
O O5 0.991773 0.039636 0.767666
O O6 0.906561 0.051074 0.957358
O O7 0.266482 0.029858 0.883574
O O8 0.515582 0.299792 0.327478
O O9 0.200114 0.267018 0.465123
O O10 0.284723 0.961943 0.345732
O O11 0.030238 0.622629 0.362142
O O12 0.500000 0.000000 0.500000
O O13 0.500000 0.000000 0.000000
#
# Coordination Sequence:
#
# PCOD9015383 Si02
#       6
#     2   2   2   2   2   2
#     4   9  20  37  59  92 122 162 212 246 313 372
#     4   8  19  37  60  90 121 153 214 258 297 379
#     4  10  21  42  61  95 126 164 215 248 307 373
#     4  10  22  41  61  88 132 167 207 254 303 375
#     4  12  24  39  61  95 135 169 195 256 318 366
#     4   9  18  37  64  87 117 164 210 257 315 356
#
# _framework density 22.632435999999998
#
# number of rings (size 3 to 8) (size 9 to 14) (size 15 to 20)
#    1.000    1.333    1.667    0.500    2.333    0.667 
#    3.000    0.833    0.000    2.000    0.000    0.000 
#    0.000    0.000    0.000    0.000    0.000    0.000 
#
# Total GULP energy -66927.201170 kJ/mol
# GULP energy per Si atom -5577.266764 kJ/mol
# Density = 2.258092 g / cm^3
# Si number density = 22.632436 Si / 1000 Ang^3
#
#
#
# Elastic Constant Matrix: (Units=GPa)
#
#
# Indices 1 2 3 4 5 6 
#
# 1 188.7803 49.3908 65.4041 -1.1718 18.6720 -28.0019
# 2 49.3908 60.1500 20.4983 -6.1458 7.6188 -13.9640
# 3 65.4041 20.4983 100.6425 -13.8907 35.3213 -23.3018
# 4 -1.1718 -6.1458 -13.8907 24.3450 -13.4784 6.0973
# 5 18.6720 7.6188 35.3213 -13.4784 40.0603 -3.8524
# 6 -28.0019 -13.9640 -23.3018 6.0973 -3.8524 42.7920
#
#
#
# Elastic Compliance Matrix: (Units=1/GPa)
#
#
# Indices 1 2 3 4 5 6 
#
# 1 0.008565 -0.005443 -0.004515 -0.004122 -0.000176 0.001942
# 2 -0.005443 0.022189 0.000503 0.004676 -0.000239 0.003265
# 3 -0.004515 0.000503 0.019303 0.001701 -0.013839 0.006232
# 4 -0.004122 0.004676 0.001701 0.054115 0.017123 -0.006414
# 5 -0.000176 -0.000239 -0.013839 0.017123 0.042442 -0.006348
# 6 0.001942 0.003265 0.006232 -0.006414 -0.006348 0.029441
#
#
# Mechanical properties :
#
#
# Convention : Reuss Voigt Hill
#
# Bulk Modulus (GPa) = 32.10575 68.90659 50.50617
# Shear Modulus (GPa) = 24.34908 35.72478 30.03693
#
# Velocity S-wave (km/s) = 3.28357 3.97732 3.64698
# Velocity P-wave (km/s) = 5.34718 7.18360 6.33231
#
# Compressibility (1/GPa) = 0.03114707
#
# Stress axis : x y z
#
# Youngs Moduli (GPa) = 116.75036 45.06769 51.80671
#
# Poissons Ratio (x) = 0.24528 0.23393
# Poissons Ratio (y) = 0.63542 -0.02606
# Poissons Ratio (z) = 0.52717 -0.02267
#
# Static dielectric constant tensor:
#      x y z
#    x 1.825680 0.028300 0.005240 
#    y 0.028300 1.934840 -0.032910 
#    z 0.005240 -0.032910 1.862280 
# 
# From -- ./inp_files/480079.got.cif
#   From: 2010.05.17/outbox.cif.g08.bks.cpg/sg2_241_cif.got.tgz:480079.got - 2010.06.03 11:33:40.
