data_PCOD9015040
_publ_section_title
;
Structure prediction by ZEFSAII (Michael W. Deem and Ramdas Pophale) SiO2 
 PCOD9015040
Probable space group: P -1
;
_chemical_formula_sum "Si O2"
_cell_formula_units_Z 14
_cell_length_a 11.502014
_cell_length_b 9.158628
_cell_length_c 9.987523
_cell_angle_alpha 34.438840
_cell_angle_beta 83.449512
_cell_angle_gamma 84.963118
_cell_volume 591.075764
_symmetry_space_group_name_H-M "P -1"
_symmetry_group_IT_number 2
_symmetry_cell_setting 'triclinic'
loop_
_space_group_symop_operation_xyz
x,y,z
-x,-y,-z
loop_
_atom_site_type_symbol
_atom_site_label
_atom_site_fract_x
_atom_site_fract_y
_atom_site_fract_z
Si Si1 0.833085 0.578665 0.307171
Si Si2 0.947822 0.201773 0.246051
Si Si3 0.673461 0.918867 0.899675
Si Si4 0.290307 0.596716 0.292235
Si Si5 0.717858 0.148130 0.465604
Si Si6 0.057132 0.791151 0.056364
Si Si7 0.502876 0.474164 0.180371
O O1 0.782918 0.586067 0.457450
O O2 0.772230 0.337978 0.426357
O O3 0.970669 0.551802 0.284743
O O4 0.781280 0.809531 0.052071
O O5 0.809076 0.183481 0.308592
O O6 0.963456 0.108889 0.164478
O O7 0.000000 0.000000 0.500000
O O8 0.000000 0.500000 0.000000
O O9 0.648839 0.186374 0.781032
O O10 0.709652 0.902928 0.748614
O O11 0.564196 0.722282 0.057636
O O12 0.190150 0.727892 0.116689
O O13 0.379762 0.454395 0.289560
O O14 0.588846 0.237365 0.378498
O O15 0.000000 0.000000 0.000000
O O16 0.500000 0.500000 0.000000
#
# Coordination Sequence:
#
# PCOD9015040 Si02
#       7
#     2   2   2   2   2   2   2
#     4  10  21  41  70  98 137 179 232 294 359 430
#     4  12  27  46  77 108 150 198 246 294 374 439
#     4  10  22  43  70  94 137 176 234 289 364 422
#     4  11  24  41  69 100 132 185 234 289 363 429
#     4  10  23  44  70  99 137 183 235 294 357 435
#     4  12  24  44  69 107 146 185 241 307 361 435
#     4  11  25  45  66  96 137 178 238 295 361 437
#
# _framework density 23.685627
#
# number of rings (size 3 to 8) (size 9 to 14) (size 15 to 20)
#    0.000    1.143    2.857    2.571    4.000    8.000 
#    2.571    0.000    0.000    0.000    0.000    0.000 
#    0.000    0.000    0.000    0.000    0.000    0.000 
#
# Total GULP energy -78062.487027 kJ/mol
# GULP energy per Si atom -5575.891930 kJ/mol
# Density = 2.363172 g / cm^3
# Si number density = 23.685627 Si / 1000 Ang^3
#
#
#
# Elastic Constant Matrix: (Units=GPa)
#
#
# Indices 1 2 3 4 5 6 
#
# 1 120.7853 40.5970 39.9986 17.7242 -2.7188 -14.6020
# 2 40.5970 97.0218 43.0083 41.6754 2.7103 -17.2345
# 3 39.9986 43.0083 122.7731 37.7875 5.0821 -8.1451
# 4 17.7242 41.6754 37.7875 41.7899 -5.7460 -8.2687
# 5 -2.7188 2.7103 5.0821 -5.7460 27.6522 13.5526
# 6 -14.6020 -17.2345 -8.1451 -8.2687 13.5526 39.2332
#
#
#
# Elastic Compliance Matrix: (Units=1/GPa)
#
#
# Indices 1 2 3 4 5 6 
#
# 1 0.010381 -0.004057 -0.002758 0.002669 0.001763 0.001462
# 2 -0.004057 0.022597 0.001102 -0.021786 -0.011232 0.007934
# 3 -0.002758 0.001102 0.012673 -0.011885 -0.005988 0.001652
# 4 0.002669 -0.021786 -0.011885 0.056778 0.019175 -0.005701
# 5 0.001763 -0.011232 -0.005988 0.019175 0.052062 -0.019464
# 6 0.001462 0.007934 0.001652 -0.005701 -0.019464 0.035383
#
#
# Mechanical properties :
#
#
# Convention : Reuss Voigt Hill
#
# Bulk Modulus (GPa) = 29.21812 65.30977 47.26394
# Shear Modulus (GPa) = 23.50640 36.20017 29.85329
#
# Velocity S-wave (km/s) = 3.15371 3.91367 3.55406
# Velocity P-wave (km/s) = 5.06199 6.93223 6.06958
#
# Compressibility (1/GPa) = 0.03422534
#
# Stress axis : x y z
#
# Youngs Moduli (GPa) = 96.33020 44.25404 78.90723
#
# Poissons Ratio (x) = 0.17953 0.21765
# Poissons Ratio (y) = 0.39080 -0.08699
# Poissons Ratio (z) = 0.26570 -0.04878
#
# Static dielectric constant tensor:
#      x y z
#    x 1.922630 -0.021960 -0.073790 
#    y -0.021960 1.924940 0.021240 
#    z -0.073790 0.021240 2.073880 
# 
# From -- ./inp_files/56302.got.cif
#   From: 2010.05.17/outbox.cif.g08.bks.cpg/sg2_29_cif.got.tgz:56302.got - 2010.06.03 11:33:40.
