data_PCOD9015226
_publ_section_title
;
Structure prediction by ZEFSAII (Michael W. Deem and Ramdas Pophale) SiO2 
 PCOD9015226
Probable space group: P -1
;
_chemical_formula_sum "Si O2"
_cell_formula_units_Z 12
_cell_length_a 9.100345
_cell_length_b 10.473204
_cell_length_c 15.914189
_cell_angle_alpha 154.429756
_cell_angle_beta 55.018466
_cell_angle_gamma 113.497812
_cell_volume 505.411894
_symmetry_space_group_name_H-M "P -1"
_symmetry_group_IT_number 2
_symmetry_cell_setting 'triclinic'
loop_
_space_group_symop_operation_xyz
x,y,z
-x,-y,-z
loop_
_atom_site_type_symbol
_atom_site_label
_atom_site_fract_x
_atom_site_fract_y
_atom_site_fract_z
Si Si1 0.363964 0.320670 0.471521
Si Si2 0.176761 0.849494 0.417806
Si Si3 0.667919 0.713655 0.086715
Si Si4 0.985060 0.525641 0.420517
Si Si5 0.076104 0.812819 0.979461
Si Si6 0.212242 0.419689 0.847691
O O1 0.500000 0.500000 0.500000
O O2 0.232667 0.278678 0.414599
O O3 0.245234 0.116868 0.596956
O O4 0.203083 0.545981 0.718021
O O5 0.495922 0.012988 0.291100
O O6 0.109723 0.687591 0.422942
O O7 0.314112 0.578088 0.153408
O O8 0.000000 0.000000 0.500000
O O9 0.867079 0.786684 0.048102
O O10 0.949795 0.844374 0.843145
O O11 0.000000 0.500000 0.500000
O O12 0.665645 0.642401 0.144573
O O13 0.195212 0.716138 0.970139
O O14 0.000000 0.500000 0.000000
#
# Coordination Sequence:
#
# PCOD9015226 Si02
#       6
#     2   2   2   2   2   2
#     4  12  24  42  69 102 135 184 231 282 352 408
#     4  12  22  42  71  99 139 184 227 283 345 411
#     4  11  23  43  72  97 141 178 233 281 348 408
#     4  12  25  43  72 102 139 180 235 287 344 414
#     4  11  22  46  69  97 139 186 225 281 350 414
#     4  10  21  41  73 100 135 186 230 276 354 415
#
# _framework density 23.743012
#
# number of rings (size 3 to 8) (size 9 to 14) (size 15 to 20)
#    0.000    0.667    6.667    3.500    0.000    0.667 
#    3.000    5.000    0.000    0.000    0.000    0.000 
#    0.000    0.000    0.000    0.000    0.000    0.000 
#
# Total GULP energy -67162.493944 kJ/mol
# GULP energy per Si atom -5596.874495 kJ/mol
# Density = 2.368897 g / cm^3
# Si number density = 23.743012 Si / 1000 Ang^3
#
#
#
# Elastic Constant Matrix: (Units=GPa)
#
#
# Indices 1 2 3 4 5 6 
#
# 1 139.6472 60.9500 71.4515 8.3186 -2.4503 -48.7120
# 2 60.9500 177.4781 42.4006 10.4328 -5.7305 -33.2557
# 3 71.4515 42.4006 157.9162 16.9659 -4.6566 -29.8024
# 4 8.3186 10.4328 16.9659 42.6451 -9.9828 0.2069
# 5 -2.4503 -5.7305 -4.6566 -9.9828 42.1555 6.1426
# 6 -48.7120 -33.2557 -29.8024 0.2069 6.1426 59.6089
#
#
#
# Elastic Compliance Matrix: (Units=1/GPa)
#
#
# Indices 1 2 3 4 5 6 
#
# 1 0.012540 -0.002032 -0.003681 -0.000807 -0.001224 0.007402
# 2 -0.002032 0.006869 -0.000439 -0.001064 0.000234 0.001932
# 3 -0.003681 -0.000439 0.008595 -0.002623 -0.000100 0.001064
# 4 -0.000807 -0.001064 -0.002623 0.026389 0.006249 -0.003300
# 5 -0.001224 0.000234 -0.000100 0.006249 0.025674 -0.003587
# 6 0.007402 0.001932 0.001064 -0.003300 -0.003587 0.024816
#
#
# Mechanical properties :
#
#
# Convention : Reuss Voigt Hill
#
# Bulk Modulus (GPa) = 63.69107 91.62731 77.65919
# Shear Modulus (GPa) = 40.84267 48.89784 44.87026
#
# Velocity S-wave (km/s) = 4.15203 4.54305 4.35193
# Velocity P-wave (km/s) = 7.06181 8.13598 7.61785
#
# Compressibility (1/GPa) = 0.01570079
#
# Stress axis : x y z
#
# Youngs Moduli (GPa) = 79.74629 145.57355 116.34193
#
# Poissons Ratio (x) = 0.29583 0.42820
# Poissons Ratio (y) = 0.16206 0.05109
# Poissons Ratio (z) = 0.29351 0.06393
#
# Static dielectric constant tensor:
#      x y z
#    x 2.298230 0.019560 0.104860 
#    y 0.019560 1.890090 0.032710 
#    z 0.104860 0.032710 1.824660 
# 
# From -- ./inp_files/513782.got.cif
#   From: 2010.05.17/outbox.cif.g08.bks.cpg/sg2_257_cif.got.tgz:513782.got - 2010.06.03 11:33:40.
