data_PCOD9015837
_publ_section_title
;
Structure prediction by ZEFSAII (Michael W. Deem and Ramdas Pophale) SiO2 
 PCOD9015837
Probable space group: P -1
;
_chemical_formula_sum "Si O2"
_cell_formula_units_Z 16
_cell_length_a 10.767067
_cell_length_b 13.379440
_cell_length_c 11.406959
_cell_angle_alpha 145.691464
_cell_angle_beta 86.683952
_cell_angle_gamma 68.853414
_cell_volume 635.871162
_symmetry_space_group_name_H-M "P -1"
_symmetry_group_IT_number 2
_symmetry_cell_setting 'triclinic'
loop_
_space_group_symop_operation_xyz
x,y,z
-x,-y,-z
loop_
_atom_site_type_symbol
_atom_site_label
_atom_site_fract_x
_atom_site_fract_y
_atom_site_fract_z
Si Si1 0.054177 0.602440 0.008211
Si Si2 0.483582 0.926241 0.063678
Si Si3 0.200251 0.328697 0.065224
Si Si4 0.761055 0.124224 0.646690
Si Si5 0.996336 0.703044 0.639821
Si Si6 0.300715 0.794059 0.001073
Si Si7 0.691378 0.571308 0.482679
Si Si8 0.387037 0.343634 0.860819
O O1 0.945547 0.877593 0.336432
O O2 0.949002 0.660037 0.951928
O O3 0.000000 0.500000 0.000000
O O4 0.269019 0.408450 0.815422
O O5 0.460017 0.771897 0.989704
O O6 0.307419 0.232387 0.383198
O O7 0.641359 0.891318 0.069019
O O8 0.549344 0.773560 0.789212
O O9 0.099583 0.580328 0.391208
O O10 0.306084 0.299421 0.920924
O O11 0.785051 0.123298 0.784630
O O12 0.603486 0.138398 0.644544
O O13 0.681271 0.386100 0.850990
O O14 0.123271 0.669781 0.694692
O O15 0.000000 0.500000 0.500000
O O16 0.816123 0.990857 0.888268
O O17 0.355438 0.544275 0.709432
#
# Coordination Sequence:
#
# PCOD9015837 Si02
#       8
#     2   2   2   2   2   2   2   2
#     4  10  22  41  63  93 130 175 222 271 337 394
#     4  10  21  42  65  92 134 167 221 275 325 405
#     4  10  22  43  65  91 132 180 212 274 345 391
#     4  11  24  41  66  99 134 174 229 279 327 405
#     4  11  23  42  65  95 135 170 222 280 335 405
#     4  12  22  41  65  95 131 172 218 278 334 391
#     4  10  23  41  65  94 127 176 219 267 341 400
#     4  10  22  43  64  91 134 174 221 278 330 395
#
# _framework density 25.162329
#
# number of rings (size 3 to 8) (size 9 to 14) (size 15 to 20)
#    0.000    1.500    2.500    2.625    0.000    5.000 
#    6.750    1.250    0.000    0.000    0.000    0.000 
#    0.000    0.000    0.000    0.000    0.000    0.000 
#
# Total GULP energy -89265.057036 kJ/mol
# GULP energy per Si atom -5579.066065 kJ/mol
# Density = 2.510506 g / cm^3
# Si number density = 25.162329 Si / 1000 Ang^3
#
#
#
# Elastic Constant Matrix: (Units=GPa)
#
#
# Indices 1 2 3 4 5 6 
#
# 1 101.4720 41.3641 44.8916 -8.1067 10.8148 -27.2839
# 2 41.3641 104.7866 43.0459 -4.0873 4.7815 -20.4823
# 3 44.8916 43.0459 87.1128 4.8103 19.3275 -4.4022
# 4 -8.1067 -4.0873 4.8103 37.2388 -3.5439 3.2437
# 5 10.8148 4.7815 19.3275 -3.5439 40.6086 0.5816
# 6 -27.2839 -20.4823 -4.4022 3.2437 0.5816 51.5558
#
#
#
# Elastic Compliance Matrix: (Units=1/GPa)
#
#
# Indices 1 2 3 4 5 6 
#
# 1 0.015897 -0.001906 -0.006994 0.003514 -0.000472 0.006843
# 2 -0.001906 0.013460 -0.005990 0.001692 0.001868 0.003700
# 3 -0.006994 -0.005990 0.019719 -0.005064 -0.007202 -0.003997
# 4 0.003514 0.001692 -0.005064 0.028797 0.003785 0.000245
# 5 -0.000472 0.001868 -0.007202 0.003785 0.028299 -0.000680
# 6 0.006843 0.003700 -0.003997 0.000245 -0.000680 0.024138
#
#
# Mechanical properties :
#
#
# Convention : Reuss Voigt Hill
#
# Bulk Modulus (GPa) = 51.82332 61.33051 56.57691
# Shear Modulus (GPa) = 30.02599 36.81861 33.42230
#
# Velocity S-wave (km/s) = 3.45815 3.82939 3.64849
# Velocity P-wave (km/s) = 6.04859 6.63168 6.34683
#
# Compressibility (1/GPa) = 0.01929633
#
# Stress axis : x y z
#
# Youngs Moduli (GPa) = 62.90536 74.29305 50.71292
#
# Poissons Ratio (x) = 0.14161 0.35467
# Poissons Ratio (y) = 0.11991 0.30377
# Poissons Ratio (z) = 0.43995 0.44501
#
# Static dielectric constant tensor:
#      x y z
#    x 1.475720 -0.134940 -0.292940 
#    y -0.134940 2.158960 -0.024060 
#    z -0.292940 -0.024060 1.792690 
# 
# From -- ./inp_files/434379.got.cif
#   From: 2010.05.17/outbox.cif.g08.bks.cpg/sg2_218_cif.got.tgz:434379.got - 2010.06.03 11:33:40.
