data_PCOD9015743
_publ_section_title
;
Structure prediction by ZEFSAII (Michael W. Deem and Ramdas Pophale) SiO2 
 PCOD9015743
Probable space group: P -1
;
_chemical_formula_sum "Si O2"
_cell_formula_units_Z 16
_cell_length_a 13.722113
_cell_length_b 8.641719
_cell_length_c 19.334764
_cell_angle_alpha 53.126789
_cell_angle_beta 23.309160
_cell_angle_gamma 51.678290
_cell_volume 708.298573
_symmetry_space_group_name_H-M "P -1"
_symmetry_group_IT_number 2
_symmetry_cell_setting 'triclinic'
loop_
_space_group_symop_operation_xyz
x,y,z
-x,-y,-z
loop_
_atom_site_type_symbol
_atom_site_label
_atom_site_fract_x
_atom_site_fract_y
_atom_site_fract_z
Si Si1 0.850193 0.465284 0.387140
Si Si2 0.247545 0.877769 0.535093
Si Si3 0.529037 0.642645 0.226423
Si Si4 0.698373 0.131467 0.815576
Si Si5 0.437610 0.309990 0.060383
Si Si6 0.179272 0.755104 0.928454
Si Si7 0.247774 0.134536 0.723022
Si Si8 0.410919 0.996867 0.834185
O O1 0.760991 0.350848 0.410627
O O2 0.655271 0.444895 0.579641
O O3 0.848099 0.695831 0.315351
O O4 0.136058 0.342402 0.242792
O O5 0.454317 0.892107 0.453926
O O6 0.349542 0.962207 0.375732
O O7 0.973083 0.012158 0.688743
O O8 0.344781 0.789539 0.254630
O O9 0.693446 0.461550 0.123301
O O10 0.686937 0.778764 0.129645
O O11 0.590624 0.306757 0.890359
O O12 0.500000 0.000000 0.000000
O O13 0.537641 0.131585 0.095481
O O14 0.500000 0.500000 0.000000
O O15 0.303080 0.852813 0.887504
O O16 0.186689 0.916969 0.819565
O O17 0.897670 0.771628 0.136948
#
# Coordination Sequence:
#
# PCOD9015743 Si02
#       8
#     2   2   2   2   2   2   2   2
#     4  11  22  40  64  95 132 170 216 260 321 383
#     4  10  22  40  66  93 130 170 210 267 320 382
#     4  11  23  41  70  97 126 169 213 269 328 376
#     4  12  22  40  66  96 124 161 211 269 322 380
#     4  12  24  38  65  98 130 168 208 270 326 383
#     4  10  23  44  69  93 132 170 216 266 314 380
#     4  10  22  43  64  91 133 176 212 262 316 375
#     4  10  21  42  64  99 130 165 212 265 330 378
#
# _framework density 22.589345000000002
#
# number of rings (size 3 to 8) (size 9 to 14) (size 15 to 20)
#    0.000    1.250    2.500    3.375    0.000    4.500 
#    0.000   18.125    0.000    0.000    0.000    0.000 
#    0.000    0.000    0.000    0.000    0.000    0.000 
#
# Total GULP energy -89172.591641 kJ/mol
# GULP energy per Si atom -5573.286978 kJ/mol
# Density = 2.253793 g / cm^3
# Si number density = 22.589345 Si / 1000 Ang^3
#
#
#
# Elastic Constant Matrix: (Units=GPa)
#
#
# Indices 1 2 3 4 5 6 
#
# 1 58.5487 35.3478 10.9324 -0.7633 4.0061 11.6163
# 2 35.3478 119.5928 33.0254 0.5168 -4.4792 6.5742
# 3 10.9324 33.0254 63.6832 9.5333 -17.5114 2.6536
# 4 -0.7633 0.5168 9.5333 43.9089 -10.0689 7.7778
# 5 4.0061 -4.4792 -17.5114 -10.0689 25.2187 -10.0999
# 6 11.6163 6.5742 2.6536 7.7778 -10.0999 39.9619
#
#
#
# Elastic Compliance Matrix: (Units=1/GPa)
#
#
# Indices 1 2 3 4 5 6 
#
# 1 0.023746 -0.005962 -0.003587 0.000331 -0.010561 -0.008417
# 2 -0.005962 0.011537 -0.005157 0.000826 -0.000276 -0.000053
# 3 -0.003587 -0.005157 0.023894 -0.002093 0.017463 0.005125
# 4 0.000331 0.000826 -0.002093 0.025518 0.007569 -0.003147
# 5 -0.010561 -0.000276 0.017463 0.007569 0.063000 0.016405
# 6 -0.008417 -0.000053 0.005125 -0.003147 0.016405 0.031898
#
#
# Mechanical properties :
#
#
# Convention : Reuss Voigt Hill
#
# Bulk Modulus (GPa) = 33.59670 44.49288 39.04479
# Shear Modulus (GPa) = 22.83866 32.65249 27.74558
#
# Velocity S-wave (km/s) = 3.18313 3.80607 3.50846
# Velocity P-wave (km/s) = 5.33056 6.24933 5.80814
#
# Compressibility (1/GPa) = 0.02976483
#
# Stress axis : x y z
#
# Youngs Moduli (GPa) = 42.11204 86.67771 41.85088
#
# Poissons Ratio (x) = 0.51679 0.15014
# Poissons Ratio (y) = 0.25108 0.21581
# Poissons Ratio (z) = 0.15107 0.44697
#
# Static dielectric constant tensor:
#      x y z
#    x 1.655850 -0.073460 0.011650 
#    y -0.073460 1.833080 -0.000030 
#    z 0.011650 -0.000030 1.799790 
# 
# From -- ./inp_files/597318.got.cif
#   From: 2010.05.17/outbox.cif.g08.bks.cpg/sg2_299_cif.got.tgz:597318.got - 2010.06.03 11:33:40.
