data_PCOD9015951
_publ_section_title
;
Structure prediction by ZEFSAII (Michael W. Deem and Ramdas Pophale) SiO2 
 PCOD9015951
Probable space group: P -1
;
_chemical_formula_sum "Si O2"
_cell_formula_units_Z 14
_cell_length_a 6.977257
_cell_length_b 11.324160
_cell_length_c 12.628021
_cell_angle_alpha 110.199295
_cell_angle_beta 49.347615
_cell_angle_gamma 83.556876
_cell_volume 625.722633
_symmetry_space_group_name_H-M "P -1"
_symmetry_group_IT_number 2
_symmetry_cell_setting 'triclinic'
loop_
_space_group_symop_operation_xyz
x,y,z
-x,-y,-z
loop_
_atom_site_type_symbol
_atom_site_label
_atom_site_fract_x
_atom_site_fract_y
_atom_site_fract_z
Si Si1 0.656316 0.689523 0.088938
Si Si2 0.572990 0.772908 0.500773
Si Si3 0.697302 0.542371 0.229860
Si Si4 0.899893 0.900357 0.763914
Si Si5 0.484115 0.220530 0.061399
Si Si6 0.715742 0.988698 0.625017
Si Si7 0.666427 0.591843 0.622840
O O1 0.566244 0.607523 0.182880
O O2 0.541551 0.851628 0.219493
O O3 0.532078 0.702864 0.020005
O O4 0.999500 0.597904 0.933681
O O5 0.740799 0.663569 0.312889
O O6 0.626997 0.682680 0.560758
O O7 0.236141 0.841868 0.618675
O O8 0.659596 0.895312 0.530310
O O9 0.479910 0.509454 0.364756
O O10 0.797474 0.803671 0.837247
O O11 0.770481 0.913847 0.697053
O O12 0.746964 0.060603 0.915219
O O13 0.482284 0.307928 0.191260
O O14 0.000000 0.000000 0.500000
O O15 0.000000 0.500000 0.500000
#
# Coordination Sequence:
#
# PCOD9015951 Si02
#       7
#     2   2   2   2   2   2   2
#     4  10  24  46  66  97 141 180 225 282 338 407
#     4  12  25  44  74 100 135 181 228 288 340 401
#     4  11  25  44  67 102 141 182 231 271 343 418
#     4  10  22  42  68 102 136 174 228 286 340 401
#     4  10  21  42  66 100 138 177 227 282 338 400
#     4  11  25  45  72 102 137 177 231 288 343 404
#     4  12  25  41  71 100 139 185 227 279 343 405
#
# _framework density 22.374133
#
# number of rings (size 3 to 8) (size 9 to 14) (size 15 to 20)
#    0.000    1.143    1.429    3.857    4.000    3.429 
#    7.714    0.000    0.000    0.000    0.000    0.000 
#    0.000    0.000    0.000    0.000    0.000    0.000 
#
# Total GULP energy -78384.639523 kJ/mol
# GULP energy per Si atom -5598.902823 kJ/mol
# Density = 2.232321 g / cm^3
# Si number density = 22.374133 Si / 1000 Ang^3
#
#
#
# Elastic Constant Matrix: (Units=GPa)
#
#
# Indices 1 2 3 4 5 6 
#
# 1 58.6159 32.8081 34.5076 26.5462 1.9509 2.2389
# 2 32.8081 66.9710 28.8678 -1.0264 -0.7092 -17.6518
# 3 34.5076 28.8678 99.6312 20.1444 8.9472 6.2754
# 4 26.5462 -1.0264 20.1444 33.3926 -4.9451 7.2700
# 5 1.9509 -0.7092 8.9472 -4.9451 41.7859 -7.9780
# 6 2.2389 -17.6518 6.2754 7.2700 -7.9780 33.1658
#
#
#
# Elastic Compliance Matrix: (Units=1/GPa)
#
#
# Indices 1 2 3 4 5 6 
#
# 1 0.055277 -0.031935 0.000906 -0.044098 -0.011194 -0.013926
# 2 -0.031935 0.040912 -0.009127 0.029083 0.011805 0.022122
# 3 0.000906 -0.009127 0.015284 -0.009548 -0.005966 -0.007153
# 4 -0.044098 0.029083 -0.009548 0.072088 0.014653 0.007985
# 5 -0.011194 0.011805 -0.005966 0.014653 0.029989 0.012170
# 6 -0.013926 0.022122 -0.007153 0.007985 0.012170 0.045396
#
#
# Mechanical properties :
#
#
# Convention : Reuss Voigt Hill
#
# Bulk Modulus (GPa) = 32.09067 46.39833 39.24450
# Shear Modulus (GPa) = 14.30018 30.27115 22.28567
#
# Velocity S-wave (km/s) = 2.53086 3.68224 3.15944
# Velocity P-wave (km/s) = 4.78688 6.23386 5.55767
#
# Compressibility (1/GPa) = 0.03116171
#
# Stress axis : x y z
#
# Youngs Moduli (GPa) = 18.09082 24.44266 65.42625
#
# Poissons Ratio (x) = 0.78057 -0.05930
# Poissons Ratio (y) = 0.57773 0.59716
# Poissons Ratio (z) = -0.01640 0.22309
#
# Static dielectric constant tensor:
#      x y z
#    x 1.788380 0.005440 0.033220 
#    y 0.005440 1.827610 -0.002250 
#    z 0.033220 -0.002250 1.841300 
# 
# From -- ./inp_files/118552.got.cif
#   From: 2010.05.17/outbox.cif.g08.bks.cpg/sg2_60_cif.got.tgz:118552.got - 2010.06.03 11:33:40.
