data_PCOD9015759
_publ_section_title
;
Structure prediction by ZEFSAII (Michael W. Deem and Ramdas Pophale) SiO2 
 PCOD9015759
Probable space group: P -1
;
_chemical_formula_sum "Si O2"
_cell_formula_units_Z 14
_cell_length_a 11.940963
_cell_length_b 8.847262
_cell_length_c 8.730183
_cell_angle_alpha 40.744235
_cell_angle_beta 70.315774
_cell_angle_gamma 68.300330
_cell_volume 556.859613
_symmetry_space_group_name_H-M "P -1"
_symmetry_group_IT_number 2
_symmetry_cell_setting 'triclinic'
loop_
_space_group_symop_operation_xyz
x,y,z
-x,-y,-z
loop_
_atom_site_type_symbol
_atom_site_label
_atom_site_fract_x
_atom_site_fract_y
_atom_site_fract_z
Si Si1 0.693969 0.456614 0.425367
Si Si2 0.218619 0.076133 0.534712
Si Si3 0.192999 0.592193 0.292784
Si Si4 0.034473 0.772845 0.958133
Si Si5 0.823182 0.679570 0.944983
Si Si6 0.490871 0.880518 0.259919
Si Si7 0.588680 0.256945 0.108203
O O1 0.807672 0.386861 0.540055
O O2 0.725694 0.565431 0.168037
O O3 0.603969 0.665900 0.391785
O O4 0.622538 0.247641 0.594243
O O5 0.214340 0.319269 0.441849
O O6 0.097265 0.978346 0.705368
O O7 0.329746 0.876206 0.691004
O O8 0.221107 0.138809 0.307716
O O9 0.075620 0.725725 0.151453
O O10 0.308967 0.695873 0.096951
O O11 0.098225 0.537071 0.018717
O O12 0.896782 0.792222 0.955089
O O13 0.506869 0.078616 0.220868
O O14 0.500000 0.000000 0.000000
O O15 0.500000 0.500000 0.000000
#
# Coordination Sequence:
#
# PCOD9015759 Si02
#       7
#     2   2   2   2   2   2   2
#     4  11  24  43  68  98 142 183 228 277 358 405
#     4  10  21  43  66  94 140 175 229 287 341 409
#     4  10  21  42  65 100 136 177 226 288 335 417
#     4   9  21  41  69 100 136 173 235 285 340 409
#     4  10  22  42  68 102 133 180 227 289 349 414
#     4  11  24  45  67  95 141 185 232 284 337 413
#     4  11  24  43  70  99 134 188 240 285 341 406
#
# _framework density 25.140984
#
# number of rings (size 3 to 8) (size 9 to 14) (size 15 to 20)
#    0.000    1.714    2.857    0.429    0.000    6.857 
#    2.571    1.429    0.000    0.000    0.000    0.000 
#    0.000    0.000    0.000    0.000    0.000    0.000 
#
# Total GULP energy -78493.056507 kJ/mol
# GULP energy per Si atom -5606.646893 kJ/mol
# Density = 2.508376 g / cm^3
# Si number density = 25.140984 Si / 1000 Ang^3
#
#
#
# Elastic Constant Matrix: (Units=GPa)
#
#
# Indices 1 2 3 4 5 6 
#
# 1 97.7022 38.3748 66.6158 -12.3512 -4.2486 36.2550
# 2 38.3748 75.2695 43.9833 -22.4559 9.6860 15.0422
# 3 66.6158 43.9833 188.6259 -3.8379 -3.6227 25.5964
# 4 -12.3512 -22.4559 -3.8379 42.7144 8.6157 3.2914
# 5 -4.2486 9.6860 -3.6227 8.6157 24.7418 -7.6123
# 6 36.2550 15.0422 25.5964 3.2914 -7.6123 40.9955
#
#
#
# Elastic Compliance Matrix: (Units=1/GPa)
#
#
# Indices 1 2 3 4 5 6 
#
# 1 0.020802 -0.002660 -0.004542 0.006006 -0.002947 -0.015614
# 2 -0.002660 0.027378 -0.004039 0.018406 -0.021447 -0.010631
# 3 -0.004542 -0.004039 0.007610 -0.003635 0.003713 0.001728
# 4 0.006006 0.018406 -0.003635 0.041260 -0.026629 -0.018053
# 5 -0.002947 -0.021447 0.003713 -0.026629 0.065005 0.022366
# 6 -0.015614 -0.010631 0.001728 -0.018053 0.022366 0.046626
#
#
# Mechanical properties :
#
#
# Convention : Reuss Voigt Hill
#
# Bulk Modulus (GPa) = 30.02300 73.28284 51.65292
# Shear Modulus (GPa) = 20.63857 35.86524 28.25191
#
# Velocity S-wave (km/s) = 2.86827 3.78109 3.35586
# Velocity P-wave (km/s) = 4.78926 6.94796 5.96704
#
# Compressibility (1/GPa) = 0.03330780
#
# Stress axis : x y z
#
# Youngs Moduli (GPa) = 48.07283 36.52609 131.40366
#
# Poissons Ratio (x) = 0.09716 0.59680
# Poissons Ratio (y) = 0.12787 0.53077
# Poissons Ratio (z) = 0.21834 0.14754
#
# Static dielectric constant tensor:
#      x y z
#    x 2.027790 -0.027570 0.046220 
#    y -0.027570 1.977940 0.022610 
#    z 0.046220 0.022610 1.950800 
# 
# From -- ./inp_files/241803.got.cif
#   From: 2010.05.17/outbox.cif.g08.bks.cpg/sg2_121_cif.got.tgz:241803.got - 2010.06.03 11:33:40.
