data_PCOD9015833
_publ_section_title
;
Structure prediction by ZEFSAII (Michael W. Deem and Ramdas Pophale) SiO2 
 PCOD9015833
Probable space group: P -1
;
_chemical_formula_sum "Si O2"
_cell_formula_units_Z 16
_cell_length_a 29.848439
_cell_length_b 17.707929
_cell_length_c 23.442661
_cell_angle_alpha 19.161056
_cell_angle_beta 9.257278
_cell_angle_gamma 19.980055
_cell_volume 647.580464
_symmetry_space_group_name_H-M "P -1"
_symmetry_group_IT_number 2
_symmetry_cell_setting 'triclinic'
loop_
_space_group_symop_operation_xyz
x,y,z
-x,-y,-z
loop_
_atom_site_type_symbol
_atom_site_label
_atom_site_fract_x
_atom_site_fract_y
_atom_site_fract_z
Si Si1 0.808583 0.556522 0.145125
Si Si2 0.560658 0.620284 0.688668
Si Si3 0.392724 0.258289 0.930837
Si Si4 0.064804 0.656272 0.115213
Si Si5 0.657355 0.018811 0.553137
Si Si6 0.202915 0.960213 0.971415
Si Si7 0.084393 0.733710 0.565655
Si Si8 0.403526 0.261335 0.271683
O O1 0.599700 0.366129 0.550269
O O2 0.623532 0.809516 0.202058
O O3 0.986491 0.569419 0.855382
O O4 0.000000 0.500000 0.000000
O O5 0.284004 0.738685 0.984721
O O6 0.793697 0.606013 0.455950
O O7 0.610556 0.389534 0.751392
O O8 0.654013 0.827078 0.384853
O O9 0.306361 0.433386 0.967422
O O10 0.112205 0.268469 0.240281
O O11 0.500000 0.000000 0.000000
O O12 0.915770 0.733475 0.306807
O O13 0.192689 0.848714 0.780294
O O14 0.595186 0.792491 0.758461
O O15 0.867550 0.004782 0.352773
O O16 0.354531 0.915146 0.874011
O O17 0.000000 0.000000 0.500000
O O18 0.500000 0.500000 0.000000
#
# Coordination Sequence:
#
# PCOD9015833 Si02
#       8
#     2   2   2   2   2   2   2   2
#     4  11  25  43  64  94 130 175 224 271 326 393
#     4   8  17  36  66  89 117 163 209 265 319 384
#     4  10  21  42  65  92 130 170 218 274 324 389
#     4   8  18  39  61  87 121 160 212 258 317 388
#     4  10  22  42  64  89 123 167 219 262 316 393
#     4   9  19  40  64  90 121 163 213 264 324 384
#     4  11  23  41  65  97 133 173 217 269 335 398
#     4  11  23  37  60  95 128 164 204 265 332 382
#
# _framework density 24.707356000000001
#
# number of rings (size 3 to 8) (size 9 to 14) (size 15 to 20)
#    0.000    2.250    0.000    3.000    1.750    4.500 
#    6.750    0.000    0.000    0.000    0.000    0.000 
#    0.000    0.000    0.000    0.000    0.000    0.000 
#
# Total GULP energy -89335.883950 kJ/mol
# GULP energy per Si atom -5583.492747 kJ/mol
# Density = 2.465112 g / cm^3
# Si number density = 24.707356 Si / 1000 Ang^3
#
#
#
# Elastic Constant Matrix: (Units=GPa)
#
#
# Indices 1 2 3 4 5 6 
#
# 1 83.9743 28.6166 10.1429 15.1188 14.6744 -3.8511
# 2 28.6166 108.2447 11.9772 11.1481 11.8623 7.4064
# 3 10.1429 11.9772 44.8196 8.8020 11.1030 5.6163
# 4 15.1188 11.1481 8.8020 37.0624 -1.8019 -1.9216
# 5 14.6744 11.8623 11.1030 -1.8019 35.7775 3.8309
# 6 -3.8511 7.4064 5.6163 -1.9216 3.8309 38.1913
#
#
#
# Elastic Compliance Matrix: (Units=1/GPa)
#
#
# Indices 1 2 3 4 5 6 
#
# 1 0.014996 -0.002926 -0.000511 -0.005259 -0.005549 0.002447
# 2 -0.002926 0.010684 -0.001075 -0.001966 -0.001881 -0.002119
# 3 -0.000511 -0.001075 0.026212 -0.006228 -0.007533 -0.003255
# 4 -0.005259 -0.001966 -0.006228 0.031586 0.006146 0.001740
# 5 -0.005549 -0.001881 -0.007533 0.006146 0.033729 -0.002161
# 6 0.002447 -0.002119 -0.003255 0.001740 -0.002161 0.027625
#
#
# Mechanical properties :
#
#
# Convention : Reuss Voigt Hill
#
# Bulk Modulus (GPa) = 23.32746 37.61246 30.46996
# Shear Modulus (GPa) = 29.73613 34.62636 32.18124
#
# Velocity S-wave (km/s) = 3.47296 3.74767 3.61293
# Velocity P-wave (km/s) = 5.05410 5.82949 5.45559
#
# Compressibility (1/GPa) = 0.04286792
#
# Stress axis : x y z
#
# Youngs Moduli (GPa) = 66.68552 93.59445 38.15046
#
# Poissons Ratio (x) = 0.27382 0.01950
# Poissons Ratio (y) = 0.19510 0.04103
# Poissons Ratio (z) = 0.03408 0.10066
#
# Static dielectric constant tensor:
#      x y z
#    x 1.825360 0.050360 0.140250 
#    y 0.050360 2.113430 -0.001260 
#    z 0.140250 -0.001260 2.024700 
# 
# From -- ./inp_files/274836.got.cif
#   From: 2010.05.17/outbox.cif.g08.bks.cpg/sg2_138_cif.got.tgz:274836.got - 2010.06.03 11:33:40.
