data_PCOD9015787
_publ_section_title
;
Structure prediction by ZEFSAII (Michael W. Deem and Ramdas Pophale) SiO2 
 PCOD9015787
Probable space group: P -1
;
_chemical_formula_sum "Si O2"
_cell_formula_units_Z 16
_cell_length_a 6.159097
_cell_length_b 15.090739
_cell_length_c 10.969462
_cell_angle_alpha 123.696560
_cell_angle_beta 77.572302
_cell_angle_gamma 125.182829
_cell_volume 685.069930
_symmetry_space_group_name_H-M "P -1"
_symmetry_group_IT_number 2
_symmetry_cell_setting 'triclinic'
loop_
_space_group_symop_operation_xyz
x,y,z
-x,-y,-z
loop_
_atom_site_type_symbol
_atom_site_label
_atom_site_fract_x
_atom_site_fract_y
_atom_site_fract_z
Si Si1 0.334369 0.272343 0.092109
Si Si2 0.781169 0.910868 0.614682
Si Si3 0.708562 0.523613 0.889953
Si Si4 0.676872 0.449962 0.397102
Si Si5 0.760788 0.257745 0.901076
Si Si6 0.192848 0.893219 0.419532
Si Si7 0.737042 0.348444 0.570384
Si Si8 0.229610 0.938232 0.059933
O O1 0.293973 0.382097 0.135835
O O2 0.527101 0.332700 0.230642
O O3 0.482848 0.244504 0.947186
O O4 0.039105 0.146592 0.051538
O O5 0.476811 0.803735 0.527426
O O6 0.977752 0.863983 0.528274
O O7 0.882191 0.039544 0.623192
O O8 0.779906 0.953360 0.783926
O O9 0.642991 0.400007 0.729976
O O10 0.500000 0.500000 0.000000
O O11 0.999284 0.601171 0.977516
O O12 0.500000 0.500000 0.500000
O O13 0.722501 0.397116 0.475043
O O14 0.941712 0.571779 0.395273
O O15 0.811918 0.222559 0.734319
O O16 0.766010 0.158238 0.916758
O O17 0.500000 0.000000 0.500000
O O18 0.500000 0.000000 0.000000
#
# Coordination Sequence:
#
# PCOD9015787 Si02
#       8
#     2   2   2   2   2   2   2   2
#     4  11  23  43  65  92 126 167 214 254 315 375
#     4  10  23  41  62  93 125 164 204 257 314 366
#     4  11  23  41  63  94 128 164 205 260 313 369
#     4  11  24  42  65  91 128 171 210 256 310 376
#     4  10  22  41  63  91 122 163 206 257 311 366
#     4  10  21  42  65  88 123 164 210 254 309 371
#     4  11  24  41  65  95 131 163 208 260 316 367
#     4  10  24  40  63  93 127 161 206 260 312 364
#
# _framework density 23.355277999999998
#
# number of rings (size 3 to 8) (size 9 to 14) (size 15 to 20)
#    0.000    1.500    2.500    1.500    3.500    5.000 
#    4.500    0.000    0.000    0.000    0.000    0.000 
#    0.000    0.000    0.000    0.000    0.000    0.000 
#
# Total GULP energy -89472.306056 kJ/mol
# GULP energy per Si atom -5592.019128 kJ/mol
# Density = 2.330212 g / cm^3
# Si number density = 23.355278 Si / 1000 Ang^3
#
#
#
# Elastic Constant Matrix: (Units=GPa)
#
#
# Indices 1 2 3 4 5 6 
#
# 1 62.5375 15.4012 25.8716 -0.5059 -6.8292 26.8102
# 2 15.4012 82.2431 39.4196 2.0030 -2.4787 27.7215
# 3 25.8716 39.4196 154.3677 3.0320 -8.2741 26.5136
# 4 -0.5059 2.0030 3.0320 34.4491 9.6855 -4.7727
# 5 -6.8292 -2.4787 -8.2741 9.6855 32.2483 -0.0783
# 6 26.8102 27.7215 26.5136 -4.7727 -0.0783 49.3581
#
#
#
# Elastic Compliance Matrix: (Units=1/GPa)
#
#
# Indices 1 2 3 4 5 6 
#
# 1 0.022046 0.000828 -0.001543 -0.002668 0.005109 -0.011861
# 2 0.000828 0.016207 -0.002736 -0.002223 0.001367 -0.008295
# 3 -0.001543 -0.002736 0.007908 -0.001371 0.001899 -0.002003
# 4 -0.002668 -0.002223 -0.001371 0.033269 -0.011064 0.006634
# 5 0.005109 0.001367 0.001899 -0.011064 0.035993 -0.005575
# 6 -0.011861 -0.008295 -0.002003 0.006634 -0.005575 0.033070
#
#
# Mechanical properties :
#
#
# Convention : Reuss Voigt Hill
#
# Bulk Modulus (GPa) = 25.47140 51.17034 38.32087
# Shear Modulus (GPa) = 29.67713 37.77483 33.72598
#
# Velocity S-wave (km/s) = 3.56853 4.02605 3.80418
# Velocity P-wave (km/s) = 5.28289 6.60070 5.97822
#
# Compressibility (1/GPa) = 0.03925972
#
# Stress axis : x y z
#
# Youngs Moduli (GPa) = 45.35968 61.70302 126.45547
#
# Poissons Ratio (x) = -0.05109 0.19510
# Poissons Ratio (y) = -0.03756 0.34594
# Poissons Ratio (z) = 0.06998 0.16880
#
# Static dielectric constant tensor:
#      x y z
#    x 1.907090 -0.022980 0.018520 
#    y -0.022980 1.891530 -0.006810 
#    z 0.018520 -0.006810 1.848750 
# 
# From -- ./inp_files/70791.got.cif
#   From: 2010.05.17/outbox.cif.g08.bks.cpg/sg2_36_cif.got.tgz:70791.got - 2010.06.03 11:33:40.
