data_PCOD9015727
_publ_section_title
;
Structure prediction by ZEFSAII (Michael W. Deem and Ramdas Pophale) SiO2 
 PCOD9015727
Probable space group: P -1
;
_chemical_formula_sum "Si O2"
_cell_formula_units_Z 14
_cell_length_a 11.792216
_cell_length_b 16.450234
_cell_length_c 5.476743
_cell_angle_alpha 113.623859
_cell_angle_beta 52.326652
_cell_angle_gamma 140.117844
_cell_volume 534.297199
_symmetry_space_group_name_H-M "P -1"
_symmetry_group_IT_number 2
_symmetry_cell_setting 'triclinic'
loop_
_space_group_symop_operation_xyz
x,y,z
-x,-y,-z
loop_
_atom_site_type_symbol
_atom_site_label
_atom_site_fract_x
_atom_site_fract_y
_atom_site_fract_z
Si Si1 0.283190 0.699851 0.419257
Si Si2 0.989475 0.051120 0.824240
Si Si3 0.830601 0.207291 0.673687
Si Si4 0.395673 0.033423 0.533891
Si Si5 0.780133 0.693691 0.966917
Si Si6 0.921207 0.554939 0.045745
Si Si7 0.550601 0.413401 0.093729
O O1 0.295175 0.765401 0.238267
O O2 0.429437 0.815556 0.560049
O O3 0.361702 0.635232 0.215644
O O4 0.044438 0.601212 0.686276
O O5 0.176507 0.205727 0.785869
O O6 0.000000 0.000000 0.500000
O O7 0.000000 0.000000 0.000000
O O8 0.769697 0.999190 0.100397
O O9 0.995742 0.246290 0.305497
O O10 0.977888 0.312943 0.811927
O O11 0.701326 0.058467 0.686698
O O12 0.500000 0.000000 0.500000
O O13 0.645625 0.552413 0.073240
O O14 0.678667 0.681732 0.830645
O O15 0.673066 0.451336 0.234661
O O16 0.000000 0.500000 0.000000
#
# Coordination Sequence:
#
# PCOD9015727 Si02
#       7
#     2   2   2   2   2   2   2
#     4  11  21  43  65  92 142 181 237 297 363 440
#     4  11  25  51  78 108 151 200 249 309 381 454
#     4  10  21  42  64  97 133 179 238 292 371 421
#     4   9  22  45  70 103 141 187 246 314 372 440
#     4  10  23  43  67 102 140 185 234 303 362 445
#     4  12  23  37  69 100 133 190 238 303 362 440
#     4  11  22  41  66  94 141 184 236 296 363 439
#
# _framework density 26.202646000000001
#
# number of rings (size 3 to 8) (size 9 to 14) (size 15 to 20)
#    0.000    1.429    2.857    2.143    0.000    3.429 
#   10.286    2.857    0.000    0.000    0.000    0.000 
#    0.000    0.000    0.000    0.000    0.000    0.000 
#
# Total GULP energy -78124.630587 kJ/mol
# GULP energy per Si atom -5580.330756 kJ/mol
# Density = 2.614301 g / cm^3
# Si number density = 26.202646 Si / 1000 Ang^3
#
#
#
# Elastic Constant Matrix: (Units=GPa)
#
#
# Indices 1 2 3 4 5 6 
#
# 1 146.7227 33.3999 45.1423 8.1306 -21.9681 6.3497
# 2 33.3999 162.6834 44.8525 51.9288 2.6291 7.9792
# 3 45.1423 44.8525 105.2606 28.9291 -10.0605 -8.1357
# 4 8.1306 51.9288 28.9291 50.6223 8.0729 -3.0061
# 5 -21.9681 2.6291 -10.0605 8.0729 39.2981 2.0623
# 6 6.3497 7.9792 -8.1357 -3.0061 2.0623 28.6594
#
#
#
# Elastic Compliance Matrix: (Units=1/GPa)
#
#
# Indices 1 2 3 4 5 6 
#
# 1 0.008782 -0.001048 -0.003353 0.000757 0.004114 -0.002822
# 2 -0.001048 0.010013 -0.001431 -0.009613 0.000563 -0.004010
# 3 -0.003353 -0.001431 0.013811 -0.006079 0.002785 0.004224
# 4 0.000757 -0.009613 -0.006079 0.034513 -0.007840 0.004967
# 5 0.004114 0.000563 0.002785 -0.007840 0.030204 -0.003273
# 6 -0.002822 -0.004010 0.004224 0.004967 -0.003273 0.038590
#
#
# Mechanical properties :
#
#
# Convention : Reuss Voigt Hill
#
# Bulk Modulus (GPa) = 47.75181 73.49511 60.62346
# Shear Modulus (GPa) = 32.35046 43.13409 37.74227
#
# Velocity S-wave (km/s) = 3.51754 4.06171 3.79938
# Velocity P-wave (km/s) = 5.89585 7.07858 6.51411
#
# Compressibility (1/GPa) = 0.02094162
#
# Stress axis : x y z
#
# Youngs Moduli (GPa) = 113.87214 99.87230 72.40464
#
# Poissons Ratio (x) = 0.10471 0.24274
# Poissons Ratio (y) = 0.11939 0.10362
# Poissons Ratio (z) = 0.38176 0.14293
#
# Static dielectric constant tensor:
#      x y z
#    x 2.168520 0.024520 0.089110 
#    y 0.024520 2.204760 0.015220 
#    z 0.089110 0.015220 2.094220 
# 
# From -- ./inp_files/81560.got.cif
#   From: 2010.05.17/outbox.cif.g08.bks.cpg/sg2_41_cif.got.tgz:81560.got - 2010.06.03 11:33:40.
