data_PCOD9015293
_publ_section_title
;
Structure prediction by ZEFSAII (Michael W. Deem and Ramdas Pophale) SiO2 
 PCOD9015293
Probable space group: P -1
;
_chemical_formula_sum "Si O2"
_cell_formula_units_Z 16
_cell_length_a 8.554913
_cell_length_b 14.060002
_cell_length_c 11.388287
_cell_angle_alpha 68.950205
_cell_angle_beta 129.881179
_cell_angle_gamma 138.302556
_cell_volume 679.768704
_symmetry_space_group_name_H-M "P -1"
_symmetry_group_IT_number 2
_symmetry_cell_setting 'triclinic'
loop_
_space_group_symop_operation_xyz
x,y,z
-x,-y,-z
loop_
_atom_site_type_symbol
_atom_site_label
_atom_site_fract_x
_atom_site_fract_y
_atom_site_fract_z
Si Si1 0.097664 0.418237 0.595779
Si Si2 0.705880 0.418384 0.817043
Si Si3 0.954395 0.660990 0.664933
Si Si4 0.293570 0.346181 0.079583
Si Si5 0.466876 0.247782 0.011022
Si Si6 0.178320 0.973385 0.653235
Si Si7 0.778852 0.034639 0.073791
Si Si8 0.786943 0.269360 0.745611
O O1 0.414622 0.524793 0.764917
O O2 0.000000 0.500000 0.500000
O O3 0.097578 0.375308 0.482659
O O4 0.862135 0.292316 0.634237
O O5 0.678107 0.332989 0.729253
O O6 0.722352 0.533793 0.706950
O O7 0.478559 0.305451 0.861640
O O8 0.000000 0.500000 0.000000
O O9 0.223037 0.684380 0.823202
O O10 0.038947 0.810258 0.651410
O O11 0.362643 0.293008 0.032490
O O12 0.047048 0.203717 0.101981
O O13 0.100849 0.365410 0.919065
O O14 0.283985 0.076269 0.999389
O O15 0.154225 0.001098 0.761933
O O16 0.521267 0.095635 0.723600
O O17 0.000000 0.000000 0.500000
O O18 0.500000 0.000000 0.000000
#
# Coordination Sequence:
#
# PCOD9015293 Si02
#       8
#     2   2   2   2   2   2   2   2
#     4  12  25  46  72 112 157 198 240 309 380 442
#     4  10  21  41  76 107 150 193 245 307 362 443
#     4  11  24  47  75 110 155 199 249 306 375 444
#     4  12  26  44  77 115 151 197 249 305 376 450
#     4  11  21  43  77 116 146 195 252 305 373 445
#     4  12  29  49  75 110 148 199 255 312 374 438
#     4  12  23  47  79 107 148 197 253 311 368 447
#     4  12  25  51  75 107 156 198 250 309 368 452
#
# _framework density 23.537417999999999
#
# number of rings (size 3 to 8) (size 9 to 14) (size 15 to 20)
#    0.000    0.500    6.250    1.500    3.500    1.500 
#    2.250    1.250    0.000    0.000    0.000    0.000 
#    0.000    0.000    0.000    0.000    0.000    0.000 
#
# Total GULP energy -89311.847656 kJ/mol
# GULP energy per Si atom -5581.990479 kJ/mol
# Density = 2.348385 g / cm^3
# Si number density = 23.537418 Si / 1000 Ang^3
#
#
#
# Elastic Constant Matrix: (Units=GPa)
#
#
# Indices 1 2 3 4 5 6 
#
# 1 126.7413 59.9719 34.8348 1.8726 -14.0872 -3.8892
# 2 59.9719 153.4281 41.6317 -10.7181 -15.1209 1.1967
# 3 34.8348 41.6317 103.2542 -15.5685 -19.8405 7.0222
# 4 1.8726 -10.7181 -15.5685 31.9330 -1.5359 -15.0188
# 5 -14.0872 -15.1209 -19.8405 -1.5359 41.9662 -6.1766
# 6 -3.8892 1.1967 7.0222 -15.0188 -6.1766 38.9758
#
#
#
# Elastic Compliance Matrix: (Units=1/GPa)
#
#
# Indices 1 2 3 4 5 6 
#
# 1 0.010362 -0.003493 -0.002290 -0.002471 0.001162 0.000786
# 2 -0.003493 0.008670 -0.001689 0.002831 0.001404 0.001003
# 3 -0.002290 -0.001689 0.013065 0.006571 0.005161 0.000819
# 4 -0.002471 0.002831 0.006571 0.043723 0.007324 0.016491
# 5 0.001162 0.001404 0.005161 0.007324 0.028384 0.006463
# 6 0.000786 0.001003 0.000819 0.016491 0.006463 0.032936
#
#
# Mechanical properties :
#
#
# Convention : Reuss Voigt Hill
#
# Bulk Modulus (GPa) = 58.29977 72.92227 65.61102
# Shear Modulus (GPa) = 31.68548 39.04066 35.36307
#
# Velocity S-wave (km/s) = 3.67301 4.07709 3.88031
# Velocity P-wave (km/s) = 6.54299 7.29467 6.92903
#
# Compressibility (1/GPa) = 0.01715273
#
# Stress axis : x y z
#
# Youngs Moduli (GPa) = 96.50389 115.34520 76.54056
#
# Poissons Ratio (x) = 0.40292 0.17529
# Poissons Ratio (y) = 0.33711 0.12925
# Poissons Ratio (z) = 0.22101 0.19478
#
# Static dielectric constant tensor:
#      x y z
#    x 1.927040 0.052860 -0.020470 
#    y 0.052860 1.944630 -0.027520 
#    z -0.020470 -0.027520 1.974920 
# 
# From -- ./inp_files/398993.got.cif
#   From: 2010.05.17/outbox.cif.g08.bks.cpg/sg2_200_cif.got.tgz:398993.got - 2010.06.03 11:33:40.
