data_PCOD9015726
_publ_section_title
;
Structure prediction by ZEFSAII (Michael W. Deem and Ramdas Pophale) SiO2 
 PCOD9015726
Probable space group: P -1
;
_chemical_formula_sum "Si O2"
_cell_formula_units_Z 16
_cell_length_a 8.920346
_cell_length_b 14.453452
_cell_length_c 13.406085
_cell_angle_alpha 150.011662
_cell_angle_beta 114.007533
_cell_angle_gamma 74.187530
_cell_volume 777.003833
_symmetry_space_group_name_H-M "P -1"
_symmetry_group_IT_number 2
_symmetry_cell_setting 'triclinic'
loop_
_space_group_symop_operation_xyz
x,y,z
-x,-y,-z
loop_
_atom_site_type_symbol
_atom_site_label
_atom_site_fract_x
_atom_site_fract_y
_atom_site_fract_z
Si Si1 0.171638 0.635450 0.198438
Si Si2 0.135189 0.017536 0.463594
Si Si3 0.503388 0.021366 0.138934
Si Si4 0.406343 0.368659 0.936589
Si Si5 0.956660 0.521647 0.624868
Si Si6 0.130662 0.827904 0.578708
Si Si7 0.373230 0.395204 0.449153
Si Si8 0.679366 0.327395 0.127581
O O1 0.156454 0.710413 0.376170
O O2 0.196868 0.817299 0.301087
O O3 0.308000 0.503494 0.099547
O O4 0.000000 0.500000 0.000000
O O5 0.280292 0.191805 0.691909
O O6 0.028330 0.070287 0.389476
O O7 0.000000 0.000000 0.500000
O O8 0.695525 0.027591 0.228079
O O9 0.447130 0.215094 0.332086
O O10 0.500000 0.000000 0.000000
O O11 0.366144 0.861860 0.999258
O O12 0.500000 0.500000 0.000000
O O13 0.546766 0.305848 0.983791
O O14 0.131155 0.622992 0.812530
O O15 0.000000 0.500000 0.500000
O O16 0.898608 0.322088 0.478481
O O17 0.804627 0.635950 0.685209
O O18 0.500000 0.500000 0.500000
O O19 0.353706 0.514810 0.654445
#
# Coordination Sequence:
#
# PCOD9015726 Si02
#       8
#     2   2   2   2   2   2   2   2
#     4  11  23  41  70  97 126 171 226 270 318 386
#     4  10  21  42  64  97 132 164 223 270 313 389
#     4  12  23  39  66  99 128 167 217 269 319 386
#     4  12  25  43  65  97 136 171 215 270 330 385
#     4  10  22  42  65  91 132 170 209 265 324 381
#     4  11  21  41  70  94 130 172 217 264 324 383
#     4  11  21  43  65  94 127 166 215 266 314 384
#     4  11  24  40  65  94 132 171 207 266 332 375
#
# _framework density 20.591919000000001
#
# number of rings (size 3 to 8) (size 9 to 14) (size 15 to 20)
#    0.000    1.000    5.000    3.750    0.000    1.000 
#    0.000    2.500    0.000    0.000    0.000    0.000 
#    0.000    0.000    0.000    0.000    0.000    0.000 
#
# Total GULP energy -89355.385034 kJ/mol
# GULP energy per Si atom -5584.711565 kJ/mol
# Density = 2.054505 g / cm^3
# Si number density = 20.591919 Si / 1000 Ang^3
#
#
#
# Elastic Constant Matrix: (Units=GPa)
#
#
# Indices 1 2 3 4 5 6 
#
# 1 71.5024 3.5126 14.6248 -4.1811 26.3336 -11.4050
# 2 3.5126 63.9357 3.1514 6.6817 2.3054 -10.8055
# 3 14.6248 3.1514 87.0112 5.0156 17.6962 -11.5573
# 4 -4.1811 6.6817 5.0156 40.6521 -0.3277 8.5141
# 5 26.3336 2.3054 17.6962 -0.3277 31.9215 -6.2429
# 6 -11.4050 -10.8055 -11.5573 8.5141 -6.2429 41.9111
#
#
#
# Elastic Compliance Matrix: (Units=1/GPa)
#
#
# Indices 1 2 3 4 5 6 
#
# 1 0.020564 -0.000207 0.000204 0.001392 -0.016489 0.002860
# 2 -0.000207 0.016929 0.000397 -0.003939 -0.000300 0.005173
# 3 0.000204 0.000397 0.013457 -0.002457 -0.007033 0.003320
# 4 0.001392 -0.003939 -0.002457 0.027136 -0.000575 -0.006912
# 5 -0.016489 -0.000300 -0.007033 -0.000575 0.049023 0.000915
# 6 0.002860 0.005173 0.003320 -0.006912 0.000915 0.028428
#
#
# Mechanical properties :
#
#
# Convention : Reuss Voigt Hill
#
# Bulk Modulus (GPa) = 19.32808 29.44744 24.38776
# Shear Modulus (GPa) = 29.07041 36.30764 32.68902
#
# Velocity S-wave (km/s) = 3.76139 4.20360 3.98863
# Velocity P-wave (km/s) = 5.31702 6.15564 5.75163
#
# Compressibility (1/GPa) = 0.05173821
#
# Stress axis : x y z
#
# Youngs Moduli (GPa) = 48.62793 59.06928 74.31033
#
# Poissons Ratio (x) = 0.01225 -0.01518
# Poissons Ratio (y) = 0.01009 -0.02950
# Poissons Ratio (z) = -0.00993 -0.02345
#
# Static dielectric constant tensor:
#      x y z
#    x 1.767710 -0.037080 -0.019190 
#    y -0.037080 1.748050 -0.008040 
#    z -0.019190 -0.008040 1.766780 
# 
# From -- ./inp_files/296808.got.cif
#   From: 2010.05.17/outbox.cif.g08.bks.cpg/sg2_149_cif.got.tgz:296808.got - 2010.06.03 11:33:40.
