data_PCOD9015767
_publ_section_title
;
Structure prediction by ZEFSAII (Michael W. Deem and Ramdas Pophale) SiO2 
 PCOD9015767
Probable space group: P -1
;
_chemical_formula_sum "Si O2"
_cell_formula_units_Z 16
_cell_length_a 14.247313
_cell_length_b 9.835125
_cell_length_c 12.519784
_cell_angle_alpha 36.003972
_cell_angle_beta 54.920745
_cell_angle_gamma 80.978765
_cell_volume 648.107653
_symmetry_space_group_name_H-M "P -1"
_symmetry_group_IT_number 2
_symmetry_cell_setting 'triclinic'
loop_
_space_group_symop_operation_xyz
x,y,z
-x,-y,-z
loop_
_atom_site_type_symbol
_atom_site_label
_atom_site_fract_x
_atom_site_fract_y
_atom_site_fract_z
Si Si1 0.428277 0.312014 0.932473
Si Si2 0.231340 0.676692 0.467754
Si Si3 0.855855 0.456229 0.158219
Si Si4 0.400846 0.580862 0.051128
Si Si5 0.090230 0.126025 0.639495
Si Si6 0.271010 0.564821 0.957056
Si Si7 0.724160 0.774565 0.337399
Si Si8 0.080745 0.566233 0.252814
O O1 0.527455 0.280842 0.969494
O O2 0.313368 0.355169 0.028242
O O3 0.559214 0.611024 0.594017
O O4 0.332912 0.993760 0.139067
O O5 0.218503 0.729746 0.567198
O O6 0.283797 0.481364 0.552900
O O7 0.068505 0.494984 0.640727
O O8 0.744043 0.325358 0.214943
O O9 0.000000 0.500000 0.000000
O O10 0.936688 0.804525 0.912530
O O11 0.232505 0.269058 0.377319
O O12 0.500000 0.500000 0.000000
O O13 0.392075 0.756070 0.851184
O O14 0.156737 0.119256 0.711351
O O15 0.068731 0.371118 0.481382
O O16 0.125334 0.467365 0.180605
O O17 0.792142 0.078395 0.038039
#
# Coordination Sequence:
#
# PCOD9015767 Si02
#       8
#     2   2   2   2   2   2   2   2
#     4  10  23  44  69  97 134 177 222 281 341 394
#     4  12  25  43  69  95 139 183 220 280 331 400
#     4  12  24  39  65 104 140 172 221 278 345 396
#     4   8  18  35  64  90 126 171 213 263 334 394
#     4  10  22  40  67  97 131 176 224 280 330 400
#     4  10  21  42  65 102 132 167 224 277 341 392
#     4  11  24  49  65  97 136 182 230 271 333 399
#     4  11  23  42  73  99 131 179 226 281 335 400
#
# _framework density 24.687258
#
# number of rings (size 3 to 8) (size 9 to 14) (size 15 to 20)
#    0.000    1.500    2.500    1.500    5.250    3.500 
#   11.250    0.625    0.000    0.000    0.000    0.000 
#    0.000    0.000    0.000    0.000    0.000    0.000 
#
# Total GULP energy -89275.239217 kJ/mol
# GULP energy per Si atom -5579.702451 kJ/mol
# Density = 2.463107 g / cm^3
# Si number density = 24.687258 Si / 1000 Ang^3
#
#
#
# Elastic Constant Matrix: (Units=GPa)
#
#
# Indices 1 2 3 4 5 6 
#
# 1 60.6252 4.4174 11.1719 16.1075 10.7014 -9.6030
# 2 4.4174 66.8293 8.3303 -3.4367 6.9055 -22.9974
# 3 11.1719 8.3303 117.1137 -24.4099 -6.8383 -5.0976
# 4 16.1075 -3.4367 -24.4099 31.3258 -5.6015 11.5094
# 5 10.7014 6.9055 -6.8383 -5.6015 32.1310 2.0234
# 6 -9.6030 -22.9974 -5.0976 11.5094 2.0234 32.9133
#
#
#
# Elastic Compliance Matrix: (Units=1/GPa)
#
#
# Indices 1 2 3 4 5 6 
#
# 1 0.049597 0.015921 -0.019087 -0.062619 -0.037870 0.046864
# 2 0.015921 0.027087 -0.009007 -0.028011 -0.020015 0.033202
# 3 -0.019087 -0.009007 0.018470 0.034998 0.019739 -0.022454
# 4 -0.062619 -0.028011 0.034998 0.129335 0.062001 -0.081460
# 5 -0.037870 -0.020015 0.019739 0.062001 0.066052 -0.047719
# 6 0.046864 0.033202 -0.022454 -0.081460 -0.047719 0.095197
#
#
# Mechanical properties :
#
#
# Convention : Reuss Voigt Hill
#
# Bulk Modulus (GPa) = 14.12279 32.48971 23.30625
# Shear Modulus (GPa) = 11.52906 33.98394 22.75650
#
# Velocity S-wave (km/s) = 2.16337 3.71425 3.03940
# Velocity P-wave (km/s) = 3.46025 5.61990 4.66673
#
# Compressibility (1/GPa) = 0.07080752
#
# Stress axis : x y z
#
# Youngs Moduli (GPa) = 20.16249 36.91786 54.14226
#
# Poissons Ratio (x) = -0.58775 1.03339
# Poissons Ratio (y) = -0.32100 0.48767
# Poissons Ratio (z) = 0.38483 0.33253
#
# Static dielectric constant tensor:
#      x y z
#    x 1.982860 0.048030 0.024030 
#    y 0.048030 2.041080 0.017040 
#    z 0.024030 0.017040 1.999490 
# 
# From -- ./inp_files/531499.got.cif
#   From: 2010.05.17/outbox.cif.g08.bks.cpg/sg2_266_cif.got.tgz:531499.got - 2010.06.03 11:33:40.
