data_PCOD9015369
_publ_section_title
;
Structure prediction by ZEFSAII (Michael W. Deem and Ramdas Pophale) SiO2 
 PCOD9015369
Probable space group: P -1
;
_chemical_formula_sum "Si O2"
_cell_formula_units_Z 14
_cell_length_a 14.481754
_cell_length_b 8.806544
_cell_length_c 18.449290
_cell_angle_alpha 50.561683
_cell_angle_beta 21.377375
_cell_angle_gamma 43.582500
_cell_volume 583.994119
_symmetry_space_group_name_H-M "P -1"
_symmetry_group_IT_number 2
_symmetry_cell_setting 'triclinic'
loop_
_space_group_symop_operation_xyz
x,y,z
-x,-y,-z
loop_
_atom_site_type_symbol
_atom_site_label
_atom_site_fract_x
_atom_site_fract_y
_atom_site_fract_z
Si Si1 0.415868 0.271092 0.277452
Si Si2 0.810787 0.229373 0.107968
Si Si3 0.554596 0.534280 0.331332
Si Si4 0.443362 0.897452 0.176736
Si Si5 0.081907 0.807771 0.347598
Si Si6 0.947504 0.452559 0.209745
Si Si7 0.614496 0.234949 0.998730
O O1 0.499859 0.262296 0.301371
O O2 0.244214 0.537195 0.310835
O O3 0.244584 0.137044 0.426322
O O4 0.666577 0.176027 0.062794
O O5 0.762535 0.314107 0.199440
O O6 0.910770 0.384378 0.942513
O O7 0.000000 0.000000 0.000000
O O8 0.476473 0.737960 0.269904
O O9 0.746171 0.526235 0.262720
O O10 0.263006 0.542644 0.573791
O O11 0.213824 0.889186 0.290963
O O12 0.758259 0.778086 0.944653
O O13 0.396403 0.142576 0.158844
O O14 0.129979 0.869882 0.212954
O O15 0.500000 0.500000 0.000000
#
# Coordination Sequence:
#
# PCOD9015369 Si02
#       7
#     2   2   2   2   2   2   2
#     4  10  22  40  61  95 129 175 212 275 330 388
#     4  11  23  41  69  97 138 172 216 277 341 396
#     4  10  23  43  67  98 132 174 228 275 325 402
#     4  11  21  41  70  93 130 179 221 277 332 396
#     4  10  21  42  61  91 131 172 226 267 322 395
#     4  10  23  43  66  99 131 176 226 273 330 393
#     4  10  24  40  63  93 135 171 217 276 333 395
#
# _framework density 23.972843999999998
#
# number of rings (size 3 to 8) (size 9 to 14) (size 15 to 20)
#    0.000    1.714    2.857    2.143    4.000    4.571 
#    2.571    0.000    0.000    0.000    0.000    0.000 
#    0.000    0.000    0.000    0.000    0.000    0.000 
#
# Total GULP energy -78024.774481 kJ/mol
# GULP energy per Si atom -5573.198177 kJ/mol
# Density = 2.391828 g / cm^3
# Si number density = 23.972844 Si / 1000 Ang^3
#
#
#
# Elastic Constant Matrix: (Units=GPa)
#
#
# Indices 1 2 3 4 5 6 
#
# 1 108.3587 25.0327 48.4951 -17.6375 2.7539 21.4993
# 2 25.0327 118.1402 38.9275 -20.0472 0.1437 39.0277
# 3 48.4951 38.9275 125.2417 -9.3563 10.6352 18.1589
# 4 -17.6375 -20.0472 -9.3563 18.9148 6.7329 -7.9392
# 5 2.7539 0.1437 10.6352 6.7329 40.0489 -2.3983
# 6 21.4993 39.0277 18.1589 -7.9392 -2.3983 27.3117
#
#
#
# Elastic Compliance Matrix: (Units=1/GPa)
#
#
# Indices 1 2 3 4 5 6 
#
# 1 0.014307 0.003947 -0.004074 0.011809 -0.002559 -0.010985
# 2 0.003947 0.018962 -0.002523 0.013257 -0.003393 -0.024970
# 3 -0.004074 -0.002523 0.010601 -0.000619 -0.002460 -0.000631
# 4 0.011809 0.013257 -0.000619 0.080398 -0.014555 -0.005735
# 5 -0.002559 -0.003393 -0.002460 -0.014555 0.028664 0.006785
# 6 -0.010985 -0.024970 -0.000631 -0.005735 0.006785 0.080292
#
#
# Mechanical properties :
#
#
# Convention : Reuss Voigt Hill
#
# Bulk Modulus (GPa) = 25.92782 64.07235 45.00009
# Shear Modulus (GPa) = 19.89014 33.20745 26.54879
#
# Velocity S-wave (km/s) = 2.88357 3.72588 3.33145
# Velocity P-wave (km/s) = 4.68248 6.73013 5.79742
#
# Compressibility (1/GPa) = 0.03856861
#
# Stress axis : x y z
#
# Youngs Moduli (GPa) = 69.89604 52.73662 94.33463
#
# Poissons Ratio (x) = -0.20815 0.38435
# Poissons Ratio (y) = -0.27588 0.23802
# Poissons Ratio (z) = 0.28478 0.13306
#
# Static dielectric constant tensor:
#      x y z
#    x 1.765150 0.007370 0.037760 
#    y 0.007370 1.950100 0.005530 
#    z 0.037760 0.005530 1.936710 
# 
# From -- ./inp_files/572844.got.cif
#   From: 2010.05.17/outbox.cif.g08.bks.cpg/sg2_287_cif.got.tgz:572844.got - 2010.06.03 11:33:40.
