data_PCOD9015393
_publ_section_title
;
Structure prediction by ZEFSAII (Michael W. Deem and Ramdas Pophale) SiO2 
 PCOD9015393
Probable space group: P -1
;
_chemical_formula_sum "Si O2"
_cell_formula_units_Z 15
_cell_length_a 9.357463
_cell_length_b 5.344257
_cell_length_c 14.070147
_cell_angle_alpha 109.467615
_cell_angle_beta 112.440467
_cell_angle_gamma 74.409283
_cell_volume 605.025392
_symmetry_space_group_name_H-M "P -1"
_symmetry_group_IT_number 2
_symmetry_cell_setting 'triclinic'
loop_
_space_group_symop_operation_xyz
x,y,z
-x,-y,-z
loop_
_atom_site_type_symbol
_atom_site_label
_atom_site_fract_x
_atom_site_fract_y
_atom_site_fract_z
Si Si1 0.607456 0.090711 0.418151
Si Si2 0.340024 0.518151 0.169974
Si Si3 0.838476 0.714691 0.526502
Si Si4 0.866192 0.171817 0.349271
Si Si5 0.538300 0.118701 0.900857
Si Si6 0.000000 0.500000 0.000000
Si Si7 0.769883 0.983401 0.102327
Si Si8 0.695753 0.546793 0.633909
O O1 0.729863 0.058703 0.357657
O O2 0.645642 0.341455 0.519777
O O3 0.430288 0.180388 0.355285
O O4 0.661282 0.843724 0.469840
O O5 0.444046 0.702500 0.163978
O O6 0.302104 0.580007 0.278355
O O7 0.420489 0.204415 0.145845
O O8 0.172403 0.554236 0.082323
O O9 0.865035 0.475836 0.425672
O O10 0.844717 0.623761 0.626759
O O11 0.955660 0.935136 0.584023
O O12 0.832856 0.138185 0.226201
O O13 0.364722 0.171592 0.907203
O O14 0.669783 0.163881 0.018530
O O15 0.087840 0.215031 0.933819
#
# Coordination Sequence:
#
# PCOD9015393 Si02
#       8
#     2   2   2   2   2   1   2   2
#     4  10  21  42  62 100 137 184 241 295 342 447
#     4  11  25  48  72 111 145 200 235 311 359 452
#     4  10  22  41  67 102 144 184 238 300 352 451
#     4  10  22  42  66 105 139 188 242 287 375 431
#     4  10  25  48  75 105 152 185 261 290 369 440
#     4  10  26  44  74 110 146 178 252 296 380 434
#     4  10  23  48  72 107 142 194 234 317 361 444
#     4  10  23  39  67  98 141 183 238 288 368 408
#
# _framework density 24.792346999999999
#
# number of rings (size 3 to 8) (size 9 to 14) (size 15 to 20)
#    0.000    1.867    0.000    1.600    3.733    8.000 
#   16.800    0.000    2.933    0.000    0.000    0.000 
#    0.000    0.000    0.000    0.000    0.000    0.000 
#
# Total GULP energy -83516.173020 kJ/mol
# GULP energy per Si atom -5567.744868 kJ/mol
# Density = 2.473592 g / cm^3
# Si number density = 24.792347 Si / 1000 Ang^3
#
#
#
# Elastic Constant Matrix: (Units=GPa)
#
#
# Indices 1 2 3 4 5 6 
#
# 1 94.1673 38.5059 27.5331 -2.5315 -16.9433 -2.2250
# 2 38.5059 84.0454 24.7837 4.4961 -5.4018 5.3641
# 3 27.5331 24.7837 130.3558 -1.8610 -14.6520 16.4568
# 4 -2.5315 4.4961 -1.8610 22.6300 5.2239 -13.6071
# 5 -16.9433 -5.4018 -14.6520 5.2239 31.2390 -9.4460
# 6 -2.2250 5.3641 16.4568 -13.6071 -9.4460 33.1447
#
#
#
# Elastic Compliance Matrix: (Units=1/GPa)
#
#
# Indices 1 2 3 4 5 6 
#
# 1 0.015809 -0.006955 -0.002047 0.005901 0.007798 0.007848
# 2 -0.006955 0.016062 -0.001166 -0.007212 -0.002170 -0.006067
# 3 -0.002047 -0.001166 0.009139 -0.002730 0.001900 -0.005066
# 4 0.005901 -0.007212 -0.002730 0.063586 -0.001296 0.028654
# 5 0.007798 -0.002170 0.001900 -0.001296 0.040261 0.010873
# 6 0.007848 -0.006067 -0.005066 0.028654 0.010873 0.049057
#
#
# Mechanical properties :
#
#
# Convention : Reuss Voigt Hill
#
# Bulk Modulus (GPa) = 48.36621 54.46822 51.41722
# Shear Modulus (GPa) = 22.61004 31.91911 27.26458
#
# Velocity S-wave (km/s) = 3.02317 3.59201 3.31980
# Velocity P-wave (km/s) = 5.63356 6.26265 5.95642
#
# Compressibility (1/GPa) = 0.02067559
#
# Stress axis : x y z
#
# Youngs Moduli (GPa) = 63.25587 62.25891 109.41642
#
# Poissons Ratio (x) = 0.43299 0.22396
# Poissons Ratio (y) = 0.43992 0.12756
# Poissons Ratio (z) = 0.12947 0.07258
#
# Static dielectric constant tensor:
#      x y z
#    x 2.072480 -0.097790 -0.033360 
#    y -0.097790 2.066470 -0.016150 
#    z -0.033360 -0.016150 1.984980 
# 
# From -- ./inp_files/487928.got.cif
#   From: 2010.05.17/outbox.cif.g08.bks.cpg/sg2_244_cif.got.tgz:487928.got - 2010.06.03 11:33:40.
