data_PCOD9015658
_publ_section_title
;
Structure prediction by ZEFSAII (Michael W. Deem and Ramdas Pophale) SiO2 
 PCOD9015658
Probable space group: P -1
;
_chemical_formula_sum "Si O2"
_cell_formula_units_Z 12
_cell_length_a 13.167850
_cell_length_b 9.146467
_cell_length_c 6.860044
_cell_angle_alpha 91.097460
_cell_angle_beta 128.543394
_cell_angle_gamma 111.911004
_cell_volume 562.321171
_symmetry_space_group_name_H-M "P -1"
_symmetry_group_IT_number 2
_symmetry_cell_setting 'triclinic'
loop_
_space_group_symop_operation_xyz
x,y,z
-x,-y,-z
loop_
_atom_site_type_symbol
_atom_site_label
_atom_site_fract_x
_atom_site_fract_y
_atom_site_fract_z
Si Si1 0.634131 0.648820 0.285891
Si Si2 0.634489 0.851385 0.648926
Si Si3 0.658973 0.188432 0.585423
Si Si4 0.174832 0.713000 0.837150
Si Si5 0.831587 0.958512 0.250354
Si Si6 0.150762 0.501433 0.440091
O O1 0.593131 0.702606 0.443160
O O2 0.719005 0.812870 0.255310
O O3 0.754148 0.590388 0.475891
O O4 0.500000 0.500000 0.000000
O O5 0.499855 0.821505 0.633777
O O6 0.661279 0.015333 0.561668
O O7 0.775480 0.896381 0.958924
O O8 0.784338 0.339761 0.619076
O O9 0.689290 0.224508 0.852293
O O10 0.174357 0.578656 0.686525
O O11 0.024271 0.625980 0.783056
O O12 0.176941 0.870297 0.736847
O O13 0.000000 0.000000 0.500000
#
# Coordination Sequence:
#
# PCOD9015658 Si02
#       6
#     2   2   2   2   2   2
#     4  12  25  41  65 100 131 167 210 265 324 378
#     4  10  24  42  67  93 128 170 214 260 319 381
#     4  10  21  42  64  92 123 167 215 262 311 378
#     4  10  22  41  63  91 126 169 212 259 315 379
#     4  11  23  45  65  92 131 171 213 259 317 381
#     4  11  22  38  62  94 128 165 209 261 319 373
#
# _framework density 21.340119000000001
#
# number of rings (size 3 to 8) (size 9 to 14) (size 15 to 20)
#    0.000    1.333    1.667    3.500    0.000    4.667 
#    3.000    6.667    0.000    0.000    0.000    0.000 
#    0.000    0.000    0.000    0.000    0.000    0.000 
#
# Total GULP energy -67043.059416 kJ/mol
# GULP energy per Si atom -5586.921618 kJ/mol
# Density = 2.129155 g / cm^3
# Si number density = 21.340119 Si / 1000 Ang^3
#
#
#
# Elastic Constant Matrix: (Units=GPa)
#
#
# Indices 1 2 3 4 5 6 
#
# 1 49.0947 23.6120 34.4087 2.5630 -0.9492 -8.2063
# 2 23.6120 74.9071 5.2896 8.8247 -0.0823 20.1693
# 3 34.4087 5.2896 106.8203 13.9399 15.5215 -12.5768
# 4 2.5630 8.8247 13.9399 27.6527 -1.9933 -3.9699
# 5 -0.9492 -0.0823 15.5215 -1.9933 23.0189 5.1709
# 6 -8.2063 20.1693 -12.5768 -3.9699 5.1709 42.7487
#
#
#
# Elastic Compliance Matrix: (Units=1/GPa)
#
#
# Indices 1 2 3 4 5 6 
#
# 1 0.037980 -0.015047 -0.012794 0.009861 0.008635 0.010497
# 2 -0.015047 0.022543 0.003521 -0.009536 -0.000756 -0.013283
# 3 -0.012794 0.003521 0.016500 -0.008967 -0.012742 0.001446
# 4 0.009861 -0.009536 -0.008967 0.044421 0.008733 0.006823
# 5 0.008635 -0.000756 -0.012742 0.008733 0.054842 -0.007557
# 6 0.010497 -0.013283 0.001446 0.006823 -0.007557 0.033648
#
#
# Mechanical properties :
#
#
# Convention : Reuss Voigt Hill
#
# Bulk Modulus (GPa) = 35.23323 39.71585 37.47454
# Shear Modulus (GPa) = 18.65421 29.85151 24.25286
#
# Velocity S-wave (km/s) = 2.95979 3.74417 3.37485
# Velocity P-wave (km/s) = 5.31287 6.11089 5.72580
#
# Compressibility (1/GPa) = 0.02838230
#
# Stress axis : x y z
#
# Youngs Moduli (GPa) = 26.32996 44.35882 60.60474
#
# Poissons Ratio (x) = 0.66747 0.77540
# Poissons Ratio (y) = 0.39619 -0.21338
# Poissons Ratio (z) = 0.33688 -0.15618
#
# Static dielectric constant tensor:
#      x y z
#    x 1.764750 0.020090 0.014680 
#    y 0.020090 1.775150 0.016510 
#    z 0.014680 0.016510 1.779140 
# 
# From -- ./inp_files/22464.got.cif
#   From: 2010.05.17/outbox.cif.g08.bks.cpg/sg2_12_cif.got.tgz:22464.got - 2010.06.03 11:33:40.
