data_PCOD9015266
_publ_section_title
;
Structure prediction by ZEFSAII (Michael W. Deem and Ramdas Pophale) SiO2 
 PCOD9015266
Probable space group: P -1
;
_chemical_formula_sum "Si O2"
_cell_formula_units_Z 16
_cell_length_a 11.631687
_cell_length_b 17.743692
_cell_length_c 9.806012
_cell_angle_alpha 38.581294
_cell_angle_beta 95.402343
_cell_angle_gamma 125.454905
_cell_volume 726.771707
_symmetry_space_group_name_H-M "P -1"
_symmetry_group_IT_number 2
_symmetry_cell_setting 'triclinic'
loop_
_space_group_symop_operation_xyz
x,y,z
-x,-y,-z
loop_
_atom_site_type_symbol
_atom_site_label
_atom_site_fract_x
_atom_site_fract_y
_atom_site_fract_z
Si Si1 0.674666 0.360136 0.827037
Si Si2 0.048438 0.372897 0.786750
Si Si3 0.050882 0.089412 0.230246
Si Si4 0.015798 0.491430 0.175588
Si Si5 0.386572 0.308478 0.355509
Si Si6 0.491087 0.443517 0.729161
Si Si7 0.658216 0.034862 0.810759
Si Si8 0.398683 0.049944 0.763147
O O1 0.811326 0.472033 0.545975
O O2 0.652283 0.475499 0.718411
O O3 0.765070 0.349810 0.965732
O O4 0.451822 0.137203 0.070388
O O5 0.067285 0.475458 0.776572
O O6 0.084275 0.262852 0.981848
O O7 0.818658 0.181265 0.982001
O O8 0.261759 0.209124 0.052648
O O9 0.000000 0.000000 0.500000
O O10 0.853896 0.891265 0.400919
O O11 0.890604 0.261559 0.510453
O O12 0.000000 0.500000 0.000000
O O13 0.456817 0.406286 0.373560
O O14 0.441793 0.215792 0.465283
O O15 0.500000 0.500000 0.000000
O O16 0.500000 0.500000 0.500000
O O17 0.556431 0.079444 0.715208
O O18 0.609486 0.942423 0.085184
#
# Coordination Sequence:
#
# PCOD9015266 Si02
#       8
#     2   2   2   2   2   2   2   2
#     4  12  25  46  71 105 145 185 240 294 351 434
#     4  11  22  47  74  97 143 184 241 293 353 431
#     4  11  25  45  74 107 138 195 243 293 361 431
#     4  12  28  46  68 105 144 185 232 301 365 423
#     4  11  25  45  72 104 144 190 237 295 361 424
#     4  12  26  45  70 106 148 188 240 298 355 424
#     4  11  23  40  72 104 133 180 236 288 356 420
#     4  10  21  41  74 104 130 181 244 289 343 429
#
# _framework density 22.015165
#
# number of rings (size 3 to 8) (size 9 to 14) (size 15 to 20)
#    0.000    0.750    5.000    2.625    1.750    5.000 
#    0.000    0.000    0.000    0.000    0.000    0.000 
#    0.000    0.000    0.000    0.000    0.000    0.000 
#
# Total GULP energy -89424.068495 kJ/mol
# GULP energy per Si atom -5589.004281 kJ/mol
# Density = 2.196506 g / cm^3
# Si number density = 22.015165 Si / 1000 Ang^3
#
#
#
# Elastic Constant Matrix: (Units=GPa)
#
#
# Indices 1 2 3 4 5 6 
#
# 1 91.5326 26.2554 29.0754 2.3345 3.1468 6.0255
# 2 26.2554 126.6929 33.4076 -7.0345 -5.4492 6.0129
# 3 29.0754 33.4076 86.6138 4.3280 6.3256 -8.5632
# 4 2.3345 -7.0345 4.3280 42.6017 2.0762 2.5207
# 5 3.1468 -5.4492 6.3256 2.0762 32.1529 -1.9359
# 6 6.0255 6.0129 -8.5632 2.5207 -1.9359 23.8762
#
#
#
# Elastic Compliance Matrix: (Units=1/GPa)
#
#
# Indices 1 2 3 4 5 6 
#
# 1 0.012993 -0.001434 -0.004170 -0.000214 -0.000949 -0.004468
# 2 -0.001434 0.009575 -0.003821 0.002147 0.002167 -0.003471
# 3 -0.004170 -0.003821 0.015480 -0.002294 -0.002680 0.007591
# 4 -0.000214 0.002147 -0.002294 0.024354 -0.000975 -0.003959
# 5 -0.000949 0.002167 -0.002680 -0.000975 0.032239 0.001450
# 6 -0.004468 -0.003471 0.007591 -0.003959 0.001450 0.047142
#
#
# Mechanical properties :
#
#
# Convention : Reuss Voigt Hill
#
# Bulk Modulus (GPa) = 52.08669 53.59070 52.83870
# Shear Modulus (GPa) = 29.93428 34.13289 32.03359
#
# Velocity S-wave (km/s) = 3.69143 3.94182 3.81868
# Velocity P-wave (km/s) = 6.47145 6.71660 6.59516
#
# Compressibility (1/GPa) = 0.01919876
#
# Stress axis : x y z
#
# Youngs Moduli (GPa) = 76.96292 104.44082 64.59982
#
# Poissons Ratio (x) = 0.14973 0.26941
# Poissons Ratio (y) = 0.11034 0.24680
# Poissons Ratio (z) = 0.32097 0.39902
#
# Static dielectric constant tensor:
#      x y z
#    x 1.819500 0.039590 -0.029880 
#    y 0.039590 1.808570 -0.050570 
#    z -0.029880 -0.050570 1.822890 
# 
# From -- ./inp_files/278813.got.cif
#   From: 2010.05.17/outbox.cif.g08.bks.cpg/sg2_140_cif.got.tgz:278813.got - 2010.06.03 11:33:40.
