data_PCOD9015453
_publ_section_title
;
Structure prediction by ZEFSAII (Michael W. Deem and Ramdas Pophale) SiO2 
 PCOD9015453
Probable space group: P -1
;
_chemical_formula_sum "Si O2"
_cell_formula_units_Z 13
_cell_length_a 11.625922
_cell_length_b 7.006526
_cell_length_c 17.174814
_cell_angle_alpha 131.374310
_cell_angle_beta 146.941026
_cell_angle_gamma 50.745093
_cell_volume 561.973310
_symmetry_space_group_name_H-M "P -1"
_symmetry_group_IT_number 2
_symmetry_cell_setting 'triclinic'
loop_
_space_group_symop_operation_xyz
x,y,z
-x,-y,-z
loop_
_atom_site_type_symbol
_atom_site_label
_atom_site_fract_x
_atom_site_fract_y
_atom_site_fract_z
Si Si1 0.038697 0.321756 0.651418
Si Si2 0.472286 0.916934 0.755757
Si Si3 0.000000 0.500000 0.500000
Si Si4 0.088044 0.725732 0.016298
Si Si5 0.280715 0.935796 0.494902
Si Si6 0.707061 0.331279 0.032440
Si Si7 0.278097 0.611680 0.255045
O O1 0.096178 0.583453 0.790009
O O2 0.988918 0.376043 0.548007
O O3 0.864972 0.226106 0.580674
O O4 0.252863 0.091035 0.710513
O O5 0.466781 0.951815 0.667997
O O6 0.522490 0.612893 0.717381
O O7 0.664257 0.041292 0.934324
O O8 0.850993 0.778842 0.518927
O O9 0.274580 0.594113 0.027099
O O10 0.908615 0.546065 0.867974
O O11 0.181875 0.759777 0.163375
O O12 0.000000 0.000000 0.000000
O O13 0.337364 0.781932 0.405385
O O14 0.500000 0.500000 0.000000
#
# Coordination Sequence:
#
# PCOD9015453 Si02
#       7
#     2   2   1   2   2   2   2
#     4  10  22  43  67  92 131 173 212 269 316 380
#     4  10  21  42  62  97 133 160 215 270 309 383
#     4  10  22  38  66  94 124 164 222 258 318 378
#     4  11  23  43  64  95 133 166 215 269 315 388
#     4  11  23  43  66  94 131 173 212 265 322 385
#     4  10  21  42  68  91 129 169 210 272 318 367
#     4  11  24  40  68  95 126 178 214 254 334 385
#
# _framework density 23.132771000000002
#
# number of rings (size 3 to 8) (size 9 to 14) (size 15 to 20)
#    0.000    1.538    3.077    2.308    2.154    0.000 
#   16.615    2.308    0.000    0.000    0.000    0.000 
#    0.000    0.000    0.000    0.000    0.000    0.000 
#
# Total GULP energy -72384.296522 kJ/mol
# GULP energy per Si atom -5568.022809 kJ/mol
# Density = 2.308012 g / cm^3
# Si number density = 23.132771 Si / 1000 Ang^3
#
#
#
# Elastic Constant Matrix: (Units=GPa)
#
#
# Indices 1 2 3 4 5 6 
#
# 1 90.6485 21.3505 21.3852 -3.4238 -13.6255 3.5092
# 2 21.3505 131.3745 37.7292 -3.8463 -8.3682 -9.8748
# 3 21.3852 37.7292 99.3720 18.5635 -19.6295 -4.5665
# 4 -3.4238 -3.8463 18.5635 35.3532 -3.5895 -10.4163
# 5 -13.6255 -8.3682 -19.6295 -3.5895 35.2707 6.4202
# 6 3.5092 -9.8748 -4.5665 -10.4163 6.4202 29.7452
#
#
#
# Elastic Compliance Matrix: (Units=1/GPa)
#
#
# Indices 1 2 3 4 5 6 
#
# 1 0.012570 -0.001409 -0.001776 0.001672 0.004165 -0.002537
# 2 -0.001409 0.009385 -0.004023 0.004179 -0.000919 0.004326
# 3 -0.001776 -0.004023 0.014669 -0.008635 0.006235 -0.003244
# 4 0.001672 0.004179 -0.008635 0.037163 -0.001801 0.013267
# 5 0.004165 -0.000919 0.006235 -0.001801 0.034469 -0.007910
# 6 -0.002537 0.004326 -0.003244 0.013267 -0.007910 0.041209
#
#
# Mechanical properties :
#
#
# Convention : Reuss Voigt Hill
#
# Bulk Modulus (GPa) = 45.03275 53.59164 49.31219
# Shear Modulus (GPa) = 29.19114 36.13583 32.66348
#
# Velocity S-wave (km/s) = 3.55617 3.95664 3.76174
# Velocity P-wave (km/s) = 6.03085 6.64007 6.34278
#
# Compressibility (1/GPa) = 0.02220606
#
# Stress axis : x y z
#
# Youngs Moduli (GPa) = 79.55461 106.54991 68.17275
#
# Poissons Ratio (x) = 0.15014 0.12110
# Poissons Ratio (y) = 0.11210 0.27429
# Poissons Ratio (z) = 0.14132 0.42870
#
# Static dielectric constant tensor:
#      x y z
#    x 1.917560 -0.061530 0.042530 
#    y -0.061530 1.843230 0.041810 
#    z 0.042530 0.041810 1.933040 
# 
# From -- ./inp_files/128618.got.cif
#   From: 2010.05.17/outbox.cif.g08.bks.cpg/sg2_65_cif.got.tgz:128618.got - 2010.06.03 11:33:40.
