data_PCOD9015077
_publ_section_title
;
Structure prediction by ZEFSAII (Michael W. Deem and Ramdas Pophale) SiO2 
 PCOD9015077
Probable space group: P -1
;
_chemical_formula_sum "Si O2"
_cell_formula_units_Z 14
_cell_length_a 15.923689
_cell_length_b 12.325007
_cell_length_c 11.663237
_cell_angle_alpha 36.835557
_cell_angle_beta 142.902681
_cell_angle_gamma 155.200711
_cell_volume 552.144780
_symmetry_space_group_name_H-M "P -1"
_symmetry_group_IT_number 2
_symmetry_cell_setting 'triclinic'
loop_
_space_group_symop_operation_xyz
x,y,z
-x,-y,-z
loop_
_atom_site_type_symbol
_atom_site_label
_atom_site_fract_x
_atom_site_fract_y
_atom_site_fract_z
Si Si1 0.208067 0.281466 0.269652
Si Si2 0.937414 0.218556 0.382029
Si Si3 0.786427 0.939376 0.965025
Si Si4 0.379036 0.461226 0.071859
Si Si5 0.211806 0.700467 0.632757
Si Si6 0.662389 0.208312 0.660184
Si Si7 0.707361 0.243059 0.948195
O O1 0.165926 0.077062 0.482390
O O2 0.238089 0.497533 0.184218
O O3 0.386109 0.426359 0.244364
O O4 0.002879 0.091052 0.127712
O O5 0.185339 0.473931 0.460673
O O6 0.826944 0.215731 0.368878
O O7 0.883438 0.279932 0.158196
O O8 0.745780 0.808718 0.908976
O O9 0.601805 0.696171 0.054541
O O10 0.772634 0.142770 0.778123
O O11 0.268011 0.548976 0.857309
O O12 0.000000 0.500000 0.500000
O O13 0.419095 0.976206 0.561273
O O14 0.663547 0.171076 0.828853
O O15 0.500000 0.000000 0.000000
#
# Coordination Sequence:
#
# PCOD9015077 Si02
#       7
#     2   2   2   2   2   2   2
#     4  12  25  43  73 106 142 187 234 294 355 421
#     4  12  26  44  72 111 139 188 241 284 362 422
#     4  10  21  41  71 101 140 191 233 285 359 417
#     4  10  21  43  70 103 146 186 234 294 355 415
#     4  11  23  45  74 106 145 187 238 297 355 420
#     4  11  24  46  72 102 148 192 230 298 354 418
#     4  12  24  51  74  99 148 188 238 295 352 421
#
# _framework density 25.355668999999999
#
# number of rings (size 3 to 8) (size 9 to 14) (size 15 to 20)
#    0.000    0.857    4.286    2.571    0.000    4.000 
#    0.000    1.429    0.000    0.000    0.000    0.000 
#    0.000    0.000    0.000    0.000    0.000    0.000 
#
# Total GULP energy -78573.541258 kJ/mol
# GULP energy per Si atom -5612.395804 kJ/mol
# Density = 2.529796 g / cm^3
# Si number density = 25.355669 Si / 1000 Ang^3
#
#
#
# Elastic Constant Matrix: (Units=GPa)
#
#
# Indices 1 2 3 4 5 6 
#
# 1 93.2043 32.6047 25.6393 -17.4051 -6.4965 -8.5679
# 2 32.6047 136.2326 44.8745 -25.4938 15.2668 -12.1531
# 3 25.6393 44.8745 78.9914 -19.4224 0.1672 -11.9732
# 4 -17.4051 -25.4938 -19.4224 41.9090 0.6939 10.8140
# 5 -6.4965 15.2668 0.1672 0.6939 22.5644 6.9315
# 6 -8.5679 -12.1531 -11.9732 10.8140 6.9315 57.5169
#
#
#
# Elastic Compliance Matrix: (Units=1/GPa)
#
#
# Indices 1 2 3 4 5 6 
#
# 1 0.013103 -0.002520 -0.002161 0.002876 0.005476 -0.000231
# 2 -0.002520 0.011170 -0.004436 0.003459 -0.008809 0.001473
# 3 -0.002161 -0.004436 0.017047 0.003930 0.001719 0.001344
# 4 0.002876 0.003459 0.003930 0.029901 -0.001393 -0.003477
# 5 0.005476 -0.008809 0.001719 -0.001393 0.054015 -0.006935
# 6 -0.000231 0.001473 0.001344 -0.003477 -0.006935 0.019432
#
#
# Mechanical properties :
#
#
# Convention : Reuss Voigt Hill
#
# Bulk Modulus (GPa) = 43.31388 57.18504 50.24946
# Shear Modulus (GPa) = 29.30887 38.08536 33.69712
#
# Velocity S-wave (km/s) = 3.40356 3.87983 3.64947
# Velocity P-wave (km/s) = 5.70659 6.53245 6.13344
#
# Compressibility (1/GPa) = 0.02308729
#
# Stress axis : x y z
#
# Youngs Moduli (GPa) = 76.32043 89.52200 58.66167
#
# Poissons Ratio (x) = 0.22562 0.12674
# Poissons Ratio (y) = 0.19235 0.26019
# Poissons Ratio (z) = 0.16490 0.39708
#
# Static dielectric constant tensor:
#      x y z
#    x 1.950330 0.064060 0.045280 
#    y 0.064060 2.034000 0.008660 
#    z 0.045280 0.008660 2.192510 
# 
# From -- ./inp_files/429414.got.cif
#   From: 2010.05.17/outbox.cif.g08.bks.cpg/sg2_215_cif.got.tgz:429414.got - 2010.06.03 11:33:40.
