data_PCOD9015021
_publ_section_title
;
Structure prediction by ZEFSAII (Michael W. Deem and Ramdas Pophale) SiO2 
 PCOD9015021
Probable space group: P -1
;
_chemical_formula_sum "Si O2"
_cell_formula_units_Z 16
_cell_length_a 8.845020
_cell_length_b 19.544378
_cell_length_c 7.407156
_cell_angle_alpha 83.745651
_cell_angle_beta 68.582033
_cell_angle_gamma 35.264707
_cell_volume 644.178427
_symmetry_space_group_name_H-M "P -1"
_symmetry_group_IT_number 2
_symmetry_cell_setting 'triclinic'
loop_
_space_group_symop_operation_xyz
x,y,z
-x,-y,-z
loop_
_atom_site_type_symbol
_atom_site_label
_atom_site_fract_x
_atom_site_fract_y
_atom_site_fract_z
Si Si1 0.663277 0.002301 0.026855
Si Si2 0.172349 0.903163 0.663648
Si Si3 0.987976 0.352329 0.804930
Si Si4 0.774034 0.719552 0.882225
Si Si5 0.166325 0.138080 0.672978
Si Si6 0.696878 0.635983 0.510212
Si Si7 0.778253 0.160898 0.745014
Si Si8 0.332581 0.503213 0.452041
O O1 0.858189 0.893232 0.119132
O O2 0.414340 0.147483 0.142073
O O3 0.500000 0.000000 0.000000
O O4 0.880634 0.963001 0.807979
O O5 0.451977 0.769741 0.679104
O O6 0.247558 0.865639 0.432140
O O7 0.068026 0.015372 0.736367
O O8 0.022471 0.333057 0.013112
O O9 0.133415 0.231003 0.693611
O O10 0.166879 0.359739 0.694807
O O11 0.706644 0.464112 0.754971
O O12 0.525740 0.750791 0.043962
O O13 0.004699 0.617602 0.655457
O O14 0.894248 0.197926 0.667210
O O15 0.500000 0.000000 0.500000
O O16 0.536499 0.620291 0.542348
O O17 0.000000 0.500000 0.500000
O O18 0.500000 0.500000 0.500000
#
# Coordination Sequence:
#
# PCOD9015021 Si02
#       8
#     2   2   2   2   2   2   2   2
#     4  11  23  39  66 103 138 181 222 296 354 425
#     4  10  21  41  70  96 140 178 232 276 370 411
#     4  11  24  46  69  98 141 190 230 293 361 413
#     4  11  24  47  70 102 146 181 241 287 366 430
#     4  12  24  38  68 104 141 180 237 286 352 430
#     4  10  23  44  70  98 137 190 234 291 355 418
#     4  10  23  41  71 104 136 187 226 300 350 433
#     4  11  28  46  72 104 137 188 245 302 345 422
#
# _framework density 24.837838999999999
#
# number of rings (size 3 to 8) (size 9 to 14) (size 15 to 20)
#    0.000    1.250    2.500    2.250    5.250    6.000 
#    0.000    2.500    0.000    0.000    0.000    0.000 
#    0.000    0.000    0.000    0.000    0.000    0.000 
#
# Total GULP energy -89225.657714 kJ/mol
# GULP energy per Si atom -5576.603607 kJ/mol
# Density = 2.478131 g / cm^3
# Si number density = 24.837839 Si / 1000 Ang^3
#
#
#
# Elastic Constant Matrix: (Units=GPa)
#
#
# Indices 1 2 3 4 5 6 
#
# 1 103.1748 39.0207 -2.7619 -7.6657 0.8410 -0.7471
# 2 39.0207 121.3175 13.9276 -7.7866 3.9546 5.6378
# 3 -2.7619 13.9276 70.0290 -0.9009 2.3481 -2.5761
# 4 -7.6657 -7.7866 -0.9009 38.3237 -6.3802 -4.1725
# 5 0.8410 3.9546 2.3481 -6.3802 24.6159 -10.1938
# 6 -0.7471 5.6378 -2.5761 -4.1725 -10.1938 45.7012
#
#
#
# Elastic Compliance Matrix: (Units=1/GPa)
#
#
# Indices 1 2 3 4 5 6 
#
# 1 0.011271 -0.003734 0.001217 0.001817 0.001029 0.001109
# 2 -0.003734 0.009870 -0.002105 0.000724 -0.001786 -0.001730
# 3 0.001217 -0.002105 0.014807 0.000159 -0.000669 0.000979
# 4 0.001817 0.000724 0.000159 0.028629 0.009132 0.004600
# 5 0.001029 -0.001786 -0.000669 0.009132 0.048185 0.011781
# 6 0.001109 -0.001730 0.000979 0.004600 0.011781 0.025216
#
#
# Mechanical properties :
#
#
# Convention : Reuss Voigt Hill
#
# Bulk Modulus (GPa) = 37.44513 43.87711 40.66112
# Shear Modulus (GPa) = 32.02594 38.01717 35.02156
#
# Velocity S-wave (km/s) = 3.59472 3.91655 3.75908
# Velocity P-wave (km/s) = 5.68664 6.17708 5.93693
#
# Compressibility (1/GPa) = 0.02670574
#
# Stress axis : x y z
#
# Youngs Moduli (GPa) = 88.71945 101.31352 67.53610
#
# Poissons Ratio (x) = 0.37826 -0.08217
# Poissons Ratio (y) = 0.33124 0.14214
# Poissons Ratio (z) = -0.10795 0.21324
#
# Static dielectric constant tensor:
#      x y z
#    x 2.133840 -0.080860 0.022960 
#    y -0.080860 2.133750 -0.105850 
#    z 0.022960 -0.105850 1.973770 
# 
# From -- ./inp_files/217449.got.cif
#   From: 2010.05.17/outbox.cif.g08.bks.cpg/sg2_109_cif.got.tgz:217449.got - 2010.06.03 11:33:40.
