data_PCOD9015100
_publ_section_title
;
Structure prediction by ZEFSAII (Michael W. Deem and Ramdas Pophale) SiO2 
 PCOD9015100
Probable space group: P -1
;
_chemical_formula_sum "Si O2"
_cell_formula_units_Z 16
_cell_length_a 11.350879
_cell_length_b 7.411402
_cell_length_c 14.383114
_cell_angle_alpha 112.346301
_cell_angle_beta 139.576567
_cell_angle_gamma 91.426937
_cell_volume 618.012476
_symmetry_space_group_name_H-M "P -1"
_symmetry_group_IT_number 2
_symmetry_cell_setting 'triclinic'
loop_
_space_group_symop_operation_xyz
x,y,z
-x,-y,-z
loop_
_atom_site_type_symbol
_atom_site_label
_atom_site_fract_x
_atom_site_fract_y
_atom_site_fract_z
Si Si1 0.698779 0.601565 0.499315
Si Si2 0.407320 0.692254 0.807991
Si Si3 0.404771 0.716180 0.453978
Si Si4 0.231506 0.682154 0.006683
Si Si5 0.296723 0.014405 0.707456
Si Si6 0.119198 0.013341 0.890910
Si Si7 0.116691 0.326099 0.714605
Si Si8 0.826603 0.175941 0.814489
O O1 0.658029 0.462116 0.354255
O O2 0.504891 0.634567 0.417640
O O3 0.710419 0.470447 0.571832
O O4 0.921176 0.841758 0.672980
O O5 0.267495 0.537369 0.778141
O O6 0.644778 0.112052 0.205048
O O7 0.659982 0.808337 0.989633
O O8 0.255689 0.783482 0.324481
O O9 0.614939 0.930415 0.668136
O O10 0.487629 0.810121 0.182472
O O11 0.149443 0.654698 0.056285
O O12 0.140267 0.448883 0.849581
O O13 0.201795 0.155307 0.722178
O O14 0.122814 0.820166 0.496918
O O15 0.172320 0.853209 0.954038
O O16 0.022493 0.137729 0.916132
#
# Coordination Sequence:
#
# PCOD9015100 Si02
#       8
#     2   2   2   2   2   2   2   2
#     4  10  21  42  68  99 142 191 237 288 362 420
#     4  11  24  45  76 106 146 191 236 298 365 430
#     4   9  20  40  68 100 142 192 242 292 345 429
#     4  11  23  42  73 103 149 188 235 297 358 429
#     4  10  24  46  70 106 144 185 246 306 347 427
#     4  10  23  43  67 108 146 187 238 289 355 440
#     4  11  25  46  76 106 144 189 245 298 367 424
#     4  10  21  41  71 106 149 188 237 294 357 430
#
# _framework density 25.889444000000001
#
# number of rings (size 3 to 8) (size 9 to 14) (size 15 to 20)
#    0.000    1.750    0.000    3.375    1.750    5.000 
#    6.750    2.500    5.500    2.250    0.000    0.000 
#    0.000    0.000    0.000    0.000    0.000    0.000 
#
# Total GULP energy -89871.514990 kJ/mol
# GULP energy per Si atom -5616.969687 kJ/mol
# Density = 2.583052 g / cm^3
# Si number density = 25.889444 Si / 1000 Ang^3
#
#
#
# Elastic Constant Matrix: (Units=GPa)
#
#
# Indices 1 2 3 4 5 6 
#
# 1 155.1663 43.2546 104.9260 8.3669 4.3827 -17.1733
# 2 43.2546 82.0072 39.1695 5.9522 1.5703 -18.0051
# 3 104.9260 39.1695 144.7177 17.8851 14.8868 -1.2246
# 4 8.3669 5.9522 17.8851 28.3240 -1.4093 6.2543
# 5 4.3827 1.5703 14.8868 -1.4093 54.8580 5.8830
# 6 -17.1733 -18.0051 -1.2246 6.2543 5.8830 46.7559
#
#
#
# Elastic Compliance Matrix: (Units=1/GPa)
#
#
# Indices 1 2 3 4 5 6 
#
# 1 0.013988 -0.001974 -0.009930 0.001796 0.001281 0.003716
# 2 -0.001974 0.015849 -0.002477 -0.002452 -0.000296 0.005678
# 3 -0.009930 -0.002477 0.015840 -0.006057 -0.003272 -0.002964
# 4 0.001796 -0.002452 -0.006057 0.040669 0.003290 -0.006297
# 5 0.001281 -0.000296 -0.003272 0.003290 0.019387 -0.002608
# 6 0.003716 0.005678 -0.002964 -0.006297 -0.002608 0.026032
#
#
# Mechanical properties :
#
#
# Convention : Reuss Voigt Hill
#
# Bulk Modulus (GPa) = 59.11914 84.06572 71.59243
# Shear Modulus (GPa) = 30.09060 38.95697 34.52379
#
# Velocity S-wave (km/s) = 3.41291 3.88331 3.65568
# Velocity P-wave (km/s) = 6.19802 7.25592 6.74773
#
# Compressibility (1/GPa) = 0.01691500
#
# Stress axis : x y z
#
# Youngs Moduli (GPa) = 71.48999 63.09680 63.13164
#
# Poissons Ratio (x) = 0.12456 0.62689
# Poissons Ratio (y) = 0.14113 0.15636
# Poissons Ratio (z) = 0.70989 0.15628
#
# Static dielectric constant tensor:
#      x y z
#    x 1.970540 -0.007140 0.018640 
#    y -0.007140 2.036680 0.040140 
#    z 0.018640 0.040140 2.016860 
# 
# From -- ./inp_files/519150.got.cif
#   From: 2010.05.17/outbox.cif.g08.bks.cpg/sg2_260_cif.got.tgz:519150.got - 2010.06.03 11:33:40.
