data_PCOD9015086
_publ_section_title
;
Structure prediction by ZEFSAII (Michael W. Deem and Ramdas Pophale) SiO2 
 PCOD9015086
Probable space group: P -1
;
_chemical_formula_sum "Si O2"
_cell_formula_units_Z 16
_cell_length_a 18.248473
_cell_length_b 11.118574
_cell_length_c 12.859801
_cell_angle_alpha 143.571752
_cell_angle_beta 31.957020
_cell_angle_gamma 145.280851
_cell_volume 735.130183
_symmetry_space_group_name_H-M "P -1"
_symmetry_group_IT_number 2
_symmetry_cell_setting 'triclinic'
loop_
_space_group_symop_operation_xyz
x,y,z
-x,-y,-z
loop_
_atom_site_type_symbol
_atom_site_label
_atom_site_fract_x
_atom_site_fract_y
_atom_site_fract_z
Si Si1 0.065137 0.778639 0.369492
Si Si2 0.374586 0.251949 0.008502
Si Si3 0.748557 0.438578 0.904521
Si Si4 0.527821 0.005670 0.755690
Si Si5 0.350715 0.517819 0.647357
Si Si6 0.769779 0.728780 0.581115
Si Si7 0.220043 0.170887 0.724877
Si Si8 0.086339 0.217451 0.222671
O O1 0.151694 0.624879 0.177711
O O2 0.923766 0.701314 0.405286
O O3 0.993273 0.778621 0.569438
O O4 0.179715 0.031363 0.370799
O O5 0.460880 0.095144 0.805125
O O6 0.500000 0.500000 0.000000
O O7 0.310425 0.265105 0.209878
O O8 0.231337 0.170656 0.045816
O O9 0.601333 0.208512 0.891079
O O10 0.844340 0.547330 0.759724
O O11 0.718010 0.639308 0.128739
O O12 0.387634 0.774992 0.803932
O O13 0.664635 0.941255 0.512964
O O14 0.500000 0.500000 0.500000
O O15 0.331607 0.464390 0.511579
O O16 0.215083 0.314506 0.729374
O O17 0.049635 0.975975 0.812574
#
# Coordination Sequence:
#
# PCOD9015086 Si02
#       8
#     2   2   2   2   2   2   2   2
#     4  10  21  41  71 103 131 189 225 294 342 401
#     4  11  25  43  70 103 139 186 223 285 350 416
#     4  12  24  41  72  99 136 184 234 279 349 407
#     4  11  25  43  68  96 142 184 225 282 349 404
#     4  10  22  42  63  99 140 176 226 289 331 411
#     4  10  22  42  69 100 143 176 236 281 351 410
#     4  11  25  43  68 103 137 176 241 285 335 416
#     4  11  22  46  69 100 143 176 237 286 336 412
#
# _framework density 21.764852999999999
#
# number of rings (size 3 to 8) (size 9 to 14) (size 15 to 20)
#    0.000    1.250    3.750    1.500    5.250    1.500 
#    0.000    3.750    0.000    0.000    0.000    0.000 
#    0.000    0.000    0.000    0.000    0.000    0.000 
#
# Total GULP energy -89390.753787 kJ/mol
# GULP energy per Si atom -5586.922112 kJ/mol
# Density = 2.171532 g / cm^3
# Si number density = 21.764853 Si / 1000 Ang^3
#
#
#
# Elastic Constant Matrix: (Units=GPa)
#
#
# Indices 1 2 3 4 5 6 
#
# 1 96.7969 39.3794 43.7347 8.2268 -13.6149 0.6966
# 2 39.3794 108.0271 17.5339 5.3105 -8.8396 -4.1009
# 3 43.7347 17.5339 61.1139 9.2097 -12.5492 12.5002
# 4 8.2268 5.3105 9.2097 29.2021 -5.7603 5.7670
# 5 -13.6149 -8.8396 -12.5492 -5.7603 45.4928 2.8639
# 6 0.6966 -4.1009 12.5002 5.7670 2.8639 47.2015
#
#
#
# Elastic Compliance Matrix: (Units=1/GPa)
#
#
# Indices 1 2 3 4 5 6 
#
# 1 0.017419 -0.004285 -0.011410 -0.000817 0.000976 0.002433
# 2 -0.004285 0.010963 -0.000036 -0.000860 0.000660 0.001090
# 3 -0.011410 -0.000036 0.027286 -0.003202 0.004135 -0.006920
# 4 -0.000817 -0.000860 -0.003202 0.037147 0.003659 -0.003975
# 5 0.000976 0.000660 0.004135 0.003659 0.024193 -0.002967
# 6 0.002433 0.001090 -0.006920 -0.003975 -0.002967 0.023743
#
#
# Mechanical properties :
#
#
# Convention : Reuss Voigt Hill
#
# Bulk Modulus (GPa) = 41.31559 51.91487 46.61523
# Shear Modulus (GPa) = 27.73444 35.39861 31.56652
#
# Velocity S-wave (km/s) = 3.57357 4.03725 3.81247
# Velocity P-wave (km/s) = 6.00426 6.75551 6.39094
#
# Compressibility (1/GPa) = 0.02420394
#
# Stress axis : x y z
#
# Youngs Moduli (GPa) = 57.40941 91.21862 36.64930
#
# Poissons Ratio (x) = 0.39090 0.41816
# Poissons Ratio (y) = 0.24602 0.00133
# Poissons Ratio (z) = 0.65503 0.00332
#
# Static dielectric constant tensor:
#      x y z
#    x 1.798500 -0.007840 0.018080 
#    y -0.007840 1.834250 -0.031700 
#    z 0.018080 -0.031700 1.828350 
# 
# From -- ./inp_files/541003.got.cif
#   From: 2010.05.17/outbox.cif.g08.bks.cpg/sg2_271_cif.got.tgz:541003.got - 2010.06.03 11:33:40.
