data_PCOD9015124
_publ_section_title
;
Structure prediction by ZEFSAII (Michael W. Deem and Ramdas Pophale) SiO2 
 PCOD9015124
Probable space group: P -1
;
_chemical_formula_sum "Si O2"
_cell_formula_units_Z 16
_cell_length_a 15.996904
_cell_length_b 14.344728
_cell_length_c 7.180302
_cell_angle_alpha 56.262025
_cell_angle_beta 126.280277
_cell_angle_gamma 144.940723
_cell_volume 753.945070
_symmetry_space_group_name_H-M "P -1"
_symmetry_group_IT_number 2
_symmetry_cell_setting 'triclinic'
loop_
_space_group_symop_operation_xyz
x,y,z
-x,-y,-z
loop_
_atom_site_type_symbol
_atom_site_label
_atom_site_fract_x
_atom_site_fract_y
_atom_site_fract_z
Si Si1 0.795913 0.981358 0.783950
Si Si2 0.118280 0.301769 0.685727
Si Si3 0.160488 0.586349 0.535320
Si Si4 0.841949 0.860616 0.339319
Si Si5 0.406368 0.280815 0.519922
Si Si6 0.438921 0.742064 0.983080
Si Si7 0.351022 0.931934 0.281506
Si Si8 0.584758 0.506778 0.939346
O O1 0.730345 0.041673 0.724095
O O2 0.950587 0.132196 0.711050
O O3 0.677359 0.840050 0.634339
O O4 0.832233 0.925077 0.064212
O O5 0.136590 0.449842 0.549981
O O6 0.167367 0.275368 0.593002
O O7 0.236109 0.354793 0.940895
O O8 0.279958 0.664665 0.780189
O O9 0.235161 0.737444 0.328951
O O10 0.000000 0.500000 0.500000
O O11 0.714282 0.800788 0.380824
O O12 0.000000 0.000000 0.500000
O O13 0.447654 0.436997 0.333685
O O14 0.543251 0.310111 0.741437
O O15 0.574048 0.939831 0.931854
O O16 0.467283 0.662101 0.963593
O O17 0.500000 0.000000 0.500000
O O18 0.500000 0.500000 0.000000
#
# Coordination Sequence:
#
# PCOD9015124 Si02
#       8
#     2   2   2   2   2   2   2   2
#     4  12  22  41  70 101 142 181 223 287 352 406
#     4  11  22  39  66 104 134 185 230 272 357 404
#     4  10  21  41  71  96 135 183 231 293 337 397
#     4  12  23  39  65 106 144 174 226 279 346 423
#     4  12  23  40  69 103 141 179 224 279 345 424
#     4  10  22  39  64 101 129 179 230 273 343 401
#     4  10  21  42  70  98 132 183 235 280 341 397
#     4  11  22  40  64  97 144 177 222 277 343 415
#
# _framework density 21.221703999999999
#
# number of rings (size 3 to 8) (size 9 to 14) (size 15 to 20)
#    0.000    1.000    5.000    3.000    0.000    0.000 
#    0.000    2.500    5.500    6.000    0.000    0.000 
#    0.000    0.000    0.000    0.000    0.000    0.000 
#
# Total GULP energy -89343.801444 kJ/mol
# GULP energy per Si atom -5583.987590 kJ/mol
# Density = 2.117340 g / cm^3
# Si number density = 21.221704 Si / 1000 Ang^3
#
#
#
# Elastic Constant Matrix: (Units=GPa)
#
#
# Indices 1 2 3 4 5 6 
#
# 1 79.9889 29.9784 40.5011 4.9471 19.7446 -10.2470
# 2 29.9784 98.4153 42.9768 -2.1484 12.3933 -7.1936
# 3 40.5011 42.9768 91.3326 4.8640 11.9554 -8.6880
# 4 4.9471 -2.1484 4.8640 39.7220 -4.4577 5.2975
# 5 19.7446 12.3933 11.9554 -4.4577 30.6846 2.6852
# 6 -10.2470 -7.1936 -8.6880 5.2975 2.6852 40.3045
#
#
#
# Elastic Compliance Matrix: (Units=1/GPa)
#
#
# Indices 1 2 3 4 5 6 
#
# 1 0.019518 -0.001842 -0.005791 -0.003606 -0.010482 0.004558
# 2 -0.001842 0.013326 -0.005177 0.001250 -0.002065 0.000767
# 3 -0.005791 -0.005177 0.016309 -0.001850 -0.000931 0.001424
# 4 -0.003606 0.001250 -0.001850 0.027388 0.006966 -0.005156
# 5 -0.010482 -0.002065 -0.000931 0.006966 0.042152 -0.006958
# 6 0.004558 0.000767 0.001424 -0.005156 -0.006958 0.027555
#
#
# Mechanical properties :
#
#
# Convention : Reuss Voigt Hill
#
# Bulk Modulus (GPa) = 42.49303 55.18328 48.83815
# Shear Modulus (GPa) = 27.82210 32.56094 30.19152
#
# Velocity S-wave (km/s) = 3.62473 3.92129 3.77592
# Velocity P-wave (km/s) = 6.13067 6.82362 6.48640
#
# Compressibility (1/GPa) = 0.02353327
#
# Stress axis : x y z
#
# Youngs Moduli (GPa) = 51.23349 75.03876 61.31653
#
# Poissons Ratio (x) = 0.13825 0.35507
# Poissons Ratio (y) = 0.09439 0.31744
# Poissons Ratio (z) = 0.29669 0.38848
#
# Static dielectric constant tensor:
#      x y z
#    x 1.771560 -0.013010 -0.002020 
#    y -0.013010 1.826020 0.018860 
#    z -0.002020 0.018860 1.867710 
# 
# From -- ./inp_files/97628.got.cif
#   From: 2010.05.17/outbox.cif.g08.bks.cpg/sg2_49_cif.got.tgz:97628.got - 2010.06.03 11:33:40.
