data_PCOD9015517
_publ_section_title
;
Structure prediction by ZEFSAII (Michael W. Deem and Ramdas Pophale) SiO2 
 PCOD9015517
Probable space group: P -1
;
_chemical_formula_sum "Si O2"
_cell_formula_units_Z 16
_cell_length_a 12.269856
_cell_length_b 15.861804
_cell_length_c 19.879387
_cell_angle_alpha 29.700070
_cell_angle_beta 47.228061
_cell_angle_gamma 26.940374
_cell_volume 786.360000
_symmetry_space_group_name_H-M "P -1"
_symmetry_group_IT_number 2
_symmetry_cell_setting 'triclinic'
loop_
_space_group_symop_operation_xyz
x,y,z
-x,-y,-z
loop_
_atom_site_type_symbol
_atom_site_label
_atom_site_fract_x
_atom_site_fract_y
_atom_site_fract_z
Si Si1 0.156826 0.111479 0.748482
Si Si2 0.360189 0.166642 0.514014
Si Si3 0.834003 0.145897 0.793614
Si Si4 0.013675 0.918503 0.730994
Si Si5 0.514267 0.128927 0.961539
Si Si6 0.910251 0.804960 0.735747
Si Si7 0.311188 0.862811 0.539073
Si Si8 0.398589 0.246949 0.077909
O O1 0.262080 0.096950 0.645343
O O2 0.898977 0.464402 0.636468
O O3 0.061479 0.012640 0.837031
O O4 0.380672 0.919135 0.844359
O O5 0.579261 0.057434 0.541505
O O6 0.500000 0.000000 0.500000
O O7 0.762281 0.017731 0.923328
O O8 0.568867 0.499955 0.677120
O O9 0.888415 0.117467 0.711735
O O10 0.131055 0.951920 0.610454
O O11 0.828846 0.979255 0.717740
O O12 0.233656 0.575528 0.904038
O O13 0.229634 0.493246 0.820255
O O14 0.520801 0.070448 0.077474
O O15 0.500000 0.000000 0.000000
O O16 0.792140 0.727045 0.838412
O O17 0.824234 0.988807 0.578941
#
# Coordination Sequence:
#
# PCOD9015517 Si02
#       8
#     2   2   2   2   2   2   2   2
#     4  10  23  41  65  93 130 164 214 263 313 381
#     4  10  21  42  63  92 131 170 207 260 317 378
#     4  11  23  42  64  93 128 168 210 263 318 377
#     4  11  23  41  63  92 130 167 209 264 321 373
#     4  11  23  42  64  95 130 170 215 261 321 381
#     4  11  22  41  66  90 130 165 215 266 313 379
#     4  11  22  42  63  95 129 163 215 263 316 375
#     4  11  22  43  64  93 129 170 211 267 317 375
#
# _framework density 20.346914999999999
#
# number of rings (size 3 to 8) (size 9 to 14) (size 15 to 20)
#    0.000    1.250    3.750    4.125    0.000    2.500 
#    4.500    0.000    0.000    0.000    0.000    0.000 
#    0.000    0.000    0.000    0.000    0.000    0.000 
#
# Total GULP energy -89343.747777 kJ/mol
# GULP energy per Si atom -5583.984236 kJ/mol
# Density = 2.030060 g / cm^3
# Si number density = 20.346915 Si / 1000 Ang^3
#
#
#
# Elastic Constant Matrix: (Units=GPa)
#
#
# Indices 1 2 3 4 5 6 
#
# 1 141.8721 35.6729 12.5678 16.3158 -2.8962 -24.8895
# 2 35.6729 81.5765 1.1635 31.5815 -1.7080 2.6980
# 3 12.5678 1.1635 30.2421 29.0946 3.3686 -25.1988
# 4 16.3158 31.5815 29.0946 16.5612 0.2539 -0.9982
# 5 -2.8962 -1.7080 3.3686 0.2539 34.9528 2.2303
# 6 -24.8895 2.6980 -25.1988 -0.9982 2.2303 36.1348
#
#
#
# Elastic Compliance Matrix: (Units=1/GPa)
#
#
# Indices 1 2 3 4 5 6 
#
# 1 0.009245 -0.005171 -0.000729 0.002410 0.000164 0.006302
# 2 -0.005171 0.013811 -0.014787 0.003794 0.002599 -0.014960
# 3 -0.000729 -0.014787 -0.006075 0.039442 -0.000323 -0.002525
# 4 0.002410 0.003794 0.039442 -0.016708 -0.005128 0.028737
# 5 0.000164 0.002599 -0.000323 -0.005128 0.028962 -0.002235
# 6 0.006302 -0.014960 -0.002525 0.028737 -0.002235 0.032303
#
#
# Mechanical properties :
#
#
# Convention : Reuss Voigt Hill
#
# Bulk Modulus (GPa) = -40.99547 39.16657 -0.91445
# Shear Modulus (GPa) = 52.75311 31.14887 41.95099
#
# Velocity S-wave (km/s) = 5.09736 3.91690 4.54562
# Velocity P-wave (km/s) = 3.80160 6.30455 5.20574
#
# Compressibility (1/GPa) = -0.02439294
#
# Stress axis : x y z
#
# Youngs Moduli (GPa) = 108.16610 72.40666 -164.61391
#
# Poissons Ratio (x) = 0.37438 -0.12004
# Poissons Ratio (y) = 0.55928 -2.43418
# Poissons Ratio (z) = 0.07888 1.07069
#
# Static dielectric constant tensor:
#      x y z
#    x 1.750830 0.014840 -0.039150 
#    y 0.014840 1.741140 -0.004020 
#    z -0.039150 -0.004020 1.721400 
# 
# From -- ./inp_files/559907.got.cif
#   From: 2010.05.17/outbox.cif.g08.bks.cpg/sg2_280_cif.got.tgz:559907.got - 2010.06.03 11:33:40.
