data_PCOD9015035
_publ_section_title
;
Structure prediction by ZEFSAII (Michael W. Deem and Ramdas Pophale) SiO2 
 PCOD9015035
Probable space group: P -1
;
_chemical_formula_sum "Si O2"
_cell_formula_units_Z 14
_cell_length_a 5.575156
_cell_length_b 8.880515
_cell_length_c 18.297835
_cell_angle_alpha 134.502165
_cell_angle_beta 95.781044
_cell_angle_gamma 108.305457
_cell_volume 540.183680
_symmetry_space_group_name_H-M "P -1"
_symmetry_group_IT_number 2
_symmetry_cell_setting 'triclinic'
loop_
_space_group_symop_operation_xyz
x,y,z
-x,-y,-z
loop_
_atom_site_type_symbol
_atom_site_label
_atom_site_fract_x
_atom_site_fract_y
_atom_site_fract_z
Si Si1 0.836630 0.232148 0.364136
Si Si2 0.913582 0.596468 0.100603
Si Si3 0.832444 0.237956 0.668710
Si Si4 0.662771 0.797852 0.591103
Si Si5 0.600646 0.822640 0.974430
Si Si6 0.956373 0.902866 0.803579
Si Si7 0.460711 0.473255 0.714650
O O1 0.509335 0.119080 0.334080
O O2 0.898250 0.223328 0.277972
O O3 0.000000 0.500000 0.500000
O O4 0.002799 0.110710 0.362535
O O5 0.056548 0.654903 0.207166
O O6 0.597535 0.359299 0.028220
O O7 0.961557 0.851938 0.156283
O O8 0.000000 0.500000 0.000000
O O9 0.116728 0.334867 0.661089
O O10 0.616609 0.320864 0.668873
O O11 0.662671 0.934688 0.564475
O O12 0.500000 0.500000 0.500000
O O13 0.563027 0.632503 0.846737
O O14 0.500000 0.000000 0.000000
O O15 0.908698 0.001000 0.080457
O O16 0.623934 0.682837 0.727699
#
# Coordination Sequence:
#
# PCOD9015035 Si02
#       7
#     2   2   2   2   2   2   2
#     4  10  23  41  69 105 131 171 234 292 344 395
#     4  11  23  36  63 103 134 177 239 280 332 414
#     4  11  23  43  66  98 138 181 219 283 346 411
#     4  10  21  41  70  98 129 173 228 286 347 393
#     4  11  24  42  63  99 147 187 225 278 346 415
#     4  12  23  41  69 100 139 188 231 287 338 412
#     4  11  25  42  63  97 144 184 222 272 351 416
#
# _framework density 25.917111999999999
#
# number of rings (size 3 to 8) (size 9 to 14) (size 15 to 20)
#    0.000    1.143    1.429    5.143    4.000    2.286 
#    0.000    0.000    0.000   20.571    0.000    0.000 
#    0.000    0.000    0.000    0.000    0.000    0.000 
#
# Total GULP energy -78136.732669 kJ/mol
# GULP energy per Si atom -5581.195191 kJ/mol
# Density = 2.585812 g / cm^3
# Si number density = 25.917112 Si / 1000 Ang^3
#
#
#
# Elastic Constant Matrix: (Units=GPa)
#
#
# Indices 1 2 3 4 5 6 
#
# 1 184.8865 88.3856 40.2066 7.3238 -36.0064 7.8546
# 2 88.3856 179.3981 20.5745 34.2267 -14.7649 13.3861
# 3 40.2066 20.5745 91.6654 -0.5738 -7.8868 -6.5468
# 4 7.3238 34.2267 -0.5738 43.6986 -7.7614 -3.2866
# 5 -36.0064 -14.7649 -7.8868 -7.7614 37.3774 -3.9930
# 6 7.8546 13.3861 -6.5468 -3.2866 -3.9930 64.4191
#
#
#
# Elastic Compliance Matrix: (Units=1/GPa)
#
#
# Indices 1 2 3 4 5 6 
#
# 1 0.009312 -0.004297 -0.002454 0.003099 0.007412 0.000126
# 2 -0.004297 0.009019 -0.000518 -0.006906 -0.002323 -0.001899
# 3 -0.002454 -0.000518 0.012273 0.001190 0.000454 0.001743
# 4 0.003099 -0.006906 0.001190 0.029250 0.006913 0.003099
# 5 0.007412 -0.002323 0.000454 0.006913 0.034736 0.002131
# 6 0.000126 -0.001899 0.001743 0.003099 0.002131 0.016370
#
#
# Mechanical properties :
#
#
# Convention : Reuss Voigt Hill
#
# Bulk Modulus (GPa) = 62.24533 83.80926 73.02730
# Shear Modulus (GPa) = 38.21092 49.55124 43.88108
#
# Velocity S-wave (km/s) = 3.84389 4.37729 4.11923
# Velocity P-wave (km/s) = 6.61588 7.61283 7.13180
#
# Compressibility (1/GPa) = 0.01606546
#
# Stress axis : x y z
#
# Youngs Moduli (GPa) = 107.38966 110.88105 81.48011
#
# Poissons Ratio (x) = 0.47644 0.19994
# Poissons Ratio (y) = 0.46144 0.04223
# Poissons Ratio (z) = 0.26352 0.05747
#
# Static dielectric constant tensor:
#      x y z
#    x 2.040840 -0.042690 0.009470 
#    y -0.042690 1.993100 -0.015250 
#    z 0.009470 -0.015250 2.170640 
# 
# From -- ./inp_files/38944.got.cif
#   From: 2010.05.17/outbox.cif.g08.bks.cpg/sg2_20_cif.got.tgz:38944.got - 2010.06.03 11:33:40.
