data_PCOD9015003
_publ_section_title
;
Structure prediction by ZEFSAII (Michael W. Deem and Ramdas Pophale) SiO2 
 PCOD9015003
Probable space group: P -1
;
_chemical_formula_sum "Si O2"
_cell_formula_units_Z 15
_cell_length_a 9.018546
_cell_length_b 9.651142
_cell_length_c 14.626070
_cell_angle_alpha 60.659560
_cell_angle_beta 127.175834
_cell_angle_gamma 141.366721
_cell_volume 632.873478
_symmetry_space_group_name_H-M "P -1"
_symmetry_group_IT_number 2
_symmetry_cell_setting 'triclinic'
loop_
_space_group_symop_operation_xyz
x,y,z
-x,-y,-z
loop_
_atom_site_type_symbol
_atom_site_label
_atom_site_fract_x
_atom_site_fract_y
_atom_site_fract_z
Si Si1 0.994668 0.084626 0.371993
Si Si2 0.351336 0.172140 0.016045
Si Si3 0.806654 0.066679 0.609415
Si Si4 0.213939 0.159610 0.162544
Si Si5 0.311722 0.716951 0.414442
Si Si6 0.251636 0.540279 0.091890
Si Si7 0.500000 0.500000 0.500000
Si Si8 0.556979 0.124655 0.790899
O O1 0.976415 0.928091 0.344583
O O2 0.271515 0.333372 0.393192
O O3 0.000000 0.000000 0.500000
O O4 0.752857 0.056769 0.282584
O O5 0.382925 0.264916 0.098778
O O6 0.346807 0.979808 0.094402
O O7 0.573705 0.337303 0.972943
O O8 0.075058 0.060560 0.907808
O O9 0.688921 0.910703 0.705920
O O10 0.591141 0.934983 0.491901
O O11 0.881230 0.288269 0.596714
O O12 0.191543 0.318566 0.148349
O O13 0.315721 0.529574 0.472063
O O14 0.308732 0.766394 0.291481
O O15 0.392208 0.698544 0.180338
O O16 0.000000 0.500000 0.000000
#
# Coordination Sequence:
#
# PCOD9015003 Si02
#       8
#     2   2   2   2   2   2   1   2
#     4  11  23  42  67  99 141 178 227 285 345 423
#     4  11  25  47  68 101 140 187 237 293 358 405
#     4  10  21  41  70  95 137 181 221 283 356 409
#     4  11  24  46  72  97 140 189 234 298 347 416
#     4  10  22  41  68 102 135 176 225 280 349 426
#     4  12  27  43  68 106 138 183 244 286 344 424
#     4  10  22  42  68  96 138 176 228 270 346 414
#     4  12  23  44  70 100 142 182 228 290 356 411
#
# _framework density 23.701419000000001
#
# number of rings (size 3 to 8) (size 9 to 14) (size 15 to 20)
#    0.000    1.067    5.333    1.600    5.600    0.000 
#    0.000    3.333    0.000    0.000    0.000    0.000 
#    0.000    0.000    0.000    0.000    0.000    0.000 
#
# Total GULP energy -83587.009834 kJ/mol
# GULP energy per Si atom -5572.467322 kJ/mol
# Density = 2.364747 g / cm^3
# Si number density = 23.701419 Si / 1000 Ang^3
#
#
#
# Elastic Constant Matrix: (Units=GPa)
#
#
# Indices 1 2 3 4 5 6 
#
# 1 120.0319 25.5920 14.1777 5.2685 -12.3607 -34.3144
# 2 25.5920 51.4362 20.3104 0.1705 -0.2156 -31.5865
# 3 14.1777 20.3104 95.6367 -2.1733 -11.6236 1.2340
# 4 5.2685 0.1705 -2.1733 27.9243 -2.6570 1.3589
# 5 -12.3607 -0.2156 -11.6236 -2.6570 38.6266 2.7925
# 6 -34.3144 -31.5865 1.2340 1.3589 2.7925 54.7297
#
#
#
# Elastic Compliance Matrix: (Units=1/GPa)
#
#
# Indices 1 2 3 4 5 6 
#
# 1 0.010804 -0.001184 -0.001172 -0.002178 0.002511 0.006043
# 2 -0.001184 0.035784 -0.008252 -0.002035 -0.004275 0.020365
# 3 -0.001172 -0.008252 0.012999 0.001964 0.004063 -0.006047
# 4 -0.002178 -0.002035 0.001964 0.036819 0.002678 -0.003635
# 5 0.002511 -0.004275 0.004063 0.002678 0.028256 -0.002492
# 6 0.006043 0.020365 -0.006047 -0.003635 -0.002492 0.034167
#
#
# Mechanical properties :
#
#
# Convention : Reuss Voigt Hill
#
# Bulk Modulus (GPa) = 26.06266 43.02944 34.54605
# Shear Modulus (GPa) = 25.92886 38.05775 31.99331
#
# Velocity S-wave (km/s) = 3.31112 4.01149 3.67801
# Velocity P-wave (km/s) = 5.06342 6.29684 5.71351
#
# Compressibility (1/GPa) = 0.03836906
#
# Stress axis : x y z
#
# Youngs Moduli (GPa) = 92.56102 27.94569 76.92867
#
# Poissons Ratio (x) = 0.03308 0.09019
# Poissons Ratio (y) = 0.10957 0.63485
# Poissons Ratio (z) = 0.10852 0.23062
#
# Static dielectric constant tensor:
#      x y z
#    x 1.949840 -0.011600 -0.007280 
#    y -0.011600 1.911660 -0.016760 
#    z -0.007280 -0.016760 1.880410 
# 
# From -- ./inp_files/490845.got.cif
#   From: 2010.05.17/outbox.cif.g08.bks.cpg/sg2_246_cif.got.tgz:490845.got - 2010.06.03 11:33:40.
