data_PCOD9015496
_publ_section_title
;
Structure prediction by ZEFSAII (Michael W. Deem and Ramdas Pophale) SiO2 
 PCOD9015496
Probable space group: P -1
;
_chemical_formula_sum "Si O2"
_cell_formula_units_Z 16
_cell_length_a 8.842762
_cell_length_b 5.661107
_cell_length_c 16.419085
_cell_angle_alpha 69.036243
_cell_angle_beta 101.982217
_cell_angle_gamma 123.919241
_cell_volume 636.881906
_symmetry_space_group_name_H-M "P -1"
_symmetry_group_IT_number 2
_symmetry_cell_setting 'triclinic'
loop_
_space_group_symop_operation_xyz
x,y,z
-x,-y,-z
loop_
_atom_site_type_symbol
_atom_site_label
_atom_site_fract_x
_atom_site_fract_y
_atom_site_fract_z
Si Si1 0.477820 0.343314 0.338014
Si Si2 0.627727 0.565813 0.930777
Si Si3 0.840786 0.597387 0.743283
Si Si4 0.998748 0.229711 0.078574
Si Si5 0.373104 0.140975 0.842590
Si Si6 0.488169 0.068226 0.229243
Si Si7 0.778812 0.622598 0.451723
Si Si8 0.048973 0.665822 0.605813
O O1 0.264939 0.240582 0.321516
O O2 0.598628 0.636297 0.256591
O O3 0.511796 0.110994 0.322739
O O4 0.567320 0.428988 0.425809
O O5 0.838775 0.770990 0.949844
O O6 0.544815 0.256533 0.909254
O O7 0.585831 0.735535 0.836852
O O8 0.500000 0.500000 0.000000
O O9 0.919932 0.693156 0.829885
O O10 0.988905 0.603360 0.700085
O O11 0.671595 0.263510 0.764236
O O12 0.797789 0.953506 0.107430
O O13 0.000000 0.500000 0.000000
O O14 0.349217 0.866133 0.820892
O O15 0.861798 0.560343 0.547921
O O16 0.868570 0.518614 0.402495
O O17 0.837461 0.968785 0.426660
#
# Coordination Sequence:
#
# PCOD9015496 Si02
#       8
#     2   2   2   2   2   2   2   2
#     4  10  22  41  67  96 132 178 221 278 348 410
#     4  11  24  44  62  89 129 169 226 290 347 411
#     4  11  24  42  65  97 135 172 229 287 339 420
#     4  12  25  42  64  95 126 175 228 280 349 411
#     4  10  23  43  64  90 130 172 220 283 346 414
#     4  10  21  42  63  90 131 176 213 288 345 404
#     4  10  23  44  70 102 142 179 231 283 347 417
#     4  10  24  44  70 104 139 181 228 290 342 419
#
# _framework density 25.122398
#
# number of rings (size 3 to 8) (size 9 to 14) (size 15 to 20)
#    0.000    1.500    3.750    1.500    8.750    3.000 
#    2.250    0.625    0.000    0.000    0.000    0.000 
#    0.000    0.000    0.000    0.000    0.000    0.000 
#
# Total GULP energy -89172.098823 kJ/mol
# GULP energy per Si atom -5573.256176 kJ/mol
# Density = 2.506522 g / cm^3
# Si number density = 25.122398 Si / 1000 Ang^3
#
#
#
# Elastic Constant Matrix: (Units=GPa)
#
#
# Indices 1 2 3 4 5 6 
#
# 1 74.6506 2.8600 17.9487 8.0697 -5.9506 -2.7443
# 2 2.8600 39.2944 9.9509 19.9936 2.1848 -4.4894
# 3 17.9487 9.9509 45.6627 19.8304 3.5081 -2.4867
# 4 8.0697 19.9936 19.8304 36.0971 2.9922 0.1669
# 5 -5.9506 2.1848 3.5081 2.9922 48.0308 7.5505
# 6 -2.7443 -4.4894 -2.4867 0.1669 7.5505 36.4987
#
#
#
# Elastic Compliance Matrix: (Units=1/GPa)
#
#
# Indices 1 2 3 4 5 6 
#
# 1 0.015060 0.000656 -0.005930 -0.000661 0.002256 0.000345
# 2 0.000656 0.036341 0.001252 -0.020892 -0.001138 0.004935
# 3 -0.005930 0.001252 0.031415 -0.016434 -0.002444 0.002429
# 4 -0.000661 -0.020892 -0.016434 0.048497 -0.000341 -0.003890
# 5 0.002256 -0.001138 -0.002444 -0.000341 0.022091 -0.004705
# 6 0.000345 0.004935 0.002429 -0.003890 -0.004705 0.029188
#
#
# Mechanical properties :
#
#
# Convention : Reuss Voigt Hill
#
# Bulk Modulus (GPa) = 13.37409 24.56966 18.97187
# Shear Modulus (GPa) = 23.19520 32.71520 27.95520
#
# Velocity S-wave (km/s) = 3.04186 3.61256 3.33942
# Velocity P-wave (km/s) = 4.20385 5.21555 4.73679
#
# Compressibility (1/GPa) = 0.07477143
#
# Stress axis : x y z
#
# Youngs Moduli (GPa) = 66.39919 27.51691 31.83172
#
# Poissons Ratio (x) = -0.01805 0.18877
# Poissons Ratio (y) = -0.04355 -0.03984
# Poissons Ratio (z) = 0.39376 -0.03444
#
# Static dielectric constant tensor:
#      x y z
#    x 2.273640 -0.371010 -0.023940 
#    y -0.371010 2.932010 0.019010 
#    z -0.023940 0.019010 2.024190 
# 
# From -- ./inp_files/109441.got.cif
#   From: 2010.05.17/outbox.cif.g08.bks.cpg/sg2_55_cif.got.tgz:109441.got - 2010.06.03 11:33:40.
