data_PCOD9015336
_publ_section_title
;
Structure prediction by ZEFSAII (Michael W. Deem and Ramdas Pophale) SiO2 
 PCOD9015336
Probable space group: P -1
;
_chemical_formula_sum "Si O2"
_cell_formula_units_Z 16
_cell_length_a 20.115553
_cell_length_b 13.246314
_cell_length_c 23.782460
_cell_angle_alpha 155.791551
_cell_angle_beta 16.128936
_cell_angle_gamma 155.543862
_cell_volume 688.733647
_symmetry_space_group_name_H-M "P -1"
_symmetry_group_IT_number 2
_symmetry_cell_setting 'triclinic'
loop_
_space_group_symop_operation_xyz
x,y,z
-x,-y,-z
loop_
_atom_site_type_symbol
_atom_site_label
_atom_site_fract_x
_atom_site_fract_y
_atom_site_fract_z
Si Si1 0.927710 0.243453 0.860885
Si Si2 0.081818 0.170830 0.820043
Si Si3 0.673254 0.421422 0.587316
Si Si4 0.603911 0.051176 0.357072
Si Si5 0.600926 0.834226 0.775353
Si Si6 0.218758 0.673662 0.286936
Si Si7 0.313548 0.139166 0.923823
Si Si8 0.856025 0.861579 0.477204
O O1 0.994771 0.123532 0.802260
O O2 0.129643 0.258524 0.655885
O O3 0.906014 0.530623 0.030909
O O4 0.646931 0.084393 0.989583
O O5 0.343892 0.116115 0.589818
O O6 0.883049 0.002692 0.940668
O O7 0.475909 0.224498 0.686671
O O8 0.568709 0.626957 0.745304
O O9 0.928015 0.564542 0.485566
O O10 0.744846 0.256112 0.393823
O O11 0.727194 0.020431 0.182022
O O12 0.663487 0.709882 0.602937
O O13 0.859682 0.058303 0.689972
O O14 0.408787 0.815851 0.253232
O O15 0.217249 0.878311 0.343617
O O16 0.297307 0.429018 0.077400
#
# Coordination Sequence:
#
# PCOD9015336 Si02
#       8
#     2   2   2   2   2   2   2   2
#     4  11  23  40  66  93 126 168 206 262 319 371
#     4  11  24  42  64  99 127 158 222 260 309 392
#     4  10  22  43  65  94 134 162 215 270 303 386
#     4  11  23  44  66  95 130 169 210 267 322 368
#     4  10  21  42  60  94 130 162 216 256 306 390
#     4  10  22  45  62  97 130 161 221 262 309 387
#     4  11  24  43  68  93 128 174 208 265 327 370
#     4  10  22  41  64  92 128 170 205 260 318 372
#
# _framework density 23.231041999999999
#
# number of rings (size 3 to 8) (size 9 to 14) (size 15 to 20)
#    0.000    1.500    2.500    1.875    1.750    1.000 
#   20.250    3.125    0.000    0.000    0.000    0.000 
#    0.000    0.000    0.000    0.000    0.000    0.000 
#
# Total GULP energy -89487.704526 kJ/mol
# GULP energy per Si atom -5592.981533 kJ/mol
# Density = 2.317817 g / cm^3
# Si number density = 23.231042 Si / 1000 Ang^3
#
#
#
# Elastic Constant Matrix: (Units=GPa)
#
#
# Indices 1 2 3 4 5 6 
#
# 1 97.1912 23.2080 47.5802 -1.4981 10.6187 -12.9647
# 2 23.2080 61.0881 16.5629 0.0735 -2.9090 -12.2973
# 3 47.5802 16.5629 81.3703 -1.6788 12.7806 -11.2457
# 4 -1.4981 0.0735 -1.6788 17.7938 1.4247 -2.8977
# 5 10.6187 -2.9090 12.7806 1.4247 46.1752 -4.7471
# 6 -12.9647 -12.2973 -11.2457 -2.8977 -4.7471 28.5867
#
#
#
# Elastic Compliance Matrix: (Units=1/GPa)
#
#
# Indices 1 2 3 4 5 6 
#
# 1 0.015353 -0.003327 -0.007733 0.001074 -0.001390 0.002368
# 2 -0.003327 0.019590 -0.001579 0.000355 0.003130 0.006853
# 3 -0.007733 -0.001579 0.018008 0.001719 -0.003096 0.002558
# 4 0.001074 0.000355 0.001719 0.057712 -0.001775 0.006871
# 5 -0.001390 0.003130 -0.003096 -0.001775 0.023415 0.003207
# 6 0.002368 0.006853 0.002558 0.006871 0.003207 0.041238
#
#
# Mechanical properties :
#
#
# Convention : Reuss Voigt Hill
#
# Bulk Modulus (GPa) = 36.13635 46.03908 41.08771
# Shear Modulus (GPa) = 23.83015 28.66438 26.24726
#
# Velocity S-wave (km/s) = 3.20627 3.51648 3.36495
# Velocity P-wave (km/s) = 5.41256 6.02896 5.72906
#
# Compressibility (1/GPa) = 0.02767297
#
# Stress axis : x y z
#
# Youngs Moduli (GPa) = 65.13267 51.04616 55.53171
#
# Poissons Ratio (x) = 0.16984 0.42941
# Poissons Ratio (y) = 0.21670 0.08770
# Poissons Ratio (z) = 0.50365 0.08062
#
# Static dielectric constant tensor:
#      x y z
#    x 1.908860 0.056310 0.024090 
#    y 0.056310 1.884590 0.026570 
#    z 0.024090 0.026570 1.865550 
# 
# From -- ./inp_files/70708.got.cif
#   From: 2010.05.17/outbox.cif.g08.bks.cpg/sg2_36_cif.got.tgz:70708.got - 2010.06.03 11:33:40.
