data_PCOD9015091
_publ_section_title
;
Structure prediction by ZEFSAII (Michael W. Deem and Ramdas Pophale) SiO2 
 PCOD9015091
Probable space group: P -1
;
_chemical_formula_sum "Si O2"
_cell_formula_units_Z 14
_cell_length_a 7.318598
_cell_length_b 12.532880
_cell_length_c 9.061796
_cell_angle_alpha 47.909928
_cell_angle_beta 69.592622
_cell_angle_gamma 98.159575
_cell_volume 486.520911
_symmetry_space_group_name_H-M "P -1"
_symmetry_group_IT_number 2
_symmetry_cell_setting 'triclinic'
loop_
_space_group_symop_operation_xyz
x,y,z
-x,-y,-z
loop_
_atom_site_type_symbol
_atom_site_label
_atom_site_fract_x
_atom_site_fract_y
_atom_site_fract_z
Si Si1 0.911735 0.252774 0.446105
Si Si2 0.289685 0.810668 0.108050
Si Si3 0.751866 0.875866 0.826647
Si Si4 0.406215 0.355399 0.481061
Si Si5 0.878801 0.662719 0.165747
Si Si6 0.535134 0.899987 0.449893
Si Si7 0.624164 0.428128 0.938569
O O1 0.827426 0.225135 0.666683
O O2 0.727844 0.232018 0.399177
O O3 0.121494 0.446434 0.187093
O O4 0.914579 0.079858 0.574526
O O5 0.543495 0.840593 0.030539
O O6 0.101737 0.674366 0.166476
O O7 0.352980 0.975584 0.839728
O O8 0.891877 0.787335 0.915103
O O9 0.570307 0.772857 0.837981
O O10 0.668045 0.472030 0.361800
O O11 0.217332 0.272137 0.738129
O O12 0.364641 0.220118 0.493603
O O13 0.365609 0.498305 0.295162
O O14 0.500000 0.000000 0.500000
O O15 0.500000 0.500000 0.000000
#
# Coordination Sequence:
#
# PCOD9015091 Si02
#       7
#     2   2   2   2   2   2   2
#     4  11  24  46  70  99 137 182 230 293 342 409
#     4  11  23  43  72 105 134 183 235 284 353 415
#     4  10  24  42  67 104 140 172 232 284 344 423
#     4  10  22  42  64 100 139 170 237 285 345 422
#     4  10  21  41  71 104 132 181 226 300 347 394
#     4  11  26  43  68 104 140 184 229 287 357 422
#     4  11  26  43  66  97 134 187 228 281 354 413
#
# _framework density 28.775741
#
# number of rings (size 3 to 8) (size 9 to 14) (size 15 to 20)
#    0.000    1.429    1.429    3.429    8.000    4.571 
#    0.000    1.429    0.000    0.000    0.000    0.000 
#    0.000    0.000    0.000    0.000    0.000    0.000 
#
# Total GULP energy -78089.171022 kJ/mol
# GULP energy per Si atom -5577.797930 kJ/mol
# Density = 2.871025 g / cm^3
# Si number density = 28.775741 Si / 1000 Ang^3
#
#
#
# Elastic Constant Matrix: (Units=GPa)
#
#
# Indices 1 2 3 4 5 6 
#
# 1 97.6345 22.5190 23.6601 -31.1127 -13.1997 25.0016
# 2 22.5190 185.6623 48.9490 -23.9252 -8.6272 5.4939
# 3 23.6601 48.9490 97.7815 -0.7110 3.5696 -13.3160
# 4 -31.1127 -23.9252 -0.7110 36.7962 -0.4579 -2.2403
# 5 -13.1997 -8.6272 3.5696 -0.4579 46.6717 -29.2360
# 6 25.0016 5.4939 -13.3160 -2.2403 -29.2360 47.0118
#
#
#
# Elastic Compliance Matrix: (Units=1/GPa)
#
#
# Indices 1 2 3 4 5 6 
#
# 1 0.020489 0.002155 -0.007674 0.017746 -0.001411 -0.013354
# 2 0.002155 0.007220 -0.004452 0.006291 0.000815 -0.002444
# 3 -0.007674 -0.004452 0.015509 -0.008469 0.001833 0.009731
# 4 0.017746 0.006291 -0.008469 0.045538 0.001246 -0.009627
# 5 -0.001411 0.000815 0.001833 0.001246 0.035749 0.023466
# 6 -0.013354 -0.002444 0.009731 -0.009627 0.023466 0.045549
#
#
# Mechanical properties :
#
#
# Convention : Reuss Voigt Hill
#
# Bulk Modulus (GPa) = 42.96641 63.48161 53.22401
# Shear Modulus (GPa) = 25.28367 45.15928 35.22147
#
# Velocity S-wave (km/s) = 2.96741 3.96580 3.50236
# Velocity P-wave (km/s) = 5.16765 6.56345 5.90692
#
# Compressibility (1/GPa) = 0.02327399
#
# Stress axis : x y z
#
# Youngs Moduli (GPa) = 48.80682 138.51314 64.47761
#
# Poissons Ratio (x) = -0.29844 0.49482
# Poissons Ratio (y) = -0.10516 0.28707
# Poissons Ratio (z) = 0.37456 0.61669
#
# Static dielectric constant tensor:
#      x y z
#    x 2.492380 0.063580 0.148760 
#    y 0.063580 2.618420 0.374130 
#    z 0.148760 0.374130 2.727080 
# 
# From -- ./inp_files/184961.got.cif
#   From: 2010.05.17/outbox.cif.g08.bks.cpg/sg2_93_cif.got.tgz:184961.got - 2010.06.03 11:33:40.
