data_PCOD9015973
_publ_section_title
;
Structure prediction by ZEFSAII (Michael W. Deem and Ramdas Pophale) SiO2 
 PCOD9015973
Probable space group: P -1
;
_chemical_formula_sum "Si O2"
_cell_formula_units_Z 12
_cell_length_a 9.872325
_cell_length_b 20.011122
_cell_length_c 15.852505
_cell_angle_alpha 161.341999
_cell_angle_beta 143.663041
_cell_angle_gamma 34.677907
_cell_volume 564.020026
_symmetry_space_group_name_H-M "P -1"
_symmetry_group_IT_number 2
_symmetry_cell_setting 'triclinic'
loop_
_space_group_symop_operation_xyz
x,y,z
-x,-y,-z
loop_
_atom_site_type_symbol
_atom_site_label
_atom_site_fract_x
_atom_site_fract_y
_atom_site_fract_z
Si Si1 0.747996 0.299305 0.381667
Si Si2 0.212388 0.152791 0.189743
Si Si3 0.942526 0.392416 0.088662
Si Si4 0.286510 0.915666 0.715567
Si Si5 0.809613 0.414791 0.853167
Si Si6 0.719796 0.440694 0.203372
O O1 0.500000 0.500000 0.500000
O O2 0.778045 0.184797 0.351441
O O3 0.959634 0.403929 0.600747
O O4 0.755204 0.104065 0.085962
O O5 0.426592 0.145695 0.222849
O O6 0.258306 0.315193 0.477694
O O7 0.950318 0.272597 0.163210
O O8 0.741762 0.394270 0.059356
O O9 0.871595 0.390091 0.953220
O O10 0.161989 0.173267 0.954152
O O11 0.192698 0.807017 0.459685
O O12 0.530276 0.566181 0.891078
O O13 0.000000 0.500000 0.000000
#
# Coordination Sequence:
#
# PCOD9015973 Si02
#       6
#     2   2   2   2   2   2
#     4  12  22  37  70 104 133 172 227 270 331 410
#     4  10  21  42  66 102 136 181 210 280 344 387
#     4  12  23  42  69 101 133 181 223 276 337 395
#     4  11  22  43  68  97 140 174 225 280 329 404
#     4  11  24  45  68  97 133 184 234 270 330 405
#     4  10  23  42  70  96 145 171 221 284 336 396
#
# _framework density 21.275839999999999
#
# number of rings (size 3 to 8) (size 9 to 14) (size 15 to 20)
#    0.000    1.000    5.000    2.500    0.000    0.667 
#    0.000    8.333    0.000    0.000    0.000    0.000 
#    0.000    0.000    0.000    0.000    0.000    0.000 
#
# Total GULP energy -67051.014224 kJ/mol
# GULP energy per Si atom -5587.584519 kJ/mol
# Density = 2.122741 g / cm^3
# Si number density = 21.275840 Si / 1000 Ang^3
#
#
#
# Elastic Constant Matrix: (Units=GPa)
#
#
# Indices 1 2 3 4 5 6 
#
# 1 123.3687 42.8463 30.8672 -6.3165 0.0246 -14.9453
# 2 42.8463 93.2198 35.2210 0.7083 -2.8937 -12.8702
# 3 30.8672 35.2210 113.4729 4.7761 -2.9277 -11.9787
# 4 -6.3165 0.7083 4.7761 31.7657 -3.1558 -3.4730
# 5 0.0246 -2.8937 -2.9277 -3.1558 36.2580 -8.1455
# 6 -14.9453 -12.8702 -11.9787 -3.4730 -8.1455 30.4468
#
#
#
# Elastic Compliance Matrix: (Units=1/GPa)
#
#
# Indices 1 2 3 4 5 6 
#
# 1 0.010308 -0.003748 -0.001383 0.002772 0.000588 0.003405
# 2 -0.003748 0.014083 -0.002949 -0.000083 0.001641 0.003383
# 3 -0.001383 -0.002949 0.010431 -0.001429 0.000996 0.002282
# 4 0.002772 -0.000083 -0.001429 0.033266 0.004038 0.005638
# 5 0.000588 0.001641 0.000996 0.004038 0.030381 0.009963
# 6 0.003405 0.003383 0.002282 0.005638 0.009963 0.040152
#
#
# Mechanical properties :
#
#
# Convention : Reuss Voigt Hill
#
# Bulk Modulus (GPa) = 53.58313 60.88116 57.23215
# Shear Modulus (GPa) = 31.05602 34.43588 32.74595
#
# Velocity S-wave (km/s) = 3.82473 4.02748 3.92741
# Velocity P-wave (km/s) = 6.68912 7.09258 6.89380
#
# Compressibility (1/GPa) = 0.01866259
#
# Stress axis : x y z
#
# Youngs Moduli (GPa) = 97.01479 71.00916 95.86996
#
# Poissons Ratio (x) = 0.26614 0.13255
# Poissons Ratio (y) = 0.36361 0.28269
# Poissons Ratio (z) = 0.13413 0.20938
#
# Static dielectric constant tensor:
#      x y z
#    x 1.780690 -0.002120 -0.014760 
#    y -0.002120 1.751130 -0.025670 
#    z -0.014760 -0.025670 1.798400 
# 
# From -- ./inp_files/26122.got.cif
#   From: 2010.05.17/outbox.cif.g08.bks.cpg/sg2_14_cif.got.tgz:26122.got - 2010.06.03 11:33:40.
