data_PCOD9015959
_publ_section_title
;
Structure prediction by ZEFSAII (Michael W. Deem and Ramdas Pophale) SiO2 
 PCOD9015959
Probable space group: P -1
;
_chemical_formula_sum "Si O2"
_cell_formula_units_Z 16
_cell_length_a 8.803637
_cell_length_b 11.158983
_cell_length_c 19.618014
_cell_angle_alpha 140.753036
_cell_angle_beta 145.771015
_cell_angle_gamma 53.804119
_cell_volume 679.131875
_symmetry_space_group_name_H-M "P -1"
_symmetry_group_IT_number 2
_symmetry_cell_setting 'triclinic'
loop_
_space_group_symop_operation_xyz
x,y,z
-x,-y,-z
loop_
_atom_site_type_symbol
_atom_site_label
_atom_site_fract_x
_atom_site_fract_y
_atom_site_fract_z
Si Si1 0.248506 0.855794 0.151859
Si Si2 0.810049 0.092424 0.145212
Si Si3 0.495100 0.728184 0.981382
Si Si4 0.671395 0.930825 0.846479
Si Si5 0.393650 0.510779 0.388936
Si Si6 0.161926 0.322175 0.475872
Si Si7 0.384214 0.608896 0.219021
Si Si8 0.929006 0.548338 0.143516
O O1 0.418820 0.020418 0.242631
O O2 0.355171 0.764941 0.219040
O O3 0.977215 0.938842 0.108358
O O4 0.178766 0.675627 0.997291
O O5 0.798193 0.271299 0.168009
O O6 0.949276 0.148766 0.293721
O O7 0.500000 0.000000 0.000000
O O8 0.618741 0.597777 0.910211
O O9 0.474951 0.938605 0.099432
O O10 0.666584 0.648369 0.071933
O O11 0.616925 0.705386 0.739742
O O12 0.000000 0.000000 0.000000
O O13 0.500000 0.500000 0.500000
O O14 0.618483 0.645080 0.488789
O O15 0.102647 0.579030 0.291368
O O16 0.334414 0.318984 0.606565
O O17 0.000000 0.500000 0.500000
O O18 0.147489 0.591890 0.181286
#
# Coordination Sequence:
#
# PCOD9015959 Si02
#       8
#     2   2   2   2   2   2   2   2
#     4  11  22  40  65  97 137 172 229 276 329 400
#     4  12  23  38  71  99 128 173 222 279 337 397
#     4  11  22  38  66  96 136 173 224 274 331 395
#     4  12  24  42  66 102 132 178 232 271 326 407
#     4  11  25  47  70  92 141 183 220 280 340 400
#     4  11  25  43  66 102 134 174 228 274 345 406
#     4  10  22  42  64  99 137 176 219 283 343 389
#     4  10  21  42  66 101 132 176 228 275 336 399
#
# _framework density 23.559487000000001
#
# number of rings (size 3 to 8) (size 9 to 14) (size 15 to 20)
#    0.000    1.000    3.750    3.750    3.500    2.500 
#    2.250    1.875    0.000    0.000    0.000    0.000 
#    0.000    0.000    0.000    0.000    0.000    0.000 
#
# Total GULP energy -89100.490297 kJ/mol
# GULP energy per Si atom -5568.780644 kJ/mol
# Density = 2.350586 g / cm^3
# Si number density = 23.559487 Si / 1000 Ang^3
#
#
#
# Elastic Constant Matrix: (Units=GPa)
#
#
# Indices 1 2 3 4 5 6 
#
# 1 92.8413 40.9850 41.7207 -9.4305 -16.8790 7.4834
# 2 40.9850 141.4572 39.5707 -40.8477 -9.3577 -5.3983
# 3 41.7207 39.5707 127.8983 -30.8572 -14.3681 -0.8623
# 4 -9.4305 -40.8477 -30.8572 47.8792 12.7486 -13.7830
# 5 -16.8790 -9.3577 -14.3681 12.7486 27.7295 1.2584
# 6 7.4834 -5.3983 -0.8623 -13.7830 1.2584 46.6495
#
#
#
# Elastic Compliance Matrix: (Units=1/GPa)
#
#
# Indices 1 2 3 4 5 6 
#
# 1 0.017044 -0.005869 -0.004900 -0.009510 0.010527 -0.006598
# 2 -0.005869 0.012201 0.000709 0.012954 -0.005331 0.006338
# 3 -0.004900 0.000709 0.011052 0.007981 -0.000843 0.003453
# 4 -0.009510 0.012954 0.007981 0.045107 -0.018792 0.017006
# 5 0.010527 -0.005331 -0.000843 -0.018792 0.049292 -0.009203
# 6 -0.006598 0.006338 0.003453 0.017006 -0.009203 0.028565
#
#
# Mechanical properties :
#
#
# Convention : Reuss Voigt Hill
#
# Bulk Modulus (GPa) = 49.56447 67.41664 58.49056
# Shear Modulus (GPa) = 26.30093 40.44633 33.37363
#
# Velocity S-wave (km/s) = 3.34483 4.14789 3.76782
# Velocity P-wave (km/s) = 6.00007 7.18454 6.61885
#
# Compressibility (1/GPa) = 0.02017574
#
# Stress axis : x y z
#
# Youngs Moduli (GPa) = 58.67308 81.95797 90.48163
#
# Poissons Ratio (x) = 0.48101 0.44338
# Poissons Ratio (y) = 0.34435 -0.06412
# Poissons Ratio (z) = 0.28751 -0.05808
#
# Static dielectric constant tensor:
#      x y z
#    x 1.943120 0.118640 0.111990 
#    y 0.118640 1.943390 -0.004380 
#    z 0.111990 -0.004380 1.804250 
# 
# From -- ./inp_files/589667.got.cif
#   From: 2010.05.17/outbox.cif.g08.bks.cpg/sg2_295_cif.got.tgz:589667.got - 2010.06.03 11:33:40.
