data_PCOD9015941
_publ_section_title
;
Structure prediction by ZEFSAII (Michael W. Deem and Ramdas Pophale) SiO2 
 PCOD9015941
Probable space group: P -1
;
_chemical_formula_sum "Si O2"
_cell_formula_units_Z 16
_cell_length_a 5.588493
_cell_length_b 16.349916
_cell_length_c 15.454403
_cell_angle_alpha 145.951176
_cell_angle_beta 122.847442
_cell_angle_gamma 58.318321
_cell_volume 655.543293
_symmetry_space_group_name_H-M "P -1"
_symmetry_group_IT_number 2
_symmetry_cell_setting 'triclinic'
loop_
_space_group_symop_operation_xyz
x,y,z
-x,-y,-z
loop_
_atom_site_type_symbol
_atom_site_label
_atom_site_fract_x
_atom_site_fract_y
_atom_site_fract_z
Si Si1 0.321223 0.023714 0.098252
Si Si2 0.347109 0.106738 0.639649
Si Si3 0.036902 0.246071 0.460990
Si Si4 0.183858 0.465170 0.227418
Si Si5 0.124135 0.625060 0.193180
Si Si6 0.464429 0.755030 0.770236
Si Si7 0.361541 0.913272 0.628396
Si Si8 0.300334 0.660568 0.082587
O O1 0.350907 0.192802 0.227298
O O2 0.457179 0.996426 0.194368
O O3 0.486877 0.892324 0.957804
O O4 0.000000 0.000000 0.000000
O O5 0.573542 0.202054 0.811532
O O6 0.107627 0.250644 0.696781
O O7 0.500000 0.000000 0.500000
O O8 0.232893 0.013467 0.612048
O O9 0.992942 0.404356 0.636581
O O10 0.843957 0.250699 0.339279
O O11 0.875685 0.143775 0.405419
O O12 0.372050 0.196733 0.460270
O O13 0.304605 0.537493 0.228767
O O14 0.412859 0.382952 0.267679
O O15 0.963795 0.369400 0.055180
O O16 0.250076 0.710493 0.216194
O O17 0.000000 0.500000 0.000000
O O18 0.500000 0.500000 0.000000
#
# Coordination Sequence:
#
# PCOD9015941 Si02
#       8
#     2   2   2   2   2   2   2   2
#     4  10  21  42  65  99 144 181 240 307 359 440
#     4  12  27  45  73 108 144 194 251 308 371 445
#     4  11  25  50  67 112 149 190 247 308 363 448
#     4  11  24  44  74  96 142 198 238 301 377 436
#     4  10  23  45  64 101 141 183 243 304 357 443
#     4  10  23  42  69 102 141 189 243 301 368 438
#     4  11  27  44  75 103 151 192 243 305 378 423
#     4  11  25  45  69 101 146 189 250 305 369 443
#
# _framework density 24.407236000000001
#
# number of rings (size 3 to 8) (size 9 to 14) (size 15 to 20)
#    0.000    1.250    3.750    1.125    8.750    0.500 
#    2.250    1.875    0.000    0.000    0.000    0.000 
#    0.000    0.000    0.000    0.000    0.000    0.000 
#
# Total GULP energy -89199.937214 kJ/mol
# GULP energy per Si atom -5574.996076 kJ/mol
# Density = 2.435168 g / cm^3
# Si number density = 24.407236 Si / 1000 Ang^3
#
#
#
# Elastic Constant Matrix: (Units=GPa)
#
#
# Indices 1 2 3 4 5 6 
#
# 1 64.7381 34.6777 7.4782 8.8682 -4.9291 7.6803
# 2 34.6777 168.9364 40.5278 -18.6377 -6.2599 8.1753
# 3 7.4782 40.5278 113.8645 -11.9533 -5.7784 5.0907
# 4 8.8682 -18.6377 -11.9533 40.8135 -5.4341 -4.7847
# 5 -4.9291 -6.2599 -5.7784 -5.4341 45.7154 -1.0048
# 6 7.6803 8.1753 5.0907 -4.7847 -1.0048 27.2611
#
#
#
# Elastic Compliance Matrix: (Units=1/GPa)
#
#
# Indices 1 2 3 4 5 6 
#
# 1 0.019447 -0.004434 -0.000153 -0.006845 0.000540 -0.005302
# 2 -0.004434 0.007788 -0.002016 0.004041 0.000814 0.000029
# 3 -0.000153 -0.002016 0.009820 0.002053 0.001176 -0.000782
# 4 -0.006845 0.004041 0.002053 0.029595 0.003717 0.005664
# 5 0.000540 0.000814 0.001176 0.003717 0.022654 0.000871
# 6 -0.005302 0.000029 -0.000782 0.005664 0.000871 0.039340
#
#
# Mechanical properties :
#
#
# Convention : Reuss Voigt Hill
#
# Bulk Modulus (GPa) = 41.93121 56.98961 49.46041
# Shear Modulus (GPa) = 33.37779 40.41502 36.89640
#
# Velocity S-wave (km/s) = 3.70203 4.07364 3.89228
# Velocity P-wave (km/s) = 5.95739 6.74731 6.36462
#
# Compressibility (1/GPa) = 0.02384859
#
# Stress axis : x y z
#
# Youngs Moduli (GPa) = 51.42087 128.40526 101.82931
#
# Poissons Ratio (x) = 0.56932 0.01560
# Poissons Ratio (y) = 0.22799 0.20534
# Poissons Ratio (z) = 0.00788 0.25893
#
# Static dielectric constant tensor:
#      x y z
#    x 2.327890 0.443730 -0.152800 
#    y 0.443730 3.517510 -0.546860 
#    z -0.152800 -0.546860 2.185170 
# 
# From -- ./inp_files/484548.got.cif
#   From: 2010.05.17/outbox.cif.g08.bks.cpg/sg2_243_cif.got.tgz:484548.got - 2010.06.03 11:33:40.
