data_PCOD9015260
_publ_section_title
;
Structure prediction by ZEFSAII (Michael W. Deem and Ramdas Pophale) SiO2 
 PCOD9015260
Probable space group: P -1
;
_chemical_formula_sum "Si O2"
_cell_formula_units_Z 16
_cell_length_a 24.952547
_cell_length_b 5.267949
_cell_length_c 9.376587
_cell_angle_alpha 99.896674
_cell_angle_beta 137.772515
_cell_angle_gamma 67.639033
_cell_volume 754.015686
_symmetry_space_group_name_H-M "P -1"
_symmetry_group_IT_number 2
_symmetry_cell_setting 'triclinic'
loop_
_space_group_symop_operation_xyz
x,y,z
-x,-y,-z
loop_
_atom_site_type_symbol
_atom_site_label
_atom_site_fract_x
_atom_site_fract_y
_atom_site_fract_z
Si Si1 0.732502 0.371887 0.704295
Si Si2 0.601553 0.423013 0.681090
Si Si3 0.951493 0.788266 0.510597
Si Si4 0.127990 0.777520 0.795701
Si Si5 0.447640 0.829309 0.947825
Si Si6 0.264282 0.169556 0.470133
Si Si7 0.355903 0.064761 0.071163
Si Si8 0.825483 0.671494 0.407074
O O1 0.641070 0.413533 0.601391
O O2 0.723795 0.617625 0.600759
O O3 0.768851 0.059845 0.681329
O O4 0.797327 0.365989 0.959792
O O5 0.500000 0.500000 0.500000
O O6 0.627489 0.655399 0.835397
O O7 0.641532 0.120409 0.804024
O O8 0.901474 0.786929 0.555560
O O9 0.000000 0.500000 0.500000
O O10 0.032891 0.878752 0.690627
O O11 0.876190 0.943203 0.262542
O O12 0.140472 0.589640 0.659289
O O13 0.354854 0.969002 0.700698
O O14 0.500000 0.500000 0.000000
O O15 0.500000 0.000000 0.000000
O O16 0.428319 0.889916 0.083320
O O17 0.201020 0.355055 0.486753
O O18 0.264602 0.134411 0.822384
#
# Coordination Sequence:
#
# PCOD9015260 Si02
#       8
#     2   2   2   2   2   2   2   2
#     4  12  26  45  67  99 140 175 218 277 348 398
#     4  12  26  41  65  92 132 171 224 281 335 390
#     4   9  20  38  73 103 128 167 230 274 318 392
#     4  10  21  41  73  99 132 175 224 273 329 395
#     4  11  24  43  67  89 130 175 228 277 325 392
#     4  11  28  43  67  98 138 181 216 278 346 395
#     4  11  24  42  66  96 121 177 228 274 324 393
#     4  10  22  43  68  95 132 172 228 268 328 398
#
# _framework density 21.219719000000001
#
# number of rings (size 3 to 8) (size 9 to 14) (size 15 to 20)
#    0.000    1.250    1.250    3.375   10.500    2.000 
#    0.000    1.250    0.000    0.000    0.000    0.000 
#    0.000    0.000    0.000    0.000    0.000    0.000 
#
# Total GULP energy -89222.834771 kJ/mol
# GULP energy per Si atom -5576.427173 kJ/mol
# Density = 2.117142 g / cm^3
# Si number density = 21.219719 Si / 1000 Ang^3
#
#
#
# Elastic Constant Matrix: (Units=GPa)
#
#
# Indices 1 2 3 4 5 6 
#
# 1 167.3625 48.4206 45.6506 -9.1570 -4.5433 -3.1402
# 2 48.4206 69.8053 15.5586 -4.9702 -2.4339 7.5660
# 3 45.6506 15.5586 55.5970 -8.3950 -3.8727 -1.6486
# 4 -9.1570 -4.9702 -8.3950 34.8656 2.8132 -5.0287
# 5 -4.5433 -2.4339 -3.8727 2.8132 31.5720 -6.1646
# 6 -3.1402 7.5660 -1.6486 -5.0287 -6.1646 36.9804
#
#
#
# Elastic Compliance Matrix: (Units=1/GPa)
#
#
# Indices 1 2 3 4 5 6 
#
# 1 0.009154 -0.005168 -0.005918 0.000451 0.000487 0.001713
# 2 -0.005168 0.018630 -0.001051 0.000452 -0.000314 -0.004288
# 3 -0.005918 -0.001051 0.023952 0.004146 0.001962 0.001671
# 4 0.000451 0.000452 0.004146 0.030556 -0.001321 0.004065
# 5 0.000487 -0.000314 0.001962 -0.001321 0.033160 0.005541
# 6 0.001713 -0.004288 0.001671 0.004065 0.005541 0.029615
#
#
# Mechanical properties :
#
#
# Convention : Reuss Voigt Hill
#
# Bulk Modulus (GPa) = 36.41173 56.89161 46.65167
# Shear Modulus (GPa) = 28.01201 32.89260 30.45230
#
# Velocity S-wave (km/s) = 3.63725 3.94140 3.79237
# Velocity P-wave (km/s) = 5.90221 6.89795 6.41942
#
# Compressibility (1/GPa) = 0.02746368
#
# Stress axis : x y z
#
# Youngs Moduli (GPa) = 109.23887 53.67567 41.75019
#
# Poissons Ratio (x) = 0.27737 0.24706
# Poissons Ratio (y) = 0.56450 0.04389
# Poissons Ratio (z) = 0.64643 0.05643
#
# Static dielectric constant tensor:
#      x y z
#    x 1.810650 0.046140 -0.001200 
#    y 0.046140 1.888380 0.005570 
#    z -0.001200 0.005570 1.821230 
# 
# From -- ./inp_files/351048.got.cif
#   From: 2010.05.17/outbox.cif.g08.bks.cpg/sg2_176_cif.got.tgz:351048.got - 2010.06.03 11:33:40.
