data_PCOD9015097
_publ_section_title
;
Structure prediction by ZEFSAII (Michael W. Deem and Ramdas Pophale) SiO2 
 PCOD9015097
Probable space group: P -1
;
_chemical_formula_sum "Si O2"
_cell_formula_units_Z 14
_cell_length_a 12.875382
_cell_length_b 15.809453
_cell_length_c 13.069062
_cell_angle_alpha 146.818064
_cell_angle_beta 35.815410
_cell_angle_gamma 157.470189
_cell_volume 548.708265
_symmetry_space_group_name_H-M "P -1"
_symmetry_group_IT_number 2
_symmetry_cell_setting 'triclinic'
loop_
_space_group_symop_operation_xyz
x,y,z
-x,-y,-z
loop_
_atom_site_type_symbol
_atom_site_label
_atom_site_fract_x
_atom_site_fract_y
_atom_site_fract_z
Si Si1 0.352595 0.905156 0.912321
Si Si2 0.193722 0.039024 0.591687
Si Si3 0.785069 0.547668 0.921128
Si Si4 0.411684 0.262625 0.449236
Si Si5 0.601728 0.735910 0.784936
Si Si6 0.197161 0.787550 0.481160
Si Si7 0.295846 0.405589 0.189292
O O1 0.391910 0.753328 0.691211
O O2 0.026466 0.726389 0.992479
O O3 0.500000 0.000000 0.000000
O O4 0.479244 0.142393 0.994192
O O5 0.199372 0.866790 0.447888
O O6 0.922730 0.927477 0.746440
O O7 0.161862 0.044140 0.501005
O O8 0.467810 0.307456 0.684715
O O9 0.848877 0.423115 0.700102
O O10 0.791435 0.653172 0.919164
O O11 0.474583 0.368671 0.028944
O O12 0.473789 0.481584 0.653730
O O13 0.420196 0.269496 0.327440
O O14 0.971046 0.726654 0.667179
O O15 0.500000 0.000000 0.500000
#
# Coordination Sequence:
#
# PCOD9015097 Si02
#       7
#     2   2   2   2   2   2   2
#     4  10  21  41  71 105 140 180 235 296 358 426
#     4  12  22  44  66 101 136 186 234 292 363 421
#     4  11  23  47  71 104 145 186 242 299 357 433
#     4  10  23  41  69 103 137 184 239 295 351 435
#     4  10  21  43  69  98 141 182 234 295 361 419
#     4  12  27  45  70 106 143 193 240 295 367 425
#     4  11  25  44  70 102 145 185 241 297 354 443
#
# _framework density 25.514468999999998
#
# number of rings (size 3 to 8) (size 9 to 14) (size 15 to 20)
#    0.000    1.143    2.857    3.429    2.000    0.571 
#    5.143    0.000    0.000    8.571    0.000    0.000 
#    0.000    0.000    0.000    0.000    0.000    0.000 
#
# Total GULP energy -78066.804703 kJ/mol
# GULP energy per Si atom -5576.200336 kJ/mol
# Density = 2.545640 g / cm^3
# Si number density = 25.514469 Si / 1000 Ang^3
#
#
#
# Elastic Constant Matrix: (Units=GPa)
#
#
# Indices 1 2 3 4 5 6 
#
# 1 139.5290 36.8719 62.4797 4.6948 -22.8926 -0.9352
# 2 36.8719 63.6555 29.9506 -18.6247 -11.6025 5.2789
# 3 62.4797 29.9506 123.1719 -18.5181 -31.4440 -5.5653
# 4 4.6948 -18.6247 -18.5181 34.6658 -4.3470 -4.0472
# 5 -22.8926 -11.6025 -31.4440 -4.3470 56.3351 9.8302
# 6 -0.9352 5.2789 -5.5653 -4.0472 9.8302 43.1454
#
#
#
# Elastic Compliance Matrix: (Units=1/GPa)
#
#
# Indices 1 2 3 4 5 6 
#
# 1 0.011633 -0.006500 -0.005650 -0.008171 -0.000331 -0.000372
# 2 -0.006500 0.024492 0.000493 0.014524 0.004267 -0.002684
# 3 -0.005650 0.000493 0.013867 0.009328 0.006074 0.001097
# 4 -0.008171 0.014524 0.009328 0.043923 0.007997 0.001547
# 5 -0.000331 0.004267 0.006074 0.007997 0.023252 -0.004293
# 6 -0.000372 -0.002684 0.001097 0.001547 -0.004293 0.024763
#
#
# Mechanical properties :
#
#
# Convention : Reuss Voigt Hill
#
# Bulk Modulus (GPa) = 37.48178 64.99565 51.23871
# Shear Modulus (GPa) = 28.71318 39.96621 34.33970
#
# Velocity S-wave (km/s) = 3.35829 3.96209 3.67262
# Velocity P-wave (km/s) = 5.45525 6.81617 6.17333
#
# Compressibility (1/GPa) = 0.02667963
#
# Stress axis : x y z
#
# Youngs Moduli (GPa) = 85.96415 40.82891 72.11219
#
# Poissons Ratio (x) = 0.26538 0.40743
# Poissons Ratio (y) = 0.55875 -0.03557
# Poissons Ratio (z) = 0.48569 -0.02014
#
# Static dielectric constant tensor:
#      x y z
#    x 2.044150 -0.024170 0.006210 
#    y -0.024170 2.121530 0.026210 
#    z 0.006210 0.026210 2.103950 
# 
# From -- ./inp_files/534915.got.cif
#   From: 2010.05.17/outbox.cif.g08.bks.cpg/sg2_268_cif.got.tgz:534915.got - 2010.06.03 11:33:40.
