data_PCOD9015421
_publ_section_title
;
Structure prediction by ZEFSAII (Michael W. Deem and Ramdas Pophale) SiO2 
 PCOD9015421
Probable space group: P -1
;
_chemical_formula_sum "Si O2"
_cell_formula_units_Z 16
_cell_length_a 7.556247
_cell_length_b 15.648796
_cell_length_c 10.378554
_cell_angle_alpha 46.287977
_cell_angle_beta 44.753983
_cell_angle_gamma 68.833207
_cell_volume 603.945109
_symmetry_space_group_name_H-M "P -1"
_symmetry_group_IT_number 2
_symmetry_cell_setting 'triclinic'
loop_
_space_group_symop_operation_xyz
x,y,z
-x,-y,-z
loop_
_atom_site_type_symbol
_atom_site_label
_atom_site_fract_x
_atom_site_fract_y
_atom_site_fract_z
Si Si1 0.936086 0.578517 0.287788
Si Si2 0.896609 0.023525 0.724436
Si Si3 0.414163 0.630631 0.155809
Si Si4 0.622158 0.026654 0.592239
Si Si5 0.466277 0.269584 0.460786
Si Si6 0.178730 0.479738 0.046621
Si Si7 0.594285 0.747131 0.203968
Si Si8 0.096468 0.879344 0.113399
O O1 0.196037 0.648551 0.152696
O O2 0.717593 0.503549 0.575668
O O3 0.807791 0.666685 0.179233
O O4 0.016463 0.476972 0.262864
O O5 0.784613 0.049861 0.618110
O O6 0.866598 0.114030 0.758457
O O7 0.732162 0.889539 0.990312
O O8 0.189333 0.012066 0.566973
O O9 0.678802 0.624880 0.953654
O O10 0.460101 0.715286 0.169077
O O11 0.547850 0.154304 0.475910
O O12 0.370661 0.915295 0.861435
O O13 0.595885 0.393269 0.191630
O O14 0.554127 0.283384 0.551665
O O15 0.152323 0.231873 0.669450
O O16 0.000000 0.500000 0.000000
O O17 0.000000 0.000000 0.000000
#
# Coordination Sequence:
#
# PCOD9015421 Si02
#       8
#     2   2   2   2   2   2   2   2
#     4  11  24  45  69  96 139 176 223 284 329 402
#     4  11  23  43  66  96 133 173 225 274 333 403
#     4  11  25  45  67 103 134 176 229 271 340 401
#     4  10  23  43  65  95 132 171 225 278 328 398
#     4  11  24  42  68  99 130 179 224 269 345 397
#     4  12  23  45  73  97 138 176 222 282 333 401
#     4  12  22  43  68  97 137 180 218 275 342 394
#     4  10  21  42  62  91 130 169 217 276 326 391
#
# _framework density 26.492473
#
# number of rings (size 3 to 8) (size 9 to 14) (size 15 to 20)
#    0.000    1.000    5.000    2.625    0.000    3.000 
#    6.750    1.250    0.000    0.000    0.000    0.000 
#    0.000    0.000    0.000    0.000    0.000    0.000 
#
# Total GULP energy -89731.952024 kJ/mol
# GULP energy per Si atom -5608.247002 kJ/mol
# Density = 2.643217 g / cm^3
# Si number density = 26.492473 Si / 1000 Ang^3
#
#
#
# Elastic Constant Matrix: (Units=GPa)
#
#
# Indices 1 2 3 4 5 6 
#
# 1 77.5463 22.3884 -1.0685 4.7359 -10.9091 20.3825
# 2 22.3884 112.5817 20.6150 13.0624 -5.4004 -3.3577
# 3 -1.0685 20.6150 63.4014 11.0342 -13.2394 3.6134
# 4 4.7359 13.0624 11.0342 43.8573 2.8106 -9.4580
# 5 -10.9091 -5.4004 -13.2394 2.8106 35.7364 1.5589
# 6 20.3825 -3.3577 3.6134 -9.4580 1.5589 45.3402
#
#
#
# Elastic Compliance Matrix: (Units=1/GPa)
#
#
# Indices 1 2 3 4 5 6 
#
# 1 0.017967 -0.003801 0.004424 -0.004528 0.007337 -0.009908
# 2 -0.003801 0.010467 -0.003600 -0.001191 -0.000930 0.002554
# 3 0.004424 -0.003600 0.020318 -0.006284 0.009068 -0.005497
# 4 -0.004528 -0.001191 -0.006284 0.027447 -0.006415 0.008394
# 5 0.007337 -0.000930 0.009068 -0.006415 0.034234 -0.006605
# 6 -0.009908 0.002554 -0.005497 0.008394 -0.006605 0.029115
#
#
# Mechanical properties :
#
#
# Convention : Reuss Voigt Hill
#
# Bulk Modulus (GPa) = 23.36616 37.48879 30.42748
# Shear Modulus (GPa) = 31.29521 39.09308 35.19415
#
# Velocity S-wave (km/s) = 3.44071 3.84556 3.64876
# Velocity P-wave (km/s) = 4.96223 5.82230 5.40939
#
# Compressibility (1/GPa) = 0.04279693
#
# Stress axis : x y z
#
# Youngs Moduli (GPa) = 55.65820 95.53566 49.21740
#
# Poissons Ratio (x) = 0.36314 -0.21772
# Poissons Ratio (y) = 0.21156 0.17718
# Poissons Ratio (z) = -0.24621 0.34393
#
# Static dielectric constant tensor:
#      x y z
#    x 2.103160 -0.003060 -0.012120 
#    y -0.003060 2.103280 0.005390 
#    z -0.012120 0.005390 1.992870 
# 
# From -- ./inp_files/398525.got.cif
#   From: 2010.05.17/outbox.cif.g08.bks.cpg/sg2_200_cif.got.tgz:398525.got - 2010.06.03 11:33:40.
