data_PCOD9015382
_publ_section_title
;
Structure prediction by ZEFSAII (Michael W. Deem and Ramdas Pophale) SiO2 
 PCOD9015382
Probable space group: P -1
;
_chemical_formula_sum "Si O2"
_cell_formula_units_Z 14
_cell_length_a 15.248784
_cell_length_b 7.731389
_cell_length_c 16.273433
_cell_angle_alpha 85.599344
_cell_angle_beta 26.954309
_cell_angle_gamma 68.241463
_cell_volume 644.548724
_symmetry_space_group_name_H-M "P -1"
_symmetry_group_IT_number 2
_symmetry_cell_setting 'triclinic'
loop_
_space_group_symop_operation_xyz
x,y,z
-x,-y,-z
loop_
_atom_site_type_symbol
_atom_site_label
_atom_site_fract_x
_atom_site_fract_y
_atom_site_fract_z
Si Si1 0.982751 0.450576 0.609194
Si Si2 0.310930 0.446004 0.662517
Si Si3 0.239554 0.941983 0.594650
Si Si4 0.868676 0.051090 0.494275
Si Si5 0.709383 0.700494 0.491242
Si Si6 0.413851 0.730598 0.108181
Si Si7 0.094178 0.059623 0.995103
O O1 0.000000 0.500000 0.500000
O O2 0.073412 0.192447 0.539339
O O3 0.167354 0.434542 0.521420
O O4 0.688400 0.661855 0.877851
O O5 0.500000 0.500000 0.500000
O O6 0.489504 0.213326 0.575559
O O7 0.253770 0.425830 0.618432
O O8 0.042594 0.673612 0.914916
O O9 0.029174 0.961191 0.821768
O O10 0.259610 0.845208 0.491232
O O11 0.164515 0.186615 0.635388
O O12 0.160141 0.954238 0.263872
O O13 0.691829 0.218510 0.711987
O O14 0.399758 0.895430 0.753444
O O15 0.500000 0.500000 0.000000
O O16 0.000000 0.000000 0.000000
#
# Coordination Sequence:
#
# PCOD9015382 Si02
#       7
#     2   2   2   2   2   2   2
#     4  10  23  40  61  95 127 163 211 262 317 378
#     4  10  21  42  61  95 126 159 213 260 315 387
#     4  10  22  41  65  94 128 167 212 262 318 384
#     4   9  20  41  63  91 125 164 213 258 314 381
#     4  11  23  43  64  92 131 167 214 263 320 381
#     4   9  19  41  61  88 124 160 211 258 307 377
#     4  11  23  42  62  92 131 167 210 263 319 380
#
# _framework density 21.720621999999999
#
# number of rings (size 3 to 8) (size 9 to 14) (size 15 to 20)
#    0.000    2.000    2.857    0.429    2.000    3.429 
#   23.143    0.000    0.000    0.000    0.000    0.000 
#    0.000    0.000    0.000    0.000    0.000    0.000 
#
# Total GULP energy -78107.872388 kJ/mol
# GULP energy per Si atom -5579.133742 kJ/mol
# Density = 2.167118 g / cm^3
# Si number density = 21.720622 Si / 1000 Ang^3
#
#
#
# Elastic Constant Matrix: (Units=GPa)
#
#
# Indices 1 2 3 4 5 6 
#
# 1 168.7295 20.0435 32.3045 11.4281 18.5334 -21.8369
# 2 20.0435 43.7811 8.0299 -5.7202 11.5130 -11.2038
# 3 32.3045 8.0299 113.9620 17.3753 8.4092 -6.8714
# 4 11.4281 -5.7202 17.3753 22.5827 1.4417 0.5223
# 5 18.5334 11.5130 8.4092 1.4417 39.0454 2.4186
# 6 -21.8369 -11.2038 -6.8714 0.5223 2.4186 32.3180
#
#
#
# Elastic Compliance Matrix: (Units=1/GPa)
#
#
# Indices 1 2 3 4 5 6 
#
# 1 0.007460 -0.001741 -0.000987 -0.003371 -0.002969 0.004504
# 2 -0.001741 0.029972 -0.002008 0.010349 -0.008534 0.009258
# 3 -0.000987 -0.002008 0.010570 -0.008104 -0.000984 0.001089
# 4 -0.003371 0.010349 -0.008104 0.054978 -0.001663 -0.001177
# 5 -0.002969 -0.008534 -0.000984 -0.001663 0.030270 -0.007413
# 6 0.004504 0.009258 0.001089 -0.001177 -0.007413 0.038000
#
#
# Mechanical properties :
#
#
# Convention : Reuss Voigt Hill
#
# Bulk Modulus (GPa) = 25.95472 49.69203 37.82338
# Shear Modulus (GPa) = 25.83099 36.52889 31.17994
#
# Velocity S-wave (km/s) = 3.45227 4.10538 3.79291
# Velocity P-wave (km/s) = 5.27885 6.73793 6.05251
#
# Compressibility (1/GPa) = 0.03852864
#
# Stress axis : x y z
#
# Youngs Moduli (GPa) = 134.05081 33.36442 94.60679
#
# Poissons Ratio (x) = 0.05809 0.09341
# Poissons Ratio (y) = 0.23341 0.18999
# Poissons Ratio (z) = 0.13235 0.06700
#
# Static dielectric constant tensor:
#      x y z
#    x 1.814820 0.017680 -0.026060 
#    y 0.017680 1.850270 0.024560 
#    z -0.026060 0.024560 1.778810 
# 
# From -- ./inp_files/348559.got.cif
#   From: 2010.05.17/outbox.cif.g08.bks.cpg/sg2_175_cif.got.tgz:348559.got - 2010.06.03 11:33:40.
