data_PCOD9015230
_publ_section_title
;
Structure prediction by ZEFSAII (Michael W. Deem and Ramdas Pophale) SiO2 
 PCOD9015230
Probable space group: P -1
;
_chemical_formula_sum "Si O2"
_cell_formula_units_Z 16
_cell_length_a 14.647163
_cell_length_b 12.057364
_cell_length_c 9.510465
_cell_angle_alpha 128.271865
_cell_angle_beta 141.909447
_cell_angle_gamma 69.926829
_cell_volume 776.542214
_symmetry_space_group_name_H-M "P -1"
_symmetry_group_IT_number 2
_symmetry_cell_setting 'triclinic'
loop_
_space_group_symop_operation_xyz
x,y,z
-x,-y,-z
loop_
_atom_site_type_symbol
_atom_site_label
_atom_site_fract_x
_atom_site_fract_y
_atom_site_fract_z
Si Si1 0.393355 0.359020 0.840995
Si Si2 0.875059 0.035407 0.474261
Si Si3 0.411611 0.765395 0.826419
Si Si4 0.546590 0.900335 0.821651
Si Si5 0.601099 0.889484 0.577693
Si Si6 0.932360 0.614129 0.424799
Si Si7 0.957968 0.049888 0.137512
Si Si8 0.061534 0.633278 0.288322
O O1 0.386785 0.223956 0.618852
O O2 0.235984 0.390637 0.723317
O O3 0.500000 0.500000 0.000000
O O4 0.472033 0.318935 0.044487
O O5 0.916493 0.211756 0.645107
O O6 0.708867 0.943356 0.138578
O O7 0.000000 0.000000 0.500000
O O8 0.914232 0.983311 0.631651
O O9 0.239774 0.665613 0.581448
O O10 0.462656 0.932555 0.083183
O O11 0.422918 0.801533 0.702283
O O12 0.535418 0.822244 0.596854
O O13 0.500000 0.000000 0.500000
O O14 0.780424 0.969783 0.897319
O O15 0.000000 0.500000 0.500000
O O16 0.031629 0.779862 0.712357
O O17 0.952702 0.605319 0.273160
O O18 0.000000 0.000000 0.000000
O O19 0.000000 0.500000 0.000000
#
# Coordination Sequence:
#
# PCOD9015230 Si02
#       8
#     2   2   2   2   2   2   2   2
#     4  12  27  45  67 101 144 186 224 283 357 415
#     4  11  21  41  71  99 135 174 228 287 342 403
#     4  10  22  44  68  99 136 176 224 286 346 406
#     4  10  21  41  73 102 133 175 226 287 347 397
#     4  12  25  42  72 105 138 178 234 286 340 423
#     4  12  27  47  68  98 145 186 226 295 347 408
#     4  12  25  43  71 106 134 181 240 285 340 415
#     4  11  26  45  71  99 136 185 232 283 350 416
#
# _framework density 20.60416
#
# number of rings (size 3 to 8) (size 9 to 14) (size 15 to 20)
#    0.000    0.750    5.000    2.250    3.500    3.000 
#    0.000    1.250    0.000    0.000    0.000    0.000 
#    0.000    0.000    0.000    0.000    0.000    0.000 
#
# Total GULP energy -89278.883618 kJ/mol
# GULP energy per Si atom -5579.930226 kJ/mol
# Density = 2.055726 g / cm^3
# Si number density = 20.604160 Si / 1000 Ang^3
#
#
#
# Elastic Constant Matrix: (Units=GPa)
#
#
# Indices 1 2 3 4 5 6 
#
# 1 153.3116 33.0595 37.8731 -2.7112 -15.2968 -2.6277
# 2 33.0595 126.1650 42.8884 -13.2429 -5.7994 -10.4858
# 3 37.8731 42.8884 54.1114 2.5934 -11.0976 -3.8998
# 4 -2.7112 -13.2429 2.5934 32.6380 -0.3333 0.7574
# 5 -15.2968 -5.7994 -11.0976 -0.3333 45.3375 -5.7346
# 6 -2.6277 -10.4858 -3.8998 0.7574 -5.7346 36.6191
#
#
#
# Elastic Compliance Matrix: (Units=1/GPa)
#
#
# Indices 1 2 3 4 5 6 
#
# 1 0.008011 -0.000123 -0.005253 0.001043 0.001432 0.000183
# 2 -0.000123 0.011969 -0.009621 0.005554 -0.000547 0.002193
# 3 -0.005253 -0.009621 0.031150 -0.006792 0.004706 0.001063
# 4 0.001043 0.005554 -0.006792 0.033511 -0.000329 0.000197
# 5 0.001432 -0.000547 0.004706 -0.000329 0.024156 0.004237
# 6 0.000183 0.002193 0.001063 0.000197 0.004237 0.028722
#
#
# Mechanical properties :
#
#
# Convention : Reuss Voigt Hill
#
# Bulk Modulus (GPa) = 47.31104 62.35888 54.83496
# Shear Modulus (GPa) = 28.64393 37.57006 33.10699
#
# Velocity S-wave (km/s) = 3.73259 4.27479 4.01285
# Velocity P-wave (km/s) = 6.44888 7.39567 6.93844
#
# Compressibility (1/GPa) = 0.02113671
#
# Stress axis : x y z
#
# Youngs Moduli (GPa) = 124.82378 83.54927 32.10322
#
# Poissons Ratio (x) = 0.01028 0.16863
# Poissons Ratio (y) = 0.01536 0.30886
# Poissons Ratio (z) = 0.65566 0.80381
#
# Static dielectric constant tensor:
#      x y z
#    x 1.800760 -0.030170 0.021760 
#    y -0.030170 1.723020 -0.009380 
#    z 0.021760 -0.009380 1.731060 
# 
# From -- ./inp_files/308658.got.cif
#   From: 2010.05.17/outbox.cif.g08.bks.cpg/sg2_155_cif.got.tgz:308658.got - 2010.06.03 11:33:40.
