data_PCOD9015644
_publ_section_title
;
Structure prediction by ZEFSAII (Michael W. Deem and Ramdas Pophale) SiO2 
 PCOD9015644
Probable space group: P -1
;
_chemical_formula_sum "Si O2"
_cell_formula_units_Z 14
_cell_length_a 8.824226
_cell_length_b 16.757357
_cell_length_c 5.327945
_cell_angle_alpha 77.032029
_cell_angle_beta 95.850354
_cell_angle_gamma 134.747164
_cell_volume 543.483205
_symmetry_space_group_name_H-M "P -1"
_symmetry_group_IT_number 2
_symmetry_cell_setting 'triclinic'
loop_
_space_group_symop_operation_xyz
x,y,z
-x,-y,-z
loop_
_atom_site_type_symbol
_atom_site_label
_atom_site_fract_x
_atom_site_fract_y
_atom_site_fract_z
Si Si1 0.329959 0.368551 0.144838
Si Si2 0.940224 0.404536 0.860160
Si Si3 0.227256 0.296543 0.674558
Si Si4 0.646144 0.402330 0.480698
Si Si5 0.440653 0.070606 0.645482
Si Si6 0.112454 0.072425 0.717605
Si Si7 0.700485 0.153536 0.127472
O O1 0.209725 0.347539 0.396045
O O2 0.468823 0.339564 0.268713
O O3 0.500000 0.500000 0.000000
O O4 0.166647 0.293323 0.946700
O O5 0.763457 0.371393 0.655674
O O6 0.156219 0.472350 0.688428
O O7 0.851667 0.290474 0.059197
O O8 0.000000 0.500000 0.000000
O O9 0.486995 0.381719 0.672974
O O10 0.122056 0.172642 0.667241
O O11 0.342733 0.117581 0.698005
O O12 0.523167 0.107651 0.348066
O O13 0.268481 0.930927 0.735056
O O14 0.623323 0.119113 0.847230
O O15 0.000000 0.000000 0.500000
O O16 0.000000 0.000000 0.000000
#
# Coordination Sequence:
#
# PCOD9015644 Si02
#       7
#     2   2   2   2   2   2   2
#     4  10  21  42  64  91 123 172 218 256 324 402
#     4  11  22  38  61 103 133 162 217 266 325 393
#     4  10  22  41  64  91 124 176 210 266 329 391
#     4   9  23  36  62  94 126 173 206 257 330 386
#     4  10  23  46  68  93 128 179 218 269 336 384
#     4  12  25  42  66  99 127 167 229 276 329 386
#     4  10  23  42  70  95 131 174 219 268 330 394
#
# _framework density 25.759763
#
# number of rings (size 3 to 8) (size 9 to 14) (size 15 to 20)
#    0.857    0.857    0.000    3.857    6.000    0.000 
#    5.143    0.000    0.000    0.000    0.000    0.000 
#    0.000    0.000    0.000    0.000    0.000    0.000 
#
# Total GULP energy -78135.834940 kJ/mol
# GULP energy per Si atom -5581.131067 kJ/mol
# Density = 2.570113 g / cm^3
# Si number density = 25.759763 Si / 1000 Ang^3
#
#
#
# Elastic Constant Matrix: (Units=GPa)
#
#
# Indices 1 2 3 4 5 6 
#
# 1 60.5962 9.7367 26.1369 8.1266 15.5731 1.5299
# 2 9.7367 165.7841 73.5672 -9.3057 6.1718 -12.0541
# 3 26.1369 73.5672 190.6410 6.9053 2.5770 1.1574
# 4 8.1266 -9.3057 6.9053 55.4209 -2.6432 -9.6387
# 5 15.5731 6.1718 2.5770 -2.6432 39.2942 -0.7384
# 6 1.5299 -12.0541 1.1574 -9.6387 -0.7384 17.8517
#
#
#
# Elastic Compliance Matrix: (Units=1/GPa)
#
#
# Indices 1 2 3 4 5 6 
#
# 1 0.020312 -0.000366 -0.002367 -0.003877 -0.008178 -0.004266
# 2 -0.000366 0.008252 -0.003285 0.003121 -0.000585 0.007477
# 3 -0.002367 -0.003285 0.006904 -0.001597 0.000832 -0.003291
# 4 -0.003877 0.003121 -0.001597 0.022003 0.002904 0.014543
# 5 -0.008178 -0.000585 0.000832 0.002904 0.028980 0.003019
# 6 -0.004266 0.007477 -0.003291 0.014543 0.003019 0.069622
#
#
# Mechanical properties :
#
#
# Convention : Reuss Voigt Hill
#
# Bulk Modulus (GPa) = 42.67522 70.65587 56.66555
# Shear Modulus (GPa) = 28.42240 43.01873 35.72057
#
# Velocity S-wave (km/s) = 3.32530 4.09099 3.72786
# Velocity P-wave (km/s) = 5.59875 7.05714 6.36982
#
# Compressibility (1/GPa) = 0.02343280
#
# Stress axis : x y z
#
# Youngs Moduli (GPa) = 49.23272 121.18864 144.84335
#
# Poissons Ratio (x) = 0.04437 0.34278
# Poissons Ratio (y) = 0.01802 0.47575
# Poissons Ratio (z) = 0.11651 0.39805
#
# Static dielectric constant tensor:
#      x y z
#    x 2.216620 0.160360 -0.021550 
#    y 0.160360 2.169510 0.016120 
#    z -0.021550 0.016120 2.049340 
# 
# From -- ./inp_files/79726.got.cif
#   From: 2010.05.17/outbox.cif.g08.bks.cpg/sg2_40_cif.got.tgz:79726.got - 2010.06.03 11:33:40.
