data_PCOD9015074
_publ_section_title
;
Structure prediction by ZEFSAII (Michael W. Deem and Ramdas Pophale) SiO2 
 PCOD9015074
Probable space group: P -1
;
_chemical_formula_sum "Si O2"
_cell_formula_units_Z 15
_cell_length_a 9.553911
_cell_length_b 15.316092
_cell_length_c 11.871815
_cell_angle_alpha 151.822068
_cell_angle_beta 69.444621
_cell_angle_gamma 98.847335
_cell_volume 718.892968
_symmetry_space_group_name_H-M "P -1"
_symmetry_group_IT_number 2
_symmetry_cell_setting 'triclinic'
loop_
_space_group_symop_operation_xyz
x,y,z
-x,-y,-z
loop_
_atom_site_type_symbol
_atom_site_label
_atom_site_fract_x
_atom_site_fract_y
_atom_site_fract_z
Si Si1 0.024299 0.343922 0.516431
Si Si2 0.149780 0.808374 0.777281
Si Si3 0.628285 0.901147 0.193995
Si Si4 0.636434 0.957892 0.007000
Si Si5 0.994251 0.786929 0.023617
Si Si6 0.103615 0.608530 0.157127
Si Si7 0.569906 0.674422 0.162677
Si Si8 0.000000 0.000000 0.500000
O O1 0.198078 0.202418 0.266617
O O2 0.888064 0.352673 0.472346
O O3 0.976739 0.282381 0.580402
O O4 0.027012 0.559405 0.779915
O O5 0.120557 0.788065 0.893731
O O6 0.311749 0.851925 0.764075
O O7 0.000000 0.000000 0.000000
O O8 0.815513 0.869450 0.116049
O O9 0.589114 0.747661 0.114054
O O10 0.530395 0.122818 0.515931
O O11 0.590055 0.885323 0.056016
O O12 0.500000 0.000000 0.000000
O O13 0.998729 0.900057 0.264131
O O14 0.116773 0.779529 0.267712
O O15 0.258149 0.427821 0.946370
O O16 0.000000 0.500000 0.000000
O O17 0.500000 0.500000 0.000000
#
# Coordination Sequence:
#
# PCOD9015074 Si02
#       8
#     2   2   2   2   2   2   2   1
#     4  11  23  44  75 101 136 185 246 298 353 431
#     4  10  21  41  71 101 129 185 240 290 352 430
#     4  11  24  46  71 101 143 188 238 291 362 420
#     4  11  26  45  68 103 148 184 233 306 365 430
#     4  12  22  43  71 107 138 185 247 296 350 432
#     4  12  25  45  69 105 143 184 240 300 352 425
#     4  11  26  45  70 100 139 189 237 287 353 428
#     4  12  24  38  68 104 144 178 234 296 358 412
#
# _framework density 20.865414999999999
#
# number of rings (size 3 to 8) (size 9 to 14) (size 15 to 20)
#    0.000    0.800    5.333    2.800    3.733    1.067 
#    7.200    0.667    0.000    0.000    0.000    0.000 
#    0.000    0.000    0.000    0.000    0.000    0.000 
#
# Total GULP energy -83518.783336 kJ/mol
# GULP energy per Si atom -5567.918889 kJ/mol
# Density = 2.081792 g / cm^3
# Si number density = 20.865415 Si / 1000 Ang^3
#
#
#
# Elastic Constant Matrix: (Units=GPa)
#
#
# Indices 1 2 3 4 5 6 
#
# 1 110.9144 60.3726 32.8473 -8.3230 9.3309 -18.0930
# 2 60.3726 125.5364 25.4792 12.1319 0.1199 -21.6915
# 3 32.8473 25.4792 88.4462 7.6398 1.1325 -9.0784
# 4 -8.3230 12.1319 7.6398 36.7298 -7.4022 6.7055
# 5 9.3309 0.1199 1.1325 -7.4022 39.1124 -3.4927
# 6 -18.0930 -21.6915 -9.0784 6.7055 -3.4927 34.5269
#
#
#
# Elastic Compliance Matrix: (Units=1/GPa)
#
#
# Indices 1 2 3 4 5 6 
#
# 1 0.014500 -0.006528 -0.003838 0.005588 -0.002165 0.001184
# 2 -0.006528 0.012790 -0.000088 -0.006612 0.000801 0.005957
# 3 -0.003838 -0.000088 0.013333 -0.004026 -0.000034 0.002217
# 4 0.005588 -0.006612 -0.004026 0.033954 0.004477 -0.008425
# 5 -0.002165 0.000801 -0.000034 0.004477 0.027039 0.001226
# 6 0.001184 0.005957 0.002217 -0.008425 0.001226 0.035669
#
#
# Mechanical properties :
#
#
# Convention : Reuss Voigt Hill
#
# Bulk Modulus (GPa) = 50.72073 62.47723 56.59898
# Shear Modulus (GPa) = 30.34616 35.82035 33.08325
#
# Velocity S-wave (km/s) = 3.81777 4.14784 3.98622
# Velocity P-wave (km/s) = 6.61778 7.27650 6.95494
#
# Compressibility (1/GPa) = 0.01971581
#
# Stress axis : x y z
#
# Youngs Moduli (GPa) = 68.96359 78.18305 75.00287
#
# Poissons Ratio (x) = 0.51037 0.28787
# Poissons Ratio (y) = 0.45018 0.00660
# Poissons Ratio (z) = 0.26469 0.00688
#
# Static dielectric constant tensor:
#      x y z
#    x 1.654150 -0.065840 0.067030 
#    y -0.065840 1.681500 0.058340 
#    z 0.067030 0.058340 1.742640 
# 
# From -- ./inp_files/399953.got.cif
#   From: 2010.05.17/outbox.cif.g08.bks.cpg/sg2_200_cif.got.tgz:399953.got - 2010.06.03 11:33:40.
