data_PCOD9015835
_publ_section_title
;
Structure prediction by ZEFSAII (Michael W. Deem and Ramdas Pophale) SiO2 
 PCOD9015835
Probable space group: P -1
;
_chemical_formula_sum "Si O2"
_cell_formula_units_Z 14
_cell_length_a 8.969145
_cell_length_b 17.389579
_cell_length_c 9.480670
_cell_angle_alpha 47.694802
_cell_angle_beta 75.000102
_cell_angle_gamma 113.035379
_cell_volume 645.447006
_symmetry_space_group_name_H-M "P -1"
_symmetry_group_IT_number 2
_symmetry_cell_setting 'triclinic'
loop_
_space_group_symop_operation_xyz
x,y,z
-x,-y,-z
loop_
_atom_site_type_symbol
_atom_site_label
_atom_site_fract_x
_atom_site_fract_y
_atom_site_fract_z
Si Si1 0.216430 0.183924 0.138744
Si Si2 0.736533 0.337492 0.844856
Si Si3 0.914362 0.517994 0.861787
Si Si4 0.899955 0.731882 0.705109
Si Si5 0.921971 0.987452 0.878518
Si Si6 0.471989 0.986361 0.355398
Si Si7 0.465450 0.869543 0.237355
O O1 0.240881 0.299566 0.084060
O O2 0.102243 0.122922 0.084958
O O3 0.490204 0.276432 0.948024
O O4 0.000000 0.000000 0.500000
O O5 0.767257 0.372316 0.963274
O O6 0.000000 0.500000 0.500000
O O7 0.656654 0.177527 0.029988
O O8 0.798881 0.568294 0.872279
O O9 0.177847 0.686349 0.516310
O O10 0.000000 0.500000 0.000000
O O11 0.921547 0.835396 0.455038
O O12 0.185805 0.862345 0.530996
O O13 0.645473 0.887226 0.093631
O O14 0.000000 0.000000 0.000000
O O15 0.500000 0.000000 0.500000
O O16 0.528287 0.915748 0.332210
O O17 0.500000 0.000000 0.000000
#
# Coordination Sequence:
#
# PCOD9015835 Si02
#       7
#     2   2   2   2   2   2   2
#     4  10  21  42  65  92 133 176 220 271 330 405
#     4  12  23  39  66  99 133 169 218 285 337 375
#     4  11  24  40  64  98 134 169 221 274 338 392
#     4  10  22  43  65  93 134 175 226 268 326 410
#     4  11  22  37  67 100 123 169 229 277 323 386
#     4  11  22  37  67  95 124 179 231 264 320 406
#     4  11  20  42  66  91 132 172 226 277 323 390
#
# _framework density 21.690393
#
# number of rings (size 3 to 8) (size 9 to 14) (size 15 to 20)
#    0.000    1.143    5.714    3.429    2.000    2.857 
#    0.000    0.000    0.000    3.429    0.000    0.000 
#    0.000    0.000    0.000    0.000    0.000    0.000 
#
# Total GULP energy -78137.955362 kJ/mol
# GULP energy per Si atom -5581.282526 kJ/mol
# Density = 2.164102 g / cm^3
# Si number density = 21.690393 Si / 1000 Ang^3
#
#
#
# Elastic Constant Matrix: (Units=GPa)
#
#
# Indices 1 2 3 4 5 6 
#
# 1 44.9799 26.1568 13.3915 12.2855 -2.7467 -1.7211
# 2 26.1568 180.4633 5.6526 25.4177 6.5521 -2.8931
# 3 13.3915 5.6526 62.4656 8.2491 -10.2329 0.1160
# 4 12.2855 25.4177 8.2491 38.8119 1.6999 3.5112
# 5 -2.7467 6.5521 -10.2329 1.6999 29.8147 9.6083
# 6 -1.7211 -2.8931 0.1160 3.5112 9.6083 49.0633
#
#
#
# Elastic Compliance Matrix: (Units=1/GPa)
#
#
# Indices 1 2 3 4 5 6 
#
# 1 0.027033 -0.003009 -0.004489 -0.005784 0.001660 0.000870
# 2 -0.003009 0.006521 0.000216 -0.003366 -0.001720 0.000856
# 3 -0.004489 0.000216 0.018372 -0.002794 0.006404 -0.001242
# 4 -0.005784 -0.003366 -0.002794 0.030675 -0.001778 -0.002242
# 5 0.001660 -0.001720 0.006404 -0.001778 0.038797 -0.007529
# 6 0.000870 0.000856 -0.001242 -0.002242 -0.007529 0.022101
#
#
# Mechanical properties :
#
#
# Convention : Reuss Voigt Hill
#
# Bulk Modulus (GPa) = 26.76534 42.03450 34.39992
# Shear Modulus (GPa) = 29.32267 39.71850 34.52058
#
# Velocity S-wave (km/s) = 3.68077 4.28384 3.99371
# Velocity P-wave (km/s) = 5.51640 6.62494 6.09592
#
# Compressibility (1/GPa) = 0.03736176
#
# Stress axis : x y z
#
# Youngs Moduli (GPa) = 36.99189 153.35131 54.43086
#
# Poissons Ratio (x) = 0.46149 0.24433
# Poissons Ratio (y) = 0.11132 -0.01177
# Poissons Ratio (z) = 0.16605 -0.03316
#
# Static dielectric constant tensor:
#      x y z
#    x 1.858720 0.033120 0.018890 
#    y 0.033120 1.870690 0.039800 
#    z 0.018890 0.039800 1.837670 
# 
# From -- ./inp_files/157180.got.cif
#   From: 2010.05.17/outbox.cif.g08.bks.cpg/sg2_79_cif.got.tgz:157180.got - 2010.06.03 11:33:40.
