data_PCOD9015023
_publ_section_title
;
Structure prediction by ZEFSAII (Michael W. Deem and Ramdas Pophale) SiO2 
 PCOD9015023
Probable space group: P -1
;
_chemical_formula_sum "Si O2"
_cell_formula_units_Z 16
_cell_length_a 8.673403
_cell_length_b 11.888216
_cell_length_c 12.365488
_cell_angle_alpha 124.941071
_cell_angle_beta 124.474005
_cell_angle_gamma 89.063367
_cell_volume 767.044979
_symmetry_space_group_name_H-M "P -1"
_symmetry_group_IT_number 2
_symmetry_cell_setting 'triclinic'
loop_
_space_group_symop_operation_xyz
x,y,z
-x,-y,-z
loop_
_atom_site_type_symbol
_atom_site_label
_atom_site_fract_x
_atom_site_fract_y
_atom_site_fract_z
Si Si1 0.582547 0.563719 0.188498
Si Si2 0.772180 0.854144 0.841797
Si Si3 0.312833 0.755089 0.624070
Si Si4 0.797009 0.853364 0.107514
Si Si5 0.332392 0.710925 0.859649
Si Si6 0.160458 0.437615 0.062248
Si Si7 0.884589 0.599439 0.719555
Si Si8 0.012466 0.120746 0.480818
O O1 0.667980 0.455165 0.222430
O O2 0.391307 0.554485 0.178752
O O3 0.764913 0.733583 0.346475
O O4 0.500000 0.500000 0.000000
O O5 0.550169 0.851312 0.726257
O O6 0.778924 0.708439 0.706367
O O7 0.753300 0.830190 0.950548
O O8 0.000000 0.000000 0.000000
O O9 0.309371 0.762731 0.758072
O O10 0.224351 0.572189 0.466002
O O11 0.159544 0.816221 0.545875
O O12 0.965141 0.022688 0.297825
O O13 0.572307 0.821019 0.053035
O O14 0.868697 0.722812 0.092675
O O15 0.130636 0.690043 0.835573
O O16 0.139654 0.417902 0.171102
O O17 0.000000 0.500000 0.000000
O O18 0.000000 0.000000 0.500000
#
# Coordination Sequence:
#
# PCOD9015023 Si02
#       8
#     2   2   2   2   2   2   2   2
#     4  11  23  44  70  96 130 178 225 273 329 401
#     4  10  24  41  63  97 138 172 205 274 349 402
#     4  11  25  42  66 101 132 178 228 280 328 396
#     4   9  23  41  62  94 131 167 221 269 330 395
#     4  10  21  41  70  97 126 173 229 273 332 397
#     4  10  22  41  66  91 128 174 219 271 332 393
#     4  11  22  39  67  98 132 167 221 277 331 398
#     4  12  26  42  67  97 134 172 230 281 323 393
#
# _framework density 20.859272000000001
#
# number of rings (size 3 to 8) (size 9 to 14) (size 15 to 20)
#    0.000    1.500    1.250    3.750    5.250    2.000 
#    2.250    0.625    0.000    0.000    0.000    0.000 
#    0.000    0.000    0.000    0.000    0.000    0.000 
#
# Total GULP energy -89333.852001 kJ/mol
# GULP energy per Si atom -5583.365750 kJ/mol
# Density = 2.081180 g / cm^3
# Si number density = 20.859272 Si / 1000 Ang^3
#
#
#
# Elastic Constant Matrix: (Units=GPa)
#
#
# Indices 1 2 3 4 5 6 
#
# 1 162.9756 48.3845 47.3631 -4.3892 42.5099 -0.3878
# 2 48.3845 89.1412 27.7829 4.7459 26.2066 -7.2358
# 3 47.3631 27.7829 89.2506 25.5971 15.1783 -7.7626
# 4 -4.3892 4.7459 25.5971 34.4391 5.2419 2.5732
# 5 42.5099 26.2066 15.1783 5.2419 30.8486 3.4117
# 6 -0.3878 -7.2358 -7.7626 2.5732 3.4117 33.9725
#
#
#
# Elastic Compliance Matrix: (Units=1/GPa)
#
#
# Indices 1 2 3 4 5 6 
#
# 1 0.012199 -0.000991 -0.006259 0.008568 -0.014265 -0.000719
# 2 -0.000991 0.016284 -0.002449 0.000957 -0.011869 0.004017
# 3 -0.006259 -0.002449 0.019752 -0.015983 0.003171 0.004812
# 4 0.008568 0.000957 -0.015983 0.044059 -0.011632 -0.005520
# 5 -0.014265 -0.011869 0.003171 -0.011632 0.063398 -0.007452
# 6 -0.000719 0.004017 0.004812 -0.005520 -0.007452 0.032549
#
#
# Mechanical properties :
#
#
# Convention : Reuss Voigt Hill
#
# Bulk Modulus (GPa) = 34.67996 65.38092 50.03044
# Shear Modulus (GPa) = 23.01469 34.37451 28.69460
#
# Velocity S-wave (km/s) = 3.32525 4.06387 3.71297
# Velocity P-wave (km/s) = 5.60400 7.30971 6.51294
#
# Compressibility (1/GPa) = 0.02883510
#
# Stress axis : x y z
#
# Youngs Moduli (GPa) = 81.97298 61.40875 50.62903
#
# Poissons Ratio (x) = 0.06088 0.31689
# Poissons Ratio (y) = 0.08127 0.12401
# Poissons Ratio (z) = 0.51308 0.15042
#
# Static dielectric constant tensor:
#      x y z
#    x 1.873820 -0.009810 0.068840 
#    y -0.009810 1.771620 0.002010 
#    z 0.068840 0.002010 1.807600 
# 
# From -- ./inp_files/190896.got.cif
#   From: 2010.05.17/outbox.cif.g08.bks.cpg/sg2_96_cif.got.tgz:190896.got - 2010.06.03 11:33:40.
