data_PCOD9015526
_publ_section_title
;
Structure prediction by ZEFSAII (Michael W. Deem and Ramdas Pophale) SiO2 
 PCOD9015526
Probable space group: P -1
;
_chemical_formula_sum "Si O2"
_cell_formula_units_Z 16
_cell_length_a 8.917436
_cell_length_b 10.955276
_cell_length_c 9.334798
_cell_angle_alpha 63.950676
_cell_angle_beta 94.141583
_cell_angle_gamma 116.515627
_cell_volume 724.375334
_symmetry_space_group_name_H-M "P -1"
_symmetry_group_IT_number 2
_symmetry_cell_setting 'triclinic'
loop_
_space_group_symop_operation_xyz
x,y,z
-x,-y,-z
loop_
_atom_site_type_symbol
_atom_site_label
_atom_site_fract_x
_atom_site_fract_y
_atom_site_fract_z
Si Si1 0.542305 0.835566 0.000789
Si Si2 0.884477 0.655697 0.497101
Si Si3 0.900425 0.974698 0.358673
Si Si4 0.706453 0.520022 0.157775
Si Si5 0.241220 0.656951 0.522939
Si Si6 0.894637 0.848596 0.977372
Si Si7 0.657259 0.504740 0.824203
Si Si8 0.440129 0.054818 0.735198
O O1 0.703486 0.822581 0.959729
O O2 0.487555 0.918892 0.833944
O O3 0.389284 0.671790 0.112546
O O4 0.598492 0.919114 0.115199
O O5 0.871777 0.809911 0.378522
O O6 0.785322 0.498832 0.480413
O O7 0.802241 0.612439 0.671930
O O8 0.077570 0.684678 0.487736
O O9 0.720468 0.973939 0.356534
O O10 0.000000 0.000000 0.500000
O O11 0.011415 0.109937 0.188065
O O12 0.735233 0.382905 0.291975
O O13 0.520920 0.490494 0.215889
O O14 0.861472 0.686119 0.124904
O O15 0.700561 0.530614 0.980892
O O16 0.400337 0.798713 0.392569
O O17 0.000000 0.000000 0.000000
#
# Coordination Sequence:
#
# PCOD9015526 Si02
#       8
#     2   2   2   2   2   2   2   2
#     4  10  22  40  66  93 124 167 214 260 318 380
#     4  11  24  41  64  93 132 165 215 264 312 385
#     4  12  26  42  65  96 130 170 212 268 328 380
#     4  10  23  38  64  93 127 164 210 259 322 381
#     4  11  24  41  65  97 125 168 213 268 320 369
#     4  11  21  40  63  93 127 172 213 258 315 386
#     4  10  21  42  63  93 126 167 208 260 320 383
#     4  11  23  41  65  95 125 166 215 267 317 381
#
# _framework density 22.087994999999999
#
# number of rings (size 3 to 8) (size 9 to 14) (size 15 to 20)
#    0.000    1.250    2.500    3.000    1.750    6.500 
#    0.000    1.875    0.000    0.000    0.000    0.000 
#    0.000    0.000    0.000    0.000    0.000    0.000 
#
# Total GULP energy -89419.736093 kJ/mol
# GULP energy per Si atom -5588.733506 kJ/mol
# Density = 2.203772 g / cm^3
# Si number density = 22.087995 Si / 1000 Ang^3
#
#
#
# Elastic Constant Matrix: (Units=GPa)
#
#
# Indices 1 2 3 4 5 6 
#
# 1 76.0185 -0.2891 38.8817 -14.6430 -3.6006 19.8170
# 2 -0.2891 25.8574 4.3299 -1.4502 4.4958 11.8758
# 3 38.8817 4.3299 97.9311 -19.7216 -2.4871 18.5176
# 4 -14.6430 -1.4502 -19.7216 38.9668 -2.8460 1.4112
# 5 -3.6006 4.4958 -2.4871 -2.8460 43.9737 -4.6639
# 6 19.8170 11.8758 18.5176 1.4112 -4.6639 27.1620
#
#
#
# Elastic Compliance Matrix: (Units=1/GPa)
#
#
# Indices 1 2 3 4 5 6 
#
# 1 0.021027 0.009272 -0.004222 0.006665 -0.000838 -0.017007
# 2 0.009272 0.055907 0.001460 0.006947 -0.008024 -0.033943
# 3 -0.004222 0.001460 0.014520 0.006091 -0.000106 -0.007792
# 4 0.006665 0.006947 0.006091 0.032060 0.000815 -0.013578
# 5 -0.000838 -0.008024 -0.000106 0.000815 0.024424 0.008343
# 6 -0.017007 -0.033943 -0.007792 -0.013578 0.008343 0.071515
#
#
# Mechanical properties :
#
#
# Convention : Reuss Voigt Hill
#
# Bulk Modulus (GPa) = 9.57161 31.73911 20.65536
# Shear Modulus (GPa) = 20.72484 32.47947 26.60215
#
# Velocity S-wave (km/s) = 3.06647 3.83882 3.47417
# Velocity P-wave (km/s) = 4.10858 5.83517 5.04627
#
# Compressibility (1/GPa) = 0.10447568
#
# Stress axis : x y z
#
# Youngs Moduli (GPa) = 47.55846 17.88688 68.86957
#
# Poissons Ratio (x) = -0.16585 0.29074
# Poissons Ratio (y) = -0.44098 -0.10056
# Poissons Ratio (z) = 0.20077 -0.02612
#
# Static dielectric constant tensor:
#      x y z
#    x 1.764560 -0.021680 0.021290 
#    y -0.021680 1.908920 0.052420 
#    z 0.021290 0.052420 1.798040 
# 
# From -- ./inp_files/185145.got.cif
#   From: 2010.05.17/outbox.cif.g08.bks.cpg/sg2_93_cif.got.tgz:185145.got - 2010.06.03 11:33:40.
