data_PCOD9015069
_publ_section_title
;
Structure prediction by ZEFSAII (Michael W. Deem and Ramdas Pophale) SiO2 
 PCOD9015069
Probable space group: P -1
;
_chemical_formula_sum "Si O2"
_cell_formula_units_Z 12
_cell_length_a 7.846604
_cell_length_b 20.230958
_cell_length_c 13.151310
_cell_angle_alpha 24.964688
_cell_angle_beta 147.028424
_cell_angle_gamma 137.256288
_cell_volume 476.412127
_symmetry_space_group_name_H-M "P -1"
_symmetry_group_IT_number 2
_symmetry_cell_setting 'triclinic'
loop_
_space_group_symop_operation_xyz
x,y,z
-x,-y,-z
loop_
_atom_site_type_symbol
_atom_site_label
_atom_site_fract_x
_atom_site_fract_y
_atom_site_fract_z
Si Si1 0.619352 0.813292 0.204570
Si Si2 0.007611 0.033391 0.205772
Si Si3 0.226580 0.337609 0.845275
Si Si4 0.332861 0.340665 0.133655
Si Si5 0.800843 0.463199 0.851521
Si Si6 0.353050 0.995371 0.636555
O O1 0.657057 0.627804 0.500624
O O2 0.566951 0.867553 0.987316
O O3 0.914729 0.885532 0.302437
O O4 0.307728 0.892407 0.996440
O O5 0.273842 0.982950 0.494335
O O6 0.083543 0.176882 0.972116
O O7 0.280805 0.319498 0.018144
O O8 0.530253 0.367413 0.891894
O O9 0.000000 0.500000 0.500000
O O10 0.024940 0.374260 0.003337
O O11 0.522286 0.834493 0.516593
O O12 0.500000 0.500000 0.000000
O O13 0.000000 0.500000 0.000000
O O14 0.000000 0.000000 0.500000
#
# Coordination Sequence:
#
# PCOD9015069 Si02
#       6
#     2   2   2   2   2   2
#     4  10  21  41  71 100 137 188 230 285 358 415
#     4   9  20  39  71  97 136 186 230 285 352 414
#     4  11  23  45  70 104 141 181 234 291 354 416
#     4  11  25  45  72  98 140 185 229 290 347 413
#     4  12  26  44  73 108 138 186 238 288 355 424
#     4   9  21  41  67  98 137 183 229 286 349 413
#
# _framework density 25.188275000000001
#
# number of rings (size 3 to 8) (size 9 to 14) (size 15 to 20)
#    0.000    1.667    3.333    0.000    9.333    0.667 
#    0.000    3.333    0.000    0.000    0.000    0.000 
#    0.000    0.000    0.000    0.000    0.000    0.000 
#
# Total GULP energy -67222.690067 kJ/mol
# GULP energy per Si atom -5601.890839 kJ/mol
# Density = 2.513095 g / cm^3
# Si number density = 25.188275 Si / 1000 Ang^3
#
#
#
# Elastic Constant Matrix: (Units=GPa)
#
#
# Indices 1 2 3 4 5 6 
#
# 1 183.6463 48.5335 40.9211 -5.9355 -19.8624 18.5375
# 2 48.5335 131.2041 47.2064 -26.7435 -21.0289 4.7949
# 3 40.9211 47.2064 172.6481 -11.6503 -32.9682 -8.1022
# 4 -5.9355 -26.7435 -11.6503 36.7332 5.9856 -10.7558
# 5 -19.8624 -21.0289 -32.9682 5.9856 35.9951 -3.1251
# 6 18.5375 4.7949 -8.1022 -10.7558 -3.1251 35.8545
#
#
#
# Elastic Compliance Matrix: (Units=1/GPa)
#
#
# Indices 1 2 3 4 5 6 
#
# 1 0.006750 -0.002189 -0.001051 -0.002247 0.001512 -0.003977
# 2 -0.002189 0.010743 -0.001314 0.007110 0.002837 0.001778
# 3 -0.001051 -0.001314 0.007767 0.001382 0.005831 0.003397
# 4 -0.002247 0.007110 0.001382 0.035893 -0.000816 0.011220
# 5 0.001512 0.002837 0.005831 -0.000816 0.036015 0.003051
# 6 -0.003977 0.001778 0.003397 0.011220 0.003051 0.034108
#
#
# Mechanical properties :
#
#
# Convention : Reuss Voigt Hill
#
# Bulk Modulus (GPa) = 61.91067 84.53560 73.22314
# Shear Modulus (GPa) = 34.30126 45.10570 39.70348
#
# Velocity S-wave (km/s) = 3.69425 4.23631 3.97453
# Velocity P-wave (km/s) = 6.54440 7.58701 7.08491
#
# Compressibility (1/GPa) = 0.01615230
#
# Stress axis : x y z
#
# Youngs Moduli (GPa) = 148.14037 93.08339 128.75760
#
# Poissons Ratio (x) = 0.20379 0.13532
# Poissons Ratio (y) = 0.32433 0.16912
# Poissons Ratio (z) = 0.15569 0.12227
#
# Static dielectric constant tensor:
#      x y z
#    x 1.947720 0.005180 0.043460 
#    y 0.005180 2.037680 -0.021190 
#    z 0.043460 -0.021190 1.980580 
# 
# From -- ./inp_files/508717.got.cif
#   From: 2010.05.17/outbox.cif.g08.bks.cpg/sg2_255_cif.got.tgz:508717.got - 2010.06.03 11:33:40.
