data_PCOD9015509
_publ_section_title
;
Structure prediction by ZEFSAII (Michael W. Deem and Ramdas Pophale) SiO2 
 PCOD9015509
Probable space group: P -1
;
_chemical_formula_sum "Si O2"
_cell_formula_units_Z 16
_cell_length_a 5.367728
_cell_length_b 13.669446
_cell_length_c 10.404278
_cell_angle_alpha 97.706016
_cell_angle_beta 90.000000
_cell_angle_gamma 66.878560
_cell_volume 694.578984
_symmetry_space_group_name_H-M "P -1"
_symmetry_group_IT_number 2
_symmetry_cell_setting 'triclinic'
loop_
_space_group_symop_operation_xyz
x,y,z
-x,-y,-z
loop_
_atom_site_type_symbol
_atom_site_label
_atom_site_fract_x
_atom_site_fract_y
_atom_site_fract_z
Si Si1 0.438544 0.043555 0.364446
Si Si2 0.657695 0.320598 0.638109
Si Si3 0.656229 0.038692 0.901777
Si Si4 0.974347 0.543555 0.364446
Si Si5 0.798891 0.179402 0.361891
Si Si6 0.233614 0.461308 0.098223
Si Si7 0.850865 0.181924 0.086704
Si Si8 0.285286 0.681925 0.086704
O O1 0.465085 0.955856 0.238840
O O2 0.646594 0.098092 0.338984
O O3 0.123119 0.125850 0.375724
O O4 0.500000 0.000000 0.500000
O O5 0.342778 0.401909 0.661016
O O6 0.676629 0.250000 0.500000
O O7 0.723248 0.261647 0.766690
O O8 0.874820 0.374149 0.624276
O O9 0.941458 0.934807 0.883904
O O10 0.500000 0.000000 0.000000
O O11 0.681220 0.143142 0.977665
O O12 0.000000 0.500000 0.500000
O O13 0.123202 0.455857 0.238840
O O14 0.746541 0.238353 0.233310
O O15 0.311071 0.565193 0.116096
O O16 0.467504 0.356858 0.022335
O O17 0.000000 0.500000 0.000000
O O18 0.955292 0.250000 0.000000
#
# Coordination Sequence:
#
# PCOD9015509 Si02
#       8
#     2   2   2   2   2   2   2   2
#     4  11  24  42  67  93 128 176 212 265 335 380
#     4  11  24  43  62  97 133 163 221 270 318 401
#     4  10  21  42  63  92 129 161 222 268 312 397
#     4  11  24  42  67  93 128 176 212 265 335 380
#     4  11  24  43  62  97 133 163 221 270 318 401
#     4  10  21  42  63  92 129 161 222 268 312 397
#     4  10  23  40  64  94 127 173 212 270 332 378
#     4  10  23  40  64  94 127 173 212 270 332 378
#
# _framework density 23.035536
#
# number of rings (size 3 to 8) (size 9 to 14) (size 15 to 20)
#    0.000    1.500    2.500    1.500    3.500    3.000 
#    0.000    0.000    0.000    0.000    0.000    0.000 
#    0.000    0.000    0.000    0.000    0.000    0.000 
#
# Total GULP energy -89201.100879 kJ/mol
# GULP energy per Si atom -5575.068805 kJ/mol
# Density = 2.298311 g / cm^3
# Si number density = 23.035536 Si / 1000 Ang^3
#
#
#
# Elastic Constant Matrix: (Units=GPa)
#
#
# Indices 1 2 3 4 5 6 
#
# 1 94.8696 2.7010 31.7774 -14.5408 0.2875 1.9936
# 2 2.7010 45.1060 44.5619 -11.3473 0.2192 -0.3353
# 3 31.7774 44.5619 270.6007 -22.3094 -0.1194 -0.2690
# 4 -14.5408 -11.3473 -22.3094 48.5307 -0.2298 -0.2288
# 5 0.2875 0.2192 -0.1194 -0.2298 39.6143 1.3178
# 6 1.9936 -0.3353 -0.2690 -0.2288 1.3178 14.9189
#
#
#
# Elastic Compliance Matrix: (Units=1/GPa)
#
#
# Indices 1 2 3 4 5 6 
#
# 1 0.011455 0.001396 -0.001317 0.003146 -0.000028 -0.001472
# 2 0.001396 0.027569 -0.004301 0.004889 -0.000162 0.000445
# 3 -0.001317 -0.004301 0.004618 0.000724 0.000046 0.000170
# 4 0.003146 0.004889 0.000724 0.023025 0.000084 0.000048
# 5 -0.000028 -0.000162 0.000046 0.000084 0.025319 -0.002234
# 6 -0.001472 0.000445 0.000170 0.000048 -0.002234 0.067437
#
#
# Mechanical properties :
#
#
# Convention : Reuss Voigt Hill
#
# Bulk Modulus (GPa) = 28.40964 63.18408 45.79686
# Shear Modulus (GPa) = 27.83957 42.71517 35.27737
#
# Velocity S-wave (km/s) = 3.48019 4.31085 3.91760
# Velocity P-wave (km/s) = 5.33935 7.22955 6.35512
#
# Compressibility (1/GPa) = 0.03519931
#
# Stress axis : x y z
#
# Youngs Moduli (GPa) = 87.29432 36.27258 216.53303
#
# Poissons Ratio (x) = -0.05064 0.28523
# Poissons Ratio (y) = -0.12187 0.93121
# Poissons Ratio (z) = 0.11499 0.15599
#
# Static dielectric constant tensor:
#      x y z
#    x 2.214720 -0.007930 0.014480 
#    y -0.007930 2.535310 -0.378070 
#    z 0.014480 -0.378070 1.674390 
# 
# From -- ./inp_files/135520.got.cif
#   From: 2010.05.17/outbox.cif.g08.bks.cpg/sg2_68_cif.got.tgz:135520.got - 2010.06.03 11:33:40.
