data_PCOD9015873
_publ_section_title
;
Structure prediction by ZEFSAII (Michael W. Deem and Ramdas Pophale) SiO2 
 PCOD9015873
Probable space group: P -1
;
_chemical_formula_sum "Si O2"
_cell_formula_units_Z 16
_cell_length_a 14.075555
_cell_length_b 9.830342
_cell_length_c 18.529643
_cell_angle_alpha 140.897902
_cell_angle_beta 157.253463
_cell_angle_gamma 43.818242
_cell_volume 625.064566
_symmetry_space_group_name_H-M "P -1"
_symmetry_group_IT_number 2
_symmetry_cell_setting 'triclinic'
loop_
_space_group_symop_operation_xyz
x,y,z
-x,-y,-z
loop_
_atom_site_type_symbol
_atom_site_label
_atom_site_fract_x
_atom_site_fract_y
_atom_site_fract_z
Si Si1 0.532831 0.788473 0.197617
Si Si2 0.156639 0.335992 0.442873
Si Si3 0.638975 0.374706 0.178986
Si Si4 0.114208 0.665804 0.309164
Si Si5 0.483276 0.050527 0.131182
Si Si6 0.991513 0.290503 0.595647
Si Si7 0.374401 0.438802 0.290937
Si Si8 0.666756 0.070557 0.536771
O O1 0.491724 0.541185 0.090570
O O2 0.808404 0.771729 0.349760
O O3 0.407422 0.914027 0.094835
O O4 0.508768 0.932506 0.312275
O O5 0.340582 0.492431 0.678475
O O6 0.092435 0.463269 0.378491
O O7 0.912123 0.344623 0.324405
O O8 0.255491 0.091747 0.412698
O O9 0.554371 0.132742 0.028851
O O10 0.939183 0.696827 0.266359
O O11 0.141288 0.460536 0.190769
O O12 0.388045 0.651334 0.534170
O O13 0.108641 0.866419 0.333507
O O14 0.764958 0.129287 0.362042
O O15 0.337818 0.276613 0.133005
O O16 0.421679 0.687997 0.405295
#
# Coordination Sequence:
#
# PCOD9015873 Si02
#       8
#     2   2   2   2   2   2   2   2
#     4  10  17  30  50  77  99 125 159 198 248 288
#     4   9  19  35  47  68 101 132 163 192 245 296
#     4   9  20  33  48  68 100 137 161 192 241 300
#     4   8  14  28  48  73  95 121 163 197 231 281
#     4  11  18  30  51  76  99 124 165 206 236 278
#     4  10  19  29  51  79 102 122 155 205 249 283
#     4   8  15  28  47  75  95 120 167 201 230 276
#     4   9  15  30  53  67  95 134 163 190 232 297
#
# _framework density 25.597356000000001
#
# number of rings (size 3 to 8) (size 9 to 14) (size 15 to 20)
#    0.750    2.000    2.500    1.500    0.000    0.500 
#    0.000    3.125    0.000    3.000    0.000   14.000 
#    0.000    4.000    0.000    0.000    0.000    0.000 
#
# Total GULP energy -89143.719002 kJ/mol
# GULP energy per Si atom -5571.482438 kJ/mol
# Density = 2.553909 g / cm^3
# Si number density = 25.597356 Si / 1000 Ang^3
#
#
#
# Elastic Constant Matrix: (Units=GPa)
#
#
# Indices 1 2 3 4 5 6 
#
# 1 63.4390 23.6764 30.5663 19.5221 6.0730 -6.5499
# 2 23.6764 135.6985 37.3393 45.5759 -14.5441 1.4921
# 3 30.5663 37.3393 107.1998 39.5122 -8.4863 -12.2714
# 4 19.5221 45.5759 39.5122 44.9737 -6.0402 -4.6934
# 5 6.0730 -14.5441 -8.4863 -6.0402 17.6337 14.0764
# 6 -6.5499 1.4921 -12.2714 -4.6934 14.0764 35.7502
#
#
#
# Elastic Compliance Matrix: (Units=1/GPa)
#
#
# Indices 1 2 3 4 5 6 
#
# 1 0.024863 -0.004614 -0.004466 -0.004381 -0.026435 0.013048
# 2 -0.004614 0.013612 0.001068 -0.011440 0.016693 -0.009122
# 3 -0.004466 0.001068 0.014971 -0.011537 0.005058 0.000770
# 4 -0.004381 -0.011440 -0.011537 0.046176 0.001341 0.001249
# 5 -0.026435 0.016693 0.005058 0.001341 0.124506 -0.052651
# 6 0.013048 -0.009122 0.000770 0.001249 -0.052651 0.051902
#
#
# Mechanical properties :
#
#
# Convention : Reuss Voigt Hill
#
# Bulk Modulus (GPa) = 26.72283 54.38905 40.55594
# Shear Modulus (GPa) = 16.41880 33.98854 25.20367
#
# Velocity S-wave (km/s) = 2.53539 3.64787 3.14127
# Velocity P-wave (km/s) = 4.36271 6.24793 5.38841
#
# Compressibility (1/GPa) = 0.03742119
#
# Stress axis : x y z
#
# Youngs Moduli (GPa) = 40.21995 73.46386 66.79759
#
# Poissons Ratio (x) = 0.33899 0.29834
# Poissons Ratio (y) = 0.18559 -0.07136
# Poissons Ratio (z) = 0.17964 -0.07848
#
# Static dielectric constant tensor:
#      x y z
#    x 2.061910 -0.005220 -0.021920 
#    y -0.005220 2.100250 -0.048400 
#    z -0.021920 -0.048400 2.097800 
# 
# From -- ./inp_files/572787.got.cif
#   From: 2010.05.17/outbox.cif.g08.bks.cpg/sg2_287_cif.got.tgz:572787.got - 2010.06.03 11:33:40.
