data_PCOD9015198
_publ_section_title
;
Structure prediction by ZEFSAII (Michael W. Deem and Ramdas Pophale) SiO2 
 PCOD9015198
Probable space group: P -1
;
_chemical_formula_sum "Si O2"
_cell_formula_units_Z 16
_cell_length_a 11.306722
_cell_length_b 14.506200
_cell_length_c 12.228942
_cell_angle_alpha 151.687175
_cell_angle_beta 81.483389
_cell_angle_gamma 117.114854
_cell_volume 677.609811
_symmetry_space_group_name_H-M "P -1"
_symmetry_group_IT_number 2
_symmetry_cell_setting 'triclinic'
loop_
_space_group_symop_operation_xyz
x,y,z
-x,-y,-z
loop_
_atom_site_type_symbol
_atom_site_label
_atom_site_fract_x
_atom_site_fract_y
_atom_site_fract_z
Si Si1 0.337249 0.417283 0.380284
Si Si2 0.692906 0.428959 0.679931
Si Si3 0.696660 0.202917 0.175622
Si Si4 0.938837 0.294747 0.084612
Si Si5 0.159721 0.880583 0.735218
Si Si6 0.156283 0.779267 0.214650
Si Si7 0.671000 0.783860 0.160779
Si Si8 0.538660 0.125095 0.745118
O O1 0.500000 0.500000 0.500000
O O2 0.387552 0.562954 0.406925
O O3 0.264190 0.523496 0.563211
O O4 0.190951 0.099765 0.039713
O O5 0.593205 0.126320 0.417822
O O6 0.890258 0.630547 0.838995
O O7 0.671568 0.554427 0.915020
O O8 0.771573 0.126676 0.003167
O O9 0.761160 0.196769 0.277102
O O10 0.500000 0.000000 0.000000
O O11 0.001653 0.586473 0.404063
O O12 0.897804 0.185603 0.853881
O O13 0.235403 0.041802 0.779730
O O14 0.244248 0.021249 0.542174
O O15 0.280509 0.749941 0.126228
O O16 0.000000 0.500000 0.000000
O O17 0.491830 0.680473 0.057014
O O18 0.500000 0.000000 0.500000
#
# Coordination Sequence:
#
# PCOD9015198 Si02
#       8
#     2   2   2   2   2   2   2   2
#     4  11  24  42  71 103 132 182 230 289 340 420
#     4  11  24  44  69 102 139 175 244 278 353 419
#     4  12  26  45  71  99 141 179 235 290 345 418
#     4  12  25  42  70 101 137 191 223 291 351 409
#     4  11  22  44  68  95 139 177 228 280 353 404
#     4  11  23  42  68 102 140 178 234 274 347 419
#     4  10  22  44  71  97 136 187 224 295 339 406
#     4  10  21  41  72  93 132 181 226 286 343 401
#
# _framework density 23.612407000000001
#
# number of rings (size 3 to 8) (size 9 to 14) (size 15 to 20)
#    0.000    1.000    5.000    1.125    3.500    3.000 
#    2.250    1.250    0.000    0.000    0.000    0.000 
#    0.000    0.000    0.000    0.000    0.000    0.000 
#
# Total GULP energy -89103.454079 kJ/mol
# GULP energy per Si atom -5568.965880 kJ/mol
# Density = 2.355866 g / cm^3
# Si number density = 23.612407 Si / 1000 Ang^3
#
#
#
# Elastic Constant Matrix: (Units=GPa)
#
#
# Indices 1 2 3 4 5 6 
#
# 1 99.8699 53.5823 43.8919 -10.1701 -10.0390 8.9356
# 2 53.5823 87.8176 1.8277 -23.6603 13.5396 -5.3732
# 3 43.8919 1.8277 84.8494 -15.2375 -13.7304 -1.6186
# 4 -10.1701 -23.6603 -15.2375 34.5043 -3.6748 5.4061
# 5 -10.0390 13.5396 -13.7304 -3.6748 38.1110 -8.1666
# 6 8.9356 -5.3732 -1.6186 5.4061 -8.1666 34.6520
#
#
#
# Elastic Compliance Matrix: (Units=1/GPa)
#
#
# Indices 1 2 3 4 5 6 
#
# 1 0.028884 -0.021936 -0.015541 -0.011372 0.006957 -0.008162
# 2 -0.021936 0.031337 0.012641 0.018677 -0.009269 0.006008
# 3 -0.015541 0.012641 0.022356 0.013320 0.001908 0.005383
# 4 -0.011372 0.018677 0.013320 0.044345 -0.000691 -0.000630
# 5 0.006957 -0.009269 0.001908 -0.000691 0.033002 0.004743
# 6 -0.008162 0.006008 0.005383 -0.000630 0.004743 0.033362
#
#
# Mechanical properties :
#
#
# Convention : Reuss Voigt Hill
#
# Bulk Modulus (GPa) = 30.39033 52.34897 41.36965
# Shear Modulus (GPa) = 19.69078 33.00243 26.34661
#
# Velocity S-wave (km/s) = 2.89089 3.74260 3.34398
# Velocity P-wave (km/s) = 4.90321 6.39487 5.69806
#
# Compressibility (1/GPa) = 0.03290521
#
# Stress axis : x y z
#
# Youngs Moduli (GPa) = 34.62141 31.91094 44.73087
#
# Poissons Ratio (x) = 0.70000 0.69516
# Poissons Ratio (y) = 0.75946 -0.56545
# Poissons Ratio (z) = 0.53805 -0.40339
#
# Static dielectric constant tensor:
#      x y z
#    x 1.988780 -0.040010 -0.083420 
#    y -0.040010 1.533100 -0.393990 
#    z -0.083420 -0.393990 1.658570 
# 
# From -- ./inp_files/434356.got.cif
#   From: 2010.05.17/outbox.cif.g08.bks.cpg/sg2_218_cif.got.tgz:434356.got - 2010.06.03 11:33:40.
