data_PCOD9015915
_publ_section_title
;
Structure prediction by ZEFSAII (Michael W. Deem and Ramdas Pophale) SiO2 
 PCOD9015915
Probable space group: P -1
;
_chemical_formula_sum "Si O2"
_cell_formula_units_Z 16
_cell_length_a 23.889749
_cell_length_b 5.390785
_cell_length_c 9.242990
_cell_angle_alpha 55.756360
_cell_angle_beta 50.474323
_cell_angle_gamma 64.390421
_cell_volume 753.860305
_symmetry_space_group_name_H-M "P -1"
_symmetry_group_IT_number 2
_symmetry_cell_setting 'triclinic'
loop_
_space_group_symop_operation_xyz
x,y,z
-x,-y,-z
loop_
_atom_site_type_symbol
_atom_site_label
_atom_site_fract_x
_atom_site_fract_y
_atom_site_fract_z
Si Si1 0.682131 0.868925 0.422727
Si Si2 0.045062 0.690932 0.973669
Si Si3 0.808222 0.397859 0.402683
Si Si4 0.690382 0.954041 0.717240
Si Si5 0.843223 0.223485 0.693539
Si Si6 0.685840 0.291396 0.016202
Si Si7 0.077268 0.412975 0.322483
Si Si8 0.583783 0.397998 0.866955
O O1 0.758587 0.672755 0.318226
O O2 0.697366 0.964880 0.529547
O O3 0.620170 0.647657 0.629508
O O4 0.662016 0.129107 0.253080
O O5 0.121384 0.732388 0.758134
O O6 0.066113 0.510224 0.143737
O O7 0.000000 0.500000 0.000000
O O8 0.000000 0.000000 0.000000
O O9 0.832768 0.472602 0.500190
O O10 0.750379 0.160966 0.601738
O O11 0.607138 0.092089 0.841296
O O12 0.702127 0.638338 0.884309
O O13 0.872690 0.382722 0.733741
O O14 0.893027 0.941808 0.628934
O O15 0.764634 0.124052 0.896291
O O16 0.627067 0.324479 0.971491
O O17 0.000000 0.500000 0.500000
O O18 0.500000 0.500000 0.000000
#
# Coordination Sequence:
#
# PCOD9015915 Si02
#       8
#     2   2   2   2   2   2   2   2
#     4  10  23  40  66 100 133 176 236 284 348 424
#     4  12  27  44  66  98 139 188 237 298 363 427
#     4  11  23  42  66  95 137 181 230 293 356 419
#     4  10  21  42  65  97 134 177 230 280 356 411
#     4  12  23  41  69  94 136 181 232 296 346 420
#     4  11  23  40  66 102 133 179 237 284 354 417
#     4  12  26  43  64  99 134 183 234 291 361 420
#     4  10  23  45  67  97 142 180 226 288 356 426
#
# _framework density 21.224091999999999
#
# number of rings (size 3 to 8) (size 9 to 14) (size 15 to 20)
#    0.000    1.000    3.750    4.125    3.500    4.500 
#    0.000    1.250    0.000    0.000    0.000    0.000 
#    0.000    0.000    0.000    0.000    0.000    0.000 
#
# Total GULP energy -89249.327364 kJ/mol
# GULP energy per Si atom -5578.082960 kJ/mol
# Density = 2.117579 g / cm^3
# Si number density = 21.224092 Si / 1000 Ang^3
#
#
#
# Elastic Constant Matrix: (Units=GPa)
#
#
# Indices 1 2 3 4 5 6 
#
# 1 97.3831 53.8531 54.3650 3.5179 2.8962 -12.8726
# 2 53.8531 122.3388 51.3811 14.8797 -3.5994 -12.2352
# 3 54.3650 51.3811 142.6515 -1.4129 27.3570 -23.9647
# 4 3.5179 14.8797 -1.4129 37.1734 -21.0205 -3.4784
# 5 2.8962 -3.5994 27.3570 -21.0205 33.0772 6.7439
# 6 -12.8726 -12.2352 -23.9647 -3.4784 6.7439 35.7739
#
#
#
# Elastic Compliance Matrix: (Units=1/GPa)
#
#
# Indices 1 2 3 4 5 6 
#
# 1 0.015508 -0.005013 -0.004666 0.002279 0.003336 0.000333
# 2 -0.005013 0.012038 -0.002945 -0.003249 0.002200 -0.000390
# 3 -0.004666 -0.002945 0.015358 -0.008052 -0.019886 0.010568
# 4 0.002279 -0.003249 -0.008052 0.048876 0.038850 -0.008256
# 5 0.003336 0.002200 -0.019886 0.038850 0.075776 -0.021876
# 6 0.000333 -0.000390 0.010568 -0.008256 -0.021876 0.038340
#
#
# Mechanical properties :
#
#
# Convention : Reuss Voigt Hill
#
# Bulk Modulus (GPa) = 56.63481 75.73020 66.18250
# Shear Modulus (GPa) = 21.09436 34.72317 27.90876
#
# Velocity S-wave (km/s) = 3.15602 4.04917 3.63017
# Velocity P-wave (km/s) = 6.32635 7.59077 6.98722
#
# Compressibility (1/GPa) = 0.01765699
#
# Stress axis : x y z
#
# Youngs Moduli (GPa) = 64.48275 83.06730 65.11082
#
# Poissons Ratio (x) = 0.41639 0.30381
# Poissons Ratio (y) = 0.32323 0.19177
# Poissons Ratio (z) = 0.30088 0.24465
#
# Static dielectric constant tensor:
#      x y z
#    x 1.783260 0.101800 0.021120 
#    y 0.101800 1.699440 -0.048590 
#    z 0.021120 -0.048590 1.763410 
# 
# From -- ./inp_files/55401.got.cif
#   From: 2010.05.17/outbox.cif.g08.bks.cpg/sg2_28_cif.got.tgz:55401.got - 2010.06.03 11:33:40.
