data_PCOD9015888
_publ_section_title
;
Structure prediction by ZEFSAII (Michael W. Deem and Ramdas Pophale) SiO2 
 PCOD9015888
Probable space group: P -1
;
_chemical_formula_sum "Si O2"
_cell_formula_units_Z 16
_cell_length_a 9.690844
_cell_length_b 10.794998
_cell_length_c 7.076749
_cell_angle_alpha 115.718244
_cell_angle_beta 87.706002
_cell_angle_gamma 93.004676
_cell_volume 665.940945
_symmetry_space_group_name_H-M "P -1"
_symmetry_group_IT_number 2
_symmetry_cell_setting 'triclinic'
loop_
_space_group_symop_operation_xyz
x,y,z
-x,-y,-z
loop_
_atom_site_type_symbol
_atom_site_label
_atom_site_fract_x
_atom_site_fract_y
_atom_site_fract_z
Si Si1 0.140710 0.990185 0.371769
Si Si2 0.546536 0.361676 0.004819
Si Si3 0.376326 0.966973 0.630507
Si Si4 0.732536 0.761950 0.028236
Si Si5 0.443673 0.692179 0.451021
Si Si6 0.030933 0.837602 0.932961
Si Si7 0.778682 0.403461 0.336996
Si Si8 0.764993 0.695489 0.423276
O O1 0.187326 0.148264 0.412351
O O2 0.246615 0.941308 0.487075
O O3 0.118941 0.872714 0.139726
O O4 0.000000 0.000000 0.500000
O O5 0.405514 0.315689 0.089008
O O6 0.571761 0.279268 0.754495
O O7 0.500000 0.500000 0.000000
O O8 0.675564 0.375553 0.144729
O O9 0.418084 0.834862 0.653525
O O10 0.500000 0.000000 0.500000
O O11 0.325856 0.086371 0.844907
O O12 0.765539 0.708521 0.203321
O O13 0.879056 0.767566 0.923839
O O14 0.321679 0.594675 0.473663
O O15 0.602901 0.663076 0.455156
O O16 0.118541 0.724595 0.741341
O O17 0.000000 0.000000 0.000000
O O18 0.840463 0.559538 0.399932
#
# Coordination Sequence:
#
# PCOD9015888 Si02
#       8
#     2   2   2   2   2   2   2   2
#     4  11  22  43  73  94 133 189 226 277 351 407
#     4  11  22  42  70 103 132 181 228 278 353 410
#     4  11  18  38  70  98 127 176 229 278 343 407
#     4  10  21  42  65  95 142 172 221 293 335 401
#     4  11  22  41  69  99 145 168 221 295 343 401
#     4  12  27  47  64 101 144 180 236 288 338 422
#     4  12  26  43  73 105 136 185 232 283 357 414
#     4  10  21  42  69 103 133 175 228 286 343 409
#
# _framework density 24.026153000000001
#
# number of rings (size 3 to 8) (size 9 to 14) (size 15 to 20)
#    0.000    1.000    8.750    1.875    0.000    1.500 
#    0.000    2.500    0.000    0.000    0.000    0.000 
#    0.000    0.000    0.000    0.000    0.000    0.000 
#
# Total GULP energy -89222.896491 kJ/mol
# GULP energy per Si atom -5576.431031 kJ/mol
# Density = 2.397147 g / cm^3
# Si number density = 24.026153 Si / 1000 Ang^3
#
#
#
# Elastic Constant Matrix: (Units=GPa)
#
#
# Indices 1 2 3 4 5 6 
#
# 1 125.5333 27.6631 30.1282 6.2693 -29.9749 4.4931
# 2 27.6631 102.3416 19.8488 19.6174 -24.2212 -8.6076
# 3 30.1282 19.8488 79.3201 7.3998 -12.1531 2.7375
# 4 6.2693 19.6174 7.3998 38.9864 -7.2240 -8.1212
# 5 -29.9749 -24.2212 -12.1531 -7.2240 39.4432 3.5647
# 6 4.4931 -8.6076 2.7375 -8.1212 3.5647 34.9750
#
#
#
# Elastic Compliance Matrix: (Units=1/GPa)
#
#
# Indices 1 2 3 4 5 6 
#
# 1 0.010495 -0.000902 -0.002658 0.000109 0.006806 -0.002031
# 2 -0.000902 0.012668 -0.001605 -0.004523 0.005614 0.001737
# 3 -0.002658 -0.001605 0.014426 -0.001615 0.001296 -0.001690
# 4 0.000109 -0.004523 -0.001615 0.029729 0.001735 0.005725
# 5 0.006806 0.005614 0.001296 0.001735 0.034939 -0.002752
# 6 -0.002031 0.001737 -0.001690 0.005725 -0.002752 0.031022
#
#
# Mechanical properties :
#
#
# Convention : Reuss Voigt Hill
#
# Bulk Modulus (GPa) = 36.68583 51.38613 44.03598
# Shear Modulus (GPa) = 32.74486 37.98459 35.36473
#
# Velocity S-wave (km/s) = 3.69573 3.98045 3.84073
# Velocity P-wave (km/s) = 5.78909 6.52375 6.16737
#
# Compressibility (1/GPa) = 0.02725848
#
# Stress axis : x y z
#
# Youngs Moduli (GPa) = 95.28182 78.93927 69.31955
#
# Poissons Ratio (x) = 0.07122 0.18424
# Poissons Ratio (y) = 0.08596 0.11128
# Poissons Ratio (z) = 0.25325 0.12672
#
# Static dielectric constant tensor:
#      x y z
#    x 1.917800 -0.011490 -0.047520 
#    y -0.011490 0.978500 -1.052080 
#    z -0.047520 -1.052080 1.037360 
# 
# From -- ./inp_files/182421.got.cif
#   From: 2010.05.17/outbox.cif.g08.bks.cpg/sg2_92_cif.got.tgz:182421.got - 2010.06.03 11:33:40.
