data_PCOD9015099
_publ_section_title
;
Structure prediction by ZEFSAII (Michael W. Deem and Ramdas Pophale) SiO2 
 PCOD9015099
Probable space group: P -1
;
_chemical_formula_sum "Si O2"
_cell_formula_units_Z 16
_cell_length_a 11.558627
_cell_length_b 15.296160
_cell_length_c 9.620359
_cell_angle_alpha 120.458768
_cell_angle_beta 108.354118
_cell_angle_gamma 29.876973
_cell_volume 698.901751
_symmetry_space_group_name_H-M "P -1"
_symmetry_group_IT_number 2
_symmetry_cell_setting 'triclinic'
loop_
_space_group_symop_operation_xyz
x,y,z
-x,-y,-z
loop_
_atom_site_type_symbol
_atom_site_label
_atom_site_fract_x
_atom_site_fract_y
_atom_site_fract_z
Si Si1 0.190133 0.304120 0.309304
Si Si2 0.609976 0.636903 0.573534
Si Si3 0.964757 0.917322 0.848091
Si Si4 0.400039 0.313819 0.936020
Si Si5 0.148076 0.835297 0.543341
Si Si6 0.788819 0.450247 0.203352
Si Si7 0.891050 0.356599 0.685249
Si Si8 0.390715 0.094987 0.686425
O O1 0.362481 0.268613 0.288137
O O2 0.000000 0.500000 0.500000
O O3 0.023773 0.353111 0.191551
O O4 0.381714 0.093377 0.283830
O O5 0.373867 0.741662 0.601520
O O6 0.630934 0.616228 0.398928
O O7 0.845605 0.416377 0.554906
O O8 0.019435 0.894816 0.686300
O O9 0.124446 0.718543 0.832610
O O10 0.682391 0.094079 0.893401
O O11 0.000000 0.000000 0.000000
O O12 0.359724 0.430083 0.897461
O O13 0.303150 0.273476 0.817606
O O14 0.265735 0.453042 0.131369
O O15 0.209773 0.684088 0.371035
O O16 0.000000 0.000000 0.500000
O O17 0.168921 0.175767 0.684711
O O18 0.500000 0.000000 0.500000
#
# Coordination Sequence:
#
# PCOD9015099 Si02
#       8
#     2   2   2   2   2   2   2   2
#     4  10  21  41  71 106 133 180 236 296 350 421
#     4  11  22  44  71  99 138 184 242 293 355 423
#     4  12  27  47  73 105 143 190 244 292 356 436
#     4  12  27  46  71 108 147 187 239 299 362 425
#     4  12  26  46  71 104 141 190 243 295 362 428
#     4  11  23  46  73 102 141 188 239 291 363 422
#     4  12  26  44  70 106 147 188 235 301 360 425
#     4  12  22  44  74 104 146 187 243 296 354 434
#
# _framework density 22.893059000000001
#
# number of rings (size 3 to 8) (size 9 to 14) (size 15 to 20)
#    0.000    0.500    2.500    7.500    3.500    0.500 
#    2.250    1.250    0.000    0.000    0.000    0.000 
#    0.000    0.000    0.000    0.000    0.000    0.000 
#
# Total GULP energy -89376.459157 kJ/mol
# GULP energy per Si atom -5586.028697 kJ/mol
# Density = 2.284095 g / cm^3
# Si number density = 22.893059 Si / 1000 Ang^3
#
#
#
# Elastic Constant Matrix: (Units=GPa)
#
#
# Indices 1 2 3 4 5 6 
#
# 1 112.0177 19.5279 20.3859 15.9778 21.0650 11.5020
# 2 19.5279 103.0898 3.3978 -4.5221 -3.3843 23.7604
# 3 20.3859 3.3978 77.8385 4.7770 2.7821 17.1208
# 4 15.9778 -4.5221 4.7770 24.7514 1.0079 -6.3148
# 5 21.0650 -3.3843 2.7821 1.0079 31.8321 9.2594
# 6 11.5020 23.7604 17.1208 -6.3148 9.2594 46.3084
#
#
#
# Elastic Compliance Matrix: (Units=1/GPa)
#
#
# Indices 1 2 3 4 5 6 
#
# 1 0.012512 -0.002846 -0.002325 -0.007884 -0.008056 -0.000252
# 2 -0.002846 0.011978 0.001405 0.001847 0.004921 -0.006690
# 3 -0.002325 0.001405 0.014923 -0.002885 0.002374 -0.006529
# 4 -0.007884 0.001847 -0.002885 0.048444 0.001705 0.008342
# 5 -0.008056 0.004921 0.002374 0.001705 0.039654 -0.009098
# 6 -0.000252 -0.006690 -0.006529 0.008342 -0.009098 0.030460
#
#
# Mechanical properties :
#
#
# Convention : Reuss Voigt Hill
#
# Bulk Modulus (GPa) = 31.36770 42.17434 36.77102
# Shear Modulus (GPa) = 28.38806 37.22066 32.80436
#
# Velocity S-wave (km/s) = 3.52522 4.03656 3.78952
# Velocity P-wave (km/s) = 5.50465 6.33935 5.93669
#
# Compressibility (1/GPa) = 0.03187993
#
# Stress axis : x y z
#
# Youngs Moduli (GPa) = 79.92437 83.48923 67.01084
#
# Poissons Ratio (x) = 0.23758 0.15582
# Poissons Ratio (y) = 0.22743 -0.09413
# Poissons Ratio (z) = 0.18585 -0.11728
#
# Static dielectric constant tensor:
#      x y z
#    x 1.956270 0.047900 0.013250 
#    y 0.047900 1.781100 0.020170 
#    z 0.013250 0.020170 1.840840 
# 
# From -- ./inp_files/273760.got.cif
#   From: 2010.05.17/outbox.cif.g08.bks.cpg/sg2_137_cif.got.tgz:273760.got - 2010.06.03 11:33:40.
