data_PCOD9015251
_publ_section_title
;
Structure prediction by ZEFSAII (Michael W. Deem and Ramdas Pophale) SiO2 
 PCOD9015251
Probable space group: P -1
;
_chemical_formula_sum "Si O2"
_cell_formula_units_Z 16
_cell_length_a 9.652925
_cell_length_b 22.074498
_cell_length_c 18.260542
_cell_angle_alpha 18.794788
_cell_angle_beta 143.111353
_cell_angle_gamma 143.598788
_cell_volume 729.219952
_symmetry_space_group_name_H-M "P -1"
_symmetry_group_IT_number 2
_symmetry_cell_setting 'triclinic'
loop_
_space_group_symop_operation_xyz
x,y,z
-x,-y,-z
loop_
_atom_site_type_symbol
_atom_site_label
_atom_site_fract_x
_atom_site_fract_y
_atom_site_fract_z
Si Si1 0.092614 0.526516 0.927139
Si Si2 0.794100 0.823454 0.971727
Si Si3 0.753878 0.449820 0.737119
Si Si4 0.354329 0.936036 0.584461
Si Si5 0.544311 0.658907 0.772302
Si Si6 0.049607 0.748464 0.414168
Si Si7 0.732213 0.178684 0.896508
Si Si8 0.725124 0.533280 0.401693
O O1 0.143329 0.758346 0.674353
O O2 0.930384 0.431535 0.898892
O O3 0.319862 0.435790 0.121768
O O4 0.000000 0.500000 0.000000
O O5 0.536423 0.847827 0.810393
O O6 0.903741 0.021475 0.835935
O O7 0.750569 0.629145 0.223476
O O8 0.994334 0.839391 0.975021
O O9 0.727222 0.295695 0.836214
O O10 0.505347 0.435001 0.689044
O O11 0.862417 0.654357 0.507027
O O12 0.500000 0.000000 0.500000
O O13 0.309132 0.127651 0.383446
O O14 0.292398 0.691527 0.603568
O O15 0.500000 0.500000 0.000000
O O16 0.949276 0.647757 0.412298
O O17 0.710325 0.308695 0.666723
O O18 0.500000 0.000000 0.000000
#
# Coordination Sequence:
#
# PCOD9015251 Si02
#       8
#     2   2   2   2   2   2   2   2
#     4  12  26  45  69 102 145 182 232 304 356 407
#     4  11  23  41  65 102 136 172 231 291 349 416
#     4  11  23  44  65  97 138 184 227 287 348 422
#     4  11  24  41  75 100 134 188 240 286 353 427
#     4  11  22  44  72 104 133 181 244 290 349 427
#     4  10  21  41  73  94 132 181 230 283 345 424
#     4  11  24  42  69 102 135 184 236 281 348 433
#     4  11  23  41  66  97 141 177 223 290 358 402
#
# _framework density 21.941255000000002
#
# number of rings (size 3 to 8) (size 9 to 14) (size 15 to 20)
#    0.000    1.000    2.500    5.250    5.250    0.500 
#    2.250    0.000    0.000    0.000    0.000    0.000 
#    0.000    0.000    0.000    0.000    0.000    0.000 
#
# Total GULP energy -89378.122736 kJ/mol
# GULP energy per Si atom -5586.132671 kJ/mol
# Density = 2.189132 g / cm^3
# Si number density = 21.941255 Si / 1000 Ang^3
#
#
#
# Elastic Constant Matrix: (Units=GPa)
#
#
# Indices 1 2 3 4 5 6 
#
# 1 114.5867 10.6909 29.5263 -8.1331 5.2077 3.1091
# 2 10.6909 81.4691 30.1095 -14.9617 -3.9393 -3.4083
# 3 29.5263 30.1095 87.8997 -18.6465 -3.8118 1.7843
# 4 -8.1331 -14.9617 -18.6465 31.9221 -4.2430 0.9652
# 5 5.2077 -3.9393 -3.8118 -4.2430 39.4637 8.8976
# 6 3.1091 -3.4083 1.7843 0.9652 8.8976 18.4380
#
#
#
# Elastic Compliance Matrix: (Units=1/GPa)
#
#
# Indices 1 2 3 4 5 6 
#
# 1 0.009665 -0.000122 -0.003168 0.000390 -0.001396 -0.000693
# 2 -0.000122 0.014783 -0.004050 0.004600 0.001055 0.002395
# 3 -0.003168 -0.004050 0.015486 0.006852 0.003045 -0.003541
# 4 0.000390 0.004600 0.006852 0.038576 0.006334 -0.004955
# 5 -0.001396 0.001055 0.003045 0.006334 0.029902 -0.014626
# 6 -0.000693 0.002395 -0.003541 -0.004955 -0.014626 0.062455
#
#
# Mechanical properties :
#
#
# Convention : Reuss Voigt Hill
#
# Bulk Modulus (GPa) = 39.59977 47.17876 43.38927
# Shear Modulus (GPa) = 25.77783 32.20668 28.99225
#
# Velocity S-wave (km/s) = 3.43134 3.83542 3.63899
# Velocity P-wave (km/s) = 5.81258 6.41583 6.12164
#
# Compressibility (1/GPa) = 0.02525267
#
# Stress axis : x y z
#
# Youngs Moduli (GPa) = 103.46912 67.64326 64.57604
#
# Poissons Ratio (x) = 0.00826 0.20460
# Poissons Ratio (y) = 0.01264 0.26153
# Poissons Ratio (z) = 0.32783 0.27396
#
# Static dielectric constant tensor:
#      x y z
#    x 1.741760 0.005580 -0.031160 
#    y 0.005580 1.844960 -0.010010 
#    z -0.031160 -0.010010 1.827850 
# 
# From -- ./inp_files/562901.got.cif
#   From: 2010.05.17/outbox.cif.g08.bks.cpg/sg2_282_cif.got.tgz:562901.got - 2010.06.03 11:33:40.
