data_PCOD9015442
_publ_section_title
;
Structure prediction by ZEFSAII (Michael W. Deem and Ramdas Pophale) SiO2 
 PCOD9015442
Probable space group: P -1
;
_chemical_formula_sum "Si O2"
_cell_formula_units_Z 12
_cell_length_a 8.694732
_cell_length_b 14.071190
_cell_length_c 8.863463
_cell_angle_alpha 147.440023
_cell_angle_beta 73.100258
_cell_angle_gamma 107.300402
_cell_volume 555.507284
_symmetry_space_group_name_H-M "P -1"
_symmetry_group_IT_number 2
_symmetry_cell_setting 'triclinic'
loop_
_space_group_symop_operation_xyz
x,y,z
-x,-y,-z
loop_
_atom_site_type_symbol
_atom_site_label
_atom_site_fract_x
_atom_site_fract_y
_atom_site_fract_z
Si Si1 0.717302 0.485729 0.806712
Si Si2 0.111133 0.098798 0.971776
Si Si3 0.480463 0.230338 0.653943
Si Si4 0.944313 0.342260 0.105625
Si Si5 0.266596 0.897241 0.380547
Si Si6 0.673218 0.580075 0.610046
O O1 0.623652 0.290046 0.575189
O O2 0.674804 0.572236 0.778580
O O3 0.908849 0.518065 0.807608
O O4 0.637645 0.614107 0.118378
O O5 0.256657 0.218882 0.175360
O O6 0.008639 0.230394 0.077369
O O7 0.189621 0.982821 0.664716
O O8 0.000000 0.000000 0.000000
O O9 0.594203 0.219653 0.755915
O O10 0.363126 0.049775 0.454095
O O11 0.802155 0.452165 0.346166
O O12 0.873313 0.210859 0.819146
O O13 0.500000 0.500000 0.500000
#
# Coordination Sequence:
#
# PCOD9015442 Si02
#       6
#     2   2   2   2   2   2
#     4  10  21  42  62  94 126 171 211 255 313 378
#     4  11  25  44  65  95 130 165 210 264 318 372
#     4  10  22  38  66  88 132 163 211 255 315 366
#     4  11  24  42  68  92 129 167 213 259 315 375
#     4  11  23  42  64  96 127 165 210 263 316 367
#     4  11  24  44  64  92 129 170 212 259 315 379
#
# _framework density 21.601877000000002
#
# number of rings (size 3 to 8) (size 9 to 14) (size 15 to 20)
#    0.000    1.333    3.333    3.500    7.000    2.000 
#    3.000    1.667    0.000    0.000    0.000    0.000 
#    0.000    0.000    0.000    0.000    0.000    0.000 
#
# Total GULP energy -66916.499872 kJ/mol
# GULP energy per Si atom -5576.374989 kJ/mol
# Density = 2.155271 g / cm^3
# Si number density = 21.601877 Si / 1000 Ang^3
#
#
#
# Elastic Constant Matrix: (Units=GPa)
#
#
# Indices 1 2 3 4 5 6 
#
# 1 130.6577 25.9625 53.2196 -7.4793 3.0077 42.8117
# 2 25.9625 114.4388 27.0721 12.7667 4.6710 51.2166
# 3 53.2196 27.0721 91.7411 -2.3066 -2.1697 20.3951
# 4 -7.4793 12.7667 -2.3066 6.9284 2.7524 1.8269
# 5 3.0077 4.6710 -2.1697 2.7524 43.8684 6.2825
# 6 42.8117 51.2166 20.3951 1.8269 6.2825 37.8018
#
#
#
# Elastic Compliance Matrix: (Units=1/GPa)
#
#
# Indices 1 2 3 4 5 6 
#
# 1 0.020932 0.014155 -0.007419 0.003597 0.002108 -0.039405
# 2 0.014155 0.045226 -0.006651 -0.054228 0.007651 -0.072368
# 3 -0.007419 -0.006651 0.015412 0.006963 0.000294 0.008713
# 4 0.003597 -0.054228 0.006963 0.242418 -0.017476 0.056830
# 5 0.002108 0.007651 0.000294 -0.017476 0.025277 -0.016270
# 6 -0.039405 -0.072368 0.008713 0.056830 -0.016270 0.164387
#
#
# Mechanical properties :
#
#
# Convention : Reuss Voigt Hill
#
# Bulk Modulus (GPa) = 12.23418 61.03843 36.63631
# Shear Modulus (GPa) = 9.24677 33.09192 21.16935
#
# Velocity S-wave (km/s) = 2.07119 3.91820 3.13385
# Velocity P-wave (km/s) = 3.37573 6.98478 5.48556
#
# Compressibility (1/GPa) = 0.08173820
#
# Stress axis : x y z
#
# Youngs Moduli (GPa) = 47.77393 22.11123 64.88542
#
# Poissons Ratio (x) = -0.31297 0.48139
# Poissons Ratio (y) = -0.67622 0.43156
# Poissons Ratio (z) = 0.35444 0.14706
#
# Static dielectric constant tensor:
#      x y z
#    x 1.815690 0.054430 -0.044910 
#    y 0.054430 1.873780 0.006550 
#    z -0.044910 0.006550 1.898940 
# 
# From -- ./inp_files/152413.got.cif
#   From: 2010.05.17/outbox.cif.g08.bks.cpg/sg2_77_cif.got.tgz:152413.got - 2010.06.03 11:33:40.
