data_PCOD9015551
_publ_section_title
;
Structure prediction by ZEFSAII (Michael W. Deem and Ramdas Pophale) SiO2 
 PCOD9015551
Probable space group: P -1
;
_chemical_formula_sum "Si O2"
_cell_formula_units_Z 14
_cell_length_a 5.576532
_cell_length_b 9.581245
_cell_length_c 21.856292
_cell_angle_alpha 40.368673
_cell_angle_beta 55.426482
_cell_angle_gamma 55.900842
_cell_volume 604.515714
_symmetry_space_group_name_H-M "P -1"
_symmetry_group_IT_number 2
_symmetry_cell_setting 'triclinic'
loop_
_space_group_symop_operation_xyz
x,y,z
-x,-y,-z
loop_
_atom_site_type_symbol
_atom_site_label
_atom_site_fract_x
_atom_site_fract_y
_atom_site_fract_z
Si Si1 0.547932 0.232440 0.863000
Si Si2 0.815941 0.769477 0.255182
Si Si3 0.054237 0.563465 0.071197
Si Si4 0.148235 0.031944 0.531792
Si Si5 0.161311 0.581238 0.730438
Si Si6 0.529996 0.860252 0.890862
Si Si7 0.844296 0.516076 0.451135
O O1 0.472268 0.466935 0.758127
O O2 0.900893 0.173695 0.839717
O O3 0.293653 0.297163 0.930563
O O4 0.487500 0.037161 0.893513
O O5 0.795735 0.543084 0.299324
O O6 0.871242 0.719809 0.335298
O O7 0.535058 0.972054 0.213676
O O8 0.161101 0.332006 0.095822
O O9 0.067320 0.496517 0.163978
O O10 0.278983 0.718458 0.975429
O O11 0.022196 0.286356 0.476053
O O12 0.500000 0.000000 0.500000
O O13 0.077421 0.842505 0.649038
O O14 0.000000 0.000000 0.500000
O O15 0.500000 0.500000 0.500000
O O16 0.000000 0.500000 0.500000
#
# Coordination Sequence:
#
# PCOD9015551 Si02
#       7
#     2   2   2   2   2   2   2
#     4   9  21  39  65  90 130 172 218 275 337 407
#     4  11  23  42  67  93 133 177 227 287 346 412
#     4   9  21  41  64  94 134 175 223 278 352 416
#     4  12  24  44  72  97 134 184 233 284 349 417
#     4   9  22  40  65  90 131 171 227 274 340 411
#     4  10  21  42  63  94 137 172 221 288 343 419
#     4  12  29  45  69 105 143 182 234 293 356 419
#
# _framework density 23.159033000000001
#
# number of rings (size 3 to 8) (size 9 to 14) (size 15 to 20)
#    0.857    0.857    1.429    2.143    6.000    0.571 
#    2.571    1.429    0.000    0.000    0.000    0.000 
#    0.000    0.000    0.000    0.000    0.000    0.000 
#
# Total GULP energy -78014.052378 kJ/mol
# GULP energy per Si atom -5572.432313 kJ/mol
# Density = 2.310632 g / cm^3
# Si number density = 23.159033 Si / 1000 Ang^3
#
#
#
# Elastic Constant Matrix: (Units=GPa)
#
#
# Indices 1 2 3 4 5 6 
#
# 1 91.6492 26.6178 13.1092 4.2865 7.7153 -21.5124
# 2 26.6178 111.7320 14.8359 -11.7939 4.9701 -27.0188
# 3 13.1092 14.8359 116.8556 -13.4699 28.4889 -2.9065
# 4 4.2865 -11.7939 -13.4699 31.2392 -5.6244 2.1364
# 5 7.7153 4.9701 28.4889 -5.6244 35.2579 -1.2054
# 6 -21.5124 -27.0188 -2.9065 2.1364 -1.2054 30.8544
#
#
#
# Elastic Compliance Matrix: (Units=1/GPa)
#
#
# Indices 1 2 3 4 5 6 
#
# 1 0.013841 -0.001411 -0.001045 -0.003880 -0.002314 0.008494
# 2 -0.001411 0.012004 -0.000729 0.003805 0.000127 0.009201
# 3 -0.001045 -0.000729 0.011109 0.003249 -0.008156 -0.000865
# 4 -0.003880 0.003805 0.003249 0.036090 0.003396 -0.001434
# 5 -0.002314 0.000127 -0.008156 0.003396 0.035945 -0.001101
# 6 0.008494 0.009201 -0.000865 -0.001434 -0.001101 0.046364
#
#
# Mechanical properties :
#
#
# Convention : Reuss Voigt Hill
#
# Bulk Modulus (GPa) = 32.69962 47.70695 40.20329
# Shear Modulus (GPa) = 29.08366 37.18191 33.13279
#
# Velocity S-wave (km/s) = 3.54760 4.01122 3.78651
# Velocity P-wave (km/s) = 5.56156 6.48827 6.04270
#
# Compressibility (1/GPa) = 0.03058139
#
# Stress axis : x y z
#
# Youngs Moduli (GPa) = 72.25150 83.30710 90.01894
#
# Poissons Ratio (x) = 0.11755 0.09411
# Poissons Ratio (y) = 0.10195 0.06566
# Poissons Ratio (z) = 0.07554 0.06076
#
# Static dielectric constant tensor:
#      x y z
#    x 1.838850 -0.010490 -0.024690 
#    y -0.010490 1.873560 0.037060 
#    z -0.024690 0.037060 1.944160 
# 
# From -- ./inp_files/582141.got.cif
#   From: 2010.05.17/outbox.cif.g08.bks.cpg/sg2_292_cif.got.tgz:582141.got - 2010.06.03 11:33:40.
