data_PCOD9015170
_publ_section_title
;
Structure prediction by ZEFSAII (Michael W. Deem and Ramdas Pophale) SiO2 
 PCOD9015170
Probable space group: P -1
;
_chemical_formula_sum "Si O2"
_cell_formula_units_Z 13
_cell_length_a 8.553463
_cell_length_b 7.531740
_cell_length_c 8.430506
_cell_angle_alpha 82.716372
_cell_angle_beta 69.576466
_cell_angle_gamma 67.679817
_cell_volume 470.828455
_symmetry_space_group_name_H-M "P -1"
_symmetry_group_IT_number 2
_symmetry_cell_setting 'triclinic'
loop_
_space_group_symop_operation_xyz
x,y,z
-x,-y,-z
loop_
_atom_site_type_symbol
_atom_site_label
_atom_site_fract_x
_atom_site_fract_y
_atom_site_fract_z
Si Si1 0.230949 0.440667 0.081006
Si Si2 0.651151 0.445759 0.296457
Si Si3 0.426409 0.825793 0.864493
Si Si4 0.029248 0.305917 0.613901
Si Si5 0.582926 0.844880 0.353377
Si Si6 0.004815 0.188749 0.308588
Si Si7 0.000000 0.000000 0.000000
O O1 0.438585 0.316176 0.046786
O O2 0.125912 0.296901 0.169075
O O3 0.139623 0.616500 0.215079
O O4 0.227467 0.522477 0.897595
O O5 0.546311 0.317306 0.279818
O O6 0.533707 0.658559 0.367097
O O7 0.801142 0.335231 0.380652
O O8 0.215824 0.907683 0.950149
O O9 0.468188 0.016832 0.796810
O O10 0.204387 0.242880 0.671431
O O11 0.066800 0.151818 0.474096
O O12 0.000000 0.500000 0.500000
O O13 0.500000 0.000000 0.500000
O O14 0.988314 0.043817 0.196645
#
# Coordination Sequence:
#
# PCOD9015170 Si02
#       7
#     2   2   2   2   2   2   1
#     4  11  22  43  75 102 140 191 241 286 360 425
#     4  11  24  44  71 104 144 191 229 299 358 415
#     4  11  27  44  72 107 143 184 239 298 347 428
#     4  10  21  41  72 103 134 190 237 284 356 423
#     4  12  25  44  73 105 143 189 240 290 360 418
#     4  10  21  42  73  99 143 190 232 290 353 424
#     4  10  24  44  66 102 148 172 238 286 354 406
#
# _framework density 27.610906
#
# number of rings (size 3 to 8) (size 9 to 14) (size 15 to 20)
#    0.000    1.231    3.077    3.692    4.308    4.308 
#    2.769    3.077    0.000    0.000    0.000    0.000 
#    0.000    0.000    0.000    0.000    0.000    0.000 
#
# Total GULP energy -72491.810079 kJ/mol
# GULP energy per Si atom -5576.293083 kJ/mol
# Density = 2.754806 g / cm^3
# Si number density = 27.610906 Si / 1000 Ang^3
#
#
#
# Elastic Constant Matrix: (Units=GPa)
#
#
# Indices 1 2 3 4 5 6 
#
# 1 84.5240 30.9224 9.1657 8.0506 5.7564 -13.2877
# 2 30.9224 128.5679 5.3648 28.4914 -5.0758 3.9653
# 3 9.1657 5.3648 156.3928 25.5742 10.0927 -4.3114
# 4 8.0506 28.4914 25.5742 49.2106 -4.8484 7.4249
# 5 5.7564 -5.0758 10.0927 -4.8484 42.6096 11.0753
# 6 -13.2877 3.9653 -4.3114 7.4249 11.0753 59.5677
#
#
#
# Elastic Compliance Matrix: (Units=1/GPa)
#
#
# Indices 1 2 3 4 5 6 
#
# 1 0.014093 -0.003375 -0.000168 -0.001235 -0.003487 0.004158
# 2 -0.003375 0.009785 0.000611 -0.005180 0.001128 -0.000924
# 3 -0.000168 0.000611 0.007346 -0.004623 -0.002562 0.001506
# 4 -0.001235 -0.005180 -0.004623 0.027096 0.004912 -0.004556
# 5 -0.003487 0.001128 -0.002562 0.004912 0.026973 -0.006666
# 6 0.004158 -0.000924 0.001506 -0.004556 -0.006666 0.019693
#
#
# Mechanical properties :
#
#
# Convention : Reuss Voigt Hill
#
# Bulk Modulus (GPa) = 39.43307 51.15448 45.29378
# Shear Modulus (GPa) = 41.90996 51.87970 46.89483
#
# Velocity S-wave (km/s) = 3.90022 4.33940 4.12566
# Velocity P-wave (km/s) = 5.88175 6.60865 6.25577
#
# Compressibility (1/GPa) = 0.02535943
#
# Stress axis : x y z
#
# Youngs Moduli (GPa) = 70.95864 102.19569 136.12875
#
# Poissons Ratio (x) = 0.34488 0.02294
# Poissons Ratio (y) = 0.23946 -0.08317
# Poissons Ratio (z) = 0.01196 -0.06244
#
# Static dielectric constant tensor:
#      x y z
#    x 2.105560 0.170110 0.016900 
#    y 0.170110 2.236640 -0.039130 
#    z 0.016900 -0.039130 2.243050 
# 
# From -- ./inp_files/154545.got.cif
#   From: 2010.05.17/outbox.cif.g08.bks.cpg/sg2_78_cif.got.tgz:154545.got - 2010.06.03 11:33:40.
