data_PCOD9015562
_publ_section_title
;
Structure prediction by ZEFSAII (Michael W. Deem and Ramdas Pophale) SiO2 
 PCOD9015562
Probable space group: P -1
;
_chemical_formula_sum "Si O2"
_cell_formula_units_Z 14
_cell_length_a 18.084313
_cell_length_b 9.079122
_cell_length_c 12.014340
_cell_angle_alpha 131.759626
_cell_angle_beta 153.027521
_cell_angle_gamma 39.568472
_cell_volume 568.422664
_symmetry_space_group_name_H-M "P -1"
_symmetry_group_IT_number 2
_symmetry_cell_setting 'triclinic'
loop_
_space_group_symop_operation_xyz
x,y,z
-x,-y,-z
loop_
_atom_site_type_symbol
_atom_site_label
_atom_site_fract_x
_atom_site_fract_y
_atom_site_fract_z
Si Si1 0.226420 0.418011 0.643764
Si Si2 0.328610 0.309982 0.331971
Si Si3 0.455079 0.464540 0.295528
Si Si4 0.965537 0.779886 0.044132
Si Si5 0.938187 0.248419 0.198308
Si Si6 0.562477 0.942045 0.874105
Si Si7 0.013844 0.215737 0.659966
O O1 0.146442 0.618286 0.730794
O O2 0.114617 0.279859 0.427712
O O3 0.165972 0.554577 0.515883
O O4 0.442192 0.218188 0.859240
O O5 0.446512 0.424982 0.589664
O O6 0.442855 0.121331 0.294814
O O7 0.146552 0.528186 0.134688
O O8 0.232710 0.212603 0.237550
O O9 0.500000 0.500000 0.500000
O O10 0.515193 0.197016 0.230318
O O11 0.231291 0.612932 0.046392
O O12 0.974487 0.790075 0.194929
O O13 0.982242 0.988518 0.126150
O O14 0.785898 0.831028 0.144953
O O15 0.000000 0.000000 0.500000
#
# Coordination Sequence:
#
# PCOD9015562 Si02
#       7
#     2   2   2   2   2   2   2
#     4  11  24  43  69  99 130 177 217 270 329 394
#     4   9  21  42  61  90 131 169 215 264 329 374
#     4  10  21  42  63  95 132 169 221 274 318 390
#     4  10  21  42  65  93 134 170 213 276 324 387
#     4  11  23  42  68  98 130 171 227 266 331 392
#     4  10  22  43  65  97 132 169 224 266 328 390
#     4  11  22  43  66  96 139 170 214 270 333 391
#
# _framework density 24.629560000000001
#
# number of rings (size 3 to 8) (size 9 to 14) (size 15 to 20)
#    0.000    1.714    2.857    0.857    0.000    2.857 
#   20.571    4.286    0.000    0.000    0.000    0.000 
#    0.000    0.000    0.000    0.000    0.000    0.000 
#
# Total GULP energy -78312.282169 kJ/mol
# GULP energy per Si atom -5593.734441 kJ/mol
# Density = 2.457350 g / cm^3
# Si number density = 24.629560 Si / 1000 Ang^3
#
#
#
# Elastic Constant Matrix: (Units=GPa)
#
#
# Indices 1 2 3 4 5 6 
#
# 1 50.0416 14.6207 15.3200 8.9252 -1.0646 4.1619
# 2 14.6207 135.2615 10.2133 11.9180 0.8095 22.6854
# 3 15.3200 10.2133 76.5763 14.7104 -7.1575 6.7377
# 4 8.9252 11.9180 14.7104 38.6584 14.1511 8.6823
# 5 -1.0646 0.8095 -7.1575 14.1511 29.1809 -2.7481
# 6 4.1619 22.6854 6.7377 8.6823 -2.7481 27.3661
#
#
#
# Elastic Compliance Matrix: (Units=1/GPa)
#
#
# Indices 1 2 3 4 5 6 
#
# 1 0.022286 -0.001895 -0.003232 -0.004255 0.002188 0.000547
# 2 -0.001895 0.008813 -0.000202 -0.000327 -0.000859 -0.006950
# 3 -0.003232 -0.000202 0.016018 -0.008153 0.007778 0.000083
# 4 -0.004255 -0.000327 -0.008153 0.041457 -0.023435 -0.012581
# 5 0.002188 -0.000859 0.007778 -0.023435 0.048661 0.010786
# 6 0.000547 -0.006950 0.000083 -0.012581 0.010786 0.047274
#
#
# Mechanical properties :
#
#
# Convention : Reuss Voigt Hill
#
# Bulk Modulus (GPa) = 27.42813 38.02082 32.72447
# Shear Modulus (GPa) = 24.11724 33.82278 28.97001
#
# Velocity S-wave (km/s) = 3.13261 3.70977 3.43334
# Velocity P-wave (km/s) = 4.92390 5.81554 5.38819
#
# Compressibility (1/GPa) = 0.03645893
#
# Stress axis : x y z
#
# Youngs Moduli (GPa) = 44.87023 113.47203 62.42857
#
# Poissons Ratio (x) = 0.21501 0.20178
# Poissons Ratio (y) = 0.08502 0.01263
# Poissons Ratio (z) = 0.14503 0.02295
#
# Static dielectric constant tensor:
#      x y z
#    x 2.031310 0.008660 0.059390 
#    y 0.008660 1.922340 0.017870 
#    z 0.059390 0.017870 1.989110 
# 
# From -- ./inp_files/307319.got.cif
#   From: 2010.05.17/outbox.cif.g08.bks.cpg/sg2_154_cif.got.tgz:307319.got - 2010.06.03 11:33:40.
