data_PCOD9015306
_publ_section_title
;
Structure prediction by ZEFSAII (Michael W. Deem and Ramdas Pophale) SiO2 
 PCOD9015306
Probable space group: P -1
;
_chemical_formula_sum "Si O2"
_cell_formula_units_Z 14
_cell_length_a 20.813543
_cell_length_b 5.977202
_cell_length_c 5.312465
_cell_angle_alpha 71.677064
_cell_angle_beta 70.653710
_cell_angle_gamma 60.708567
_cell_volume 534.462017
_symmetry_space_group_name_H-M "P -1"
_symmetry_group_IT_number 2
_symmetry_cell_setting 'triclinic'
loop_
_space_group_symop_operation_xyz
x,y,z
-x,-y,-z
loop_
_atom_site_type_symbol
_atom_site_label
_atom_site_fract_x
_atom_site_fract_y
_atom_site_fract_z
Si Si1 0.950786 0.537495 0.297977
Si Si2 0.157154 0.659431 0.317115
Si Si3 0.394944 0.999140 0.797050
Si Si4 0.682272 0.568263 0.902483
Si Si5 0.829088 0.867347 0.658612
Si Si6 0.316042 0.824064 0.579065
Si Si7 0.558657 0.593225 0.696712
O O1 0.909685 0.343540 0.422348
O O2 0.881317 0.814579 0.358456
O O3 0.000000 0.500000 0.500000
O O4 0.000000 0.500000 0.000000
O O5 0.157958 0.434083 0.189455
O O6 0.149635 0.957142 0.233872
O O7 0.244809 0.502171 0.337337
O O8 0.326505 0.995542 0.726604
O O9 0.471182 0.735118 0.825533
O O10 0.361096 0.138015 0.053286
O O11 0.423110 0.190808 0.550083
O O12 0.709111 0.379884 0.176157
O O13 0.617623 0.515157 0.874834
O O14 0.745039 0.033718 0.604951
O O15 0.403667 0.657290 0.441111
#
# Coordination Sequence:
#
# PCOD9015306 Si02
#       7
#     2   2   2   2   2   2   2
#     4  10  26  49  79 114 152 192 242 300 373 450
#     4  10  24  45  72 104 142 187 230 296 357 439
#     4  10  23  37  62  89 133 183 237 304 356 421
#     4  11  23  37  64  95 133 178 244 291 359 426
#     4  10  24  45  72 103 142 187 231 294 359 437
#     4  11  23  37  64  94 131 181 242 294 358 427
#     4  10  21  42  57  89 133 181 235 301 362 422
#
# _framework density 26.194562000000001
#
# number of rings (size 3 to 8) (size 9 to 14) (size 15 to 20)
#    0.857    0.857    1.429    1.714    4.000    6.286 
#    0.000    0.000    0.000    0.000    0.000    0.000 
#    0.000    0.000    0.000    0.000    0.000    0.000 
#
# Total GULP energy -78033.982506 kJ/mol
# GULP energy per Si atom -5573.855893 kJ/mol
# Density = 2.613494 g / cm^3
# Si number density = 26.194562 Si / 1000 Ang^3
#
#
#
# Elastic Constant Matrix: (Units=GPa)
#
#
# Indices 1 2 3 4 5 6 
#
# 1 131.1666 21.3163 45.0780 17.1864 -32.9302 8.0356
# 2 21.3163 106.7452 11.6307 12.9615 -6.6048 26.7780
# 3 45.0780 11.6307 76.8702 18.9035 -10.6226 -11.1988
# 4 17.1864 12.9615 18.9035 37.0072 -0.5553 -2.5383
# 5 -32.9302 -6.6048 -10.6226 -0.5553 39.1789 9.9061
# 6 8.0356 26.7780 -11.1988 -2.5383 9.9061 46.2220
#
#
#
# Elastic Compliance Matrix: (Units=1/GPa)
#
#
# Indices 1 2 3 4 5 6 
#
# 1 0.013562 0.000971 -0.006686 -0.003544 0.011521 -0.007204
# 2 0.000971 0.012507 -0.002095 -0.004319 0.004607 -0.009146
# 3 -0.006686 -0.002095 0.019313 -0.005564 -0.002666 0.007321
# 4 -0.003544 -0.004319 -0.005564 0.033268 -0.005978 0.004878
# 5 0.011521 0.004607 -0.002666 -0.005978 0.038701 -0.013941
# 6 -0.007204 -0.009146 0.007321 0.004878 -0.013941 0.033215
#
#
# Mechanical properties :
#
#
# Convention : Reuss Voigt Hill
#
# Bulk Modulus (GPa) = 33.60078 52.31465 42.95771
# Shear Modulus (GPa) = 28.39191 40.26543 34.32867
#
# Velocity S-wave (km/s) = 3.29581 3.92493 3.62405
# Velocity P-wave (km/s) = 5.22862 6.36828 5.82638
#
# Compressibility (1/GPa) = 0.02976122
#
# Stress axis : x y z
#
# Youngs Moduli (GPa) = 73.73584 79.95800 51.77863
#
# Poissons Ratio (x) = -0.07760 0.34617
# Poissons Ratio (y) = -0.07156 0.10848
# Poissons Ratio (z) = 0.49297 0.16752
#
# Static dielectric constant tensor:
#      x y z
#    x 2.029130 0.021580 -0.057170 
#    y 0.021580 2.149360 -0.041150 
#    z -0.057170 -0.041150 2.199780 
# 
# From -- ./inp_files/11202.got.cif
#   From: 2010.05.17/outbox.cif.g08.bks.cpg/sg2_6_cif.got.tgz:11202.got - 2010.06.03 11:33:40.
