data_PCOD9015068
_publ_section_title
;
Structure prediction by ZEFSAII (Michael W. Deem and Ramdas Pophale) SiO2 
 PCOD9015068
Probable space group: P -1
;
_chemical_formula_sum "Si O2"
_cell_formula_units_Z 16
_cell_length_a 11.235627
_cell_length_b 14.884387
_cell_length_c 15.196881
_cell_angle_alpha 29.723427
_cell_angle_beta 41.941069
_cell_angle_gamma 62.642189
_cell_volume 696.302062
_symmetry_space_group_name_H-M "P -1"
_symmetry_group_IT_number 2
_symmetry_cell_setting 'triclinic'
loop_
_space_group_symop_operation_xyz
x,y,z
-x,-y,-z
loop_
_atom_site_type_symbol
_atom_site_label
_atom_site_fract_x
_atom_site_fract_y
_atom_site_fract_z
Si Si1 0.220217 0.912310 0.314415
Si Si2 0.754953 0.173631 0.200801
Si Si3 0.465039 0.190984 0.707703
Si Si4 0.603462 0.585004 0.195607
Si Si5 0.089616 0.430931 0.089633
Si Si6 0.002430 0.963555 0.241617
Si Si7 0.254156 0.801831 0.023587
Si Si8 0.208173 0.396530 0.467752
O O1 0.403958 0.864780 0.251142
O O2 0.092473 0.797834 0.571597
O O3 0.049868 0.829429 0.399031
O O4 0.320840 0.169813 0.037203
O O5 0.902248 0.091036 0.225225
O O6 0.500000 0.000000 0.500000
O O7 0.824753 0.389265 0.033687
O O8 0.785854 0.203894 0.052842
O O9 0.617775 0.446962 0.382788
O O10 0.233653 0.117575 0.935537
O O11 0.416515 0.040410 0.775148
O O12 0.352495 0.438721 0.435766
O O13 0.725788 0.582892 0.044428
O O14 0.000000 0.500000 0.000000
O O15 0.821914 0.788637 0.422590
O O16 0.312487 0.629183 0.163976
O O17 0.031195 0.703342 0.281603
#
# Coordination Sequence:
#
# PCOD9015068 Si02
#       8
#     2   2   2   2   2   2   2   2
#     4  12  26  46  69 106 142 183 230 286 345 420
#     4  12  26  44  72 103 138 184 232 285 342 413
#     4  11  23  45  73 103 144 181 229 290 344 415
#     4  12  24  44  74 100 131 192 236 276 354 409
#     4  12  26  47  68  98 144 183 228 285 342 411
#     4  11  25  44  67 109 142 179 233 287 351 409
#     4  10  21  42  69 103 137 175 227 292 343 398
#     4  10  21  41  71 100 136 176 229 288 344 406
#
# _framework density 22.978535000000001
#
# number of rings (size 3 to 8) (size 9 to 14) (size 15 to 20)
#    0.000    0.750    2.500    5.250    0.000    3.500 
#    4.500    2.500    0.000    0.000    0.000    0.000 
#    0.000    0.000    0.000    0.000    0.000    0.000 
#
# Total GULP energy -89521.808802 kJ/mol
# GULP energy per Si atom -5595.113050 kJ/mol
# Density = 2.292624 g / cm^3
# Si number density = 22.978535 Si / 1000 Ang^3
#
#
#
# Elastic Constant Matrix: (Units=GPa)
#
#
# Indices 1 2 3 4 5 6 
#
# 1 89.8529 12.1200 25.9603 -13.8502 14.5730 -1.4143
# 2 12.1200 88.0356 34.3982 -24.5082 -3.3095 -10.9843
# 3 25.9603 34.3982 120.0782 -20.9764 16.4072 -7.9272
# 4 -13.8502 -24.5082 -20.9764 27.3877 -3.7642 -1.8460
# 5 14.5730 -3.3095 16.4072 -3.7642 31.7129 4.4033
# 6 -1.4143 -10.9843 -7.9272 -1.8460 4.4033 41.1987
#
#
#
# Elastic Compliance Matrix: (Units=1/GPa)
#
#
# Indices 1 2 3 4 5 6 
#
# 1 0.013073 0.000031 -0.001208 0.005104 -0.004909 0.000978
# 2 0.000031 0.017004 -0.002738 0.014002 0.004258 0.004180
# 3 -0.001208 -0.002738 0.011068 0.004848 -0.005177 0.002129
# 4 0.005104 0.014002 0.004848 0.056131 0.002282 0.007113
# 5 -0.004909 0.004258 -0.005177 0.002282 0.037732 -0.003960
# 6 0.000978 0.004180 0.002129 0.007113 -0.003960 0.026572
#
#
# Mechanical properties :
#
#
# Convention : Reuss Voigt Hill
#
# Bulk Modulus (GPa) = 30.01633 49.21375 39.61504
# Shear Modulus (GPa) = 27.69858 35.09242 31.39550
#
# Velocity S-wave (km/s) = 3.47567 3.91216 3.70036
# Velocity P-wave (km/s) = 5.40353 6.47073 5.96106
#
# Compressibility (1/GPa) = 0.03331520
#
# Stress axis : x y z
#
# Youngs Moduli (GPa) = 76.49618 58.80904 90.34886
#
# Poissons Ratio (x) = -0.00181 0.10915
# Poissons Ratio (y) = -0.00235 0.24734
# Poissons Ratio (z) = 0.09241 0.16100
#
# Static dielectric constant tensor:
#      x y z
#    x 1.901010 -0.008360 0.001150 
#    y -0.008360 1.873160 -0.022880 
#    z 0.001150 -0.022880 1.844220 
# 
# From -- ./inp_files/522111.got.cif
#   From: 2010.05.17/outbox.cif.g08.bks.cpg/sg2_262_cif.got.tgz:522111.got - 2010.06.03 11:33:40.
