data_PCOD9015166
_publ_section_title
;
Structure prediction by ZEFSAII (Michael W. Deem and Ramdas Pophale) SiO2 
 PCOD9015166
Probable space group: P -1
;
_chemical_formula_sum "Si O2"
_cell_formula_units_Z 12
_cell_length_a 16.743233
_cell_length_b 7.423333
_cell_length_c 16.790451
_cell_angle_alpha 52.208370
_cell_angle_beta 161.289724
_cell_angle_gamma 135.047595
_cell_volume 457.495735
_symmetry_space_group_name_H-M "P -1"
_symmetry_group_IT_number 2
_symmetry_cell_setting 'triclinic'
loop_
_space_group_symop_operation_xyz
x,y,z
-x,-y,-z
loop_
_atom_site_type_symbol
_atom_site_label
_atom_site_fract_x
_atom_site_fract_y
_atom_site_fract_z
Si Si1 0.635949 0.613414 0.780281
Si Si2 0.308408 0.813440 0.139593
Si Si3 0.156951 0.012501 0.727852
Si Si4 0.783065 0.302740 0.734967
Si Si5 0.712853 0.437103 0.059776
Si Si6 0.870411 0.241586 0.503072
O O1 0.564456 0.370680 0.719199
O O2 0.464522 0.741314 0.547011
O O3 0.566483 0.521144 0.830638
O O4 0.981851 0.755971 0.065811
O O5 0.314263 0.834821 0.234140
O O6 0.524781 0.089689 0.227642
O O7 0.977034 0.619959 0.853857
O O8 0.981453 0.062715 0.615061
O O9 0.187638 0.755041 0.834775
O O10 0.477033 0.259424 0.950963
O O11 0.000000 0.000000 0.500000
O O12 0.981034 0.670487 0.294381
O O13 0.000000 0.500000 0.500000
#
# Coordination Sequence:
#
# PCOD9015166 Si02
#       6
#     2   2   2   2   2   2
#     4  10  21  41  72 102 139 186 242 294 364 423
#     4   9  22  40  72 101 145 183 246 294 363 422
#     4  11  24  46  69  95 147 200 240 291 357 432
#     4   9  21  41  74 105 133 195 243 295 358 432
#     4  11  26  42  68 105 144 195 241 297 362 433
#     4  12  25  46  70 111 145 188 241 301 363 434
#
# _framework density 26.229752000000001
#
# number of rings (size 3 to 8) (size 9 to 14) (size 15 to 20)
#    1.000    0.667    1.667    2.000    7.000    0.000 
#    3.000    1.667    0.000    0.000    0.000    2.333 
#    0.000    0.000    0.000    0.000    0.000    0.000 
#
# Total GULP energy -67223.016893 kJ/mol
# GULP energy per Si atom -5601.918074 kJ/mol
# Density = 2.617005 g / cm^3
# Si number density = 26.229752 Si / 1000 Ang^3
#
#
#
# Elastic Constant Matrix: (Units=GPa)
#
#
# Indices 1 2 3 4 5 6 
#
# 1 114.0982 36.0984 31.5006 4.9313 3.1456 18.1101
# 2 36.0984 87.8352 47.2536 -5.9359 6.7517 21.7635
# 3 31.5006 47.2536 145.1190 -3.6523 -5.4780 17.1308
# 4 4.9313 -5.9359 -3.6523 52.8105 13.4689 -0.0149
# 5 3.1456 6.7517 -5.4780 13.4689 37.5153 4.4922
# 6 18.1101 21.7635 17.1308 -0.0149 4.4922 41.4614
#
#
#
# Elastic Compliance Matrix: (Units=1/GPa)
#
#
# Indices 1 2 3 4 5 6 
#
# 1 0.010531 -0.003347 -0.000922 -0.001535 0.000437 -0.002510
# 2 -0.003347 0.016792 -0.004196 0.002867 -0.003760 -0.005210
# 3 -0.000922 -0.004196 0.008684 -0.000395 0.002391 -0.001242
# 4 -0.001535 0.002867 -0.000395 0.021459 -0.008176 0.000222
# 5 0.000437 -0.003760 0.002391 -0.008176 0.030886 -0.002555
# 6 -0.002510 -0.005210 -0.001242 0.000222 -0.002555 0.028740
#
#
# Mechanical properties :
#
#
# Convention : Reuss Voigt Hill
#
# Bulk Modulus (GPa) = 52.42092 64.08417 58.25254
# Shear Modulus (GPa) = 35.61748 41.83743 38.72746
#
# Velocity S-wave (km/s) = 3.68897 3.99812 3.84666
# Velocity P-wave (km/s) = 6.17846 6.76744 6.47964
#
# Compressibility (1/GPa) = 0.01907635
#
# Stress axis : x y z
#
# Youngs Moduli (GPa) = 94.96150 59.55353 115.15202
#
# Poissons Ratio (x) = 0.19935 0.10614
# Poissons Ratio (y) = 0.31788 0.48315
# Poissons Ratio (z) = 0.08753 0.24987
#
# Static dielectric constant tensor:
#      x y z
#    x 1.995830 0.007720 0.006250 
#    y 0.007720 2.160320 0.069090 
#    z 0.006250 0.069090 2.040030 
# 
# From -- ./inp_files/575034.got.cif
#   From: 2010.05.17/outbox.cif.g08.bks.cpg/sg2_288_cif.got.tgz:575034.got - 2010.06.03 11:33:40.
