data_PCOD9015531
_publ_section_title
;
Structure prediction by ZEFSAII (Michael W. Deem and Ramdas Pophale) SiO2 
 PCOD9015531
Probable space group: P -1
;
_chemical_formula_sum "Si O2"
_cell_formula_units_Z 16
_cell_length_a 7.076686
_cell_length_b 17.112664
_cell_length_c 10.656699
_cell_angle_alpha 142.965115
_cell_angle_beta 117.438543
_cell_angle_gamma 77.604613
_cell_volume 660.918415
_symmetry_space_group_name_H-M "P -1"
_symmetry_group_IT_number 2
_symmetry_cell_setting 'triclinic'
loop_
_space_group_symop_operation_xyz
x,y,z
-x,-y,-z
loop_
_atom_site_type_symbol
_atom_site_label
_atom_site_fract_x
_atom_site_fract_y
_atom_site_fract_z
Si Si1 0.866445 0.611391 0.962702
Si Si2 0.244310 0.311924 0.487001
Si Si3 0.122564 0.871130 0.703420
Si Si4 0.127195 0.014417 0.425112
Si Si5 0.531509 0.791472 0.082746
Si Si6 0.294179 0.684003 0.342667
Si Si7 0.107499 0.568772 0.747546
Si Si8 0.743284 0.835538 0.940668
O O1 0.694686 0.697170 0.032606
O O2 0.772979 0.469406 0.823427
O O3 0.914670 0.580234 0.795532
O O4 0.110773 0.687401 0.188137
O O5 0.454042 0.283842 0.584477
O O6 0.224545 0.460132 0.701444
O O7 0.014024 0.204934 0.318573
O O8 0.288585 0.287268 0.322379
O O9 0.267550 0.783834 0.573502
O O10 0.939583 0.879356 0.551919
O O11 0.250070 0.028569 0.961973
O O12 0.375263 0.077138 0.632390
O O13 0.000000 0.000000 0.500000
O O14 0.990463 0.877883 0.135426
O O15 0.291381 0.705129 0.941266
O O16 0.569096 0.822735 0.985226
O O17 0.000000 0.500000 0.500000
#
# Coordination Sequence:
#
# PCOD9015531 Si02
#       8
#     2   2   2   2   2   2   2   2
#     4  11  23  41  62  96 129 167 214 260 315 385
#     4  12  24  41  65  96 133 171 211 263 327 380
#     4  10  21  42  63  93 131 163 216 264 307 381
#     4   8  18  39  68  93 123 174 214 259 317 374
#     4  11  21  44  70  90 131 170 211 272 323 368
#     4  11  24  38  65  94 129 170 209 260 321 383
#     4  12  28  41  65  98 130 169 218 266 320 393
#     4   9  22  39  70  90 128 178 209 262 321 374
#
# _framework density 24.208734
#
# number of rings (size 3 to 8) (size 9 to 14) (size 15 to 20)
#    0.750    0.750    3.750    1.125    3.500    2.000 
#    0.000    2.500    0.000    6.750    0.000    0.000 
#    0.000    0.000    0.000    0.000    0.000    0.000 
#
# Total GULP energy -89396.462963 kJ/mol
# GULP energy per Si atom -5587.278935 kJ/mol
# Density = 2.415363 g / cm^3
# Si number density = 24.208734 Si / 1000 Ang^3
#
#
#
# Elastic Constant Matrix: (Units=GPa)
#
#
# Indices 1 2 3 4 5 6 
#
# 1 92.0309 22.4245 -0.4322 8.8420 -8.0245 -8.5995
# 2 22.4245 47.5707 -14.3318 6.6359 2.6794 9.5011
# 3 -0.4322 -14.3318 55.4301 -2.8196 6.8161 -0.3782
# 4 8.8420 6.6359 -2.8196 34.8583 4.6701 -0.3077
# 5 -8.0245 2.6794 6.8161 4.6701 37.9664 8.8286
# 6 -8.5995 9.5011 -0.3782 -0.3077 8.8286 23.9726
#
#
#
# Elastic Compliance Matrix: (Units=1/GPa)
#
#
# Indices 1 2 3 4 5 6 
#
# 1 0.014146 -0.008744 -0.002544 -0.002413 0.002615 0.007506
# 2 -0.008744 0.030963 0.007893 -0.002944 -0.001668 -0.014708
# 3 -0.002544 0.007893 0.020673 0.001400 -0.004505 -0.002038
# 4 -0.002413 -0.002944 0.001400 0.030654 -0.004912 0.002526
# 5 0.002615 -0.001668 -0.004505 -0.004912 0.030712 -0.009845
# 6 0.007506 -0.014708 -0.002038 0.002526 -0.009845 0.053862
#
#
# Mechanical properties :
#
#
# Convention : Reuss Voigt Hill
#
# Bulk Modulus (GPa) = 16.95175 23.37253 20.16214
# Shear Modulus (GPa) = 24.10047 31.85087 27.97567
#
# Velocity S-wave (km/s) = 3.15862 3.63116 3.40310
# Velocity P-wave (km/s) = 4.50778 5.22073 4.87730
#
# Compressibility (1/GPa) = 0.05899097
#
# Stress axis : x y z
#
# Youngs Moduli (GPa) = 70.69174 32.29615 48.37268
#
# Poissons Ratio (x) = 0.28241 0.12305
# Poissons Ratio (y) = 0.61816 -0.38179
# Poissons Ratio (z) = 0.17982 -0.25490
#
# Static dielectric constant tensor:
#      x y z
#    x 1.906610 -0.067600 0.011950 
#    y -0.067600 2.007330 0.000920 
#    z 0.011950 0.000920 1.965590 
# 
# From -- ./inp_files/370138.got.cif
#   From: 2010.05.17/outbox.cif.g08.bks.cpg/sg2_186_cif.got.tgz:370138.got - 2010.06.03 11:33:40.
