data_PCOD9015892
_publ_section_title
;
Structure prediction by ZEFSAII (Michael W. Deem and Ramdas Pophale) SiO2 
 PCOD9015892
Probable space group: P -1
;
_chemical_formula_sum "Si O2"
_cell_formula_units_Z 14
_cell_length_a 13.568031
_cell_length_b 13.452789
_cell_length_c 6.952043
_cell_angle_alpha 86.666844
_cell_angle_beta 78.305352
_cell_angle_gamma 148.137732
_cell_volume 587.249503
_symmetry_space_group_name_H-M "P -1"
_symmetry_group_IT_number 2
_symmetry_cell_setting 'triclinic'
loop_
_space_group_symop_operation_xyz
x,y,z
-x,-y,-z
loop_
_atom_site_type_symbol
_atom_site_label
_atom_site_fract_x
_atom_site_fract_y
_atom_site_fract_z
Si Si1 0.787452 0.554988 0.382570
Si Si2 0.019121 0.554496 0.270935
Si Si3 0.642849 0.149572 0.188694
Si Si4 0.390775 0.069370 0.552171
Si Si5 0.243413 0.184823 0.166948
Si Si6 0.621112 0.585331 0.243597
Si Si7 0.994867 0.157116 0.419171
O O1 0.559150 0.304640 0.474367
O O2 0.795074 0.654685 0.223365
O O3 0.959067 0.618534 0.273353
O O4 0.814924 0.617489 0.582194
O O5 0.000000 0.500000 0.500000
O O6 0.839619 0.343284 0.237283
O O7 0.251915 0.740854 0.070225
O O8 0.458401 0.063158 0.338614
O O9 0.582078 0.983543 0.277263
O O10 0.155738 0.906620 0.642017
O O11 0.456351 0.392652 0.181295
O O12 0.083157 0.136650 0.282524
O O13 0.143518 0.001161 0.324536
O O14 0.291670 0.240615 0.916678
O O15 0.500000 0.500000 0.500000
#
# Coordination Sequence:
#
# PCOD9015892 Si02
#       7
#     2   2   2   2   2   2   2
#     4  11  23  40  66  96 127 171 215 261 321 378
#     4  10  21  42  65  96 128 166 217 262 315 387
#     4   9  21  42  66  90 129 176 200 268 331 366
#     4  10  21  42  67  94 132 165 217 264 318 386
#     4  10  24  42  68  91 133 173 208 271 321 372
#     4  11  22  46  64  94 132 167 217 266 319 382
#     4  11  22  43  65  99 126 171 217 262 321 383
#
# _framework density 23.839953999999999
#
# number of rings (size 3 to 8) (size 9 to 14) (size 15 to 20)
#    0.000    1.714    2.857    0.857    2.000    0.571 
#    7.714   10.000    0.000    0.000    0.000    0.000 
#    0.000    0.000    0.000    0.000    0.000    0.000 
#
# Total GULP energy -78348.515292 kJ/mol
# GULP energy per Si atom -5596.322521 kJ/mol
# Density = 2.378569 g / cm^3
# Si number density = 23.839954 Si / 1000 Ang^3
#
#
#
# Elastic Constant Matrix: (Units=GPa)
#
#
# Indices 1 2 3 4 5 6 
#
# 1 83.2803 9.0382 5.3746 8.0064 2.3169 17.7470
# 2 9.0382 25.9694 0.3050 9.4875 9.2407 6.5090
# 3 5.3746 0.3050 122.5305 -3.8870 12.6480 1.5901
# 4 8.0064 9.4875 -3.8870 21.8061 5.8480 3.5357
# 5 2.3169 9.2407 12.6480 5.8480 19.6485 -6.1160
# 6 17.7470 6.5090 1.5901 3.5357 -6.1160 34.9272
#
#
#
# Elastic Compliance Matrix: (Units=1/GPa)
#
#
# Indices 1 2 3 4 5 6 
#
# 1 0.013989 -0.001330 -0.000406 -0.002969 -0.002026 -0.006896
# 2 -0.001330 0.057859 0.002614 -0.014254 -0.028798 -0.013825
# 3 -0.000406 0.002614 0.009246 0.003498 -0.008993 -0.002631
# 4 -0.002969 -0.014254 0.003498 0.058190 -0.013859 -0.004312
# 5 -0.002026 -0.028798 -0.008993 -0.013859 0.081594 0.022496
# 6 -0.006896 -0.013825 -0.002631 -0.004312 0.022496 0.039207
#
#
# Mechanical properties :
#
#
# Convention : Reuss Voigt Hill
#
# Bulk Modulus (GPa) = 12.06989 29.02398 20.54694
# Shear Modulus (GPa) = 17.48579 29.74718 23.61649
#
# Velocity S-wave (km/s) = 2.71120 3.53623 3.15084
# Velocity P-wave (km/s) = 3.85677 5.37347 4.67701
#
# Compressibility (1/GPa) = 0.08285077
#
# Stress axis : x y z
#
# Youngs Moduli (GPa) = 71.48220 17.28331 108.15519
#
# Poissons Ratio (x) = 0.02299 0.04390
# Poissons Ratio (y) = 0.09509 -0.28274
# Poissons Ratio (z) = 0.02901 -0.04518
#
# Static dielectric constant tensor:
#      x y z
#    x 1.889100 -0.012620 -0.020920 
#    y -0.012620 1.958320 -0.001370 
#    z -0.020920 -0.001370 1.927700 
# 
# From -- ./inp_files/98110.got.cif
#   From: 2010.05.17/outbox.cif.g08.bks.cpg/sg2_50_cif.got.tgz:98110.got - 2010.06.03 11:33:40.
