data_PCOD9015750
_publ_section_title
;
Structure prediction by ZEFSAII (Michael W. Deem and Ramdas Pophale) SiO2 
 PCOD9015750
Probable space group: P -1
;
_chemical_formula_sum "Si O2"
_cell_formula_units_Z 16
_cell_length_a 9.168185
_cell_length_b 18.560380
_cell_length_c 11.914502
_cell_angle_alpha 30.157612
_cell_angle_beta 118.640773
_cell_angle_gamma 132.939187
_cell_volume 711.709288
_symmetry_space_group_name_H-M "P -1"
_symmetry_group_IT_number 2
_symmetry_cell_setting 'triclinic'
loop_
_space_group_symop_operation_xyz
x,y,z
-x,-y,-z
loop_
_atom_site_type_symbol
_atom_site_label
_atom_site_fract_x
_atom_site_fract_y
_atom_site_fract_z
Si Si1 0.451131 0.370884 0.358717
Si Si2 0.055554 0.301034 0.361789
Si Si3 0.016099 0.017455 0.115812
Si Si4 0.623493 0.185758 0.064692
Si Si5 0.608855 0.747002 0.929412
Si Si6 0.451623 0.137035 0.829186
Si Si7 0.075114 0.459070 0.919309
Si Si8 0.456869 0.185965 0.419575
O O1 0.287619 0.366694 0.385761
O O2 0.564805 0.310187 0.556357
O O3 0.340350 0.220476 0.423298
O O4 0.564714 0.571185 0.089301
O O5 0.931196 0.106949 0.635361
O O6 0.987549 0.414332 0.234830
O O7 0.062855 0.341266 0.177760
O O8 0.794947 0.965332 0.141950
O O9 0.212343 0.205311 0.981704
O O10 0.000000 0.000000 0.000000
O O11 0.560129 0.249317 0.064495
O O12 0.539108 0.979236 0.325060
O O13 0.515044 0.194550 0.903342
O O14 0.874650 0.310843 0.970793
O O15 0.642023 0.859231 0.679282
O O16 0.500000 0.000000 0.000000
O O17 0.313986 0.615832 0.760507
#
# Coordination Sequence:
#
# PCOD9015750 Si02
#       8
#     2   2   2   2   2   2   2   2
#     4  11  24  45  68  97 146 179 222 297 345 403
#     4  10  21  42  64  99 140 172 217 290 340 400
#     4  11  24  42  71  98 137 182 237 284 342 414
#     4  12  24  44  72 101 137 189 232 283 351 411
#     4  12  23  43  70 106 129 182 238 279 354 412
#     4  11  25  48  64  94 144 180 226 291 347 404
#     4  11  22  41  71 102 138 178 233 278 345 415
#     4  12  25  44  72 101 149 178 228 294 345 413
#
# _framework density 22.481089999999998
#
# number of rings (size 3 to 8) (size 9 to 14) (size 15 to 20)
#    0.000    0.750    5.000    3.000    0.000    2.500 
#    0.000    3.125    0.000    0.000    0.000    0.000 
#    0.000    0.000    0.000    0.000    0.000    0.000 
#
# Total GULP energy -89104.490450 kJ/mol
# GULP energy per Si atom -5569.030653 kJ/mol
# Density = 2.242992 g / cm^3
# Si number density = 22.481090 Si / 1000 Ang^3
#
#
#
# Elastic Constant Matrix: (Units=GPa)
#
#
# Indices 1 2 3 4 5 6 
#
# 1 69.7614 17.9664 31.3164 -6.0463 19.8218 -3.8098
# 2 17.9664 89.6728 16.4484 9.9568 1.6508 2.0202
# 3 31.3164 16.4484 91.3505 14.0234 25.9838 -7.4519
# 4 -6.0463 9.9568 14.0234 33.1963 -1.9650 -1.6520
# 5 19.8218 1.6508 25.9838 -1.9650 34.4765 -4.0692
# 6 -3.8098 2.0202 -7.4519 -1.6520 -4.0692 41.3153
#
#
#
# Elastic Compliance Matrix: (Units=1/GPa)
#
#
# Indices 1 2 3 4 5 6 
#
# 1 0.020260 -0.003722 -0.005226 0.006629 -0.007074 0.000676
# 2 -0.003722 0.012510 -0.001017 -0.003940 0.001953 -0.001104
# 3 -0.005226 -0.001017 0.017255 -0.008478 -0.010278 0.001329
# 4 0.006629 -0.003940 -0.008478 0.036450 0.004989 0.001224
# 5 -0.007074 0.001953 -0.010278 0.004989 0.041205 0.001656
# 6 0.000676 -0.001104 0.001329 0.001224 0.001656 0.024772
#
#
# Mechanical properties :
#
#
# Convention : Reuss Voigt Hill
#
# Bulk Modulus (GPa) = 33.22734 42.47188 37.84961
# Shear Modulus (GPa) = 27.41012 34.13453 30.77232
#
# Velocity S-wave (km/s) = 3.49557 3.90085 3.70376
# Velocity P-wave (km/s) = 5.57711 6.26276 5.92985
#
# Compressibility (1/GPa) = 0.03009570
#
# Stress axis : x y z
#
# Youngs Moduli (GPa) = 49.35720 79.93410 57.95521
#
# Poissons Ratio (x) = 0.29750 0.30286
# Poissons Ratio (y) = 0.18370 0.05896
# Poissons Ratio (z) = 0.25793 0.08132
#
# Static dielectric constant tensor:
#      x y z
#    x 1.924990 0.076180 -0.119730 
#    y 0.076180 1.897500 -0.127960 
#    z -0.119730 -0.127960 2.010620 
# 
# From -- ./inp_files/402694.got.cif
#   From: 2010.05.17/outbox.cif.g08.bks.cpg/sg2_202_cif.got.tgz:402694.got - 2010.06.03 11:33:40.
