data_PCOD9015965
_publ_section_title
;
Structure prediction by ZEFSAII (Michael W. Deem and Ramdas Pophale) SiO2 
 PCOD9015965
Probable space group: P -1
;
_chemical_formula_sum "Si O2"
_cell_formula_units_Z 16
_cell_length_a 14.931229
_cell_length_b 12.571916
_cell_length_c 13.774977
_cell_angle_alpha 59.843652
_cell_angle_beta 42.100338
_cell_angle_gamma 26.709359
_cell_volume 659.554427
_symmetry_space_group_name_H-M "P -1"
_symmetry_group_IT_number 2
_symmetry_cell_setting 'triclinic'
loop_
_space_group_symop_operation_xyz
x,y,z
-x,-y,-z
loop_
_atom_site_type_symbol
_atom_site_label
_atom_site_fract_x
_atom_site_fract_y
_atom_site_fract_z
Si Si1 0.398289 0.735090 0.580068
Si Si2 0.820465 0.856474 0.941160
Si Si3 0.146897 0.491145 0.444011
Si Si4 0.193423 0.152234 0.818603
Si Si5 0.953401 0.452275 0.291256
Si Si6 0.779036 0.301326 0.798120
Si Si7 0.522822 0.646331 0.106382
Si Si8 0.504222 0.370901 0.658704
O O1 0.636171 0.643422 0.447883
O O2 0.541441 0.484146 0.598431
O O3 0.312130 0.813870 0.498989
O O4 0.068340 0.019304 0.758454
O O5 0.852796 0.742205 0.872405
O O6 0.153867 0.642525 0.782909
O O7 0.573367 0.163949 0.973754
O O8 0.762046 0.857339 0.096805
O O9 0.957567 0.659713 0.619689
O O10 0.163327 0.605356 0.320104
O O11 0.000000 0.500000 0.500000
O O12 0.501466 0.159958 0.324675
O O13 0.114882 0.347300 0.744897
O O14 0.885060 0.328749 0.969164
O O15 0.672759 0.308695 0.787946
O O16 0.500000 0.500000 0.000000
O O17 0.428518 0.760545 0.239489
#
# Coordination Sequence:
#
# PCOD9015965 Si02
#       8
#     2   2   2   2   2   2   2   2
#     4  10  21  42  66 101 140 174 234 288 355 415
#     4  10  22  45  72 110 140 180 239 297 361 426
#     4  12  29  49  72 103 144 196 248 293 351 428
#     4  11  26  47  72 100 149 191 237 294 356 427
#     4  11  25  45  74 102 142 192 238 298 359 424
#     4  12  27  42  72 104 143 191 237 292 352 428
#     4  11  24  42  74 103 144 180 232 293 365 420
#     4   9  20  40  68  99 140 177 219 297 353 419
#
# _framework density 24.258800000000001
#
# number of rings (size 3 to 8) (size 9 to 14) (size 15 to 20)
#    0.000    1.250    1.250    3.000    8.750    1.500 
#    2.250    0.000    0.000    0.000    0.000    0.000 
#    0.000    0.000    0.000    0.000    0.000    0.000 
#
# Total GULP energy -89418.804447 kJ/mol
# GULP energy per Si atom -5588.675278 kJ/mol
# Density = 2.420359 g / cm^3
# Si number density = 24.258800 Si / 1000 Ang^3
#
#
#
# Elastic Constant Matrix: (Units=GPa)
#
#
# Indices 1 2 3 4 5 6 
#
# 1 84.6553 23.6528 17.1734 7.4785 -2.2364 -8.8986
# 2 23.6528 47.4319 1.8372 -10.7413 -10.8903 5.0424
# 3 17.1734 1.8372 37.9966 1.1610 2.8253 -6.4327
# 4 7.4785 -10.7413 1.1610 39.1083 -7.3418 -0.6190
# 5 -2.2364 -10.8903 2.8253 -7.3418 53.9185 -4.8560
# 6 -8.8986 5.0424 -6.4327 -0.6190 -4.8560 32.5319
#
#
#
# Elastic Compliance Matrix: (Units=1/GPa)
#
#
# Indices 1 2 3 4 5 6 
#
# 1 0.016966 -0.010465 -0.006063 -0.006146 -0.001504 0.004723
# 2 -0.010465 0.031121 0.001314 0.011692 0.006818 -0.006186
# 3 -0.006063 0.001314 0.029717 0.000487 -0.001130 0.003855
# 4 -0.006146 0.011692 0.000487 0.031065 0.006141 -0.001889
# 5 -0.001504 0.006818 -0.001130 0.006141 0.020896 0.001544
# 6 0.004723 -0.006186 0.003855 -0.001889 0.001544 0.033946
#
#
# Mechanical properties :
#
#
# Convention : Reuss Voigt Hill
#
# Bulk Modulus (GPa) = 21.10805 28.37894 24.74350
# Shear Modulus (GPa) = 23.81728 33.60644 28.71186
#
# Velocity S-wave (km/s) = 3.13677 3.72604 3.44403
# Velocity P-wave (km/s) = 4.67324 5.49863 5.10265
#
# Compressibility (1/GPa) = 0.04737529
#
# Stress axis : x y z
#
# Youngs Moduli (GPa) = 58.94108 32.13247 33.65105
#
# Poissons Ratio (x) = 0.33626 0.20403
# Poissons Ratio (y) = 0.61681 -0.04420
# Poissons Ratio (z) = 0.35737 -0.04221
#
# Static dielectric constant tensor:
#      x y z
#    x 2.095690 -0.034010 0.111380 
#    y -0.034010 1.910830 0.023180 
#    z 0.111380 0.023180 1.976340 
# 
# From -- ./inp_files/411028.got.cif
#   From: 2010.05.17/outbox.cif.g08.bks.cpg/sg2_206_cif.got.tgz:411028.got - 2010.06.03 11:33:40.
