data_PCOD9015558
_publ_section_title
;
Structure prediction by ZEFSAII (Michael W. Deem and Ramdas Pophale) SiO2 
 PCOD9015558
Probable space group: P -1
;
_chemical_formula_sum "Si O2"
_cell_formula_units_Z 12
_cell_length_a 10.907745
_cell_length_b 8.491574
_cell_length_c 14.241261
_cell_angle_alpha 66.374632
_cell_angle_beta 28.686179
_cell_angle_gamma 83.024798
_cell_volume 494.343891
_symmetry_space_group_name_H-M "P -1"
_symmetry_group_IT_number 2
_symmetry_cell_setting 'triclinic'
loop_
_space_group_symop_operation_xyz
x,y,z
-x,-y,-z
loop_
_atom_site_type_symbol
_atom_site_label
_atom_site_fract_x
_atom_site_fract_y
_atom_site_fract_z
Si Si1 0.249201 0.824801 0.576501
Si Si2 0.163623 0.897169 0.965536
Si Si3 0.699402 0.770670 0.071769
Si Si4 0.846966 0.575489 0.727148
Si Si5 0.256710 0.767230 0.238010
Si Si6 0.230717 0.495981 0.772300
O O1 0.389662 0.711119 0.564780
O O2 0.057709 0.698783 0.644314
O O3 0.526513 0.038994 0.309975
O O4 0.016312 0.832394 0.800040
O O5 0.266473 0.024801 0.960652
O O6 0.949916 0.661773 0.152017
O O7 0.000000 0.000000 0.000000
O O8 0.449750 0.688340 0.180559
O O9 0.617680 0.602154 0.246428
O O10 0.856221 0.375190 0.743178
O O11 0.997836 0.720994 0.498860
O O12 0.500000 0.500000 0.000000
O O13 0.500000 0.000000 0.000000
O O14 0.000000 0.500000 0.000000
#
# Coordination Sequence:
#
# PCOD9015558 Si02
#       6
#     2   2   2   2   2   2
#     4  11  22  42  67  94 134 169 214 275 327 390
#     4  10  22  40  62  92 133 165 217 264 324 390
#     4  10  21  42  63  95 130 167 217 267 324 393
#     4  11  24  45  70  97 133 176 227 277 323 396
#     4  11  25  45  67  97 135 176 224 277 332 390
#     4   9  22  40  66  95 127 169 213 258 339 386
#
# _framework density 24.2746
#
# number of rings (size 3 to 8) (size 9 to 14) (size 15 to 20)
#    0.000    1.667    3.333    0.000    2.333    9.333 
#    3.000    3.333    0.000    0.000    0.000    0.000 
#    0.000    0.000    0.000    0.000    0.000    0.000 
#
# Total GULP energy -67031.518890 kJ/mol
# GULP energy per Si atom -5585.959907 kJ/mol
# Density = 2.421935 g / cm^3
# Si number density = 24.274600 Si / 1000 Ang^3
#
#
#
# Elastic Constant Matrix: (Units=GPa)
#
#
# Indices 1 2 3 4 5 6 
#
# 1 72.4121 -3.1373 5.2152 1.6505 -0.8487 -1.9551
# 2 -3.1373 52.6933 25.6213 5.7027 15.7076 4.4765
# 3 5.2152 25.6213 144.2940 23.5378 9.5438 -10.2916
# 4 1.6505 5.7027 23.5378 42.3339 2.5701 2.5963
# 5 -0.8487 15.7076 9.5438 2.5701 27.9497 4.3585
# 6 -1.9551 4.4765 -10.2916 2.5963 4.3585 24.4538
#
#
#
# Elastic Compliance Matrix: (Units=1/GPa)
#
#
# Indices 1 2 3 4 5 6 
#
# 1 0.013928 0.001118 -0.000578 -0.000412 -0.000083 0.000724
# 2 0.001118 0.024875 -0.003905 -0.000254 -0.011974 -0.003947
# 3 -0.000578 -0.003905 0.008839 -0.004605 -0.001212 0.005094
# 4 -0.000412 -0.000254 -0.004605 0.026523 0.000003 -0.004741
# 5 -0.000083 -0.011974 -0.001212 0.000003 0.043877 -0.006145
# 6 0.000724 -0.003947 0.005094 -0.004741 -0.006145 0.045416
#
#
# Mechanical properties :
#
#
# Convention : Reuss Voigt Hill
#
# Bulk Modulus (GPa) = 24.44255 36.08862 30.26558
# Shear Modulus (GPa) = 27.19961 35.06084 31.13023
#
# Velocity S-wave (km/s) = 3.35101 3.80457 3.58497
# Velocity P-wave (km/s) = 5.00634 5.84797 5.44345
#
# Compressibility (1/GPa) = 0.04091226
#
# Stress axis : x y z
#
# Youngs Moduli (GPa) = 71.79860 40.20046 113.13181
#
# Poissons Ratio (x) = -0.04494 0.06534
# Poissons Ratio (y) = -0.08026 0.44183
# Poissons Ratio (z) = 0.04147 0.15700
#
# Static dielectric constant tensor:
#      x y z
#    x 2.001760 0.054930 0.038570 
#    y 0.054930 1.961400 0.026470 
#    z 0.038570 0.026470 1.942210 
# 
# From -- ./inp_files/86082.got.cif
#   From: 2010.05.17/outbox.cif.g08.bks.cpg/sg2_44_cif.got.tgz:86082.got - 2010.06.03 11:33:40.
