data_PCOD9015544
_publ_section_title
;
Structure prediction by ZEFSAII (Michael W. Deem and Ramdas Pophale) SiO2 
 PCOD9015544
Probable space group: P -1
;
_chemical_formula_sum "Si O2"
_cell_formula_units_Z 14
_cell_length_a 16.896682
_cell_length_b 9.845969
_cell_length_c 5.316928
_cell_angle_alpha 111.445912
_cell_angle_beta 70.863837
_cell_angle_gamma 131.689861
_cell_volume 610.231112
_symmetry_space_group_name_H-M "P -1"
_symmetry_group_IT_number 2
_symmetry_cell_setting 'triclinic'
loop_
_space_group_symop_operation_xyz
x,y,z
-x,-y,-z
loop_
_atom_site_type_symbol
_atom_site_label
_atom_site_fract_x
_atom_site_fract_y
_atom_site_fract_z
Si Si1 0.011626 0.711160 0.872424
Si Si2 0.310528 0.150472 0.495713
Si Si3 0.353232 0.712109 0.400189
Si Si4 0.605972 0.534990 0.033509
Si Si5 0.529883 0.908585 0.717200
Si Si6 0.891390 0.507925 0.356485
Si Si7 0.790882 0.922321 0.943596
O O1 0.081748 0.636978 0.773485
O O2 0.960881 0.651387 0.608717
O O3 0.924965 0.604828 0.114064
O O4 0.087654 0.931423 0.997422
O O5 0.400930 0.146507 0.284582
O O6 0.217797 0.042593 0.314020
O O7 0.366796 0.363346 0.656568
O O8 0.269354 0.056974 0.751405
O O9 0.387025 0.631218 0.098339
O O10 0.427205 0.739940 0.569128
O O11 0.230456 0.590815 0.516471
O O12 0.394149 0.918597 0.435095
O O13 0.714761 0.698022 0.877073
O O14 0.500000 0.500000 0.000000
O O15 0.500000 0.000000 0.000000
#
# Coordination Sequence:
#
# PCOD9015544 Si02
#       7
#     2   2   2   2   2   2   2
#     4  10  21  42  63  94 124 169 218 269 326 380
#     4  10  23  41  67  94 128 177 214 258 321 399
#     4  11  24  45  60 103 132 170 217 272 326 383
#     4  10  23  43  65  94 135 179 213 259 321 402
#     4  11  26  37  67  96 136 170 211 275 327 390
#     4  10  23  38  67  92 128 165 216 275 322 374
#     4  10  22  41  69  91 126 174 222 259 317 393
#
# _framework density 22.942125999999998
#
# number of rings (size 3 to 8) (size 9 to 14) (size 15 to 20)
#    0.857    0.857    1.429    1.714   10.000    2.857 
#    0.000    1.429    0.000    0.000    0.000    0.000 
#    0.000    0.000    0.000    0.000    0.000    0.000 
#
# Total GULP energy -78021.369733 kJ/mol
# GULP energy per Si atom -5572.954981 kJ/mol
# Density = 2.288991 g / cm^3
# Si number density = 22.942126 Si / 1000 Ang^3
#
#
#
# Elastic Constant Matrix: (Units=GPa)
#
#
# Indices 1 2 3 4 5 6 
#
# 1 29.5065 34.9137 22.5153 1.9623 -11.3671 7.8364
# 2 34.9137 91.4440 20.1262 7.9157 -1.0195 23.6173
# 3 22.5153 20.1262 123.0539 4.1420 8.6569 2.5938
# 4 1.9623 7.9157 4.1420 27.3353 9.3824 2.4219
# 5 -11.3671 -1.0195 8.6569 9.3824 34.3959 -1.7589
# 6 7.8364 23.6173 2.5938 2.4219 -1.7589 23.0230
#
#
#
# Elastic Compliance Matrix: (Units=1/GPa)
#
#
# Indices 1 2 3 4 5 6 
#
# 1 0.102960 -0.036903 -0.015477 -0.008719 0.039640 0.008500
# 2 -0.036903 0.028926 0.003335 -0.000101 -0.013095 -0.018478
# 3 -0.015477 0.003335 0.010944 0.001290 -0.008130 -0.000143
# 4 -0.008719 -0.000101 0.001290 0.042397 -0.014911 -0.002673
# 5 0.039640 -0.013095 -0.008130 -0.014911 0.048211 0.006108
# 6 0.008500 -0.018478 -0.000143 -0.002673 0.006108 0.060260
#
#
# Mechanical properties :
#
#
# Convention : Reuss Voigt Hill
#
# Bulk Modulus (GPa) = 22.35102 44.34611 33.34856
# Shear Modulus (GPa) = 12.29401 28.04745 20.17073
#
# Velocity S-wave (km/s) = 2.31740 3.50026 2.96835
# Velocity P-wave (km/s) = 4.11387 5.97556 5.12988
#
# Compressibility (1/GPa) = 0.04474068
#
# Stress axis : x y z
#
# Youngs Moduli (GPa) = 9.71254 34.57072 91.37028
#
# Poissons Ratio (x) = 1.27575 1.41417
# Poissons Ratio (y) = 0.35842 -0.30473
# Poissons Ratio (z) = 0.15032 -0.11530
#
# Static dielectric constant tensor:
#      x y z
#    x 1.890190 -0.066240 0.070310 
#    y -0.066240 1.941540 -0.177800 
#    z 0.070310 -0.177800 1.450190 
# 
# From -- ./inp_files/109332.got.cif
#   From: 2010.05.17/outbox.cif.g08.bks.cpg/sg2_55_cif.got.tgz:109332.got - 2010.06.03 11:33:40.
