data_PCOD9015561
_publ_section_title
;
Structure prediction by ZEFSAII (Michael W. Deem and Ramdas Pophale) SiO2 
 PCOD9015561
Probable space group: P -1
;
_chemical_formula_sum "Si O2"
_cell_formula_units_Z 16
_cell_length_a 17.526608
_cell_length_b 8.102609
_cell_length_c 13.333313
_cell_angle_alpha 30.383197
_cell_angle_beta 130.869311
_cell_angle_gamma 119.008229
_cell_volume 708.374495
_symmetry_space_group_name_H-M "P -1"
_symmetry_group_IT_number 2
_symmetry_cell_setting 'triclinic'
loop_
_space_group_symop_operation_xyz
x,y,z
-x,-y,-z
loop_
_atom_site_type_symbol
_atom_site_label
_atom_site_fract_x
_atom_site_fract_y
_atom_site_fract_z
Si Si1 0.270160 0.125646 0.261442
Si Si2 0.977434 0.384613 0.747445
Si Si3 0.341135 0.703968 0.724459
Si Si4 0.185984 0.145513 0.742002
Si Si5 0.944159 0.411494 0.097276
Si Si6 0.495851 0.930437 0.863446
Si Si7 0.197193 0.327442 0.880514
Si Si8 0.604904 0.302118 0.905375
O O1 0.352938 0.360593 0.226945
O O2 0.308666 0.805232 0.530538
O O3 0.159167 0.311425 0.112367
O O4 0.251351 0.110578 0.134230
O O5 0.872261 0.500350 0.536410
O O6 0.979253 0.593229 0.741153
O O7 0.076171 0.426944 0.746036
O O8 0.000000 0.000000 0.000000
O O9 0.399253 0.971167 0.684084
O O10 0.246793 0.651456 0.739872
O O11 0.416191 0.339989 0.974441
O O12 0.210840 0.151340 0.877477
O O13 0.100650 0.920169 0.774882
O O14 0.290687 0.985265 0.859349
O O15 0.000000 0.500000 0.000000
O O16 0.538691 0.238522 0.784146
O O17 0.460024 0.749294 0.025579
#
# Coordination Sequence:
#
# PCOD9015561 Si02
#       8
#     2   2   2   2   2   2   2   2
#     4  10  24  41  66  96 129 167 222 262 318 385
#     4  11  25  41  68 100 128 173 219 254 319 392
#     4  11  23  42  69  94 125 176 211 270 323 377
#     4  11  23  41  67  92 132 175 203 270 324 372
#     4  10  23  41  61  95 134 166 215 258 320 390
#     4  10  22  42  67  93 128 169 219 263 333 376
#     4  11  23  42  66  95 134 163 218 261 315 385
#     4  10  21  42  63  95 131 165 215 271 319 388
#
# _framework density 22.586922000000001
#
# number of rings (size 3 to 8) (size 9 to 14) (size 15 to 20)
#    0.000    1.500    2.500    1.500    5.250    2.000 
#    0.000    5.000    0.000    0.000    0.000    0.000 
#    0.000    0.000    0.000    0.000    0.000    0.000 
#
# Total GULP energy -89450.933020 kJ/mol
# GULP energy per Si atom -5590.683314 kJ/mol
# Density = 2.253551 g / cm^3
# Si number density = 22.586922 Si / 1000 Ang^3
#
#
#
# Elastic Constant Matrix: (Units=GPa)
#
#
# Indices 1 2 3 4 5 6 
#
# 1 97.1922 12.7560 3.1632 1.2816 -11.7682 15.0775
# 2 12.7560 108.9896 13.5109 31.7014 -1.1457 14.4660
# 3 3.1632 13.5109 69.5189 13.0527 -9.3310 7.7280
# 4 1.2816 31.7014 13.0527 28.8246 -5.2533 -1.1934
# 5 -11.7682 -1.1457 -9.3310 -5.2533 16.5970 7.0930
# 6 15.0775 14.4660 7.7280 -1.1934 7.0930 32.4660
#
#
#
# Elastic Compliance Matrix: (Units=1/GPa)
#
#
# Indices 1 2 3 4 5 6 
#
# 1 0.013788 -0.000954 0.002466 0.001810 0.015935 -0.009980
# 2 -0.000954 0.015210 0.000930 -0.017717 -0.001799 -0.006814
# 3 0.002466 0.000930 0.018329 -0.007310 0.013732 -0.009192
# 4 0.001810 -0.017717 -0.007310 0.059808 0.011232 0.008538
# 5 0.015935 -0.001799 0.013732 0.011232 0.095676 -0.030357
# 6 -0.009980 -0.006814 -0.009192 0.008538 -0.030357 0.047606
#
#
# Mechanical properties :
#
#
# Convention : Reuss Voigt Hill
#
# Bulk Modulus (GPa) = 19.15272 37.17344 28.16308
# Shear Modulus (GPa) = 19.01597 31.99556 25.50576
#
# Velocity S-wave (km/s) = 2.90470 3.76779 3.36404
# Velocity P-wave (km/s) = 4.44384 5.95164 5.25213
#
# Compressibility (1/GPa) = 0.05221190
#
# Stress axis : x y z
#
# Youngs Moduli (GPa) = 72.52900 65.74485 54.55792
#
# Poissons Ratio (x) = 0.06270 -0.13456
# Poissons Ratio (y) = 0.06918 -0.05073
# Poissons Ratio (z) = -0.17889 -0.06113
#
# Static dielectric constant tensor:
#      x y z
#    x 1.802950 0.027940 0.007870 
#    y 0.027940 1.899900 0.009930 
#    z 0.007870 0.009930 1.836450 
# 
# From -- ./inp_files/273526.got.cif
#   From: 2010.05.17/outbox.cif.g08.bks.cpg/sg2_137_cif.got.tgz:273526.got - 2010.06.03 11:33:40.
