data_PCOD9015134
_publ_section_title
;
Structure prediction by ZEFSAII (Michael W. Deem and Ramdas Pophale) SiO2 
 PCOD9015134
Probable space group: P -1
;
_chemical_formula_sum "Si O2"
_cell_formula_units_Z 10
_cell_length_a 7.852971
_cell_length_b 12.349340
_cell_length_c 5.738459
_cell_angle_alpha 81.121271
_cell_angle_beta 117.103800
_cell_angle_gamma 69.270585
_cell_volume 428.743606
_symmetry_space_group_name_H-M "P -1"
_symmetry_group_IT_number 2
_symmetry_cell_setting 'triclinic'
loop_
_space_group_symop_operation_xyz
x,y,z
-x,-y,-z
loop_
_atom_site_type_symbol
_atom_site_label
_atom_site_fract_x
_atom_site_fract_y
_atom_site_fract_z
Si Si1 0.746184 0.892023 0.143531
Si Si2 0.373795 0.529089 0.659312
Si Si3 0.415780 0.280059 0.785217
Si Si4 0.645130 0.063397 0.643450
Si Si5 0.178518 0.800729 0.617122
O O1 0.712575 0.772323 0.117970
O O2 0.919877 0.861595 0.467309
O O3 0.500000 0.000000 0.000000
O O4 0.813523 0.956629 0.959635
O O5 0.500000 0.500000 0.500000
O O6 0.285593 0.428876 0.631422
O O7 0.228775 0.678317 0.534719
O O8 0.500000 0.500000 0.000000
O O9 0.478631 0.194876 0.622809
O O10 0.654796 0.244268 0.049336
O O11 0.758766 0.106053 0.508316
O O12 0.500000 0.000000 0.500000
#
# Coordination Sequence:
#
# PCOD9015134 Si02
#       5
#     2   2   2   2   2
#     4  10  23  40  60  96 129 174 220 270 330 406
#     4  10  21  41  71  98 129 176 227 278 337 403
#     4  10  22  42  63  91 133 163 222 279 329 398
#     4  11  21  39  63  93 129 169 217 274 336 401
#     4  11  22  41  67  90 131 176 218 272 342 390
#
# _framework density 23.323961000000001
#
# number of rings (size 3 to 8) (size 9 to 14) (size 15 to 20)
#    0.000    1.600    4.000    0.600    0.000    4.000 
#    7.200    0.000    0.000    6.000    0.000    0.000 
#    0.000    0.000    0.000    0.000    0.000    0.000 
#
# Total GULP energy -55713.020545 kJ/mol
# GULP energy per Si atom -5571.302054 kJ/mol
# Density = 2.327087 g / cm^3
# Si number density = 23.323961 Si / 1000 Ang^3
#
#
#
# Elastic Constant Matrix: (Units=GPa)
#
#
# Indices 1 2 3 4 5 6 
#
# 1 86.1772 49.3053 34.8002 -7.5712 15.3271 17.8587
# 2 49.3053 220.0579 16.9613 -5.4211 -4.9410 33.2808
# 3 34.8002 16.9613 58.5130 7.5964 10.3956 0.8847
# 4 -7.5712 -5.4211 7.5964 35.4994 11.8499 -15.0978
# 5 15.3271 -4.9410 10.3956 11.8499 43.9768 -2.4616
# 6 17.8587 33.2808 0.8847 -15.0978 -2.4616 39.2031
#
#
#
# Elastic Compliance Matrix: (Units=1/GPa)
#
#
# Indices 1 2 3 4 5 6 
#
# 1 0.020476 -0.003090 -0.010850 0.006708 -0.006968 -0.004313
# 2 -0.003090 0.005874 0.000133 -0.002340 0.002092 -0.004351
# 3 -0.010850 0.000133 0.024368 -0.006787 -0.000042 0.001663
# 4 0.006708 -0.002340 -0.006787 0.040311 -0.011080 0.013912
# 5 -0.006968 0.002092 -0.000042 -0.011080 0.028337 -0.001089
# 6 -0.004313 -0.004351 0.001663 0.013912 -0.001089 0.036419
#
#
# Mechanical properties :
#
#
# Convention : Reuss Voigt Hill
#
# Bulk Modulus (GPa) = 43.28356 62.98686 53.13521
# Shear Modulus (GPa) = 26.16425 41.31461 33.73943
#
# Velocity S-wave (km/s) = 3.35293 4.21329 3.80749
# Velocity P-wave (km/s) = 5.79546 7.12271 6.49308
#
# Compressibility (1/GPa) = 0.02310346
#
# Stress axis : x y z
#
# Youngs Moduli (GPa) = 48.83742 170.24617 41.03754
#
# Poissons Ratio (x) = 0.52612 0.44525
# Poissons Ratio (y) = 0.15093 -0.00546
# Poissons Ratio (z) = 0.52988 -0.02266
#
# Static dielectric constant tensor:
#      x y z
#    x 1.943560 -0.034580 -0.083270 
#    y -0.034580 1.926680 0.031540 
#    z -0.083270 0.031540 2.076660 
# 
# From -- ./inp_files/18196.got.cif
#   From: 2010.05.17/outbox.cif.g08.bks.cpg/sg2_10_cif.got.tgz:18196.got - 2010.06.03 11:33:40.
