data_PCOD9015811
_publ_section_title
;
Structure prediction by ZEFSAII (Michael W. Deem and Ramdas Pophale) SiO2 
 PCOD9015811
Probable space group: P -1
;
_chemical_formula_sum "Si O2"
_cell_formula_units_Z 14
_cell_length_a 10.961602
_cell_length_b 14.484397
_cell_length_c 11.328752
_cell_angle_alpha 28.846879
_cell_angle_beta 37.916789
_cell_angle_gamma 41.601775
_cell_volume 523.420559
_symmetry_space_group_name_H-M "P -1"
_symmetry_group_IT_number 2
_symmetry_cell_setting 'triclinic'
loop_
_space_group_symop_operation_xyz
x,y,z
-x,-y,-z
loop_
_atom_site_type_symbol
_atom_site_label
_atom_site_fract_x
_atom_site_fract_y
_atom_site_fract_z
Si Si1 0.871103 0.482491 0.232884
Si Si2 0.423429 0.008502 0.682614
Si Si3 0.872354 0.272923 0.782239
Si Si4 0.378960 0.165847 0.056027
Si Si5 0.500216 0.387495 0.335183
Si Si6 0.139603 0.517579 0.196613
Si Si7 0.729386 0.134825 0.659209
O O1 0.864895 0.255265 0.495243
O O2 0.973675 0.572649 0.160423
O O3 0.661627 0.619841 0.205344
O O4 0.000000 0.500000 0.000000
O O5 0.427965 0.215796 0.508135
O O6 0.500000 0.000000 0.500000
O O7 0.590619 0.862676 0.797652
O O8 0.216786 0.922620 0.946339
O O9 0.690692 0.443891 0.679405
O O10 0.881891 0.333050 0.845231
O O11 0.076010 0.318098 0.516330
O O12 0.209401 0.056798 0.253380
O O13 0.589941 0.070142 0.941089
O O14 0.616178 0.283942 0.477323
O O15 0.649441 0.479663 0.032173
#
# Coordination Sequence:
#
# PCOD9015811 Si02
#       7
#     2   2   2   2   2   2   2
#     4  12  23  38  61  93 129 163 203 259 319 383
#     4  11  23  40  69  96 124 169 222 259 317 390
#     4  11  24  44  67  91 133 171 207 276 314 369
#     4  10  23  40  64  93 123 166 210 267 317 374
#     4  11  22  44  70  93 126 171 215 263 323 379
#     4  11  24  42  64 100 129 166 222 255 320 392
#     4  10  21  42  65  91 123 162 217 259 319 378
#
# _framework density 26.747135
#
# number of rings (size 3 to 8) (size 9 to 14) (size 15 to 20)
#    0.000    1.143    2.857    3.429    0.000    0.571 
#    0.000    5.714    0.000    0.000    0.000    0.000 
#    0.000    0.000    0.000    0.000    0.000    0.000 
#
# Total GULP energy -78331.555052 kJ/mol
# GULP energy per Si atom -5595.111075 kJ/mol
# Density = 2.668626 g / cm^3
# Si number density = 26.747135 Si / 1000 Ang^3
#
#
#
# Elastic Constant Matrix: (Units=GPa)
#
#
# Indices 1 2 3 4 5 6 
#
# 1 134.1928 12.4778 29.0985 -8.2558 -2.8484 16.8806
# 2 12.4778 48.5612 40.1405 -6.8163 -9.6506 10.6098
# 3 29.0985 40.1405 186.5715 2.6935 -38.8113 4.2698
# 4 -8.2558 -6.8163 2.6935 57.5539 16.7679 -6.5235
# 5 -2.8484 -9.6506 -38.8113 16.7679 50.8261 -4.0953
# 6 16.8806 10.6098 4.2698 -6.5235 -4.0953 29.2002
#
#
#
# Elastic Compliance Matrix: (Units=1/GPa)
#
#
# Indices 1 2 3 4 5 6 
#
# 1 0.008400 -0.000029 -0.001518 0.001178 -0.001450 -0.004563
# 2 -0.000029 0.027648 -0.005987 0.002850 -0.000961 -0.008651
# 3 -0.001518 -0.005987 0.008149 -0.002852 0.006110 0.002081
# 4 0.001178 0.002850 -0.002852 0.020652 -0.008210 0.002163
# 5 -0.001450 -0.000961 0.006110 -0.008210 0.026966 0.002242
# 6 -0.004563 -0.008651 0.002081 0.002163 0.002242 0.040521
#
#
# Mechanical properties :
#
#
# Convention : Reuss Voigt Hill
#
# Bulk Modulus (GPa) = 34.33076 59.19546 46.76311
# Shear Modulus (GPa) = 31.82408 46.68997 39.25702
#
# Velocity S-wave (km/s) = 3.45311 4.18258 3.83523
# Velocity P-wave (km/s) = 5.36300 6.74573 6.09371
#
# Compressibility (1/GPa) = 0.02912839
#
# Stress axis : x y z
#
# Youngs Moduli (GPa) = 119.05368 36.16890 122.71162
#
# Poissons Ratio (x) = 0.00106 0.18627
# Poissons Ratio (y) = 0.00350 0.73466
# Poissons Ratio (z) = 0.18072 0.21654
#
# Static dielectric constant tensor:
#      x y z
#    x 2.164160 -0.069150 -0.003790 
#    y -0.069150 1.949120 0.037760 
#    z -0.003790 0.037760 2.062950 
# 
# From -- ./inp_files/426255.got.cif
#   From: 2010.05.17/outbox.cif.g08.bks.cpg/sg2_214_cif.got.tgz:426255.got - 2010.06.03 11:33:40.
