data_PCOD9015188
_publ_section_title
;
Structure prediction by ZEFSAII (Michael W. Deem and Ramdas Pophale) SiO2 
 PCOD9015188
Probable space group: P -1
;
_chemical_formula_sum "Si O2"
_cell_formula_units_Z 16
_cell_length_a 27.409841
_cell_length_b 5.242873
_cell_length_c 14.421263
_cell_angle_alpha 51.405024
_cell_angle_beta 23.907039
_cell_angle_gamma 48.015613
_cell_volume 623.771497
_symmetry_space_group_name_H-M "P -1"
_symmetry_group_IT_number 2
_symmetry_cell_setting 'triclinic'
loop_
_space_group_symop_operation_xyz
x,y,z
-x,-y,-z
loop_
_atom_site_type_symbol
_atom_site_label
_atom_site_fract_x
_atom_site_fract_y
_atom_site_fract_z
Si Si1 0.561816 0.592385 0.999413
Si Si2 0.639195 0.676778 0.509252
Si Si3 0.976212 0.136392 0.114918
Si Si4 0.759968 0.271801 0.221610
Si Si5 0.971165 0.137526 0.622492
Si Si6 0.193636 0.840674 0.434361
Si Si7 0.713521 0.552654 0.928262
Si Si8 0.576361 0.770512 0.302361
O O1 0.558327 0.550686 0.755200
O O2 0.677960 0.436525 0.762024
O O3 0.630396 0.488198 0.003732
O O4 0.500000 0.000000 0.000000
O O5 0.732627 0.381539 0.351511
O O6 0.702477 0.959498 0.370961
O O7 0.530894 0.872700 0.577402
O O8 0.847267 0.181352 0.384063
O O9 0.000000 0.500000 0.000000
O O10 0.092156 0.860649 0.028393
O O11 0.000000 0.000000 0.000000
O O12 0.695397 0.608355 0.196870
O O13 0.818047 0.239241 0.868712
O O14 0.000000 0.500000 0.500000
O O15 0.000000 0.000000 0.500000
O O16 0.069347 0.866629 0.580830
O O17 0.217596 0.201557 0.295029
O O18 0.625698 0.764056 0.113558
O O19 0.500000 0.500000 0.500000
#
# Coordination Sequence:
#
# PCOD9015188 Si02
#       8
#     2   2   2   2   2   2   2   2
#     4  12  27  44  75 110 155 205 253 309 381 461
#     4  11  24  47  74 111 150 197 248 307 378 457
#     4  12  30  52  77 106 147 203 265 319 373 450
#     4  11  25  48  77 107 150 200 249 313 376 447
#     4  10  21  41  72 107 142 185 236 306 375 440
#     4  11  26  49  75 111 150 199 259 319 388 447
#     4  11  23  45  71 110 155 189 248 314 378 457
#     4  10  21  43  70 111 148 193 241 301 379 454
#
# _framework density 25.650421000000001
#
# number of rings (size 3 to 8) (size 9 to 14) (size 15 to 20)
#    0.000    1.000    2.500    3.375    3.500    2.500 
#    2.250    6.250    0.000    0.000    0.000    0.000 
#    0.000    0.000    0.000    0.000    0.000    0.000 
#
# Total GULP energy -89530.856170 kJ/mol
# GULP energy per Si atom -5595.678511 kJ/mol
# Density = 2.559204 g / cm^3
# Si number density = 25.650421 Si / 1000 Ang^3
#
#
#
# Elastic Constant Matrix: (Units=GPa)
#
#
# Indices 1 2 3 4 5 6 
#
# 1 129.8259 26.2795 41.0592 16.8404 18.2303 3.1409
# 2 26.2795 82.9790 46.3659 21.8295 -3.8271 13.6310
# 3 41.0592 46.3659 176.8767 24.9139 17.0195 10.9539
# 4 16.8404 21.8295 24.9139 58.6495 -0.8723 -7.6433
# 5 18.2303 -3.8271 17.0195 -0.8723 44.8300 12.7800
# 6 3.1409 13.6310 10.9539 -7.6433 12.7800 44.6018
#
#
#
# Elastic Compliance Matrix: (Units=1/GPa)
#
#
# Indices 1 2 3 4 5 6 
#
# 1 0.009195 -0.002408 -0.001034 -0.001198 -0.003936 0.001265
# 2 -0.002408 0.017454 -0.003406 -0.005163 0.005606 -0.006819
# 3 -0.001034 -0.003406 0.007273 -0.001590 -0.002606 -0.000198
# 4 -0.001198 -0.005163 -0.001590 0.020736 -0.000593 0.005776
# 5 -0.003936 0.005606 -0.002606 -0.000593 0.027898 -0.008892
# 6 0.001265 -0.006819 -0.000198 0.005776 -0.008892 0.028002
#
#
# Mechanical properties :
#
#
# Convention : Reuss Voigt Hill
#
# Bulk Modulus (GPa) = 49.44219 68.56565 59.00392
# Shear Modulus (GPa) = 38.16874 48.01472 43.09173
#
# Velocity S-wave (km/s) = 3.86169 4.33123 4.10318
# Velocity P-wave (km/s) = 6.26105 7.19733 6.74545
#
# Compressibility (1/GPa) = 0.02022564
#
# Stress axis : x y z
#
# Youngs Moduli (GPa) = 108.75903 57.29215 137.48542
#
# Poissons Ratio (x) = 0.13798 0.14215
# Poissons Ratio (y) = 0.26193 0.46830
# Poissons Ratio (z) = 0.11245 0.19515
#
# Static dielectric constant tensor:
#      x y z
#    x 2.093360 -0.054510 -0.042490 
#    y -0.054510 2.016200 0.018660 
#    z -0.042490 0.018660 1.990080 
# 
# From -- ./inp_files/475992.got.cif
#   From: 2010.05.17/outbox.cif.g08.bks.cpg/sg2_238_cif.got.tgz:475992.got - 2010.06.03 11:33:40.
