data_PCOD9015535
_publ_section_title
;
Structure prediction by ZEFSAII (Michael W. Deem and Ramdas Pophale) SiO2 
 PCOD9015535
Probable space group: P -1
;
_chemical_formula_sum "Si O2"
_cell_formula_units_Z 14
_cell_length_a 12.733140
_cell_length_b 8.880377
_cell_length_c 7.291191
_cell_angle_alpha 56.483844
_cell_angle_beta 77.459857
_cell_angle_gamma 115.157244
_cell_volume 498.312116
_symmetry_space_group_name_H-M "P -1"
_symmetry_group_IT_number 2
_symmetry_cell_setting 'triclinic'
loop_
_space_group_symop_operation_xyz
x,y,z
-x,-y,-z
loop_
_atom_site_type_symbol
_atom_site_label
_atom_site_fract_x
_atom_site_fract_y
_atom_site_fract_z
Si Si1 0.177704 0.395210 0.501869
Si Si2 0.930275 0.609095 0.863345
Si Si3 0.912141 0.231552 0.803201
Si Si4 0.320292 0.873275 0.746586
Si Si5 0.338770 0.274137 0.932630
Si Si6 0.446522 0.738841 0.348408
Si Si7 0.236117 0.131094 0.450183
O O1 0.111261 0.372006 0.343898
O O2 0.309529 0.665072 0.341818
O O3 0.242456 0.269973 0.527593
O O4 0.050298 0.267256 0.785097
O O5 0.763270 0.387005 0.139039
O O6 0.065697 0.892908 0.657451
O O7 0.000000 0.500000 0.000000
O O8 0.000000 0.500000 0.500000
O O9 0.803062 0.187585 0.023180
O O10 0.815065 0.992771 0.877489
O O11 0.465341 0.029019 0.705771
O O12 0.326250 0.048692 0.492249
O O13 0.388759 0.505262 0.647076
O O14 0.449105 0.238623 0.856618
O O15 0.313052 0.303730 0.130722
#
# Coordination Sequence:
#
# PCOD9015535 Si02
#       7
#     2   2   2   2   2   2   2
#     4  12  23  40  65 103 125 163 221 268 312 374
#     4  10  22  42  65  94 128 167 208 264 327 370
#     4  11  21  40  63  92 126 175 213 263 321 369
#     4  10  22  43  67  90 134 174 208 255 327 384
#     4  10  21  42  63  93 132 170 209 255 333 377
#     4  10  24  40  64 100 126 170 211 264 313 387
#     4  11  22  39  71  96 127 168 217 266 310 382
#
# _framework density 28.094846
#
# number of rings (size 3 to 8) (size 9 to 14) (size 15 to 20)
#    0.000    1.429    2.857    3.000    0.000    5.143 
#    2.571    0.000    0.000    2.571    0.000    0.000 
#    0.000    0.000    0.000    0.000    0.000    0.000 
#
# Total GULP energy -78132.193858 kJ/mol
# GULP energy per Si atom -5580.870990 kJ/mol
# Density = 2.803090 g / cm^3
# Si number density = 28.094846 Si / 1000 Ang^3
#
#
#
# Elastic Constant Matrix: (Units=GPa)
#
#
# Indices 1 2 3 4 5 6 
#
# 1 93.4718 36.1057 37.2057 -9.3025 -14.8970 15.4465
# 2 36.1057 91.3421 28.5872 -24.6960 -25.4721 36.0949
# 3 37.2057 28.5872 146.2216 -8.7836 -1.8423 7.6234
# 4 -9.3025 -24.6960 -8.7836 45.6756 8.7256 -20.8058
# 5 -14.8970 -25.4721 -1.8423 8.7256 54.1139 -10.4074
# 6 15.4465 36.0949 7.6234 -20.8058 -10.4074 60.4551
#
#
#
# Elastic Compliance Matrix: (Units=1/GPa)
#
#
# Indices 1 2 3 4 5 6 
#
# 1 0.013620 -0.003929 -0.002671 -0.000505 0.001762 -0.000668
# 2 -0.003929 0.018845 -0.001952 0.004545 0.005551 -0.007482
# 3 -0.002671 -0.001952 0.007873 0.000537 -0.001316 0.000813
# 4 -0.000505 0.004545 0.000537 0.027600 -0.001153 0.006648
# 5 0.001762 0.005551 -0.001316 -0.001153 0.021668 -0.000265
# 6 -0.000668 -0.007482 0.000813 0.006648 -0.000265 0.023318
#
#
# Mechanical properties :
#
#
# Convention : Reuss Voigt Hill
#
# Bulk Modulus (GPa) = 43.03751 59.42589 51.23170
# Shear Modulus (GPa) = 36.29177 47.32470 41.80823
#
# Velocity S-wave (km/s) = 3.59800 4.10867 3.86179
# Velocity P-wave (km/s) = 5.71076 6.61106 6.17733
#
# Compressibility (1/GPa) = 0.02323554
#
# Stress axis : x y z
#
# Youngs Moduli (GPa) = 73.42070 53.06447 127.01141
#
# Poissons Ratio (x) = 0.20850 0.33921
# Poissons Ratio (y) = 0.28848 0.24786
# Poissons Ratio (z) = 0.19609 0.10356
#
# Static dielectric constant tensor:
#      x y z
#    x 2.384030 -0.066430 0.002370 
#    y -0.066430 2.290100 0.003570 
#    z 0.002370 0.003570 2.228360 
# 
# From -- ./inp_files/304637.got.cif
#   From: 2010.05.17/outbox.cif.g08.bks.cpg/sg2_153_cif.got.tgz:304637.got - 2010.06.03 11:33:40.
