data_PCOD9015197
_publ_section_title
;
Structure prediction by ZEFSAII (Michael W. Deem and Ramdas Pophale) SiO2 
 PCOD9015197
Probable space group: P -1
;
_chemical_formula_sum "Si O2"
_cell_formula_units_Z 16
_cell_length_a 11.763162
_cell_length_b 8.407099
_cell_length_c 10.756262
_cell_angle_alpha 99.597699
_cell_angle_beta 53.986174
_cell_angle_gamma 121.533283
_cell_volume 717.919339
_symmetry_space_group_name_H-M "P -1"
_symmetry_group_IT_number 2
_symmetry_cell_setting 'triclinic'
loop_
_space_group_symop_operation_xyz
x,y,z
-x,-y,-z
loop_
_atom_site_type_symbol
_atom_site_label
_atom_site_fract_x
_atom_site_fract_y
_atom_site_fract_z
Si Si1 0.622557 0.254346 0.361400
Si Si2 0.142192 0.691778 0.994863
Si Si3 0.680737 0.144877 0.550743
Si Si4 0.485637 0.297745 0.834143
Si Si5 0.433295 0.352800 0.344246
Si Si6 0.094262 0.998841 0.562858
Si Si7 0.091164 0.023622 0.075204
Si Si8 0.563942 0.218006 0.025713
O O1 0.719378 0.289772 0.431331
O O2 0.581293 0.406152 0.354473
O O3 0.438279 0.064385 0.462084
O O4 0.722709 0.214749 0.189975
O O5 0.246070 0.678509 0.038414
O O6 0.076881 0.825754 0.089049
O O7 0.000000 0.500000 0.000000
O O8 0.569443 0.183023 0.718238
O O9 0.830521 0.136713 0.512367
O O10 0.542979 0.470979 0.725607
O O11 0.544940 0.334738 0.943063
O O12 0.286420 0.176243 0.950857
O O13 0.252012 0.216353 0.499592
O O14 0.458576 0.223589 0.209552
O O15 0.000000 0.000000 0.500000
O O16 0.985983 0.935654 0.750157
O O17 0.000000 0.000000 0.000000
O O18 0.500000 0.000000 0.000000
#
# Coordination Sequence:
#
# PCOD9015197 Si02
#       8
#     2   2   2   2   2   2   2   2
#     4   9  19  41  65  94 129 185 234 280 346 431
#     4  11  24  42  67 103 139 180 236 301 361 418
#     4  10  21  41  72  92 130 189 239 277 351 443
#     4  12  24  43  73 105 138 187 251 289 355 446
#     4  10  24  41  68 102 136 181 239 301 349 430
#     4  11  25  46  70 101 148 187 241 303 376 427
#     4  12  27  43  71 109 148 189 235 307 374 426
#     4  11  21  44  73  98 134 194 249 285 352 448
#
# _framework density 22.286625999999998
#
# number of rings (size 3 to 8) (size 9 to 14) (size 15 to 20)
#    0.000    1.250    2.500    3.375    8.750    1.500 
#    2.250    0.625    0.000    0.000    0.000    0.000 
#    0.000    0.000    0.000    0.000    0.000    0.000 
#
# Total GULP energy -89351.248660 kJ/mol
# GULP energy per Si atom -5584.453041 kJ/mol
# Density = 2.223590 g / cm^3
# Si number density = 22.286626 Si / 1000 Ang^3
#
#
#
# Elastic Constant Matrix: (Units=GPa)
#
#
# Indices 1 2 3 4 5 6 
#
# 1 209.2979 27.4780 60.2389 -4.1947 8.6021 -8.2306
# 2 27.4780 64.1324 16.0505 -2.1401 -13.5976 -8.8878
# 3 60.2389 16.0505 111.0090 6.7699 -7.1850 -14.8451
# 4 -4.1947 -2.1401 6.7699 19.6507 -8.4859 0.4564
# 5 8.6021 -13.5976 -7.1850 -8.4859 37.7870 -2.2441
# 6 -8.2306 -8.8878 -14.8451 0.4564 -2.2441 30.3443
#
#
#
# Elastic Compliance Matrix: (Units=1/GPa)
#
#
# Indices 1 2 3 4 5 6 
#
# 1 0.006166 -0.002479 -0.003351 0.001032 -0.002755 -0.000912
# 2 -0.002479 0.019658 -0.000524 0.005604 0.009119 0.005419
# 3 -0.003351 -0.000524 0.011965 -0.004044 0.002239 0.005018
# 4 0.001032 0.005604 -0.004044 0.059301 0.014337 0.000111
# 5 -0.002755 0.009119 0.002239 0.014337 0.034335 0.005343
# 6 -0.000912 0.005419 0.005018 0.000111 0.005343 0.037143
#
#
# Mechanical properties :
#
#
# Convention : Reuss Voigt Hill
#
# Bulk Modulus (GPa) = 39.87131 65.77491 52.82311
# Shear Modulus (GPa) = 26.36641 36.26788 31.31715
#
# Velocity S-wave (km/s) = 3.44329 4.03840 3.75267
# Velocity P-wave (km/s) = 5.80839 7.16395 6.52149
#
# Compressibility (1/GPa) = 0.02508069
#
# Stress axis : x y z
#
# Youngs Moduli (GPa) = 162.18479 50.87104 83.57883
#
# Poissons Ratio (x) = 0.12613 0.28004
# Poissons Ratio (y) = 0.40213 0.04377
# Poissons Ratio (z) = 0.54342 0.02664
#
# Static dielectric constant tensor:
#      x y z
#    x 1.724980 -0.049310 0.051180 
#    y -0.049310 1.863400 0.022010 
#    z 0.051180 0.022010 1.861200 
# 
# From -- ./inp_files/419528.got.cif
#   From: 2010.05.17/outbox.cif.g08.bks.cpg/sg2_210_cif.got.tgz:419528.got - 2010.06.03 11:33:40.
