data_PCOD9015427
_publ_section_title
;
Structure prediction by ZEFSAII (Michael W. Deem and Ramdas Pophale) SiO2 
 PCOD9015427
Probable space group: P -1
;
_chemical_formula_sum "Si O2"
_cell_formula_units_Z 12
_cell_length_a 11.791641
_cell_length_b 4.809543
_cell_length_c 8.877404
_cell_angle_alpha 80.847237
_cell_angle_beta 75.671515
_cell_angle_gamma 93.597822
_cell_volume 478.834792
_symmetry_space_group_name_H-M "P -1"
_symmetry_group_IT_number 2
_symmetry_cell_setting 'triclinic'
loop_
_space_group_symop_operation_xyz
x,y,z
-x,-y,-z
loop_
_atom_site_type_symbol
_atom_site_label
_atom_site_fract_x
_atom_site_fract_y
_atom_site_fract_z
Si Si1 0.094760 0.199991 0.633522
Si Si2 0.844872 0.359529 0.698364
Si Si3 0.656926 0.591658 0.898375
Si Si4 0.387972 0.696494 0.349692
Si Si5 0.236889 0.686660 0.681419
Si Si6 0.616094 0.042468 0.122096
O O1 0.123131 0.396557 0.459163
O O2 0.162612 0.381888 0.728816
O O3 0.955522 0.190555 0.701865
O O4 0.148229 0.904395 0.629007
O O5 0.727601 0.173160 0.691115
O O6 0.791392 0.509607 0.844828
O O7 0.655956 0.829385 0.003103
O O8 0.581860 0.308653 0.014640
O O9 0.617459 0.579985 0.734382
O O10 0.349182 0.651742 0.538233
O O11 0.509716 0.879404 0.265091
O O12 0.287262 0.819704 0.806598
#
# Coordination Sequence:
#
# PCOD9015427 Si02
#       6
#     2   2   2   2   2   2
#     4  10  21  42  62  92 118 159 207 254 289 354
#     4   8  21  39  66  89 118 155 214 249 293 345
#     4  10  24  39  64  91 122 159 205 245 307 351
#     4   9  22  41  65  90 117 164 208 247 291 360
#     4  11  24  39  65  90 126 159 200 246 309 359
#     4  12  23  42  59  95 128 158 192 254 310 363
#
# _framework density 25.060838
#
# number of rings (size 3 to 8) (size 9 to 14) (size 15 to 20)
#    1.000    1.000    0.000    2.500    2.333   10.000 
#    0.000   10.833    0.000    0.000    0.000    0.000 
#    0.000    0.000    0.000    0.000    0.000    0.000 
#
# Total GULP energy -67055.797059 kJ/mol
# GULP energy per Si atom -5587.983088 kJ/mol
# Density = 2.500380 g / cm^3
# Si number density = 25.060838 Si / 1000 Ang^3
#
#
#
# Elastic Constant Matrix: (Units=GPa)
#
#
# Indices 1 2 3 4 5 6 
#
# 1 66.9575 9.3224 28.1497 14.3782 -7.6651 8.9200
# 2 9.3224 115.6267 28.8137 40.4453 3.2021 -1.8057
# 3 28.1497 28.8137 83.9012 39.8223 7.3090 -0.7604
# 4 14.3782 40.4453 39.8223 44.6193 3.6427 2.0646
# 5 -7.6651 3.2021 7.3090 3.6427 29.1667 5.7841
# 6 8.9200 -1.8057 -0.7604 2.0646 5.7841 38.4263
#
#
#
# Elastic Compliance Matrix: (Units=1/GPa)
#
#
# Indices 1 2 3 4 5 6 
#
# 1 0.019794 -0.000009 -0.007284 -0.000267 0.008245 -0.005966
# 2 -0.000009 0.012922 0.002072 -0.013584 -0.000533 0.001460
# 3 -0.007284 0.002072 0.024073 -0.020690 -0.006452 0.004348
# 4 -0.000267 -0.013584 -0.020690 0.053401 0.000723 -0.003964
# 5 0.008245 -0.000533 -0.006452 0.000723 0.039638 -0.008072
# 6 -0.005966 0.001460 0.004348 -0.003964 -0.008072 0.028991
#
#
# Mechanical properties :
#
#
# Convention : Reuss Voigt Hill
#
# Bulk Modulus (GPa) = 21.57603 44.33966 32.95784
# Shear Modulus (GPa) = 24.42478 35.78911 30.10694
#
# Velocity S-wave (km/s) = 3.12528 3.78311 3.46982
# Velocity P-wave (km/s) = 4.65309 6.06743 5.40671
#
# Compressibility (1/GPa) = 0.04634773
#
# Stress axis : x y z
#
# Youngs Moduli (GPa) = 50.51981 77.38810 41.54077
#
# Poissons Ratio (x) = 0.00070 0.30258
# Poissons Ratio (y) = 0.00046 -0.08609
# Poissons Ratio (z) = 0.36798 -0.16037
#
# Static dielectric constant tensor:
#      x y z
#    x 2.044680 -0.025470 0.008320 
#    y -0.025470 1.987490 -0.033660 
#    z 0.008320 -0.033660 2.017690 
# 
# From -- ./inp_files/70729.got.cif
#   From: 2010.05.17/outbox.cif.g08.bks.cpg/sg2_36_cif.got.tgz:70729.got - 2010.06.03 11:33:40.
