data_PCOD9015228
_publ_section_title
;
Structure prediction by ZEFSAII (Michael W. Deem and Ramdas Pophale) SiO2 
 PCOD9015228
Probable space group: P -1
;
_chemical_formula_sum "Si O2"
_cell_formula_units_Z 14
_cell_length_a 9.746018
_cell_length_b 7.994656
_cell_length_c 12.810359
_cell_angle_alpha 62.338475
_cell_angle_beta 58.421488
_cell_angle_gamma 107.827326
_cell_volume 516.396449
_symmetry_space_group_name_H-M "P -1"
_symmetry_group_IT_number 2
_symmetry_cell_setting 'triclinic'
loop_
_space_group_symop_operation_xyz
x,y,z
-x,-y,-z
loop_
_atom_site_type_symbol
_atom_site_label
_atom_site_fract_x
_atom_site_fract_y
_atom_site_fract_z
Si Si1 0.292093 0.567670 0.457199
Si Si2 0.874638 0.930222 0.821422
Si Si3 0.729122 0.767751 0.146952
Si Si4 0.710441 0.328204 0.336885
Si Si5 0.192467 0.452233 0.301887
Si Si6 0.806708 0.436870 0.959364
Si Si7 0.321793 0.139556 0.300739
O O1 0.565571 0.752076 0.289556
O O2 0.246595 0.622128 0.570246
O O3 0.232419 0.590930 0.356668
O O4 0.125556 0.241650 0.623768
O O5 0.895530 0.723703 0.867325
O O6 0.723182 0.860772 0.803341
O O7 0.742137 0.867629 0.997970
O O8 0.644113 0.479811 0.278154
O O9 0.000000 0.000000 0.000000
O O10 0.964485 0.496304 0.136348
O O11 0.500000 0.000000 0.500000
O O12 0.255920 0.617107 0.123864
O O13 0.313560 0.346224 0.290156
O O14 0.917448 0.163022 0.480578
O O15 0.561092 0.221502 0.183572
#
# Coordination Sequence:
#
# PCOD9015228 Si02
#       7
#     2   2   2   2   2   2   2
#     4  11  23  46  70  95 136 177 236 281 329 409
#     4  10  21  41  73 101 131 179 228 280 332 411
#     4  12  25  45  73  96 125 189 240 270 326 407
#     4  12  29  47  65  99 147 184 222 287 344 393
#     4   9  19  39  70 101 130 179 221 275 348 400
#     4  11  22  40  66 104 141 171 220 282 346 402
#     4   9  18  37  69 105 134 169 225 281 334 412
#
# _framework density 27.110955000000001
#
# number of rings (size 3 to 8) (size 9 to 14) (size 15 to 20)
#    0.000    1.429    1.429    5.571    2.000    2.286 
#    2.571    2.857    0.000    0.000    0.000    0.000 
#    0.000    0.000    0.000    0.000    0.000    0.000 
#
# Total GULP energy -78442.376266 kJ/mol
# GULP energy per Si atom -5603.026876 kJ/mol
# Density = 2.704925 g / cm^3
# Si number density = 27.110955 Si / 1000 Ang^3
#
#
#
# Elastic Constant Matrix: (Units=GPa)
#
#
# Indices 1 2 3 4 5 6 
#
# 1 65.0788 12.2168 32.1060 12.2743 -21.8792 -18.6979
# 2 12.2168 84.4740 32.3975 10.7718 -2.7452 18.3963
# 3 32.1060 32.3975 162.0932 19.8591 -32.5334 3.0947
# 4 12.2743 10.7718 19.8591 50.4936 -0.6243 -5.8713
# 5 -21.8792 -2.7452 -32.5334 -0.6243 65.8366 9.4757
# 6 -18.6979 18.3963 3.0947 -5.8713 9.4757 38.1696
#
#
#
# Elastic Compliance Matrix: (Units=1/GPa)
#
#
# Indices 1 2 3 4 5 6 
#
# 1 0.022924 -0.004527 -0.002760 -0.002043 0.004282 0.012258
# 2 -0.004527 0.015681 -0.001780 -0.002708 -0.000321 -0.009967
# 3 -0.002760 -0.001780 0.008069 -0.002353 0.003309 -0.002332
# 4 -0.002043 -0.002708 -0.002353 0.022300 -0.002394 0.004519
# 5 0.004282 -0.000321 0.003309 -0.002394 0.018645 -0.003013
# 6 0.012258 -0.009967 -0.002332 0.004519 -0.003013 0.038640
#
#
# Mechanical properties :
#
#
# Convention : Reuss Voigt Hill
#
# Bulk Modulus (GPa) = 35.03819 51.67628 43.35724
# Shear Modulus (GPa) = 32.48760 46.56168 39.52464
#
# Velocity S-wave (km/s) = 3.46543 4.14871 3.82237
# Velocity P-wave (km/s) = 5.38185 6.48471 5.95885
#
# Compressibility (1/GPa) = 0.02854029
#
# Stress axis : x y z
#
# Youngs Moduli (GPa) = 43.62211 63.77248 123.93578
#
# Poissons Ratio (x) = 0.28867 0.34209
# Poissons Ratio (y) = 0.19746 0.22060
# Poissons Ratio (z) = 0.12041 0.11351
#
# Static dielectric constant tensor:
#      x y z
#    x 2.160030 0.027880 -0.020400 
#    y 0.027880 2.140060 0.018640 
#    z -0.020400 0.018640 2.143360 
# 
# From -- ./inp_files/515335.got.cif
#   From: 2010.05.17/outbox.cif.g08.bks.cpg/sg2_258_cif.got.tgz:515335.got - 2010.06.03 11:33:40.
