data_PCOD9015036
_publ_section_title
;
Structure prediction by ZEFSAII (Michael W. Deem and Ramdas Pophale) SiO2 
 PCOD9015036
Probable space group: P -1
;
_chemical_formula_sum "Si O2"
_cell_formula_units_Z 14
_cell_length_a 9.075337
_cell_length_b 9.189168
_cell_length_c 9.481302
_cell_angle_alpha 61.013543
_cell_angle_beta 76.802377
_cell_angle_gamma 90.118805
_cell_volume 667.453601
_symmetry_space_group_name_H-M "P -1"
_symmetry_group_IT_number 2
_symmetry_cell_setting 'triclinic'
loop_
_space_group_symop_operation_xyz
x,y,z
-x,-y,-z
loop_
_atom_site_type_symbol
_atom_site_label
_atom_site_fract_x
_atom_site_fract_y
_atom_site_fract_z
Si Si1 0.387800 0.634489 0.839580
Si Si2 0.033579 0.989537 0.163232
Si Si3 0.128819 0.818714 0.662966
Si Si4 0.607623 0.963120 0.620270
Si Si5 0.353240 0.537509 0.208650
Si Si6 0.939006 0.659312 0.512689
Si Si7 0.364001 0.899841 0.162933
O O1 0.256868 0.712706 0.747706
O O2 0.530504 0.780881 0.774339
O O3 0.473624 0.503188 0.796070
O O4 0.326594 0.556740 0.037741
O O5 0.214118 0.991480 0.141521
O O6 0.957628 0.811639 0.326724
O O7 0.971534 0.129564 0.209074
O O8 0.000000 0.000000 0.000000
O O9 0.036833 0.720480 0.602133
O O10 0.219880 0.990691 0.494705
O O11 0.500000 0.000000 0.500000
O O12 0.592512 0.094070 0.686294
O O13 0.233195 0.397457 0.372416
O O14 0.330862 0.713490 0.199855
O O15 0.000000 0.500000 0.500000
O O16 0.500000 0.000000 0.000000
#
# Coordination Sequence:
#
# PCOD9015036 Si02
#       7
#     2   2   2   2   2   2   2
#     4  10  23  42  69 101 138 178 229 286 341 404
#     4  12  27  46  73 104 138 186 235 288 346 415
#     4  11  24  45  71 101 137 184 238 277 346 418
#     4  10  21  41  70  98 131 179 228 282 331 404
#     4  11  23  43  68 101 141 179 225 287 348 403
#     4  12  25  46  70 102 147 180 227 291 349 412
#     4  12  24  45  71  99 136 183 234 281 342 413
#
# _framework density 20.975242000000001
#
# number of rings (size 3 to 8) (size 9 to 14) (size 15 to 20)
#    0.000    0.857    4.286    2.143    4.000    0.571 
#    2.571    3.571    0.000    0.000    0.000    0.000 
#    0.000    0.000    0.000    0.000    0.000    0.000 
#
# Total GULP energy -78259.283437 kJ/mol
# GULP energy per Si atom -5589.948817 kJ/mol
# Density = 2.092750 g / cm^3
# Si number density = 20.975242 Si / 1000 Ang^3
#
#
#
# Elastic Constant Matrix: (Units=GPa)
#
#
# Indices 1 2 3 4 5 6 
#
# 1 108.9649 56.6498 61.1853 17.3491 -2.7861 -9.9452
# 2 56.6498 90.8883 41.1349 33.4482 12.7608 -10.0331
# 3 61.1853 41.1349 149.5292 18.4081 -4.8715 -0.8293
# 4 17.3491 33.4482 18.4081 40.5536 0.2827 -2.0363
# 5 -2.7861 12.7608 -4.8715 0.2827 41.2311 -0.6934
# 6 -9.9452 -10.0331 -0.8293 -2.0363 -0.6934 34.8481
#
#
#
# Elastic Compliance Matrix: (Units=1/GPa)
#
#
# Indices 1 2 3 4 5 6 
#
# 1 0.016421 -0.009665 -0.004298 0.002975 0.003607 0.002047
# 2 -0.009665 0.024841 -0.001214 -0.015580 -0.008323 0.003289
# 3 -0.004298 -0.001214 0.008970 -0.001311 0.001130 -0.001417
# 4 0.002975 -0.015580 -0.001311 0.036727 0.004592 -0.001430
# 5 0.003607 -0.008323 0.001130 0.004592 0.027166 -0.000531
# 6 0.002047 0.003289 -0.001417 -0.001430 -0.000531 0.030099
#
#
# Mechanical properties :
#
#
# Convention : Reuss Voigt Hill
#
# Bulk Modulus (GPa) = 50.30405 74.14693 62.22549
# Shear Modulus (GPa) = 27.59308 36.02071 31.80689
#
# Velocity S-wave (km/s) = 3.63093 4.14852 3.89832
# Velocity P-wave (km/s) = 6.45080 7.64025 7.07058
#
# Compressibility (1/GPa) = 0.01987912
#
# Stress axis : x y z
#
# Youngs Moduli (GPa) = 60.89893 40.25557 111.47658
#
# Poissons Ratio (x) = 0.38908 0.47909
# Poissons Ratio (y) = 0.58860 0.13531
# Poissons Ratio (z) = 0.26172 0.04886
#
# Static dielectric constant tensor:
#      x y z
#    x 1.743500 -0.021090 -0.037990 
#    y -0.021090 1.774690 -0.028150 
#    z -0.037990 -0.028150 1.753780 
# 
# From -- ./inp_files/156673.got.cif
#   From: 2010.05.17/outbox.cif.g08.bks.cpg/sg2_79_cif.got.tgz:156673.got - 2010.06.03 11:33:40.
