data_PCOD9015103
_publ_section_title
;
Structure prediction by ZEFSAII (Michael W. Deem and Ramdas Pophale) SiO2 
 PCOD9015103
Probable space group: P -1
;
_chemical_formula_sum "Si O2"
_cell_formula_units_Z 16
_cell_length_a 9.142291
_cell_length_b 9.651198
_cell_length_c 12.570241
_cell_angle_alpha 71.775232
_cell_angle_beta 84.865429
_cell_angle_gamma 48.084392
_cell_volume 772.658131
_symmetry_space_group_name_H-M "P -1"
_symmetry_group_IT_number 2
_symmetry_cell_setting 'triclinic'
loop_
_space_group_symop_operation_xyz
x,y,z
-x,-y,-z
loop_
_atom_site_type_symbol
_atom_site_label
_atom_site_fract_x
_atom_site_fract_y
_atom_site_fract_z
Si Si1 0.185954 0.749956 0.271690
Si Si2 0.054245 0.789344 0.049688
Si Si3 0.563789 0.678685 0.243328
Si Si4 0.360352 0.061195 0.895532
Si Si5 0.716084 0.096848 0.235377
Si Si6 0.826144 0.445724 0.473149
Si Si7 0.285157 0.155734 0.533695
Si Si8 0.347636 0.559124 0.903229
O O1 0.200556 0.670014 0.171105
O O2 0.337265 0.783395 0.256384
O O3 0.213645 0.629072 0.402628
O O4 0.953621 0.946731 0.239180
O O5 0.862584 0.818715 0.077610
O O6 0.147065 0.684438 0.955742
O O7 0.000000 0.000000 0.000000
O O8 0.614326 0.815674 0.211421
O O9 0.698716 0.501944 0.362247
O O10 0.608336 0.604397 0.136405
O O11 0.395317 0.892477 0.863937
O O12 0.500000 0.000000 0.000000
O O13 0.652538 0.302971 0.209692
O O14 0.693503 0.989784 0.349833
O O15 0.754241 0.655983 0.462500
O O16 0.062515 0.279052 0.468206
O O17 0.500000 0.000000 0.500000
O O18 0.500000 0.500000 0.000000
#
# Coordination Sequence:
#
# PCOD9015103 Si02
#       8
#     2   2   2   2   2   2   2   2
#     4  10  21  41  71  86 128 182 211 264 336 401
#     4  11  21  42  67  88 123 177 217 257 324 398
#     4  12  24  41  64 103 134 162 217 286 335 376
#     4  11  22  39  66  93 125 169 218 271 327 386
#     4  10  22  44  65  92 124 181 224 253 330 416
#     4  10  23  44  65 102 136 169 224 281 333 395
#     4  10  22  43  71  96 132 178 222 270 337 402
#     4  12  24  40  65  97 131 172 221 268 327 404
#
# _framework density 20.707735
#
# number of rings (size 3 to 8) (size 9 to 14) (size 15 to 20)
#    0.000    1.250    5.000    1.875    3.500    0.500 
#    4.500    1.250    0.000    0.000    0.000    0.000 
#    0.000    0.000    0.000    0.000    0.000    0.000 
#
# Total GULP energy -89142.805702 kJ/mol
# GULP energy per Si atom -5571.425356 kJ/mol
# Density = 2.066060 g / cm^3
# Si number density = 20.707735 Si / 1000 Ang^3
#
#
#
# Elastic Constant Matrix: (Units=GPa)
#
#
# Indices 1 2 3 4 5 6 
#
# 1 152.4955 34.7872 46.9975 0.1992 -14.3628 -15.0579
# 2 34.7872 54.8573 11.5072 1.7117 -10.4550 -7.9168
# 3 46.9975 11.5072 112.7219 -14.6136 -0.5670 -9.1785
# 4 0.1992 1.7117 -14.6136 24.8495 2.0180 -7.4268
# 5 -14.3628 -10.4550 -0.5670 2.0180 42.6880 1.2279
# 6 -15.0579 -7.9168 -9.1785 -7.4268 1.2279 32.9710
#
#
#
# Elastic Compliance Matrix: (Units=1/GPa)
#
#
# Indices 1 2 3 4 5 6 
#
# 1 0.008909 -0.004299 -0.003299 -0.001350 0.001915 0.001743
# 2 -0.004299 0.022241 -0.000380 -0.001190 0.003970 0.002855
# 3 -0.003299 -0.000380 0.011607 0.008050 -0.001530 0.003503
# 4 -0.001350 -0.001190 0.008050 0.049080 -0.003319 0.012517
# 5 0.001915 0.003970 -0.001530 -0.003319 0.025187 -0.000284
# 6 0.001743 0.002855 0.003503 0.012517 -0.000284 0.035617
#
#
# Mechanical properties :
#
#
# Convention : Reuss Voigt Hill
#
# Bulk Modulus (GPa) = 37.31243 56.29537 46.80390
# Shear Modulus (GPa) = 28.16428 35.22055 31.69241
#
# Velocity S-wave (km/s) = 3.69193 4.12860 3.91636
# Velocity P-wave (km/s) = 6.01926 7.06907 6.56519
#
# Compressibility (1/GPa) = 0.02680072
#
# Stress axis : x y z
#
# Youngs Moduli (GPa) = 112.24323 44.96242 86.15590
#
# Poissons Ratio (x) = 0.19330 0.28424
# Poissons Ratio (y) = 0.48255 0.03272
# Poissons Ratio (z) = 0.37031 0.01708
#
# Static dielectric constant tensor:
#      x y z
#    x 1.757390 -0.049660 -0.012600 
#    y -0.049660 1.763790 0.007370 
#    z -0.012600 0.007370 1.805790 
# 
# From -- ./inp_files/381993.got.cif
#   From: 2010.05.17/outbox.cif.g08.bks.cpg/sg2_191_cif.got.tgz:381993.got - 2010.06.03 11:33:40.
