data_PCOD9015523
_publ_section_title
;
Structure prediction by ZEFSAII (Michael W. Deem and Ramdas Pophale) SiO2 
 PCOD9015523
Probable space group: P -1
;
_chemical_formula_sum "Si O2"
_cell_formula_units_Z 16
_cell_length_a 14.374372
_cell_length_b 7.161288
_cell_length_c 8.039156
_cell_angle_alpha 57.727417
_cell_angle_beta 80.408212
_cell_angle_gamma 94.386509
_cell_volume 676.196946
_symmetry_space_group_name_H-M "P -1"
_symmetry_group_IT_number 2
_symmetry_cell_setting 'triclinic'
loop_
_space_group_symop_operation_xyz
x,y,z
-x,-y,-z
loop_
_atom_site_type_symbol
_atom_site_label
_atom_site_fract_x
_atom_site_fract_y
_atom_site_fract_z
Si Si1 0.084830 0.575099 0.217846
Si Si2 0.714549 0.349077 0.695570
Si Si3 0.346543 0.465860 0.057112
Si Si4 0.375145 0.949671 0.706455
Si Si5 0.978106 0.855759 0.323609
Si Si6 0.584600 0.950863 0.732499
Si Si7 0.216225 0.201470 0.746151
Si Si8 0.142641 0.277330 0.098368
O O1 0.186926 0.674708 0.228737
O O2 0.041347 0.344524 0.440178
O O3 0.102445 0.498247 0.062566
O O4 0.016044 0.746520 0.198007
O O5 0.644062 0.419289 0.820665
O O6 0.742923 0.557329 0.463347
O O7 0.661574 0.128168 0.724592
O O8 0.417459 0.299094 0.080199
O O9 0.239769 0.307540 0.164341
O O10 0.350277 0.676872 0.833444
O O11 0.479354 0.009792 0.733263
O O12 0.383986 0.046604 0.471607
O O13 0.296372 0.050057 0.783170
O O14 0.876333 0.914672 0.279288
O O15 0.060142 0.060378 0.258867
O O16 0.180335 0.251640 0.914799
#
# Coordination Sequence:
#
# PCOD9015523 Si02
#       8
#     2   2   2   2   2   2   2   2
#     4   9  21  40  65  96 129 175 228 272 325 402
#     4  10  22  44  70  97 133 176 222 282 335 400
#     4  11  24  45  69 101 133 174 232 274 335 404
#     4  11  26  46  69 102 137 174 227 283 333 410
#     4  10  21  42  63  92 137 174 225 272 329 397
#     4  11  24  48  73  95 134 182 223 277 348 395
#     4  11  24  44  63 102 142 172 224 285 334 393
#     4  11  23  39  67  94 132 181 219 273 332 395
#
# _framework density 23.661746000000001
#
# number of rings (size 3 to 8) (size 9 to 14) (size 15 to 20)
#    0.000    1.500    1.250    2.625    5.250    1.500 
#   11.250    0.000    0.000    0.000    0.000    0.000 
#    0.000    0.000    0.000    0.000    0.000    0.000 
#
# Total GULP energy -89585.051136 kJ/mol
# GULP energy per Si atom -5599.065696 kJ/mol
# Density = 2.360789 g / cm^3
# Si number density = 23.661746 Si / 1000 Ang^3
#
#
#
# Elastic Constant Matrix: (Units=GPa)
#
#
# Indices 1 2 3 4 5 6 
#
# 1 116.5321 58.4331 23.7813 -5.8135 -5.6200 -9.1243
# 2 58.4331 104.5331 24.9918 -8.2393 -2.6758 1.8250
# 3 23.7813 24.9918 68.2080 -8.0293 -15.0191 -5.2945
# 4 -5.8135 -8.2393 -8.0293 28.4622 1.9675 -7.4362
# 5 -5.6200 -2.6758 -15.0191 1.9675 23.1572 -8.5946
# 6 -9.1243 1.8250 -5.2945 -7.4362 -8.5946 40.7886
#
#
#
# Elastic Compliance Matrix: (Units=1/GPa)
#
#
# Indices 1 2 3 4 5 6 
#
# 1 0.012660 -0.006780 -0.000798 0.001204 0.003120 0.003909
# 2 -0.006780 0.014320 -0.003840 0.001088 -0.003782 -0.003254
# 3 -0.000798 -0.003840 0.020788 0.005337 0.014918 0.006808
# 4 0.001204 0.001088 0.005337 0.039255 0.003840 0.008879
# 5 0.003120 -0.003782 0.014918 0.003840 0.058747 0.015882
# 6 0.003909 -0.003254 0.006808 0.008879 0.015882 0.031386
#
#
# Mechanical properties :
#
#
# Convention : Reuss Voigt Hill
#
# Bulk Modulus (GPa) = 40.10805 55.96507 48.03656
# Shear Modulus (GPa) = 24.00346 30.61942 27.31144
#
# Velocity S-wave (km/s) = 3.18849 3.60119 3.40110
# Velocity P-wave (km/s) = 5.52654 6.40273 5.98070
#
# Compressibility (1/GPa) = 0.02493265
#
# Stress axis : x y z
#
# Youngs Moduli (GPa) = 78.98698 69.83184 48.10453
#
# Poissons Ratio (x) = 0.47344 0.03838
# Poissons Ratio (y) = 0.53551 0.18474
# Poissons Ratio (z) = 0.06302 0.26818
#
# Static dielectric constant tensor:
#      x y z
#    x 1.908670 -0.016890 -0.009480 
#    y -0.016890 1.861310 -0.000660 
#    z -0.009480 -0.000660 1.922190 
# 
# From -- ./inp_files/288467.got.cif
#   From: 2010.05.17/outbox.cif.g08.bks.cpg/sg2_145_cif.got.tgz:288467.got - 2010.06.03 11:33:40.
