data_PCOD9015803
_publ_section_title
;
Structure prediction by ZEFSAII (Michael W. Deem and Ramdas Pophale) SiO2 
 PCOD9015803
Probable space group: P -1
;
_chemical_formula_sum "Si O2"
_cell_formula_units_Z 14
_cell_length_a 17.524182
_cell_length_b 8.373442
_cell_length_c 19.245420
_cell_angle_alpha 131.848787
_cell_angle_beta 20.813580
_cell_angle_gamma 132.523294
_cell_volume 732.769087
_symmetry_space_group_name_H-M "P -1"
_symmetry_group_IT_number 2
_symmetry_cell_setting 'triclinic'
loop_
_space_group_symop_operation_xyz
x,y,z
-x,-y,-z
loop_
_atom_site_type_symbol
_atom_site_label
_atom_site_fract_x
_atom_site_fract_y
_atom_site_fract_z
Si Si1 0.552372 0.654995 0.932594
Si Si2 0.725409 0.397012 0.584194
Si Si3 0.492776 0.752690 0.414512
Si Si4 0.688852 0.656018 0.464089
Si Si5 0.896653 0.212736 0.634686
Si Si6 0.761121 0.538338 0.211774
Si Si7 0.959281 0.110333 0.398240
O O1 0.607068 0.514237 0.778980
O O2 0.777716 0.826453 0.807064
O O3 0.500000 0.500000 0.000000
O O4 0.343615 0.768208 0.128763
O O5 0.564604 0.297086 0.630762
O O6 0.847154 0.218132 0.462644
O O7 0.919606 0.580745 0.440450
O O8 0.323159 0.577915 0.555629
O O9 0.720572 0.693069 0.228276
O O10 0.500000 0.000000 0.500000
O O11 0.723270 0.640871 0.348326
O O12 0.433074 0.674877 0.695197
O O13 0.860267 0.853183 0.407322
O O14 0.884650 0.217568 0.562582
O O15 0.000000 0.000000 0.500000
O O16 0.000000 0.500000 0.000000
#
# Coordination Sequence:
#
# PCOD9015803 Si02
#       7
#     2   2   2   2   2   2   2
#     4  11  21  43  62  93 127 170 213 250 311 383
#     4  11  22  38  64  93 127 167 212 257 316 369
#     4  10  21  42  65  90 128 161 206 262 314 368
#     4   9  21  40  63  90 125 161 202 261 316 360
#     4  11  23  41  62  92 128 164 207 264 310 371
#     4   9  20  42  63  86 123 160 213 250 308 375
#     4  11  21  38  66  91 126 167 210 255 314 374
#
# _framework density 19.105609000000001
#
# number of rings (size 3 to 8) (size 9 to 14) (size 15 to 20)
#    0.857    0.857    2.857    2.571    0.000    3.429 
#    5.143    0.714    0.000    0.000    0.000    0.000 
#    0.000    0.000    0.000    0.000    0.000    0.000 
#
# Total GULP energy -77990.313860 kJ/mol
# GULP energy per Si atom -5570.736704 kJ/mol
# Density = 1.906212 g / cm^3
# Si number density = 19.105609 Si / 1000 Ang^3
#
#
#
# Elastic Constant Matrix: (Units=GPa)
#
#
# Indices 1 2 3 4 5 6 
#
# 1 117.9515 38.0881 46.0786 4.8815 -19.2523 11.2665
# 2 38.0881 129.6720 55.4974 -8.4972 -13.9739 10.9810
# 3 46.0786 55.4974 151.4734 -8.5212 -27.1344 3.9542
# 4 4.8815 -8.4972 -8.5212 20.3211 -8.2148 -8.2463
# 5 -19.2523 -13.9739 -27.1344 -8.2148 20.8795 5.9750
# 6 11.2665 10.9810 3.9542 -8.2463 5.9750 31.8266
#
#
#
# Elastic Compliance Matrix: (Units=1/GPa)
#
#
# Indices 1 2 3 4 5 6 
#
# 1 0.011571 -0.001612 -0.001531 -0.003172 0.007975 -0.005669
# 2 -0.001612 0.010124 -0.001875 0.005099 0.005548 -0.002410
# 3 -0.001531 -0.001875 0.011313 0.010755 0.016413 -0.000511
# 4 -0.003172 0.005099 0.010755 0.077821 0.042141 0.010280
# 5 0.007975 0.005548 0.016413 0.042141 0.101117 -0.014841
# 6 -0.005669 -0.002410 -0.000511 0.010280 -0.014841 0.039772
#
#
# Mechanical properties :
#
#
# Convention : Reuss Voigt Hill
#
# Bulk Modulus (GPa) = 43.53247 75.38058 59.45652
# Shear Modulus (GPa) = 18.55894 31.90097 25.22995
#
# Velocity S-wave (km/s) = 3.12009 4.09065 3.63788
# Velocity P-wave (km/s) = 5.98453 7.86458 6.98807
#
# Compressibility (1/GPa) = 0.02297136
#
# Stress axis : x y z
#
# Youngs Moduli (GPa) = 86.42161 98.77654 88.39106
#
# Poissons Ratio (x) = 0.15921 0.13536
# Poissons Ratio (y) = 0.13930 0.16576
# Poissons Ratio (z) = 0.13235 0.18524
#
# Static dielectric constant tensor:
#      x y z
#    x 1.704650 -0.014690 -0.013660 
#    y -0.014690 1.712120 0.008860 
#    z -0.013660 0.008860 1.673940 
# 
# From -- ./inp_files/599615.got.cif
#   From: 2010.05.17/outbox.cif.g08.bks.cpg/sg2_300_cif.got.tgz:599615.got - 2010.06.03 11:33:40.
