data_PCOD9015275
_publ_section_title
;
Structure prediction by ZEFSAII (Michael W. Deem and Ramdas Pophale) SiO2 
 PCOD9015275
Probable space group: P -1
;
_chemical_formula_sum "Si O2"
_cell_formula_units_Z 14
_cell_length_a 7.645857
_cell_length_b 8.137271
_cell_length_c 23.600414
_cell_angle_alpha 33.609373
_cell_angle_beta 47.144927
_cell_angle_gamma 56.755480
_cell_volume 595.215711
_symmetry_space_group_name_H-M "P -1"
_symmetry_group_IT_number 2
_symmetry_cell_setting 'triclinic'
loop_
_space_group_symop_operation_xyz
x,y,z
-x,-y,-z
loop_
_atom_site_type_symbol
_atom_site_label
_atom_site_fract_x
_atom_site_fract_y
_atom_site_fract_z
Si Si1 0.157222 0.302002 0.371935
Si Si2 0.978517 0.211275 0.890557
Si Si3 0.237947 0.388104 0.689342
Si Si4 0.934561 0.258879 0.631302
Si Si5 0.551551 0.944953 0.437048
Si Si6 0.289374 0.286620 0.132235
Si Si7 0.028553 0.161272 0.108430
O O1 0.021389 0.457895 0.305607
O O2 0.111018 0.536251 0.363974
O O3 0.419958 0.180889 0.358955
O O4 0.000000 0.000000 0.500000
O O5 0.842759 0.487416 0.863647
O O6 0.233299 0.334324 0.773263
O O7 0.870587 0.004080 0.922283
O O8 0.000000 0.000000 0.000000
O O9 0.430599 0.609314 0.554860
O O10 0.206970 0.055476 0.767244
O O11 0.171385 0.068197 0.634119
O O12 0.000000 0.500000 0.500000
O O13 0.712034 0.020023 0.743304
O O14 0.500000 0.000000 0.500000
O O15 0.168239 0.170888 0.133510
O O16 0.500000 0.500000 0.000000
O O17 0.000000 0.500000 0.000000
#
# Coordination Sequence:
#
# PCOD9015275 Si02
#       7
#     2   2   2   2   2   2   2
#     4  10  22  43  67 103 148 181 228 302 364 431
#     4  10  21  41  74  97 135 187 243 285 362 431
#     4   9  21  41  68  99 150 176 236 300 360 428
#     4  12  25  43  72 108 140 183 248 293 356 439
#     4  11  22  41  72 103 138 189 234 294 366 427
#     4  12  26  47  69 100 147 191 235 301 362 426
#     4  10  21  43  68 101 139 181 242 297 348 435
#
# _framework density 23.520883000000001
#
# number of rings (size 3 to 8) (size 9 to 14) (size 15 to 20)
#    0.857    0.571    4.286    0.857    2.000    5.143 
#    2.571    1.429    0.000    0.000    0.000    0.000 
#    0.000    0.000    0.000    0.000    0.000    0.000 
#
# Total GULP energy -77937.095237 kJ/mol
# GULP energy per Si atom -5566.935374 kJ/mol
# Density = 2.346735 g / cm^3
# Si number density = 23.520883 Si / 1000 Ang^3
#
#
#
# Elastic Constant Matrix: (Units=GPa)
#
#
# Indices 1 2 3 4 5 6 
#
# 1 55.9449 29.8871 20.8292 3.1032 -6.8863 4.7733
# 2 29.8871 138.3584 47.3125 -13.1801 -16.0178 13.4418
# 3 20.8292 47.3125 168.3180 -29.1372 -4.8896 4.7706
# 4 3.1032 -13.1801 -29.1372 47.9959 5.8847 -3.1917
# 5 -6.8863 -16.0178 -4.8896 5.8847 38.5967 -3.5978
# 6 4.7733 13.4418 4.7706 -3.1917 -3.5978 48.8150
#
#
#
# Elastic Compliance Matrix: (Units=1/GPa)
#
#
# Indices 1 2 3 4 5 6 
#
# 1 0.021372 -0.003896 -0.002167 -0.004130 0.002468 -0.000893
# 2 -0.003896 0.009264 -0.001775 0.001289 0.002567 -0.001723
# 3 -0.002167 -0.001775 0.007418 0.004269 -0.000816 0.000195
# 4 -0.004130 0.001289 0.004269 0.024519 -0.003307 0.000991
# 5 0.002468 0.002567 -0.000816 -0.003307 0.027906 0.000972
# 6 -0.000893 -0.001723 0.000195 0.000991 0.000972 0.021165
#
#
# Mechanical properties :
#
#
# Convention : Reuss Voigt Hill
#
# Bulk Modulus (GPa) = 44.69075 62.07540 53.38308
# Shear Modulus (GPa) = 37.09727 44.72100 40.90914
#
# Velocity S-wave (km/s) = 3.97571 4.36516 4.17498
# Velocity P-wave (km/s) = 6.33378 7.20104 6.78129
#
# Compressibility (1/GPa) = 0.02237599
#
# Stress axis : x y z
#
# Youngs Moduli (GPa) = 46.78953 107.94817 134.80492
#
# Poissons Ratio (x) = 0.42061 0.29218
# Poissons Ratio (y) = 0.18231 0.23931
# Poissons Ratio (z) = 0.10141 0.19163
#
# Static dielectric constant tensor:
#      x y z
#    x 2.068660 0.034340 0.035140 
#    y 0.034340 1.907800 -0.085210 
#    z 0.035140 -0.085210 2.027990 
# 
# From -- ./inp_files/616569.got.cif
#   From: 2010.05.17/outbox.cif.g08.bks.cpg/sg2_309_cif.got.tgz:616569.got - 2010.06.03 11:33:40.
