data_PCOD9015898
_publ_section_title
;
Structure prediction by ZEFSAII (Michael W. Deem and Ramdas Pophale) SiO2 
 PCOD9015898
Probable space group: P -1
;
_chemical_formula_sum "Si O2"
_cell_formula_units_Z 16
_cell_length_a 9.693977
_cell_length_b 17.684732
_cell_length_c 6.970758
_cell_angle_alpha 84.464435
_cell_angle_beta 91.111822
_cell_angle_gamma 145.612453
_cell_volume 667.929880
_symmetry_space_group_name_H-M "P -1"
_symmetry_group_IT_number 2
_symmetry_cell_setting 'triclinic'
loop_
_space_group_symop_operation_xyz
x,y,z
-x,-y,-z
loop_
_atom_site_type_symbol
_atom_site_label
_atom_site_fract_x
_atom_site_fract_y
_atom_site_fract_z
Si Si1 0.644978 0.815007 0.377608
Si Si2 0.443172 0.977050 0.280283
Si Si3 0.689230 0.475886 0.499308
Si Si4 0.628116 0.578268 0.181882
Si Si5 0.212276 0.035863 0.296965
Si Si6 0.897522 0.201959 0.988374
Si Si7 0.959625 0.585306 0.835227
Si Si8 0.424346 0.710406 0.990393
O O1 0.471774 0.672192 0.506888
O O2 0.697484 0.908657 0.496683
O O3 0.501543 0.770385 0.191495
O O4 0.916907 0.904710 0.319289
O O5 0.336942 0.014581 0.233766
O O6 0.689321 0.071477 0.146420
O O7 0.500000 0.000000 0.500000
O O8 0.237974 0.833582 0.202386
O O9 0.715834 0.541053 0.300393
O O10 0.536248 0.454662 0.658429
O O11 0.932261 0.569099 0.607647
O O12 0.500000 0.500000 0.000000
O O13 0.866070 0.735729 0.092020
O O14 0.330359 0.160507 0.154132
O O15 0.006029 0.316167 0.101001
O O16 0.205316 0.656542 0.896459
O O17 0.713702 0.432853 0.948535
#
# Coordination Sequence:
#
# PCOD9015898 Si02
#       8
#     2   2   2   2   2   2   2   2
#     4  10  24  41  66  96 130 175 222 272 334 393
#     4  11  27  44  66  94 135 177 224 277 331 397
#     4  10  23  42  63 102 136 173 218 277 333 395
#     4  11  23  39  69  96 137 175 218 270 330 402
#     4  11  23  43  65  95 129 176 225 272 330 397
#     4  11  24  42  64  97 127 174 222 269 331 393
#     4  10  21  42  65  96 131 166 219 271 339 389
#     4  10  22  42  66  94 131 170 217 278 329 395
#
# _framework density 23.954611
#
# number of rings (size 3 to 8) (size 9 to 14) (size 15 to 20)
#    0.000    1.500    2.500    1.125    5.250    1.000 
#    0.000    5.625    0.000    0.000    0.000    0.000 
#    0.000    0.000    0.000    0.000    0.000    0.000 
#
# Total GULP energy -89337.921926 kJ/mol
# GULP energy per Si atom -5583.620120 kJ/mol
# Density = 2.390009 g / cm^3
# Si number density = 23.954611 Si / 1000 Ang^3
#
#
#
# Elastic Constant Matrix: (Units=GPa)
#
#
# Indices 1 2 3 4 5 6 
#
# 1 44.2695 18.9907 24.9588 6.7485 8.6827 2.7887
# 2 18.9907 120.5022 36.8708 21.3786 3.7952 17.7044
# 3 24.9588 36.8708 116.3925 20.7132 5.2363 9.6714
# 4 6.7485 21.3786 20.7132 40.2089 4.0435 -3.3489
# 5 8.6827 3.7952 5.2363 4.0435 34.8510 4.6443
# 6 2.7887 17.7044 9.6714 -3.3489 4.6443 28.1820
#
#
#
# Elastic Compliance Matrix: (Units=1/GPa)
#
#
# Indices 1 2 3 4 5 6 
#
# 1 0.027683 -0.002982 -0.004914 0.000239 -0.006109 0.001855
# 2 -0.002982 0.011163 -0.001398 -0.005438 0.001315 -0.007101
# 3 -0.004914 -0.001398 0.011113 -0.004478 0.000638 -0.003086
# 4 0.000239 -0.005438 -0.004478 0.031163 -0.003641 0.009232
# 5 -0.006109 0.001315 0.000638 -0.003641 0.031201 -0.006015
# 6 0.001855 -0.007101 -0.003086 0.009232 -0.006015 0.042908
#
#
# Mechanical properties :
#
#
# Convention : Reuss Voigt Hill
#
# Bulk Modulus (GPa) = 31.87596 49.20055 40.53825
# Shear Modulus (GPa) = 27.13328 34.00463 30.56896
#
# Velocity S-wave (km/s) = 3.36921 3.77177 3.57616
# Velocity P-wave (km/s) = 5.33583 6.28904 5.83194
#
# Compressibility (1/GPa) = 0.03137160
#
# Stress axis : x y z
#
# Youngs Moduli (GPa) = 36.12300 89.58170 89.98638
#
# Poissons Ratio (x) = 0.26713 0.44216
# Poissons Ratio (y) = 0.10772 0.12581
# Poissons Ratio (z) = 0.17749 0.12524
#
# Static dielectric constant tensor:
#      x y z
#    x 1.996680 0.022740 0.010930 
#    y 0.022740 1.936910 -0.008070 
#    z 0.010930 -0.008070 1.923100 
# 
# From -- ./inp_files/83247.got.cif
#   From: 2010.05.17/outbox.cif.g08.bks.cpg/sg2_42_cif.got.tgz:83247.got - 2010.06.03 11:33:40.
