data_PCOD9015443
_publ_section_title
;
Structure prediction by ZEFSAII (Michael W. Deem and Ramdas Pophale) SiO2 
 PCOD9015443
Probable space group: P -1
;
_chemical_formula_sum "Si O2"
_cell_formula_units_Z 14
_cell_length_a 16.559961
_cell_length_b 16.178882
_cell_length_c 8.178423
_cell_angle_alpha 124.142109
_cell_angle_beta 72.382464
_cell_angle_gamma 155.062096
_cell_volume 616.787644
_symmetry_space_group_name_H-M "P -1"
_symmetry_group_IT_number 2
_symmetry_cell_setting 'triclinic'
loop_
_space_group_symop_operation_xyz
x,y,z
-x,-y,-z
loop_
_atom_site_type_symbol
_atom_site_label
_atom_site_fract_x
_atom_site_fract_y
_atom_site_fract_z
Si Si1 0.866830 0.718335 0.341785
Si Si2 0.679232 0.156195 0.703362
Si Si3 0.235270 0.308807 0.267756
Si Si4 0.041574 0.626075 0.759457
Si Si5 0.680308 0.382582 0.566916
Si Si6 0.600143 0.240664 0.091524
Si Si7 0.358313 0.346095 0.747405
O O1 0.803757 0.697028 0.532039
O O2 0.739636 0.472169 0.147422
O O3 0.763858 0.681255 0.231114
O O4 0.150698 0.035352 0.513621
O O5 0.934705 0.458106 0.802916
O O6 0.500000 0.000000 0.500000
O O7 0.576752 0.933931 0.557423
O O8 0.632203 0.169811 0.908066
O O9 0.293836 0.471110 0.303994
O O10 0.447015 0.463704 0.296179
O O11 0.000000 0.000000 0.000000
O O12 0.000000 0.500000 0.500000
O O13 0.885601 0.552812 0.732876
O O14 0.320119 0.956104 0.959448
O O15 0.702111 0.363336 0.347219
O O16 0.500000 0.500000 0.000000
#
# Coordination Sequence:
#
# PCOD9015443 Si02
#       7
#     2   2   2   2   2   2   2
#     4  10  25  43  66 100 129 172 221 270 328 391
#     4  10  21  42  62  94 127 166 216 261 321 392
#     4  11  23  44  66  97 133 174 217 271 328 387
#     4  11  23  42  65  94 128 174 214 263 331 382
#     4  10  24  43  63  96 131 166 223 264 325 392
#     4  11  23  42  66  95 131 165 215 274 322 388
#     4  11  23  44  67  95 133 173 221 270 326 387
#
# _framework density 22.698250999999999
#
# number of rings (size 3 to 8) (size 9 to 14) (size 15 to 20)
#    0.000    1.429    4.286    0.857    2.000    5.143 
#    5.143    0.000    0.000    0.000    0.000    0.000 
#    0.000    0.000    0.000    0.000    0.000    0.000 
#
# Total GULP energy -78340.873632 kJ/mol
# GULP energy per Si atom -5595.776688 kJ/mol
# Density = 2.264659 g / cm^3
# Si number density = 22.698251 Si / 1000 Ang^3
#
#
#
# Elastic Constant Matrix: (Units=GPa)
#
#
# Indices 1 2 3 4 5 6 
#
# 1 80.9917 15.4075 38.4355 26.6001 13.5487 -16.6967
# 2 15.4075 95.7062 25.5682 32.4630 9.8467 -2.6047
# 3 38.4355 25.5682 82.4553 25.8760 2.6587 -6.9988
# 4 26.6001 32.4630 25.8760 56.4308 -2.0197 -5.5360
# 5 13.5487 9.8467 2.6587 -2.0197 32.3458 11.5839
# 6 -16.6967 -2.6047 -6.9988 -5.5360 11.5839 43.4845
#
#
#
# Elastic Compliance Matrix: (Units=1/GPa)
#
#
# Indices 1 2 3 4 5 6 
#
# 1 0.022519 0.002913 -0.007457 -0.008362 -0.013903 0.010260
# 2 0.002913 0.014298 -0.002766 -0.008348 -0.006670 0.002244
# 3 -0.007457 -0.002766 0.017122 -0.002779 0.002884 -0.001395
# 4 -0.008362 -0.008348 -0.002779 0.027766 0.009097 -0.003047
# 5 -0.013903 -0.006670 0.002884 0.009097 0.044854 -0.016064
# 6 0.010260 0.002244 -0.001395 -0.003047 -0.016064 0.030737
#
#
# Mechanical properties :
#
#
# Convention : Reuss Voigt Hill
#
# Bulk Modulus (GPa) = 25.43304 46.44174 35.93739
# Shear Modulus (GPa) = 27.02394 38.43502 32.72948
#
# Velocity S-wave (km/s) = 3.45421 4.11944 3.80141
# Velocity P-wave (km/s) = 5.20941 6.56744 5.92745
#
# Compressibility (1/GPa) = 0.03931894
#
# Stress axis : x y z
#
# Youngs Moduli (GPa) = 44.40760 69.94133 58.40485
#
# Poissons Ratio (x) = -0.20373 0.43550
# Poissons Ratio (y) = -0.12936 0.16154
# Poissons Ratio (z) = 0.33113 0.19345
#
# Static dielectric constant tensor:
#      x y z
#    x 1.867760 -0.026240 0.005280 
#    y -0.026240 1.871390 0.006830 
#    z 0.005280 0.006830 1.839040 
# 
# From -- ./inp_files/315854.got.cif
#   From: 2010.05.17/outbox.cif.g08.bks.cpg/sg2_158_cif.got.tgz:315854.got - 2010.06.03 11:33:40.
