data_PCOD9015723
_publ_section_title
;
Structure prediction by ZEFSAII (Michael W. Deem and Ramdas Pophale) SiO2 
 PCOD9015723
Probable space group: P -1
;
_chemical_formula_sum "Si O2"
_cell_formula_units_Z 14
_cell_length_a 7.846276
_cell_length_b 9.860383
_cell_length_c 11.314457
_cell_angle_alpha 132.236264
_cell_angle_beta 91.941021
_cell_angle_gamma 110.684282
_cell_volume 557.883592
_symmetry_space_group_name_H-M "P -1"
_symmetry_group_IT_number 2
_symmetry_cell_setting 'triclinic'
loop_
_space_group_symop_operation_xyz
x,y,z
-x,-y,-z
loop_
_atom_site_type_symbol
_atom_site_label
_atom_site_fract_x
_atom_site_fract_y
_atom_site_fract_z
Si Si1 0.962045 0.667078 0.833939
Si Si2 0.028267 0.727795 0.344390
Si Si3 0.530650 0.855372 0.150271
Si Si4 0.286989 0.055479 0.202257
Si Si5 0.551263 0.622896 0.795495
Si Si6 0.321923 0.206907 0.653730
Si Si7 0.992997 0.208390 0.351283
O O1 0.947163 0.472789 0.795392
O O2 0.777644 0.697472 0.875720
O O3 0.951869 0.645892 0.678461
O O4 0.164242 0.879206 0.995396
O O5 0.859371 0.756011 0.294210
O O6 0.965143 0.690725 0.459515
O O7 0.224964 0.958535 0.477266
O O8 0.395716 0.959772 0.222346
O O9 0.533961 0.738069 0.199895
O O10 0.468670 0.705944 0.946288
O O11 0.758679 0.040362 0.244830
O O12 0.445912 0.269543 0.264413
O O13 0.123521 0.094957 0.280176
O O14 0.438110 0.369046 0.646620
#
# Coordination Sequence:
#
# PCOD9015723 Si02
#       7
#     2   2   2   2   2   2   2
#     4  11  21  40  67  98 126 163 209 263 323 366
#     4  10  23  44  63  85 132 177 202 259 315 372
#     4  11  21  40  67  95 126 166 207 265 313 368
#     4  11  22  40  70 100 121 163 210 266 323 358
#     4  11  21  40  65  98 131 155 215 269 304 381
#     4  10  24  43  60  88 130 172 215 248 313 381
#     4  10  21  42  64  97 128 157 216 262 308 380
#
# _framework density 25.094840999999999
#
# number of rings (size 3 to 8) (size 9 to 14) (size 15 to 20)
#    0.000    1.429    2.857    3.000    2.000    0.571 
#   12.857    2.857    0.000    0.000    0.000    0.000 
#    0.000    0.000    0.000    0.000    0.000    0.000 
#
# Total GULP energy -78386.990399 kJ/mol
# GULP energy per Si atom -5599.070743 kJ/mol
# Density = 2.503772 g / cm^3
# Si number density = 25.094841 Si / 1000 Ang^3
#
#
#
# Elastic Constant Matrix: (Units=GPa)
#
#
# Indices 1 2 3 4 5 6 
#
# 1 90.3336 37.0944 23.0842 -1.3949 -7.9395 -25.6536
# 2 37.0944 99.6669 26.9830 22.1040 -4.3769 -22.2558
# 3 23.0842 26.9830 18.8927 8.7465 -2.4873 -11.7685
# 4 -1.3949 22.1040 8.7465 37.9174 -3.3568 0.1646
# 5 -7.9395 -4.3769 -2.4873 -3.3568 29.4854 7.8526
# 6 -25.6536 -22.2558 -11.7685 0.1646 7.8526 39.7102
#
#
#
# Elastic Compliance Matrix: (Units=1/GPa)
#
#
# Indices 1 2 3 4 5 6 
#
# 1 0.018512 -0.001843 -0.019877 0.006550 0.002582 0.004497
# 2 -0.001843 0.017800 -0.018069 -0.006388 -0.001083 0.003671
# 3 -0.019877 -0.018069 0.119060 -0.018031 -0.003530 0.013090
# 4 0.006550 -0.006388 -0.018031 0.034949 0.004815 -0.005790
# 5 0.002582 -0.001083 -0.003530 0.004815 0.036631 -0.007249
# 6 0.004497 0.003671 0.013090 -0.005790 -0.007249 0.035482
#
#
# Mechanical properties :
#
#
# Convention : Reuss Voigt Hill
#
# Bulk Modulus (GPa) = 13.19358 42.57961 27.88660
# Shear Modulus (GPa) = 13.61375 29.53805 21.57590
#
# Velocity S-wave (km/s) = 2.33167 3.43455 2.93537
# Velocity P-wave (km/s) = 3.53805 5.72123 4.75659
#
# Compressibility (1/GPa) = 0.07579442
#
# Stress axis : x y z
#
# Youngs Moduli (GPa) = 54.01987 56.17883 8.39914
#
# Poissons Ratio (x) = 0.10356 0.16695
# Poissons Ratio (y) = 0.09958 0.15176
# Poissons Ratio (z) = 1.07374 1.01507
#
# Static dielectric constant tensor:
#      x y z
#    x 1.941480 0.012250 -0.006230 
#    y 0.012250 1.982470 -0.011800 
#    z -0.006230 -0.011800 1.995920 
# 
# From -- ./inp_files/423557.got.cif
#   From: 2010.05.17/outbox.cif.g08.bks.cpg/sg2_212_cif.got.tgz:423557.got - 2010.06.03 11:33:40.
