data_PCOD9015581
_publ_section_title
;
Structure prediction by ZEFSAII (Michael W. Deem and Ramdas Pophale) SiO2 
 PCOD9015581
Probable space group: P -1
;
_chemical_formula_sum "Si O2"
_cell_formula_units_Z 16
_cell_length_a 13.278500
_cell_length_b 9.140638
_cell_length_c 13.796865
_cell_angle_alpha 91.912915
_cell_angle_beta 137.367973
_cell_angle_gamma 121.134828
_cell_volume 679.935327
_symmetry_space_group_name_H-M "P -1"
_symmetry_group_IT_number 2
_symmetry_cell_setting 'triclinic'
loop_
_space_group_symop_operation_xyz
x,y,z
-x,-y,-z
loop_
_atom_site_type_symbol
_atom_site_label
_atom_site_fract_x
_atom_site_fract_y
_atom_site_fract_z
Si Si1 0.771301 0.051973 0.189890
Si Si2 0.710796 0.707743 0.895704
Si Si3 0.029749 0.513391 0.135682
Si Si4 0.963792 0.225345 0.724460
Si Si5 0.880114 0.744154 0.802532
Si Si6 0.787383 0.794080 0.533965
Si Si7 0.487604 0.978414 0.154102
Si Si8 0.940927 0.439797 0.569879
O O1 0.934595 0.035937 0.296883
O O2 0.975411 0.340972 0.324105
O O3 0.642230 0.982777 0.199545
O O4 0.575434 0.941036 0.965575
O O5 0.791109 0.713605 0.846134
O O6 0.417408 0.447379 0.681963
O O7 0.842762 0.715224 0.072719
O O8 0.836680 0.967935 0.996472
O O9 0.150059 0.746614 0.279942
O O10 0.149187 0.450608 0.237672
O O11 0.754522 0.284959 0.980240
O O12 0.000000 0.500000 0.000000
O O13 0.071205 0.410099 0.718001
O O14 0.781565 0.964869 0.539411
O O15 0.751877 0.718720 0.619346
O O16 0.652783 0.175003 0.360801
O O17 0.000000 0.500000 0.500000
#
# Coordination Sequence:
#
# PCOD9015581 Si02
#       8
#     2   2   2   2   2   2   2   2
#     4  10  21  42  69  98 129 177 230 274 337 405
#     4  10  23  41  65  91 148 181 220 283 333 396
#     4  12  23  43  70  97 136 177 226 282 339 394
#     4  11  24  41  63 103 141 169 230 281 329 415
#     4  10  21  42  63  98 132 183 234 273 330 407
#     4  11  23  40  67 100 138 183 226 271 342 407
#     4  10  22  41  70  93 133 172 226 288 329 389
#     4  10  22  41  69  98 129 172 227 279 335 401
#
# _framework density 23.531649999999999
#
# number of rings (size 3 to 8) (size 9 to 14) (size 15 to 20)
#    0.000    1.500    3.750    0.375    3.500    0.000 
#    0.000    4.375    0.000    0.000    0.000    0.000 
#    0.000    0.000    0.000    0.000    0.000    0.000 
#
# Total GULP energy -89350.799944 kJ/mol
# GULP energy per Si atom -5584.424996 kJ/mol
# Density = 2.347809 g / cm^3
# Si number density = 23.531650 Si / 1000 Ang^3
#
#
#
# Elastic Constant Matrix: (Units=GPa)
#
#
# Indices 1 2 3 4 5 6 
#
# 1 68.5362 8.1644 -10.6708 -9.2630 1.0941 6.8699
# 2 8.1644 87.7195 0.5823 -14.2727 -6.6580 -10.0261
# 3 -10.6708 0.5823 84.2320 1.1427 -9.9802 -0.9765
# 4 -9.2630 -14.2727 1.1427 28.9376 6.3889 -12.4053
# 5 1.0941 -6.6580 -9.9802 6.3889 22.8274 -3.9241
# 6 6.8699 -10.0261 -0.9765 -12.4053 -3.9241 44.4315
#
#
#
# Elastic Compliance Matrix: (Units=1/GPa)
#
#
# Indices 1 2 3 4 5 6 
#
# 1 0.015741 -0.001136 0.001718 0.004085 -0.001765 -0.001668
# 2 -0.001136 0.013733 0.000043 0.008301 0.002759 0.005837
# 3 0.001718 0.000043 0.012805 -0.001136 0.005886 0.000228
# 4 0.004085 0.008301 -0.001136 0.047974 -0.009328 0.013787
# 5 -0.001765 0.002759 0.005886 -0.009328 0.050374 0.002869
# 6 -0.001668 0.005837 0.000228 0.013787 0.002869 0.028189
#
#
# Mechanical properties :
#
#
# Convention : Reuss Voigt Hill
#
# Bulk Modulus (GPa) = 22.97364 26.29325 24.63345
# Shear Modulus (GPa) = 27.46126 35.40008 31.43067
#
# Velocity S-wave (km/s) = 3.41983 3.88282 3.65866
# Velocity P-wave (km/s) = 5.03763 5.59460 5.32340
#
# Compressibility (1/GPa) = 0.04352814
#
# Stress axis : x y z
#
# Youngs Moduli (GPa) = 63.52758 72.81953 78.09594
#
# Poissons Ratio (x) = 0.08275 -0.13418
# Poissons Ratio (y) = 0.07219 -0.00336
# Poissons Ratio (z) = -0.10915 -0.00313
#
# Static dielectric constant tensor:
#      x y z
#    x 1.898760 -0.012470 0.014760 
#    y -0.012470 1.921990 0.025130 
#    z 0.014760 0.025130 1.978780 
# 
# From -- ./inp_files/528658.got.cif
#   From: 2010.05.17/outbox.cif.g08.bks.cpg/sg2_265_cif.got.tgz:528658.got - 2010.06.03 11:33:40.
