data_PCOD9015204
_publ_section_title
;
Structure prediction by ZEFSAII (Michael W. Deem and Ramdas Pophale) SiO2 
 PCOD9015204
Probable space group: P -1
;
_chemical_formula_sum "Si O2"
_cell_formula_units_Z 16
_cell_length_a 12.093273
_cell_length_b 11.681983
_cell_length_c 12.130408
_cell_angle_alpha 115.368033
_cell_angle_beta 141.128765
_cell_angle_gamma 93.991636
_cell_volume 683.356580
_symmetry_space_group_name_H-M "P -1"
_symmetry_group_IT_number 2
_symmetry_cell_setting 'triclinic'
loop_
_space_group_symop_operation_xyz
x,y,z
-x,-y,-z
loop_
_atom_site_type_symbol
_atom_site_label
_atom_site_fract_x
_atom_site_fract_y
_atom_site_fract_z
Si Si1 0.616846 0.041141 0.386984
Si Si2 0.698908 0.776487 0.723549
Si Si3 0.662704 0.879903 0.147186
Si Si4 0.807005 0.507600 0.386753
Si Si5 0.835876 0.946693 0.670188
Si Si6 0.146311 0.226863 0.582201
Si Si7 0.845961 0.428760 0.737832
Si Si8 0.951849 0.262086 0.120966
O O1 0.599551 0.942000 0.225151
O O2 0.774434 0.047755 0.606036
O O3 0.754640 0.243277 0.554415
O O4 0.337304 0.920469 0.165193
O O5 0.411192 0.621215 0.469659
O O6 0.870875 0.744216 0.809904
O O7 0.697964 0.855151 0.641104
O O8 0.871810 0.920611 0.015058
O O9 0.781855 0.813937 0.268773
O O10 0.424024 0.692357 0.830076
O O11 0.845493 0.051792 0.280929
O O12 0.765567 0.583858 0.284353
O O13 0.925662 0.657836 0.632143
O O14 0.000000 0.500000 0.500000
O O15 0.754711 0.803367 0.456769
O O16 0.024504 0.589873 0.857145
O O17 0.000000 0.500000 0.000000
#
# Coordination Sequence:
#
# PCOD9015204 Si02
#       8
#     2   2   2   2   2   2   2   2
#     4  11  24  45  69  97 139 174 220 281 334 398
#     4  11  23  43  68  97 131 174 222 278 333 401
#     4  10  24  44  69  99 133 178 224 271 333 398
#     4  12  25  42  68 101 136 174 222 277 331 396
#     4  10  21  41  72  96 131 180 220 271 343 391
#     4  10  23  45  68  98 133 180 221 274 334 397
#     4  12  28  46  69 101 133 175 225 278 335 402
#     4  12  26  45  67 101 135 181 223 274 339 394
#
# _framework density 23.413837000000001
#
# number of rings (size 3 to 8) (size 9 to 14) (size 15 to 20)
#    0.000    1.000    2.500    3.750    3.500    2.000 
#    4.500    0.000    0.000    0.000    0.000    0.000 
#    0.000    0.000    0.000    0.000    0.000    0.000 
#
# Total GULP energy -89428.062803 kJ/mol
# GULP energy per Si atom -5589.253925 kJ/mol
# Density = 2.336055 g / cm^3
# Si number density = 23.413837 Si / 1000 Ang^3
#
#
#
# Elastic Constant Matrix: (Units=GPa)
#
#
# Indices 1 2 3 4 5 6 
#
# 1 45.0151 15.4146 -3.9620 0.2939 2.4480 -11.7960
# 2 15.4146 104.8261 -11.7107 14.1786 -4.7084 -15.2089
# 3 -3.9620 -11.7107 59.2585 5.7394 -1.5572 -3.6102
# 4 0.2939 14.1786 5.7394 39.9524 3.6098 -0.2770
# 5 2.4480 -4.7084 -1.5572 3.6098 21.0602 -2.9887
# 6 -11.7960 -15.2089 -3.6102 -0.2770 -2.9887 33.4123
#
#
#
# Elastic Compliance Matrix: (Units=1/GPa)
#
#
# Indices 1 2 3 4 5 6 
#
# 1 0.025410 -0.002677 0.001493 0.000827 -0.002491 0.007698
# 2 -0.002677 0.011939 0.003115 -0.005064 0.004819 0.005215
# 3 0.001493 0.003115 0.018316 -0.004004 0.003156 0.004173
# 4 0.000827 -0.005064 -0.004004 0.027984 -0.006720 -0.002815
# 5 -0.002491 0.004819 0.003156 -0.006720 0.051111 0.006171
# 6 0.007698 0.005215 0.004173 -0.002815 0.006171 0.036000
#
#
# Mechanical properties :
#
#
# Convention : Reuss Voigt Hill
#
# Bulk Modulus (GPa) = 16.79841 23.17597 19.98719
# Shear Modulus (GPa) = 26.77538 32.84217 29.80878
#
# Velocity S-wave (km/s) = 3.38534 3.74930 3.57196
# Velocity P-wave (km/s) = 4.74034 5.35378 5.05637
#
# Compressibility (1/GPa) = 0.05952945
#
# Stress axis : x y z
#
# Youngs Moduli (GPa) = 39.35461 83.75677 54.59796
#
# Poissons Ratio (x) = 0.22418 -0.08154
# Poissons Ratio (y) = 0.10533 -0.17009
# Poissons Ratio (z) = -0.05877 -0.26093
#
# Static dielectric constant tensor:
#      x y z
#    x 1.881770 0.003430 0.023260 
#    y 0.003430 1.851470 -0.237440 
#    z 0.023260 -0.237440 1.547370 
# 
# From -- ./inp_files/428603.got.cif
#   From: 2010.05.17/outbox.cif.g08.bks.cpg/sg2_215_cif.got.tgz:428603.got - 2010.06.03 11:33:40.
