data_PCOD9015446
_publ_section_title
;
Structure prediction by ZEFSAII (Michael W. Deem and Ramdas Pophale) SiO2 
 PCOD9015446
Probable space group: P -1
;
_chemical_formula_sum "Si O2"
_cell_formula_units_Z 16
_cell_length_a 19.529823
_cell_length_b 8.232242
_cell_length_c 8.518514
_cell_angle_alpha 70.293691
_cell_angle_beta 46.756432
_cell_angle_gamma 51.733508
_cell_volume 774.158516
_symmetry_space_group_name_H-M "P -1"
_symmetry_group_IT_number 2
_symmetry_cell_setting 'triclinic'
loop_
_space_group_symop_operation_xyz
x,y,z
-x,-y,-z
loop_
_atom_site_type_symbol
_atom_site_label
_atom_site_fract_x
_atom_site_fract_y
_atom_site_fract_z
Si Si1 0.500653 0.204246 0.911964
Si Si2 0.887483 0.707901 0.043283
Si Si3 0.507554 0.242917 0.245971
Si Si4 0.349750 0.141518 0.673565
Si Si5 0.096569 0.040820 0.818164
Si Si6 0.346889 0.692070 0.516065
Si Si7 0.938182 0.463929 0.744530
Si Si8 0.300360 0.468908 0.919034
O O1 0.589023 0.193128 0.649911
O O2 0.375525 0.382787 0.985348
O O3 0.530056 0.244779 0.026446
O O4 0.500000 0.000000 0.000000
O O5 0.891169 0.663098 0.868490
O O6 0.770266 0.738656 0.265638
O O7 0.881591 0.902591 0.061747
O O8 0.000000 0.500000 0.000000
O O9 0.437919 0.137032 0.418138
O O10 0.427332 0.476769 0.362774
O O11 0.615635 0.081370 0.238416
O O12 0.340808 0.280422 0.791516
O O13 0.036970 0.252297 0.743137
O O14 0.214956 0.851909 0.620950
O O15 0.000000 0.000000 0.000000
O O16 0.330622 0.616230 0.734966
O O17 0.000000 0.500000 0.500000
O O18 0.832535 0.444780 0.877792
#
# Coordination Sequence:
#
# PCOD9015446 Si02
#       8
#     2   2   2   2   2   2   2   2
#     4  12  25  39  64  99 129 164 221 268 326 378
#     4   9  21  37  65  90 122 169 215 257 318 384
#     4  10  22  40  62  93 131 169 210 267 323 386
#     4   9  19  38  65  90 127 168 213 258 321 394
#     4  11  23  44  66  93 126 168 223 264 319 389
#     4  11  25  42  65  88 134 177 208 269 331 388
#     4  10  22  42  67  97 128 166 218 272 319 376
#     4  10  21  42  62  94 130 171 211 265 323 390
#
# _framework density 20.667603
#
# number of rings (size 3 to 8) (size 9 to 14) (size 15 to 20)
#    0.000    1.750    2.500    0.750    5.250    2.000 
#    0.000    1.875    0.000    0.000    0.000    0.000 
#    0.000    0.000    0.000    0.000    0.000    0.000 
#
# Total GULP energy -89171.304472 kJ/mol
# GULP energy per Si atom -5573.206529 kJ/mol
# Density = 2.062056 g / cm^3
# Si number density = 20.667603 Si / 1000 Ang^3
#
#
#
# Elastic Constant Matrix: (Units=GPa)
#
#
# Indices 1 2 3 4 5 6 
#
# 1 57.2760 17.1746 25.7211 -11.3075 -14.9982 -13.0164
# 2 17.1746 109.4042 37.8276 -7.6884 -7.4799 -10.9240
# 3 25.7211 37.8276 107.5099 -22.6222 -8.1872 -8.0307
# 4 -11.3075 -7.6884 -22.6222 33.3724 -9.5054 -6.7019
# 5 -14.9982 -7.4799 -8.1872 -9.5054 24.6791 2.2350
# 6 -13.0164 -10.9240 -8.0307 -6.7019 2.2350 37.4099
#
#
#
# Elastic Compliance Matrix: (Units=1/GPa)
#
#
# Indices 1 2 3 4 5 6 
#
# 1 0.031191 -0.000403 -0.000197 0.020134 0.025365 0.012784
# 2 -0.000403 0.010758 -0.003016 0.001466 0.002356 0.002476
# 3 -0.000197 -0.003016 0.013637 0.011344 0.007537 0.003560
# 4 0.020134 0.001466 0.011344 0.059180 0.037587 0.018225
# 5 0.025365 0.002356 0.007537 0.037587 0.072400 0.013539
# 6 0.012784 0.002476 0.003560 0.018225 0.013539 0.035122
#
#
# Mechanical properties :
#
#
# Convention : Reuss Voigt Hill
#
# Bulk Modulus (GPa) = 20.68125 48.40408 34.54266
# Shear Modulus (GPa) = 20.35522 31.99005 26.17264
#
# Velocity S-wave (km/s) = 3.14169 3.93852 3.56246
# Velocity P-wave (km/s) = 4.81546 6.64483 5.80269
#
# Compressibility (1/GPa) = 0.04835298
#
# Stress axis : x y z
#
# Youngs Moduli (GPa) = 32.06060 92.95667 73.33150
#
# Poissons Ratio (x) = 0.03742 0.01448
# Poissons Ratio (y) = 0.01291 0.22118
# Poissons Ratio (z) = 0.00633 0.28037
#
# Static dielectric constant tensor:
#      x y z
#    x 1.814390 -0.027500 0.011970 
#    y -0.027500 1.849340 -0.001480 
#    z 0.011970 -0.001480 1.894160 
# 
# From -- ./inp_files/207037.got.cif
#   From: 2010.05.17/outbox.cif.g08.bks.cpg/sg2_104_cif.got.tgz:207037.got - 2010.06.03 11:33:40.
