data_PCOD9015156
_publ_section_title
;
Structure prediction by ZEFSAII (Michael W. Deem and Ramdas Pophale) SiO2 
 PCOD9015156
Probable space group: P -1
;
_chemical_formula_sum "Si O2"
_cell_formula_units_Z 16
_cell_length_a 14.525985
_cell_length_b 11.409762
_cell_length_c 8.618506
_cell_angle_alpha 138.390984
_cell_angle_beta 103.740800
_cell_angle_gamma 56.024685
_cell_volume 743.234659
_symmetry_space_group_name_H-M "P -1"
_symmetry_group_IT_number 2
_symmetry_cell_setting 'triclinic'
loop_
_space_group_symop_operation_xyz
x,y,z
-x,-y,-z
loop_
_atom_site_type_symbol
_atom_site_label
_atom_site_fract_x
_atom_site_fract_y
_atom_site_fract_z
Si Si1 0.154631 0.587516 0.851478
Si Si2 0.249731 0.935101 0.761826
Si Si3 0.702660 0.411299 0.351656
Si Si4 0.124887 0.925339 0.408959
Si Si5 0.567174 0.304373 0.958747
Si Si6 0.919085 0.735785 0.785263
Si Si7 0.502057 0.201687 0.148644
Si Si8 0.202363 0.136309 0.453128
O O1 0.228489 0.525500 0.661981
O O2 0.181913 0.363334 0.705355
O O3 0.019517 0.753370 0.908606
O O4 0.177007 0.714433 0.111707
O O5 0.215583 0.814205 0.746393
O O6 0.217148 0.889697 0.539589
O O7 0.383289 0.838412 0.760316
O O8 0.165976 0.192138 0.028472
O O9 0.614228 0.587665 0.615571
O O10 0.630377 0.377821 0.165605
O O11 0.111636 0.114420 0.487210
O O12 0.000000 0.000000 0.500000
O O13 0.664610 0.077728 0.685740
O O14 0.500000 0.500000 0.000000
O O15 0.507204 0.243908 0.007824
O O16 0.827378 0.869774 0.743883
O O17 0.000000 0.500000 0.500000
O O18 0.500000 0.000000 0.000000
#
# Coordination Sequence:
#
# PCOD9015156 Si02
#       8
#     2   2   2   2   2   2   2   2
#     4  11  24  45  70 105 139 193 240 290 368 431
#     4  11  23  45  67 102 140 188 234 295 358 435
#     4  11  24  41  72  96 139 185 245 289 363 437
#     4  12  26  44  67 101 149 187 234 292 367 432
#     4  11  23  44  72 100 143 186 238 304 369 430
#     4  10  21  41  72 100 136 182 236 292 349 425
#     4  11  25  46  71 105 143 187 251 307 362 430
#     4  11  24  45  68 101 145 181 241 298 355 437
#
# _framework density 21.527522000000001
#
# number of rings (size 3 to 8) (size 9 to 14) (size 15 to 20)
#    0.000    1.000    5.000    2.250    7.000    1.500 
#    4.500    1.250    0.000    0.000    0.000    0.000 
#    0.000    0.000    0.000    0.000    0.000    0.000 
#
# Total GULP energy -89192.714973 kJ/mol
# GULP energy per Si atom -5574.544686 kJ/mol
# Density = 2.147852 g / cm^3
# Si number density = 21.527522 Si / 1000 Ang^3
#
#
#
# Elastic Constant Matrix: (Units=GPa)
#
#
# Indices 1 2 3 4 5 6 
#
# 1 90.7609 31.4332 43.7361 13.3447 -13.3602 22.2359
# 2 31.4332 87.4840 48.4246 4.3922 10.8839 -2.8282
# 3 43.7361 48.4246 105.1708 3.3185 -5.5809 6.2648
# 4 13.3447 4.3922 3.3185 39.8735 -5.6218 7.3041
# 5 -13.3602 10.8839 -5.5809 -5.6218 41.4516 3.7343
# 6 22.2359 -2.8282 6.2648 7.3041 3.7343 38.1583
#
#
#
# Elastic Compliance Matrix: (Units=1/GPa)
#
#
# Indices 1 2 3 4 5 6 
#
# 1 0.019355 -0.005889 -0.004167 -0.002280 0.007939 -0.011372
# 2 -0.005889 0.018893 -0.007080 -0.002082 -0.008747 0.007249
# 3 -0.004167 -0.007080 0.014665 0.001545 0.002797 -0.001074
# 4 -0.002280 -0.002082 0.001545 0.027396 0.004162 -0.004731
# 5 0.007939 -0.008747 0.002797 0.004162 0.030781 -0.009543
# 6 -0.011372 0.007249 -0.001074 -0.004731 -0.009543 0.035386
#
#
# Mechanical properties :
#
#
# Convention : Reuss Voigt Hill
#
# Bulk Modulus (GPa) = 53.64589 58.95594 56.30092
# Shear Modulus (GPa) = 26.74340 34.55145 30.64743
#
# Velocity S-wave (km/s) = 3.52844 4.01058 3.77721
# Velocity P-wave (km/s) = 6.44776 6.99229 6.72554
#
# Compressibility (1/GPa) = 0.01864076
#
# Stress axis : x y z
#
# Youngs Moduli (GPa) = 51.66568 52.93025 68.18980
#
# Poissons Ratio (x) = 0.31169 0.28415
# Poissons Ratio (y) = 0.30424 0.48281
# Poissons Ratio (z) = 0.21529 0.37477
#
# Static dielectric constant tensor:
#      x y z
#    x 2.010560 0.215630 0.074190 
#    y 0.215630 2.073920 0.172860 
#    z 0.074190 0.172860 1.928770 
# 
# From -- ./inp_files/306015.got.cif
#   From: 2010.05.17/outbox.cif.g08.bks.cpg/sg2_154_cif.got.tgz:306015.got - 2010.06.03 11:33:40.
