data_PCOD9015539
_publ_section_title
;
Structure prediction by ZEFSAII (Michael W. Deem and Ramdas Pophale) SiO2 
 PCOD9015539
Probable space group: P -1
;
_chemical_formula_sum "Si O2"
_cell_formula_units_Z 16
_cell_length_a 9.826286
_cell_length_b 14.593126
_cell_length_c 5.379708
_cell_angle_alpha 100.273567
_cell_angle_beta 68.153362
_cell_angle_gamma 71.320139
_cell_volume 638.296675
_symmetry_space_group_name_H-M "P -1"
_symmetry_group_IT_number 2
_symmetry_cell_setting 'triclinic'
loop_
_space_group_symop_operation_xyz
x,y,z
-x,-y,-z
loop_
_atom_site_type_symbol
_atom_site_label
_atom_site_fract_x
_atom_site_fract_y
_atom_site_fract_z
Si Si1 0.471558 0.890012 0.254830
Si Si2 0.489193 0.670792 0.005689
Si Si3 0.851406 0.539272 0.807086
Si Si4 0.076742 0.912870 0.676251
Si Si5 0.696133 0.989344 0.074034
Si Si6 0.964651 0.352259 0.007948
Si Si7 0.370036 0.612673 0.565330
Si Si8 0.946988 0.147798 0.834443
O O1 0.494061 0.776903 0.129181
O O2 0.383313 0.932366 0.600783
O O3 0.639638 0.900811 0.139579
O O4 0.378413 0.957515 0.111383
O O5 0.417367 0.636169 0.274373
O O6 0.677906 0.589564 0.821386
O O7 0.396917 0.674758 0.813034
O O8 0.876045 0.440078 0.905589
O O9 0.000000 0.500000 0.500000
O O10 0.888556 0.622764 0.985133
O O11 0.142472 0.842963 0.360144
O O12 0.070336 0.025293 0.682727
O O13 0.149562 0.854805 0.853298
O O14 0.887767 0.937872 0.863848
O O15 0.013501 0.234268 0.837657
O O16 0.815843 0.371654 0.305870
O O17 0.500000 0.500000 0.500000
#
# Coordination Sequence:
#
# PCOD9015539 Si02
#       8
#     2   2   2   2   2   2   2   2
#     4  10  23  39  64  99 128 181 225 281 342 408
#     4  12  27  45  75 105 143 185 240 289 352 422
#     4  11  27  49  71 106 146 185 240 295 351 428
#     4  10  22  43  62  98 133 173 227 285 335 416
#     4  10  21  42  63  93 137 173 226 281 343 406
#     4  11  27  46  73 106 140 192 235 294 357 421
#     4  12  26  49  72 105 141 184 235 296 351 415
#     4  10  24  40  66  97 131 179 228 278 347 407
#
# _framework density 25.066716
#
# number of rings (size 3 to 8) (size 9 to 14) (size 15 to 20)
#    0.000    1.250    1.250    2.625   10.500    0.000 
#    0.000    0.000    0.000    0.000    0.000    0.000 
#    0.000    0.000    0.000    0.000    0.000    0.000 
#
# Total GULP energy -89504.333778 kJ/mol
# GULP energy per Si atom -5594.020861 kJ/mol
# Density = 2.500966 g / cm^3
# Si number density = 25.066716 Si / 1000 Ang^3
#
#
#
# Elastic Constant Matrix: (Units=GPa)
#
#
# Indices 1 2 3 4 5 6 
#
# 1 97.6722 39.5473 39.3165 -7.4284 -8.3815 -8.0710
# 2 39.5473 166.9008 41.6326 5.2374 4.0810 23.0338
# 3 39.3165 41.6326 146.7626 -13.7272 13.5391 6.3429
# 4 -7.4284 5.2374 -13.7272 40.7761 11.9762 6.9041
# 5 -8.3815 4.0810 13.5391 11.9762 55.6757 -4.8346
# 6 -8.0710 23.0338 6.3429 6.9041 -4.8346 33.9311
#
#
#
# Elastic Compliance Matrix: (Units=1/GPa)
#
#
# Indices 1 2 3 4 5 6 
#
# 1 0.013906 -0.003477 -0.003448 -0.000507 0.003901 0.006971
# 2 -0.003477 0.007956 -0.001000 -0.000586 -0.001267 -0.006102
# 3 -0.003448 -0.001000 0.008895 0.004143 -0.003776 -0.003185
# 4 -0.000507 -0.000586 0.004143 0.029569 -0.008067 -0.007663
# 5 0.003901 -0.001267 -0.003776 -0.008067 0.021925 0.007259
# 6 0.006971 -0.006102 -0.003185 -0.007663 0.007259 0.038461
#
#
# Mechanical properties :
#
#
# Convention : Reuss Voigt Hill
#
# Bulk Modulus (GPa) = 67.07528 72.48092 69.77810
# Shear Modulus (GPa) = 35.32821 45.46585 40.39703
#
# Velocity S-wave (km/s) = 3.75823 4.26349 4.01880
# Velocity P-wave (km/s) = 6.75642 7.29482 7.03077
#
# Compressibility (1/GPa) = 0.01490862
#
# Stress axis : x y z
#
# Youngs Moduli (GPa) = 71.91087 125.68564 112.42867
#
# Poissons Ratio (x) = 0.43696 0.38762
# Poissons Ratio (y) = 0.25001 0.11241
# Poissons Ratio (z) = 0.24793 0.12567
#
# Static dielectric constant tensor:
#      x y z
#    x 2.096130 0.048180 0.082220 
#    y 0.048180 2.003640 0.042260 
#    z 0.082220 0.042260 2.079350 
# 
# From -- ./inp_files/76356.got.cif
#   From: 2010.05.17/outbox.cif.g08.bks.cpg/sg2_39_cif.got.tgz:76356.got - 2010.06.03 11:33:40.
