data_PCOD9015115
_publ_section_title
;
Structure prediction by ZEFSAII (Michael W. Deem and Ramdas Pophale) SiO2 
 PCOD9015115
Probable space group: P -1
;
_chemical_formula_sum "Si O2"
_cell_formula_units_Z 14
_cell_length_a 22.388168
_cell_length_b 7.808565
_cell_length_c 6.980398
_cell_angle_alpha 98.389430
_cell_angle_beta 58.672980
_cell_angle_gamma 138.295546
_cell_volume 627.327190
_symmetry_space_group_name_H-M "P -1"
_symmetry_group_IT_number 2
_symmetry_cell_setting 'triclinic'
loop_
_space_group_symop_operation_xyz
x,y,z
-x,-y,-z
loop_
_atom_site_type_symbol
_atom_site_label
_atom_site_fract_x
_atom_site_fract_y
_atom_site_fract_z
Si Si1 0.037004 0.806284 0.915376
Si Si2 0.757021 0.722505 0.841451
Si Si3 0.611007 0.626816 0.745814
Si Si4 0.861013 0.235361 0.952694
Si Si5 0.558066 0.298190 0.405997
Si Si6 0.157334 0.355993 0.602461
Si Si7 0.669440 0.033511 0.452393
O O1 0.962665 0.575257 0.829837
O O2 0.943787 0.704176 0.202164
O O3 0.108413 0.803914 0.907557
O O4 0.118494 0.116890 0.755702
O O5 0.676821 0.640494 0.793027
O O6 0.821228 0.679333 0.648563
O O7 0.675647 0.520292 0.124908
O O8 0.842856 0.047616 0.802544
O O9 0.578753 0.444061 0.589295
O O10 0.683002 0.928195 0.588547
O O11 0.500000 0.500000 0.000000
O O12 0.741186 0.098496 0.164623
O O13 0.500000 0.000000 0.500000
O O14 0.462791 0.209445 0.422629
O O15 0.272967 0.672799 0.537156
#
# Coordination Sequence:
#
# PCOD9015115 Si02
#       7
#     2   2   2   2   2   2   2
#     4   9  21  45  68  94 131 171 219 285 325 386
#     4  12  25  42  67 103 130 178 219 264 334 394
#     4  12  24  42  66  94 138 175 221 266 311 394
#     4  10  21  41  71  94 127 174 221 269 333 387
#     4  12  27  43  66 100 141 173 216 271 323 396
#     4  10  23  40  67  99 132 169 221 273 334 389
#     4  11  22  43  67  98 132 180 214 264 330 389
#
# _framework density 22.316901000000001
#
# number of rings (size 3 to 8) (size 9 to 14) (size 15 to 20)
#    0.000    1.143    2.857    3.000    4.000    2.286 
#    0.000    0.000    0.000    0.000    0.000    0.000 
#    0.000    0.000    0.000    0.000    0.000    0.000 
#
# Total GULP energy -78302.110233 kJ/mol
# GULP energy per Si atom -5593.007874 kJ/mol
# Density = 2.226611 g / cm^3
# Si number density = 22.316901 Si / 1000 Ang^3
#
#
#
# Elastic Constant Matrix: (Units=GPa)
#
#
# Indices 1 2 3 4 5 6 
#
# 1 40.9982 15.7376 21.9946 -4.8314 -5.2221 -8.8326
# 2 15.7376 154.5298 65.4839 14.9023 -9.3369 -23.4829
# 3 21.9946 65.4839 130.7051 17.9630 -20.6845 -0.9492
# 4 -4.8314 14.9023 17.9630 30.7842 -10.7482 -0.5203
# 5 -5.2221 -9.3369 -20.6845 -10.7482 33.9520 -5.1235
# 6 -8.8326 -23.4829 -0.9492 -0.5203 -5.1235 29.9715
#
#
#
# Elastic Compliance Matrix: (Units=1/GPa)
#
#
# Indices 1 2 3 4 5 6 
#
# 1 0.031811 0.000202 -0.005839 0.010711 0.006385 0.010626
# 2 0.000202 0.009722 -0.004527 -0.001712 0.000551 0.007598
# 3 -0.005839 -0.004527 0.011995 -0.004757 0.002986 -0.004460
# 4 0.010711 -0.001712 -0.004757 0.042140 0.012297 0.004498
# 5 0.006385 0.000551 0.002986 0.012297 0.037666 0.009061
# 6 0.010626 0.007598 -0.004460 0.004498 0.009061 0.043935
#
#
# Mechanical properties :
#
#
# Convention : Reuss Voigt Hill
#
# Bulk Modulus (GPa) = 30.11954 59.18503 44.65229
# Shear Modulus (GPa) = 23.96201 33.80933 28.88567
#
# Velocity S-wave (km/s) = 3.28032 3.89648 3.60160
# Velocity P-wave (km/s) = 5.27948 6.84260 6.11122
#
# Compressibility (1/GPa) = 0.03320104
#
# Stress axis : x y z
#
# Youngs Moduli (GPa) = 31.43594 102.85798 83.36569
#
# Poissons Ratio (x) = -0.02079 0.48674
# Poissons Ratio (y) = -0.00635 0.37741
# Poissons Ratio (z) = 0.18354 0.46565
#
# Static dielectric constant tensor:
#      x y z
#    x 1.825850 -0.005640 -0.010430 
#    y -0.005640 1.827990 -0.009520 
#    z -0.010430 -0.009520 1.829300 
# 
# From -- ./inp_files/46868.got.cif
#   From: 2010.05.17/outbox.cif.g08.bks.cpg/sg2_24_cif.got.tgz:46868.got - 2010.06.03 11:33:40.
