data_PCOD9015799
_publ_section_title
;
Structure prediction by ZEFSAII (Michael W. Deem and Ramdas Pophale) SiO2 
 PCOD9015799
Probable space group: P -1
;
_chemical_formula_sum "Si O2"
_cell_formula_units_Z 16
_cell_length_a 11.389568
_cell_length_b 13.206157
_cell_length_c 11.595750
_cell_angle_alpha 62.911040
_cell_angle_beta 92.801615
_cell_angle_gamma 146.270211
_cell_volume 642.263220
_symmetry_space_group_name_H-M "P -1"
_symmetry_group_IT_number 2
_symmetry_cell_setting 'triclinic'
loop_
_space_group_symop_operation_xyz
x,y,z
-x,-y,-z
loop_
_atom_site_type_symbol
_atom_site_label
_atom_site_fract_x
_atom_site_fract_y
_atom_site_fract_z
Si Si1 0.401260 0.011946 0.151310
Si Si2 0.480655 0.407411 0.866652
Si Si3 0.071837 0.357554 0.504253
Si Si4 0.103771 0.389513 0.108928
Si Si5 0.820923 0.887637 0.751979
Si Si6 0.797146 0.163932 0.002693
Si Si7 0.173472 0.707292 0.672183
Si Si8 0.363704 0.266584 0.668650
O O1 0.111919 0.753827 0.341625
O O2 0.334358 0.009502 0.025466
O O3 0.637609 0.297618 0.075135
O O4 0.552835 0.026702 0.120004
O O5 0.760033 0.576223 0.811243
O O6 0.587757 0.629689 0.788132
O O7 0.350939 0.277025 0.801440
O O8 0.296757 0.209193 0.072310
O O9 0.008260 0.386076 0.383070
O O10 0.405275 0.628716 0.397863
O O11 0.937671 0.113126 0.603626
O O12 0.876429 0.266991 0.226707
O O13 0.955715 0.223031 0.069297
O O14 0.070745 0.015750 0.715080
O O15 0.031065 0.459499 0.812907
O O16 0.500000 0.000000 0.500000
O O17 0.500000 0.500000 0.500000
#
# Coordination Sequence:
#
# PCOD9015799 Si02
#       8
#     2   2   2   2   2   2   2   2
#     4  10  21  42  65  89 128 167 212 268 300 375
#     4  11  22  44  69  95 123 169 219 258 314 384
#     4  11  21  41  65  93 135 169 201 264 327 371
#     4  11  21  42  67  91 128 167 213 263 314 373
#     4  10  24  43  68  95 125 167 216 265 308 383
#     4  10  23  41  65  96 123 170 220 259 308 377
#     4  11  22  39  65  95 133 167 205 261 327 376
#     4  10  23  43  62  93 131 164 202 268 322 369
#
# _framework density 24.911905999999998
#
# number of rings (size 3 to 8) (size 9 to 14) (size 15 to 20)
#    0.000    1.500    2.500    3.375    0.000    3.500 
#   13.500    0.000    0.000    0.000    0.000    0.000 
#    0.000    0.000    0.000    0.000    0.000    0.000 
#
# Total GULP energy -89493.746427 kJ/mol
# GULP energy per Si atom -5593.359152 kJ/mol
# Density = 2.485521 g / cm^3
# Si number density = 24.911906 Si / 1000 Ang^3
#
#
#
# Elastic Constant Matrix: (Units=GPa)
#
#
# Indices 1 2 3 4 5 6 
#
# 1 55.8919 -4.1963 26.5098 -13.0279 9.0937 17.7671
# 2 -4.1963 98.6382 3.5883 6.0506 -3.2682 5.8116
# 3 26.5098 3.5883 83.8235 -14.8186 -14.3532 3.6085
# 4 -13.0279 6.0506 -14.8186 41.2153 9.8608 1.6136
# 5 9.0937 -3.2682 -14.3532 9.8608 57.5986 -3.4810
# 6 17.7671 5.8116 3.6085 1.6136 -3.4810 29.2481
#
#
#
# Elastic Compliance Matrix: (Units=1/GPa)
#
#
# Indices 1 2 3 4 5 6 
#
# 1 0.033657 0.002076 -0.009837 0.010196 -0.010691 -0.021479
# 2 0.002076 0.010527 -0.001184 -0.001189 -0.000012 -0.003142
# 3 -0.009837 -0.001184 0.016069 0.001325 0.005554 0.004816
# 4 0.010196 -0.001189 0.001325 0.030156 -0.007031 -0.008621
# 5 -0.010691 -0.000012 0.005554 -0.007031 0.022171 0.008838
# 6 -0.021479 -0.003142 0.004816 -0.008621 0.008838 0.048795
#
#
# Mechanical properties :
#
#
# Convention : Reuss Voigt Hill
#
# Bulk Modulus (GPa) = 23.60535 32.23968 27.92252
# Shear Modulus (GPa) = 25.85490 39.77585 32.81538
#
# Velocity S-wave (km/s) = 3.22507 4.00016 3.63334
# Velocity P-wave (km/s) = 4.83365 5.85701 5.36977
#
# Compressibility (1/GPa) = 0.04236327
#
# Stress axis : x y z
#
# Youngs Moduli (GPa) = 29.71164 94.99269 62.23026
#
# Poissons Ratio (x) = -0.19716 0.61213
# Poissons Ratio (y) = -0.06167 0.07368
# Poissons Ratio (z) = 0.29226 0.11247
#
# Static dielectric constant tensor:
#      x y z
#    x 2.013130 -0.013020 -0.020150 
#    y -0.013020 1.975420 -0.029330 
#    z -0.020150 -0.029330 1.975780 
# 
# From -- ./inp_files/433845.got.cif
#   From: 2010.05.17/outbox.cif.g08.bks.cpg/sg2_217_cif.got.tgz:433845.got - 2010.06.03 11:33:40.
