data_PCOD9015788
_publ_section_title
;
Structure prediction by ZEFSAII (Michael W. Deem and Ramdas Pophale) SiO2 
 PCOD9015788
Probable space group: P -1
;
_chemical_formula_sum "Si O2"
_cell_formula_units_Z 15
_cell_length_a 17.720856
_cell_length_b 7.840514
_cell_length_c 17.083078
_cell_angle_alpha 90.569265
_cell_angle_beta 157.364064
_cell_angle_gamma 75.177922
_cell_volume 701.210400
_symmetry_space_group_name_H-M "P -1"
_symmetry_group_IT_number 2
_symmetry_cell_setting 'triclinic'
loop_
_space_group_symop_operation_xyz
x,y,z
-x,-y,-z
loop_
_atom_site_type_symbol
_atom_site_label
_atom_site_fract_x
_atom_site_fract_y
_atom_site_fract_z
Si Si1 0.000000 0.500000 0.000000
Si Si2 0.706162 0.188400 0.240980
Si Si3 0.069160 0.976010 0.861715
Si Si4 0.640902 0.735858 0.373639
Si Si5 0.398923 0.846003 0.686346
Si Si6 0.746468 0.572855 0.301355
Si Si7 0.222386 0.562415 0.350641
Si Si8 0.262500 0.534165 0.108072
O O1 0.213005 0.482864 0.256892
O O2 0.145283 0.469392 0.056833
O O3 0.615923 0.152928 0.234994
O O4 0.704271 0.392985 0.254976
O O5 0.514193 0.224676 0.991011
O O6 0.000000 0.000000 0.500000
O O7 0.351032 0.828944 0.096202
O O8 0.066672 0.797262 0.903792
O O9 0.856439 0.099673 0.591640
O O10 0.004486 0.172443 0.855699
O O11 0.764094 0.618941 0.408400
O O12 0.776364 0.573036 0.576787
O O13 0.615692 0.952525 0.356062
O O14 0.637972 0.614747 0.875977
O O15 0.000000 0.500000 0.500000
O O16 0.485086 0.519490 0.614299
#
# Coordination Sequence:
#
# PCOD9015788 Si02
#       8
#     1   2   2   2   2   2   2   2
#     4  12  22  40  64  90 126 158 202 260 312 368
#     4  11  24  42  64  95 130 169 215 265 316 373
#     4  10  21  42  65  88 123 166 206 255 312 371
#     4  11  23  41  64  91 123 165 211 254 313 380
#     4  11  23  40  65  93 126 165 210 256 311 374
#     4  11  25  41  62  94 131 169 214 264 316 379
#     4  10  23  41  63  90 120 159 207 256 311 371
#     4  10  23  41  62  91 123 164 206 252 311 375
#
# _framework density 21.391584000000002
#
# number of rings (size 3 to 8) (size 9 to 14) (size 15 to 20)
#    0.000    1.333    0.000    6.000    0.000    9.067 
#    0.000   12.667    0.000    0.000    0.000    0.000 
#    0.000    0.000    0.000    0.000    0.000    0.000 
#
# Total GULP energy -83570.984150 kJ/mol
# GULP energy per Si atom -5571.398943 kJ/mol
# Density = 2.134290 g / cm^3
# Si number density = 21.391584 Si / 1000 Ang^3
#
#
#
# Elastic Constant Matrix: (Units=GPa)
#
#
# Indices 1 2 3 4 5 6 
#
# 1 119.6898 26.9364 30.4513 -14.8399 4.8776 -17.5374
# 2 26.9364 69.6729 8.2477 -8.8620 -21.4729 14.8695
# 3 30.4513 8.2477 66.2675 -7.2125 2.3759 -10.7493
# 4 -14.8399 -8.8620 -7.2125 34.4369 4.6118 -5.0052
# 5 4.8776 -21.4729 2.3759 4.6118 23.7447 22.3712
# 6 -17.5374 14.8695 -10.7493 -5.0052 22.3712 20.7474
#
#
#
# Elastic Compliance Matrix: (Units=1/GPa)
#
#
# Indices 1 2 3 4 5 6 
#
# 1 0.007502 0.002646 -0.005536 0.000174 0.009685 -0.008825
# 2 0.002646 0.004972 0.002727 0.007934 -0.016008 0.019261
# 3 -0.005536 0.002727 0.016540 0.000503 0.005424 -0.003792
# 4 0.000174 0.007934 0.000503 0.028948 0.008811 -0.007795
# 5 0.009685 -0.016008 0.005424 0.008811 -0.013920 0.039605
# 6 -0.008825 0.019261 -0.003792 -0.007795 0.039605 -0.019615
#
#
# Mechanical properties :
#
#
# Convention : Reuss Voigt Hill
#
# Bulk Modulus (GPa) = 34.85878 42.98900 38.92389
# Shear Modulus (GPa) = 145.70492 28.45212 87.07852
#
# Velocity S-wave (km/s) = 8.26203 3.65096 6.38712
# Velocity P-wave (km/s) = 10.36078 6.15731 8.52227
#
# Compressibility (1/GPa) = 0.02868718
#
# Stress axis : x y z
#
# Youngs Moduli (GPa) = 133.29748 201.13368 60.45945
#
# Poissons Ratio (x) = -0.53210 0.33472
# Poissons Ratio (y) = -0.35264 -0.16490
# Poissons Ratio (z) = 0.73797 -0.54858
#
# Static dielectric constant tensor:
#      x y z
#    x 1.712950 0.076020 0.038380 
#    y 0.076020 1.778130 -0.080740 
#    z 0.038380 -0.080740 1.680560 
# 
# From -- ./inp_files/506909.got.cif
#   From: 2010.05.17/outbox.cif.g08.bks.cpg/sg2_254_cif.got.tgz:506909.got - 2010.06.03 11:33:40.
