data_PCOD9015237
_publ_section_title
;
Structure prediction by ZEFSAII (Michael W. Deem and Ramdas Pophale) SiO2 
 PCOD9015237
Probable space group: P -1
;
_chemical_formula_sum "Si O2"
_cell_formula_units_Z 16
_cell_length_a 5.828434
_cell_length_b 9.454541
_cell_length_c 13.433170
_cell_angle_alpha 79.572760
_cell_angle_beta 79.407948
_cell_angle_gamma 104.006203
_cell_volume 685.978662
_symmetry_space_group_name_H-M "P -1"
_symmetry_group_IT_number 2
_symmetry_cell_setting 'triclinic'
loop_
_space_group_symop_operation_xyz
x,y,z
-x,-y,-z
loop_
_atom_site_type_symbol
_atom_site_label
_atom_site_fract_x
_atom_site_fract_y
_atom_site_fract_z
Si Si1 0.111920 0.597210 0.218911
Si Si2 0.778437 0.082181 0.584130
Si Si3 0.806785 0.561508 0.065055
Si Si4 0.303824 0.334126 0.144444
Si Si5 0.546973 0.799827 0.249249
Si Si6 0.661408 0.525113 0.383681
Si Si7 0.049085 0.960134 0.733834
Si Si8 0.637603 0.200954 0.387739
O O1 0.166868 0.442808 0.198953
O O2 0.364773 0.728448 0.183940
O O3 0.936544 0.635389 0.144884
O O4 0.959012 0.577104 0.337844
O O5 0.610689 0.129077 0.673185
O O6 0.793681 0.195250 0.476626
O O7 0.005137 0.058155 0.630385
O O8 0.623957 0.922281 0.571544
O O9 0.583210 0.420296 0.129000
O O10 0.727724 0.658475 0.973816
O O11 0.000000 0.500000 0.000000
O O12 0.204753 0.161593 0.205535
O O13 0.579150 0.652769 0.318174
O O14 0.806133 0.925841 0.208347
O O15 0.500000 0.500000 0.500000
O O16 0.599076 0.362111 0.359332
O O17 0.216350 0.855333 0.702142
#
# Coordination Sequence:
#
# PCOD9015237 Si02
#       8
#     2   2   2   2   2   2   2   2
#     4  11  23  42  66  99 137 177 221 285 334 395
#     4  10  22  40  61  91 135 182 224 279 329 400
#     4   9  21  41  70 104 133 165 220 286 337 405
#     4  10  21  41  73 105 129 169 229 275 342 407
#     4  11  25  42  60  95 140 182 223 273 340 396
#     4  12  24  42  66  96 137 183 234 279 327 394
#     4  11  23  42  67  96 135 181 221 279 339 404
#     4  10  22  41  62  93 130 180 236 275 331 386
#
# _framework density 23.324342000000001
#
# number of rings (size 3 to 8) (size 9 to 14) (size 15 to 20)
#    0.000    1.500    2.500    1.875    3.500    1.500 
#    4.500    0.625    0.000   12.750    0.000    0.000 
#    0.000    0.000    0.000    0.000    0.000    0.000 
#
# Total GULP energy -89308.939855 kJ/mol
# GULP energy per Si atom -5581.808741 kJ/mol
# Density = 2.327125 g / cm^3
# Si number density = 23.324342 Si / 1000 Ang^3
#
#
#
# Elastic Constant Matrix: (Units=GPa)
#
#
# Indices 1 2 3 4 5 6 
#
# 1 99.0585 46.7254 36.6811 4.7430 -1.8424 13.7013
# 2 46.7254 125.1237 30.4105 3.5724 11.5247 0.2540
# 3 36.6811 30.4105 84.1719 -1.5987 -3.8413 8.7443
# 4 4.7430 3.5724 -1.5987 19.4362 -1.3496 -3.3775
# 5 -1.8424 11.5247 -3.8413 -1.3496 38.2360 16.2320
# 6 13.7013 0.2540 8.7443 -3.3775 16.2320 42.6537
#
#
#
# Elastic Compliance Matrix: (Units=1/GPa)
#
#
# Indices 1 2 3 4 5 6 
#
# 1 0.014944 -0.004857 -0.004039 -0.003810 0.004110 -0.005809
# 2 -0.004857 0.010941 -0.002525 -0.000712 -0.005535 0.004063
# 3 -0.004039 -0.002525 0.015051 0.002424 0.003381 -0.002868
# 4 -0.003810 -0.000712 0.002424 0.053575 0.000065 0.004949
# 5 0.004110 -0.005535 0.003381 0.000065 0.034827 -0.015229
# 6 -0.005809 0.004063 -0.002868 0.004949 -0.015229 0.032062
#
#
# Mechanical properties :
#
#
# Convention : Reuss Voigt Hill
#
# Bulk Modulus (GPa) = 55.26281 59.55425 57.40853
# Shear Modulus (GPa) = 26.27811 33.03432 29.65621
#
# Velocity S-wave (km/s) = 3.36019 3.76746 3.56964
# Velocity P-wave (km/s) = 6.22889 6.67185 6.45417
#
# Compressibility (1/GPa) = 0.01809535
#
# Stress axis : x y z
#
# Youngs Moduli (GPa) = 66.91632 91.39652 66.44065
#
# Poissons Ratio (x) = 0.44391 0.26835
# Poissons Ratio (y) = 0.32501 0.16774
# Poissons Ratio (z) = 0.27028 0.23074
#
# Static dielectric constant tensor:
#      x y z
#    x 1.955650 0.037630 0.010290 
#    y 0.037630 1.870040 0.003240 
#    z 0.010290 0.003240 1.946700 
# 
# From -- ./inp_files/480529.got.cif
#   From: 2010.05.17/outbox.cif.g08.bks.cpg/sg2_241_cif.got.tgz:480529.got - 2010.06.03 11:33:40.
