data_PCOD9015748
_publ_section_title
;
Structure prediction by ZEFSAII (Michael W. Deem and Ramdas Pophale) SiO2 
 PCOD9015748
Probable space group: P -1
;
_chemical_formula_sum "Si O2"
_cell_formula_units_Z 13
_cell_length_a 14.109649
_cell_length_b 4.794892
_cell_length_c 14.207711
_cell_angle_alpha 67.524741
_cell_angle_beta 146.821057
_cell_angle_gamma 112.598822
_cell_volume 482.126429
_symmetry_space_group_name_H-M "P -1"
_symmetry_group_IT_number 2
_symmetry_cell_setting 'triclinic'
loop_
_space_group_symop_operation_xyz
x,y,z
-x,-y,-z
loop_
_atom_site_type_symbol
_atom_site_label
_atom_site_fract_x
_atom_site_fract_y
_atom_site_fract_z
Si Si1 0.133762 0.411413 0.257963
Si Si2 0.434645 0.049012 0.597503
Si Si3 0.319781 0.799066 0.910972
Si Si4 0.000000 0.000000 0.000000
Si Si5 0.178767 0.370438 0.687093
Si Si6 0.710828 0.599302 0.432376
Si Si7 0.231359 0.634179 0.072928
O O1 0.306427 0.247243 0.408397
O O2 0.128206 0.751397 0.176504
O O3 0.120729 0.428222 0.359049
O O4 0.956606 0.221495 0.091806
O O5 0.343074 0.081284 0.620080
O O6 0.416767 0.698998 0.600466
O O7 0.623334 0.211456 0.756737
O O8 0.278600 0.526125 0.839132
O O9 0.305182 0.687900 0.021352
O O10 0.167872 0.014187 0.743127
O O11 0.500000 0.000000 0.000000
O O12 0.835047 0.714652 0.914532
O O13 0.279834 0.415901 0.667421
O O14 0.000000 0.500000 0.500000
#
# Coordination Sequence:
#
# PCOD9015748 Si02
#       7
#     2   2   2   1   2   2   2
#     4   8  21  41  69  95 132 172 224 272 333 394
#     4  10  22  41  70  93 138 173 217 284 327 402
#     4  12  26  43  67 102 139 178 228 277 335 408
#     4   8  20  44  72  98 128 178 226 276 336 400
#     4  12  25  39  68  98 137 183 224 274 340 400
#     4  10  21  42  64  99 136 173 226 267 337 401
#     4  10  21  44  69 100 136 176 228 274 339 395
#
# _framework density 26.963881000000001
#
# number of rings (size 3 to 8) (size 9 to 14) (size 15 to 20)
#    1.846    0.000    0.000    4.615    2.154    1.846 
#    2.769    1.538    3.385    0.000    0.000    0.000 
#    0.000    0.000    0.000    0.000    0.000    0.000 
#
# Total GULP energy -72456.346932 kJ/mol
# GULP energy per Si atom -5573.565149 kJ/mol
# Density = 2.690251 g / cm^3
# Si number density = 26.963881 Si / 1000 Ang^3
#
#
#
# Elastic Constant Matrix: (Units=GPa)
#
#
# Indices 1 2 3 4 5 6 
#
# 1 100.0750 22.1593 33.6465 -7.9617 -3.7429 22.7364
# 2 22.1593 141.0181 52.0145 0.6968 -0.7781 11.4397
# 3 33.6465 52.0145 172.8614 3.1747 -2.9256 18.4714
# 4 -7.9617 0.6968 3.1747 42.2792 -0.4007 4.4046
# 5 -3.7429 -0.7781 -2.9256 -0.4007 35.6973 -1.1088
# 6 22.7364 11.4397 18.4714 4.4046 -1.1088 48.2063
#
#
#
# Elastic Compliance Matrix: (Units=1/GPa)
#
#
# Indices 1 2 3 4 5 6 
#
# 1 0.012175 -0.000921 -0.001578 0.002974 0.001000 -0.005168
# 2 -0.000921 0.008095 -0.002188 -0.000077 -0.000120 -0.000644
# 3 -0.001578 -0.002188 0.006908 -0.000640 0.000305 -0.001318
# 4 0.002974 -0.000077 -0.000640 0.024618 0.000429 -0.003379
# 5 0.001000 -0.000120 0.000305 0.000429 0.028147 0.000048
# 6 -0.005168 -0.000644 -0.001318 -0.003379 0.000048 0.024149
#
#
# Mechanical properties :
#
#
# Convention : Reuss Voigt Hill
#
# Bulk Modulus (GPa) = 56.16860 69.95499 63.06179
# Shear Modulus (GPa) = 41.87524 45.64552 43.76038
#
# Velocity S-wave (km/s) = 3.94510 4.11888 4.03293
# Velocity P-wave (km/s) = 6.45198 6.97284 6.71746
#
# Compressibility (1/GPa) = 0.01780354
#
# Stress axis : x y z
#
# Youngs Moduli (GPa) = 82.13427 123.53060 144.75117
#
# Poissons Ratio (x) = 0.11377 0.22844
# Poissons Ratio (y) = 0.07565 0.31678
# Poissons Ratio (z) = 0.12962 0.27034
#
# Static dielectric constant tensor:
#      x y z
#    x 2.082530 0.077700 0.160460 
#    y 0.077700 1.941910 -0.039210 
#    z 0.160460 -0.039210 2.186530 
# 
# From -- ./inp_files/525576.got.cif
#   From: 2010.05.17/outbox.cif.g08.bks.cpg/sg2_263_cif.got.tgz:525576.got - 2010.06.03 11:33:40.
