data_PCOD9015331
_publ_section_title
;
Structure prediction by ZEFSAII (Michael W. Deem and Ramdas Pophale) SiO2 
 PCOD9015331
Probable space group: P -1
;
_chemical_formula_sum "Si O2"
_cell_formula_units_Z 16
_cell_length_a 16.056000
_cell_length_b 11.672605
_cell_length_c 22.532211
_cell_angle_alpha 24.369252
_cell_angle_beta 21.847630
_cell_angle_gamma 26.873162
_cell_volume 617.940678
_symmetry_space_group_name_H-M "P -1"
_symmetry_group_IT_number 2
_symmetry_cell_setting 'triclinic'
loop_
_space_group_symop_operation_xyz
x,y,z
-x,-y,-z
loop_
_atom_site_type_symbol
_atom_site_label
_atom_site_fract_x
_atom_site_fract_y
_atom_site_fract_z
Si Si1 0.153207 0.734737 0.657581
Si Si2 0.708256 0.931225 0.691105
Si Si3 0.721788 0.799615 0.087119
Si Si4 0.214342 0.219631 0.476564
Si Si5 0.613081 0.148921 0.162240
Si Si6 0.067222 0.352932 0.746131
Si Si7 0.809733 0.050198 0.258076
Si Si8 0.304521 0.306112 0.980944
O O1 0.278706 0.460745 0.744854
O O2 0.897984 0.697611 0.837424
O O3 0.257250 0.801978 0.495761
O O4 0.135126 0.015605 0.578086
O O5 0.538113 0.818170 0.812746
O O6 0.962898 0.696014 0.641760
O O7 0.547554 0.001974 0.822299
O O8 0.780545 0.696606 0.029818
O O9 0.924260 0.933159 0.912684
O O10 0.427267 0.290469 0.269262
O O11 0.000000 0.500000 0.500000
O O12 0.281000 0.046375 0.575462
O O13 0.829294 0.275035 0.956337
O O14 0.736024 0.807515 0.260040
O O15 0.163960 0.182042 0.701900
O O16 0.658024 0.379516 0.186817
O O17 0.500000 0.000000 0.000000
#
# Coordination Sequence:
#
# PCOD9015331 Si02
#       8
#     2   2   2   2   2   2   2   2
#     4  10  21  42  60  93 125 162 219 259 318 387
#     4  11  23  41  70  92 127 174 216 262 328 388
#     4  11  21  42  67  87 124 176 209 261 323 383
#     4  11  22  37  68  94 125 171 215 264 326 385
#     4  10  24  41  61  97 134 164 216 266 324 382
#     4  11  24  42  64  98 130 172 215 270 323 385
#     4  11  21  41  63  90 128 163 215 262 319 383
#     4  11  24  41  64  95 127 170 213 266 322 387
#
# _framework density 25.892451999999999
#
# number of rings (size 3 to 8) (size 9 to 14) (size 15 to 20)
#    0.000    1.250    3.750    3.000    1.750    4.500 
#    0.000    0.625    0.000    0.000    0.000    0.000 
#    0.000    0.000    0.000    0.000    0.000    0.000 
#
# Total GULP energy -89647.676091 kJ/mol
# GULP energy per Si atom -5602.979756 kJ/mol
# Density = 2.583352 g / cm^3
# Si number density = 25.892452 Si / 1000 Ang^3
#
#
#
# Elastic Constant Matrix: (Units=GPa)
#
#
# Indices 1 2 3 4 5 6 
#
# 1 97.9331 18.8110 4.0498 -6.3500 2.8742 -6.1547
# 2 18.8110 132.4835 13.6016 12.6949 6.2777 -15.6340
# 3 4.0498 13.6016 108.2342 20.2170 21.0482 9.2493
# 4 -6.3500 12.6949 20.2170 40.0697 8.1911 9.8650
# 5 2.8742 6.2777 21.0482 8.1911 18.6924 -2.9289
# 6 -6.1547 -15.6340 9.2493 9.8650 -2.9289 38.4283
#
#
#
# Elastic Compliance Matrix: (Units=1/GPa)
#
#
# Indices 1 2 3 4 5 6 
#
# 1 0.010789 -0.001628 -0.000378 0.002710 -0.001823 0.000322
# 2 -0.001628 0.008738 -0.000831 -0.003857 0.000652 0.004534
# 3 -0.000378 -0.000831 0.012800 -0.002529 -0.013573 -0.003865
# 4 0.002710 -0.003857 -0.002529 0.032810 -0.012199 -0.009879
# 5 -0.001823 0.000652 -0.013573 -0.012199 0.076096 0.012172
# 6 0.000322 0.004534 -0.003865 -0.009879 0.012172 0.032313
#
#
# Mechanical properties :
#
#
# Convention : Reuss Voigt Hill
#
# Bulk Modulus (GPa) = 37.52042 45.73061 41.62552
# Shear Modulus (GPa) = 26.58093 39.58398 33.08246
#
# Velocity S-wave (km/s) = 3.20752 3.91421 3.57835
# Velocity P-wave (km/s) = 5.31412 6.17480 5.76056
#
# Compressibility (1/GPa) = 0.02665215
#
# Stress axis : x y z
#
# Youngs Moduli (GPa) = 92.68765 114.43793 78.12481
#
# Poissons Ratio (x) = 0.18635 0.02954
# Poissons Ratio (y) = 0.15093 0.06493
# Poissons Ratio (z) = 0.03505 0.09510
#
# Static dielectric constant tensor:
#      x y z
#    x 2.047280 -0.027670 -0.043320 
#    y -0.027670 2.118590 -0.039910 
#    z -0.043320 -0.039910 2.012370 
# 
# From -- ./inp_files/620830.got.cif
#   From: 2010.05.17/outbox.cif.g08.bks.cpg/sg2_311_cif.got.tgz:620830.got - 2010.06.03 11:33:40.
