data_PCOD9015294
_publ_section_title
;
Structure prediction by ZEFSAII (Michael W. Deem and Ramdas Pophale) SiO2 
 PCOD9015294
Probable space group: P -1
;
_chemical_formula_sum "Si O2"
_cell_formula_units_Z 12
_cell_length_a 18.036561
_cell_length_b 10.084689
_cell_length_c 5.854902
_cell_angle_alpha 124.628776
_cell_angle_beta 77.120453
_cell_angle_gamma 141.622520
_cell_volume 489.695193
_symmetry_space_group_name_H-M "P -1"
_symmetry_group_IT_number 2
_symmetry_cell_setting 'triclinic'
loop_
_space_group_symop_operation_xyz
x,y,z
-x,-y,-z
loop_
_atom_site_type_symbol
_atom_site_label
_atom_site_fract_x
_atom_site_fract_y
_atom_site_fract_z
Si Si1 0.836122 0.776506 0.115889
Si Si2 0.042900 0.311870 0.270356
Si Si3 0.856401 0.285843 0.759620
Si Si4 0.572794 0.231879 0.489925
Si Si5 0.438333 0.332811 0.626464
Si Si6 0.238410 0.558806 0.776394
O O1 0.941283 0.810707 0.036649
O O2 0.705877 0.525273 0.810039
O O3 0.793291 0.664683 0.293673
O O4 0.903809 0.054457 0.244292
O O5 0.092705 0.562870 0.372596
O O6 0.141185 0.430821 0.515218
O O7 0.725019 0.941836 0.529132
O O8 0.788892 0.335671 0.943792
O O9 0.000000 0.500000 0.000000
O O10 0.483112 0.226235 0.489023
O O11 0.622918 0.219572 0.226747
O O12 0.500000 0.000000 0.500000
O O13 0.500000 0.500000 0.500000
O O14 0.500000 0.500000 0.000000
#
# Coordination Sequence:
#
# PCOD9015294 Si02
#       6
#     2   2   2   2   2   2
#     4   9  19  35  64 105 141 188 251 325 390 460
#     4   9  19  38  64 102 148 191 255 317 393 464
#     4  11  27  48  76 110 158 215 265 327 402 489
#     4  11  25  45  77 107 154 207 272 330 400 484
#     4  12  32  55  80 119 170 215 270 338 420 486
#     4  10  21  41  76 109 144 198 265 330 396 473
#
# _framework density 24.505040999999999
#
# number of rings (size 3 to 8) (size 9 to 14) (size 15 to 20)
#    0.000    1.667    0.000    3.500    9.333    4.667 
#    0.000    0.000    0.000    0.000    0.000    0.000 
#    0.000    0.000    0.000    0.000    0.000    0.000 
#
# Total GULP energy -66844.438181 kJ/mol
# GULP energy per Si atom -5570.369848 kJ/mol
# Density = 2.444927 g / cm^3
# Si number density = 24.505041 Si / 1000 Ang^3
#
#
#
# Elastic Constant Matrix: (Units=GPa)
#
#
# Indices 1 2 3 4 5 6 
#
# 1 117.7670 80.1386 37.1725 8.1252 4.1420 17.9513
# 2 80.1386 262.2648 78.0814 3.5046 21.3898 4.1143
# 3 37.1725 78.0814 98.0689 10.4089 30.4960 9.6618
# 4 8.1252 3.5046 10.4089 45.0071 19.9576 4.3308
# 5 4.1420 21.3898 30.4960 19.9576 50.7063 -6.6023
# 6 17.9513 4.1143 9.6618 4.3308 -6.6023 56.7849
#
#
#
# Elastic Compliance Matrix: (Units=1/GPa)
#
#
# Indices 1 2 3 4 5 6 
#
# 1 0.011728 -0.003030 -0.002200 -0.002039 0.002092 -0.002715
# 2 -0.003030 0.005800 -0.003586 0.000948 -0.000280 0.001043
# 3 -0.002200 -0.003586 0.016992 0.001222 -0.009414 -0.003123
# 4 -0.002039 0.000948 0.001222 0.028051 -0.012428 -0.003216
# 5 0.002092 -0.000280 -0.009414 -0.012428 0.030939 0.005506
# 6 -0.002715 0.001043 -0.003123 -0.003216 0.005506 0.019810
#
#
# Mechanical properties :
#
#
# Convention : Reuss Voigt Hill
#
# Bulk Modulus (GPa) = 59.21134 96.54285 77.87710
# Shear Modulus (GPa) = 36.60844 49.34686 42.97765
#
# Velocity S-wave (km/s) = 3.86931 4.49234 4.19242
# Velocity P-wave (km/s) = 6.64661 8.14806 7.43533
#
# Compressibility (1/GPa) = 0.01688866
#
# Stress axis : x y z
#
# Youngs Moduli (GPa) = 85.26387 172.41197 58.85285
#
# Poissons Ratio (x) = 0.52232 0.12949
# Poissons Ratio (y) = 0.25831 0.21104
# Poissons Ratio (z) = 0.18760 0.61826
#
# Static dielectric constant tensor:
#      x y z
#    x 1.959380 0.047420 -0.111760 
#    y 0.047420 2.017460 -0.045360 
#    z -0.111760 -0.045360 2.104780 
# 
# From -- ./inp_files/107386.got.cif
#   From: 2010.05.17/outbox.cif.g08.bks.cpg/sg2_54_cif.got.tgz:107386.got - 2010.06.03 11:33:40.
