data_PCOD9015894
_publ_section_title
;
Structure prediction by ZEFSAII (Michael W. Deem and Ramdas Pophale) SiO2 
 PCOD9015894
Probable space group: P -1
;
_chemical_formula_sum "Si O2"
_cell_formula_units_Z 16
_cell_length_a 22.757931
_cell_length_b 19.250356
_cell_length_c 9.692471
_cell_angle_alpha 29.777202
_cell_angle_beta 153.310402
_cell_angle_gamma 153.168593
_cell_volume 806.818303
_symmetry_space_group_name_H-M "P -1"
_symmetry_group_IT_number 2
_symmetry_cell_setting 'triclinic'
loop_
_space_group_symop_operation_xyz
x,y,z
-x,-y,-z
loop_
_atom_site_type_symbol
_atom_site_label
_atom_site_fract_x
_atom_site_fract_y
_atom_site_fract_z
Si Si1 0.071601 0.848434 0.300030
Si Si2 0.050726 0.868558 0.816492
Si Si3 0.585398 0.925921 0.722503
Si Si4 0.031213 0.143972 0.637590
Si Si5 0.619280 0.635379 0.910809
Si Si6 0.100516 0.427639 0.784418
Si Si7 0.579447 0.931425 0.381632
Si Si8 0.427092 0.562946 0.127179
O O1 0.065912 0.855091 0.440134
O O2 0.968178 0.668152 0.337061
O O3 0.243839 0.925174 0.482452
O O4 0.015121 0.965928 0.917757
O O5 0.023681 0.823315 0.676745
O O6 0.000000 0.000000 0.500000
O O7 0.937954 0.712740 0.941748
O O8 0.229557 0.951894 0.089125
O O9 0.528062 0.894015 0.497906
O O10 0.500000 0.000000 0.500000
O O11 0.539918 0.750269 0.994010
O O12 0.209460 0.273816 0.822106
O O13 0.577464 0.776820 0.573630
O O14 0.614762 0.552599 0.897700
O O15 0.500000 0.500000 0.000000
O O16 0.000000 0.500000 0.500000
O O17 0.278662 0.547606 0.917779
O O18 0.500000 0.000000 0.000000
O O19 0.500000 0.500000 0.500000
#
# Coordination Sequence:
#
# PCOD9015894 Si02
#       8
#     2   2   2   2   2   2   2   2
#     4  10  21  42  65  96 128 171 228 277 324 401
#     4  12  23  44  75  97 129 180 241 272 331 411
#     4  12  27  46  66 104 147 179 226 287 346 417
#     4  10  22  40  72  96 124 172 231 281 321 393
#     4  11  23  45  67  98 139 171 228 290 338 403
#     4  12  25  45  65  99 144 177 218 290 347 401
#     4  11  25  43  69  97 135 184 225 277 348 411
#     4  12  28  43  72 105 139 184 230 285 352 406
#
# _framework density 19.830983
#
# number of rings (size 3 to 8) (size 9 to 14) (size 15 to 20)
#    0.000    0.750    5.000    2.250    5.250    0.000 
#    0.000    0.625    0.000    0.000    0.000    0.000 
#    0.000    0.000    0.000    0.000    0.000    0.000 
#
# Total GULP energy -89404.275635 kJ/mol
# GULP energy per Si atom -5587.767227 kJ/mol
# Density = 1.978585 g / cm^3
# Si number density = 19.830983 Si / 1000 Ang^3
#
#
#
# Elastic Constant Matrix: (Units=GPa)
#
#
# Indices 1 2 3 4 5 6 
#
# 1 121.5973 21.3097 45.3322 12.9926 -14.8607 0.1219
# 2 21.3097 57.2733 12.6460 0.6242 -6.3429 1.1401
# 3 45.3322 12.6460 87.0588 0.9465 -14.0772 -7.2973
# 4 12.9926 0.6242 0.9465 16.6053 5.0710 -6.0294
# 5 -14.8607 -6.3429 -14.0772 5.0710 38.7184 1.2030
# 6 0.1219 1.1401 -7.2973 -6.0294 1.2030 36.8076
#
#
#
# Elastic Compliance Matrix: (Units=1/GPa)
#
#
# Indices 1 2 3 4 5 6 
#
# 1 0.012551 -0.002801 -0.005624 -0.011733 0.003947 -0.003121
# 2 -0.002801 0.018923 -0.001111 0.000815 0.001537 -0.000714
# 3 -0.005624 -0.001111 0.015251 0.004127 0.002550 0.003669
# 4 -0.011733 0.000815 0.004127 0.078409 -0.013577 0.014120
# 5 0.003947 0.001537 0.002550 -0.013577 0.030386 -0.002772
# 6 -0.003121 -0.000714 0.003669 0.014120 -0.002772 0.030332
#
#
# Mechanical properties :
#
#
# Convention : Reuss Voigt Hill
#
# Bulk Modulus (GPa) = 36.16114 47.16724 41.66419
# Shear Modulus (GPa) = 23.34917 30.86902 27.10909
#
# Velocity S-wave (km/s) = 3.43506 3.94966 3.70132
# Velocity P-wave (km/s) = 5.83156 6.68102 6.27069
#
# Compressibility (1/GPa) = 0.02765399
#
# Stress axis : x y z
#
# Youngs Moduli (GPa) = 79.67776 52.84592 65.56785
#
# Poissons Ratio (x) = 0.14801 0.36876
# Poissons Ratio (y) = 0.22316 0.07282
# Poissons Ratio (z) = 0.44812 0.05869
#
# Static dielectric constant tensor:
#      x y z
#    x 1.724790 -0.015840 -0.020850 
#    y -0.015840 1.697120 0.005890 
#    z -0.020850 0.005890 1.684320 
# 
# From -- ./inp_files/348786.got.cif
#   From: 2010.05.17/outbox.cif.g08.bks.cpg/sg2_175_cif.got.tgz:348786.got - 2010.06.03 11:33:40.
