data_PCOD9015530
_publ_section_title
;
Structure prediction by ZEFSAII (Michael W. Deem and Ramdas Pophale) SiO2 
 PCOD9015530
Probable space group: P -1
;
_chemical_formula_sum "Si O2"
_cell_formula_units_Z 14
_cell_length_a 9.347274
_cell_length_b 10.322217
_cell_length_c 8.004720
_cell_angle_alpha 129.202298
_cell_angle_beta 97.316591
_cell_angle_gamma 106.767168
_cell_volume 520.746786
_symmetry_space_group_name_H-M "P -1"
_symmetry_group_IT_number 2
_symmetry_cell_setting 'triclinic'
loop_
_space_group_symop_operation_xyz
x,y,z
-x,-y,-z
loop_
_atom_site_type_symbol
_atom_site_label
_atom_site_fract_x
_atom_site_fract_y
_atom_site_fract_z
Si Si1 0.526763 0.323439 0.905434
Si Si2 0.003540 0.127336 0.942733
Si Si3 0.323254 0.964313 0.742251
Si Si4 0.964816 0.762768 0.500328
Si Si5 0.845200 0.531246 0.970458
Si Si6 0.356278 0.441096 0.568240
Si Si7 0.345901 0.060535 0.206620
O O1 0.671481 0.344366 0.821614
O O2 0.587945 0.381589 0.154018
O O3 0.500000 0.500000 0.000000
O O4 0.368835 0.120045 0.730679
O O5 0.137346 0.339727 0.083063
O O6 0.005558 0.981258 0.688069
O O7 0.825252 0.118349 0.906467
O O8 0.000000 0.000000 0.000000
O O9 0.145437 0.780616 0.547000
O O10 0.481669 0.933501 0.740810
O O11 0.319312 0.053082 0.995477
O O12 0.863439 0.662553 0.240232
O O13 0.842431 0.639890 0.533691
O O14 0.000000 0.500000 0.000000
O O15 0.500000 0.500000 0.500000
O O16 0.349627 0.239629 0.448473
#
# Coordination Sequence:
#
# PCOD9015530 Si02
#       7
#     2   2   2   2   2   2   2
#     4  11  24  40  67  93 131 171 214 271 332 392
#     4  11  21  41  69  97 128 180 229 266 325 406
#     4  11  21  41  63  98 129 166 218 272 331 393
#     4  10  23  41  68  97 130 180 226 267 334 409
#     4  11  25  45  66  98 139 173 220 284 337 387
#     4  10  21  42  63  93 130 170 218 271 322 395
#     4  10  22  37  67  92 132 167 217 275 327 384
#
# _framework density 26.884464000000001
#
# number of rings (size 3 to 8) (size 9 to 14) (size 15 to 20)
#    0.000    1.429    2.857    2.143    0.000    3.429 
#    0.000    3.571    0.000    0.000    0.000    0.000 
#    0.000    0.000    0.000    0.000    0.000    0.000 
#
# Total GULP energy -78116.754641 kJ/mol
# GULP energy per Si atom -5579.768189 kJ/mol
# Density = 2.682327 g / cm^3
# Si number density = 26.884464 Si / 1000 Ang^3
#
#
#
# Elastic Constant Matrix: (Units=GPa)
#
#
# Indices 1 2 3 4 5 6 
#
# 1 170.2655 43.8595 -9.1712 1.3054 10.8774 51.2632
# 2 43.8595 138.8619 18.5761 -8.0985 16.3354 36.8054
# 3 -9.1712 18.5761 65.0245 -10.5530 5.5837 4.9694
# 4 1.3054 -8.0985 -10.5530 28.6523 6.8399 6.3482
# 5 10.8774 16.3354 5.5837 6.8399 38.6029 7.6897
# 6 51.2632 36.8054 4.9694 6.3482 7.6897 53.5255
#
#
#
# Elastic Compliance Matrix: (Units=1/GPa)
#
#
# Indices 1 2 3 4 5 6 
#
# 1 0.008730 -0.000591 0.002566 0.002548 -0.001380 -0.008298
# 2 -0.000591 0.009857 -0.001420 0.004451 -0.003368 -0.006124
# 3 0.002566 -0.001420 0.017958 0.007693 -0.003370 -0.003577
# 4 0.002548 0.004451 0.007693 0.043337 -0.009400 -0.010005
# 5 -0.001380 -0.003368 -0.003370 -0.009400 0.029713 0.000797
# 6 -0.008298 -0.006124 -0.003577 -0.010005 0.000797 0.032245
#
#
# Mechanical properties :
#
#
# Convention : Reuss Voigt Hill
#
# Bulk Modulus (GPa) = 26.55534 53.40897 39.98215
# Shear Modulus (GPa) = 32.61989 45.54864 39.08426
#
# Velocity S-wave (km/s) = 3.48708 4.12058 3.81699
# Velocity P-wave (km/s) = 5.10999 6.52289 5.85918
#
# Compressibility (1/GPa) = 0.03765721
#
# Stress axis : x y z
#
# Youngs Moduli (GPa) = 114.54273 101.45156 55.68659
#
# Poissons Ratio (x) = 0.05991 -0.14291
# Poissons Ratio (y) = 0.06765 0.07905
# Poissons Ratio (z) = -0.29395 0.14402
#
# Static dielectric constant tensor:
#      x y z
#    x 2.194320 0.028320 0.030700 
#    y 0.028320 2.248120 -0.104410 
#    z 0.030700 -0.104410 2.196300 
# 
# From -- ./inp_files/190725.got.cif
#   From: 2010.05.17/outbox.cif.g08.bks.cpg/sg2_96_cif.got.tgz:190725.got - 2010.06.03 11:33:40.
