data_PCOD9015217
_publ_section_title
;
Structure prediction by ZEFSAII (Michael W. Deem and Ramdas Pophale) SiO2 
 PCOD9015217
Probable space group: P -1
;
_chemical_formula_sum "Si O2"
_cell_formula_units_Z 16
_cell_length_a 18.484949
_cell_length_b 8.967284
_cell_length_c 11.992879
_cell_angle_alpha 137.401758
_cell_angle_beta 149.274817
_cell_angle_gamma 53.313137
_cell_volume 683.865001
_symmetry_space_group_name_H-M "P -1"
_symmetry_group_IT_number 2
_symmetry_cell_setting 'triclinic'
loop_
_space_group_symop_operation_xyz
x,y,z
-x,-y,-z
loop_
_atom_site_type_symbol
_atom_site_label
_atom_site_fract_x
_atom_site_fract_y
_atom_site_fract_z
Si Si1 0.922395 0.750202 0.781137
Si Si2 0.880532 0.721943 0.970421
Si Si3 0.882268 0.130906 0.484018
Si Si4 0.720051 0.115579 0.045551
Si Si5 0.474283 0.763948 0.621275
Si Si6 0.790778 0.441861 0.911776
Si Si7 0.356597 0.218048 0.942045
Si Si8 0.649518 0.566476 0.173553
O O1 0.785401 0.685129 0.485824
O O2 0.054156 0.599489 0.862573
O O3 0.873134 0.702413 0.817689
O O4 0.000000 0.000000 0.000000
O O5 0.796745 0.566852 0.867622
O O6 0.037107 0.724442 0.233303
O O7 0.831304 0.966953 0.057629
O O8 0.766805 0.975974 0.312666
O O9 0.789298 0.217286 0.308568
O O10 0.000000 0.000000 0.500000
O O11 0.585641 0.937909 0.799607
O O12 0.689277 0.327158 0.051387
O O13 0.500000 0.500000 0.500000
O O14 0.505185 0.813989 0.819050
O O15 0.316616 0.775627 0.373079
O O16 0.717916 0.586648 0.985625
O O17 0.386171 0.280598 0.890643
O O18 0.500000 0.500000 0.000000
#
# Coordination Sequence:
#
# PCOD9015217 Si02
#       8
#     2   2   2   2   2   2   2   2
#     4  12  30  46  63 104 148 183 222 282 353 413
#     4  11  21  42  72  99 132 171 232 288 340 406
#     4   9  16  37  69 102 126 161 234 287 333 396
#     4  10  21  41  72  99 130 180 231 280 338 417
#     4   9  18  40  70 104 127 164 237 288 330 394
#     4  11  22  41  73 101 132 173 233 290 343 394
#     4  10  21  42  70  97 134 180 227 284 334 420
#     4  12  30  47  65  98 149 189 225 277 355 417
#
# _framework density 23.396429999999999
#
# number of rings (size 3 to 8) (size 9 to 14) (size 15 to 20)
#    0.000    1.500    5.000    1.875    7.000    0.500 
#    0.000    4.375    0.000    0.000    0.000    0.000 
#    0.000    0.000    0.000    0.000    0.000    0.000 
#
# Total GULP energy -89297.313148 kJ/mol
# GULP energy per Si atom -5581.082072 kJ/mol
# Density = 2.334318 g / cm^3
# Si number density = 23.396430 Si / 1000 Ang^3
#
#
#
# Elastic Constant Matrix: (Units=GPa)
#
#
# Indices 1 2 3 4 5 6 
#
# 1 77.0273 4.3652 27.2916 -5.3510 1.6713 12.9414
# 2 4.3652 80.1846 3.6752 6.4600 8.3426 4.3972
# 3 27.2916 3.6752 164.9783 -1.4527 16.2914 9.2617
# 4 -5.3510 6.4600 -1.4527 26.2717 -3.7786 3.3842
# 5 1.6713 8.3426 16.2914 -3.7786 25.2396 1.4769
# 6 12.9414 4.3972 9.2617 3.3842 1.4769 33.1636
#
#
#
# Elastic Compliance Matrix: (Units=1/GPa)
#
#
# Indices 1 2 3 4 5 6 
#
# 1 0.015036 -0.000919 -0.002287 0.004133 0.001731 -0.005606
# 2 -0.000919 0.013421 0.000378 -0.004099 -0.005182 -0.000877
# 3 -0.002287 0.000378 0.006915 -0.000718 -0.004497 -0.000815
# 4 0.004133 -0.004099 -0.000718 0.041748 0.008116 -0.005491
# 5 0.001731 -0.005182 -0.004497 0.008116 0.045428 -0.001584
# 6 -0.005606 -0.000877 -0.000815 -0.005491 -0.001584 0.033316
#
#
# Mechanical properties :
#
#
# Convention : Reuss Voigt Hill
#
# Bulk Modulus (GPa) = 33.65201 43.65045 38.65123
# Shear Modulus (GPa) = 29.16699 36.05886 32.61292
#
# Velocity S-wave (km/s) = 3.53461 3.93009 3.73758
# Velocity P-wave (km/s) = 5.57428 6.26829 5.93145
#
# Compressibility (1/GPa) = 0.02971591
#
# Stress axis : x y z
#
# Youngs Moduli (GPa) = 66.50639 74.50793 144.61857
#
# Poissons Ratio (x) = 0.06850 0.33070
# Poissons Ratio (y) = 0.06115 -0.05466
# Poissons Ratio (z) = 0.15208 -0.02816
#
# Static dielectric constant tensor:
#      x y z
#    x 1.882160 -0.082560 -0.015870 
#    y -0.082560 2.019110 0.053310 
#    z -0.015870 0.053310 1.965530 
# 
# From -- ./inp_files/226496.got.cif
#   From: 2010.05.17/outbox.cif.g08.bks.cpg/sg2_114_cif.got.tgz:226496.got - 2010.06.03 11:33:40.
