data_PCOD9015905
_publ_section_title
;
Structure prediction by ZEFSAII (Michael W. Deem and Ramdas Pophale) SiO2 
 PCOD9015905
Probable space group: P -1
;
_chemical_formula_sum "Si O2"
_cell_formula_units_Z 16
_cell_length_a 15.939253
_cell_length_b 14.793364
_cell_length_c 15.171061
_cell_angle_alpha 46.657747
_cell_angle_beta 28.848321
_cell_angle_gamma 28.656614
_cell_volume 773.652117
_symmetry_space_group_name_H-M "P -1"
_symmetry_group_IT_number 2
_symmetry_cell_setting 'triclinic'
loop_
_space_group_symop_operation_xyz
x,y,z
-x,-y,-z
loop_
_atom_site_type_symbol
_atom_site_label
_atom_site_fract_x
_atom_site_fract_y
_atom_site_fract_z
Si Si1 0.437530 0.844225 0.826607
Si Si2 0.220919 0.581745 0.223727
Si Si3 0.988131 0.853614 0.842171
Si Si4 0.967576 0.465238 0.954621
Si Si5 0.556282 0.213687 0.509687
Si Si6 0.529628 0.871179 0.990326
Si Si7 0.193673 0.172963 0.407437
Si Si8 0.694838 0.008670 0.337160
O O1 0.696185 0.603422 0.757070
O O2 0.578907 0.895640 0.687738
O O3 0.311590 0.910854 0.800887
O O4 0.185134 0.969801 0.043425
O O5 0.103471 0.646589 0.389033
O O6 0.986382 0.781550 0.248097
O O7 0.500000 0.500000 0.000000
O O8 0.297655 0.738775 0.631890
O O9 0.004364 0.699659 0.957360
O O10 0.780361 0.979315 0.865143
O O11 0.229494 0.379914 0.719818
O O12 0.681084 0.672251 0.033419
O O13 0.000000 0.500000 0.000000
O O14 0.725005 0.016791 0.544929
O O15 0.601220 0.147564 0.411384
O O16 0.731664 0.801082 0.769766
O O17 0.500000 0.000000 0.000000
O O18 0.500000 0.000000 0.500000
#
# Coordination Sequence:
#
# PCOD9015905 Si02
#       8
#     2   2   2   2   2   2   2   2
#     4  11  21  40  66  91 134 182 224 268 327 399
#     4  11  24  38  59  98 138 178 229 280 325 401
#     4  11  25  46  68 103 139 177 227 289 341 406
#     4  12  24  48  75  98 134 176 229 287 352 417
#     4  11  23  44  68 102 142 173 230 289 332 405
#     4  11  23  47  75  96 133 182 223 286 358 412
#     4  10  21  42  65  96 136 181 229 276 336 408
#     4  11  22  40  66  92 134 187 224 266 333 392
#
# _framework density 20.68113
#
# number of rings (size 3 to 8) (size 9 to 14) (size 15 to 20)
#    0.000    1.000    6.250    1.875    1.750    5.500 
#    2.250    1.250    0.000    0.000    0.000    0.000 
#    0.000    0.000    0.000    0.000    0.000    0.000 
#
# Total GULP energy -89331.698016 kJ/mol
# GULP energy per Si atom -5583.231126 kJ/mol
# Density = 2.063406 g / cm^3
# Si number density = 20.681130 Si / 1000 Ang^3
#
#
#
# Elastic Constant Matrix: (Units=GPa)
#
#
# Indices 1 2 3 4 5 6 
#
# 1 114.8542 45.2525 33.1274 0.2657 -2.4611 -16.6896
# 2 45.2525 97.3103 23.4194 14.3526 -0.1962 -9.9330
# 3 33.1274 23.4194 80.4917 3.3231 -31.8993 2.6609
# 4 0.2657 14.3526 3.3231 24.6912 -0.5855 0.6949
# 5 -2.4611 -0.1962 -31.8993 -0.5855 30.2367 -1.4897
# 6 -16.6896 -9.9330 2.6609 0.6949 -1.4897 29.9995
#
#
#
# Elastic Compliance Matrix: (Units=1/GPa)
#
#
# Indices 1 2 3 4 5 6 
#
# 1 0.013097 -0.004297 -0.006720 0.002954 -0.005693 0.006108
# 2 -0.004297 0.014743 -0.004100 -0.008160 -0.004599 0.002815
# 3 -0.006720 -0.004100 0.027931 -0.000453 0.028582 -0.006144
# 4 0.002954 -0.008160 -0.000453 0.045342 0.000487 -0.002044
# 5 -0.005693 -0.004599 0.028582 0.000487 0.062539 -0.004131
# 6 0.006108 0.002815 -0.006144 -0.002044 -0.004131 0.038051
#
#
# Mechanical properties :
#
#
# Convention : Reuss Voigt Hill
#
# Bulk Modulus (GPa) = 39.15802 55.13942 47.14872
# Shear Modulus (GPa) = 20.79447 29.70929 25.25188
#
# Velocity S-wave (km/s) = 3.17437 3.79428 3.49809
# Velocity P-wave (km/s) = 5.69305 6.77606 6.25803
#
# Compressibility (1/GPa) = 0.02553755
#
# Stress axis : x y z
#
# Youngs Moduli (GPa) = 76.35532 67.82947 35.80215
#
# Poissons Ratio (x) = 0.29145 0.24060
# Poissons Ratio (y) = 0.32808 0.14678
# Poissons Ratio (z) = 0.51312 0.27808
#
# Static dielectric constant tensor:
#      x y z
#    x 1.748330 0.013670 0.021660 
#    y 0.013670 1.317560 0.374790 
#    z 0.021660 0.374790 1.400360 
# 
# From -- ./inp_files/534325.got.cif
#   From: 2010.05.17/outbox.cif.g08.bks.cpg/sg2_268_cif.got.tgz:534325.got - 2010.06.03 11:33:40.
