data_PCOD9015552
_publ_section_title
;
Structure prediction by ZEFSAII (Michael W. Deem and Ramdas Pophale) SiO2 
 PCOD9015552
Probable space group: P -1
;
_chemical_formula_sum "Si O2"
_cell_formula_units_Z 14
_cell_length_a 5.526079
_cell_length_b 9.406342
_cell_length_c 18.262331
_cell_angle_alpha 47.927936
_cell_angle_beta 83.857524
_cell_angle_gamma 59.164644
_cell_volume 561.868914
_symmetry_space_group_name_H-M "P -1"
_symmetry_group_IT_number 2
_symmetry_cell_setting 'triclinic'
loop_
_space_group_symop_operation_xyz
x,y,z
-x,-y,-z
loop_
_atom_site_type_symbol
_atom_site_label
_atom_site_fract_x
_atom_site_fract_y
_atom_site_fract_z
Si Si1 0.623262 0.680437 0.158441
Si Si2 0.172037 0.085932 0.508404
Si Si3 0.459437 0.299868 0.094114
Si Si4 0.731723 0.551241 0.437409
Si Si5 0.210005 0.013439 0.933895
Si Si6 0.266066 0.987899 0.205563
Si Si7 0.713506 0.221653 0.254414
O O1 0.377630 0.829561 0.181197
O O2 0.704297 0.424133 0.229556
O O3 0.867748 0.726415 0.156293
O O4 0.521689 0.810478 0.036880
O O5 0.921048 0.366669 0.429095
O O6 0.500000 0.000000 0.500000
O O7 0.240689 0.970581 0.625720
O O8 0.000000 0.000000 0.500000
O O9 0.749996 0.076700 0.117900
O O10 0.430700 0.327751 0.172964
O O11 0.235735 0.229439 0.105208
O O12 0.500000 0.500000 0.000000
O O13 0.500000 0.500000 0.500000
O O14 0.535927 0.810626 0.316424
O O15 0.000000 0.500000 0.500000
O O16 0.000000 0.000000 0.000000
O O17 0.980407 0.085660 0.233202
#
# Coordination Sequence:
#
# PCOD9015552 Si02
#       7
#     2   2   2   2   2   2   2
#     4  10  23  42  65 102 140 188 250 301 367 450
#     4  12  28  51  80 116 154 198 261 327 396 467
#     4  11  24  43  67 108 144 197 250 309 371 454
#     4  12  25  50  79 109 155 200 252 329 394 461
#     4  10  21  42  63  94 144 189 241 306 369 435
#     4  11  26  45  72 106 148 197 256 305 390 462
#     4  12  25  45  77 104 149 197 252 314 386 461
#
# _framework density 24.916841999999999
#
# number of rings (size 3 to 8) (size 9 to 14) (size 15 to 20)
#    0.000    0.857    2.857    3.429    4.000    0.571 
#    5.143    0.000    0.000    0.000    0.000    0.000 
#    0.000    0.000    0.000    0.000    0.000    0.000 
#
# Total GULP energy -78036.233006 kJ/mol
# GULP energy per Si atom -5574.016643 kJ/mol
# Density = 2.486013 g / cm^3
# Si number density = 24.916842 Si / 1000 Ang^3
#
#
#
# Elastic Constant Matrix: (Units=GPa)
#
#
# Indices 1 2 3 4 5 6 
#
# 1 95.6091 65.7232 12.5595 15.9645 -25.4664 -12.7464
# 2 65.7232 170.5730 25.4063 9.9754 -11.7017 14.0844
# 3 12.5595 25.4063 102.3326 11.7104 -14.7656 2.9484
# 4 15.9645 9.9754 11.7104 51.9886 -5.4481 -10.9663
# 5 -25.4664 -11.7017 -14.7656 -5.4481 39.3906 14.1996
# 6 -12.7464 14.0844 2.9484 -10.9663 14.1996 42.4221
#
#
#
# Elastic Compliance Matrix: (Units=1/GPa)
#
#
# Indices 1 2 3 4 5 6 
#
# 1 0.018189 -0.006759 0.000814 -0.002727 0.008160 0.004216
# 2 -0.006759 0.009061 -0.001292 -0.000457 -0.000453 -0.004915
# 3 0.000814 -0.001292 0.011033 -0.002479 0.004776 -0.002333
# 4 -0.002727 -0.000457 -0.002479 0.021734 -0.001898 0.005758
# 5 0.008160 -0.000453 0.004776 -0.001898 0.035724 -0.010178
# 6 0.004216 -0.004915 -0.002333 0.005758 -0.010178 0.031529
#
#
# Mechanical properties :
#
#
# Convention : Reuss Voigt Hill
#
# Bulk Modulus (GPa) = 41.99972 63.98808 52.99390
# Shear Modulus (GPa) = 33.40472 44.41530 38.91001
#
# Velocity S-wave (km/s) = 3.66546 4.22660 3.95599
# Velocity P-wave (km/s) = 5.89972 7.03955 6.49469
#
# Compressibility (1/GPa) = 0.02380968
#
# Stress axis : x y z
#
# Youngs Moduli (GPa) = 54.97765 110.36853 90.63808
#
# Poissons Ratio (x) = 0.74593 -0.07374
# Poissons Ratio (y) = 0.37157 0.11706
# Poissons Ratio (z) = -0.04473 0.14254
#
# Static dielectric constant tensor:
#      x y z
#    x 2.134180 0.090550 0.016400 
#    y 0.090550 2.080130 -0.011960 
#    z 0.016400 -0.011960 1.923010 
# 
# From -- ./inp_files/37726.got.cif
#   From: 2010.05.17/outbox.cif.g08.bks.cpg/sg2_19_cif.got.tgz:37726.got - 2010.06.03 11:33:40.
