data_PCOD9015823
_publ_section_title
;
Structure prediction by ZEFSAII (Michael W. Deem and Ramdas Pophale) SiO2 
 PCOD9015823
Probable space group: P -1
;
_chemical_formula_sum "Si O2"
_cell_formula_units_Z 16
_cell_length_a 7.558856
_cell_length_b 6.722044
_cell_length_c 16.292567
_cell_angle_alpha 59.061133
_cell_angle_beta 116.845370
_cell_angle_gamma 106.478824
_cell_volume 632.093657
_symmetry_space_group_name_H-M "P -1"
_symmetry_group_IT_number 2
_symmetry_cell_setting 'triclinic'
loop_
_space_group_symop_operation_xyz
x,y,z
-x,-y,-z
loop_
_atom_site_type_symbol
_atom_site_label
_atom_site_fract_x
_atom_site_fract_y
_atom_site_fract_z
Si Si1 0.818625 0.650996 0.406547
Si Si2 0.598558 0.239080 0.386365
Si Si3 0.602830 0.134261 0.917311
Si Si4 0.000424 0.470256 0.232865
Si Si5 0.251345 0.921579 0.795457
Si Si6 0.700245 0.663647 0.820963
Si Si7 0.017114 0.979852 0.902953
Si Si8 0.728276 0.770376 0.537509
O O1 0.698631 0.496017 0.346791
O O2 0.862288 0.902881 0.323373
O O3 0.695275 0.677041 0.458755
O O4 0.000000 0.500000 0.500000
O O5 0.459356 0.185143 0.290291
O O6 0.457726 0.247957 0.435266
O O7 0.757741 0.049090 0.473276
O O8 0.472674 0.037197 0.833244
O O9 0.604837 0.408813 0.876552
O O10 0.500000 0.000000 0.000000
O O11 0.833167 0.073002 0.980051
O O12 0.147400 0.396787 0.206947
O O13 0.097399 0.365112 0.356401
O O14 0.004357 0.746935 0.174344
O O15 0.789030 0.333645 0.197646
O O16 0.145669 0.915429 0.862623
O O17 0.824347 0.801800 0.887856
#
# Coordination Sequence:
#
# PCOD9015823 Si02
#       8
#     2   2   2   2   2   2   2   2
#     4  12  23  37  64  94 135 174 213 269 328 385
#     4  10  22  41  64  93 133 173 220 269 315 390
#     4  10  21  42  66  90 126 164 210 268 326 381
#     4  10  22  40  63  93 130 163 214 262 312 391
#     4  10  22  40  60  92 132 162 209 269 316 381
#     4  10  21  42  65  92 125 162 217 265 317 382
#     4  10  22  40  67  90 122 174 208 263 328 376
#     4  10  23  40  63  94 133 177 221 259 318 391
#
# _framework density 25.312704
#
# number of rings (size 3 to 8) (size 9 to 14) (size 15 to 20)
#    0.000    1.750    1.250    2.250    0.000   10.000 
#    0.000    0.000    0.000    0.000    0.000    0.000 
#    0.000    0.000    0.000    0.000    0.000    0.000 
#
# Total GULP energy -89505.508472 kJ/mol
# GULP energy per Si atom -5594.094280 kJ/mol
# Density = 2.525509 g / cm^3
# Si number density = 25.312704 Si / 1000 Ang^3
#
#
#
# Elastic Constant Matrix: (Units=GPa)
#
#
# Indices 1 2 3 4 5 6 
#
# 1 52.9557 20.9197 9.6458 -7.5607 10.4054 1.0729
# 2 20.9197 176.2367 62.7244 3.3121 15.9581 27.4420
# 3 9.6458 62.7244 112.8847 -2.9684 22.5514 14.0995
# 4 -7.5607 3.3121 -2.9684 44.0075 0.9377 -2.0006
# 5 10.4054 15.9581 22.5514 0.9377 36.2722 -3.7600
# 6 1.0729 27.4420 14.0995 -2.0006 -3.7600 36.4780
#
#
#
# Elastic Compliance Matrix: (Units=1/GPa)
#
#
# Indices 1 2 3 4 5 6 
#
# 1 0.021377 -0.002445 0.000663 0.004047 -0.005511 0.000608
# 2 -0.002445 0.008097 -0.003489 -0.001462 -0.001159 -0.004870
# 3 0.000663 -0.003489 0.012474 0.001232 -0.006737 -0.002843
# 4 0.004047 -0.001462 0.001232 0.023723 -0.001729 0.001627
# 5 -0.005511 -0.001159 -0.006737 -0.001729 0.034631 0.007113
# 6 0.000608 -0.004870 -0.002843 0.001627 0.007113 0.032981
#
#
# Mechanical properties :
#
#
# Convention : Reuss Voigt Hill
#
# Bulk Modulus (GPa) = 31.84051 58.73965 45.29008
# Shear Modulus (GPa) = 32.40596 39.93737 36.17166
#
# Velocity S-wave (km/s) = 3.58190 3.97641 3.78430
# Velocity P-wave (km/s) = 5.45095 6.65871 6.08487
#
# Compressibility (1/GPa) = 0.03140654
#
# Stress axis : x y z
#
# Youngs Moduli (GPa) = 46.77904 123.50396 80.16738
#
# Poissons Ratio (x) = 0.30202 -0.05319
# Poissons Ratio (y) = 0.11440 0.27968
# Poissons Ratio (z) = -0.03104 0.43087
#
# Static dielectric constant tensor:
#      x y z
#    x 2.108560 0.013290 0.013520 
#    y 0.013290 1.987410 0.040390 
#    z 0.013520 0.040390 1.959480 
# 
# From -- ./inp_files/553290.got.cif
#   From: 2010.05.17/outbox.cif.g08.bks.cpg/sg2_277_cif.got.tgz:553290.got - 2010.06.03 11:33:40.
