data_PCOD9015792
_publ_section_title
;
Structure prediction by ZEFSAII (Michael W. Deem and Ramdas Pophale) SiO2 
 PCOD9015792
Probable space group: P -1
;
_chemical_formula_sum "Si O2"
_cell_formula_units_Z 16
_cell_length_a 21.393232
_cell_length_b 12.629378
_cell_length_c 8.998638
_cell_angle_alpha 147.381014
_cell_angle_beta 45.134284
_cell_angle_gamma 146.522858
_cell_volume 722.888071
_symmetry_space_group_name_H-M "P -1"
_symmetry_group_IT_number 2
_symmetry_cell_setting 'triclinic'
loop_
_space_group_symop_operation_xyz
x,y,z
-x,-y,-z
loop_
_atom_site_type_symbol
_atom_site_label
_atom_site_fract_x
_atom_site_fract_y
_atom_site_fract_z
Si Si1 0.958201 0.455550 0.351517
Si Si2 0.431396 0.472994 0.227891
Si Si3 0.123940 0.265283 0.103631
Si Si4 0.623416 0.952995 0.605796
Si Si5 0.236467 0.483717 0.858845
Si Si6 0.117298 0.622213 0.035212
Si Si7 0.769534 0.904725 0.074093
Si Si8 0.330322 0.177958 0.312382
O O1 0.881646 0.540949 0.565317
O O2 0.000000 0.500000 0.500000
O O3 0.074479 0.644372 0.291008
O O4 0.879907 0.155502 0.108479
O O5 0.497040 0.752511 0.514509
O O6 0.424413 0.305141 0.175511
O O7 0.500000 0.500000 0.000000
O O8 0.306086 0.302816 0.170287
O O9 0.157771 0.353076 0.981633
O O10 0.202554 0.219778 0.998441
O O11 0.000000 0.000000 0.000000
O O12 0.704084 0.980489 0.370841
O O13 0.631288 0.832427 0.599962
O O14 0.667965 0.225541 0.907383
O O15 0.289281 0.345682 0.579374
O O16 0.164981 0.475245 0.830442
O O17 0.222799 0.890674 0.114757
O O18 0.000000 0.500000 0.000000
#
# Coordination Sequence:
#
# PCOD9015792 Si02
#       8
#     2   2   2   2   2   2   2   2
#     4  12  20  36  61  89 125 166 205 245 295 365
#     4  10  24  43  66  90 121 160 204 263 317 361
#     4  12  21  33  61  93 122 164 204 244 298 360
#     4  10  21  42  65  89 118 164 210 254 308 358
#     4  11  22  38  63  91 124 160 209 255 293 370
#     4  11  24  39  59  93 129 166 202 247 309 363
#     4  11  21  39  60  92 129 159 204 257 303 357
#     4  11  22  41  67  88 123 161 205 254 309 368
#
# _framework density 22.13344
#
# number of rings (size 3 to 8) (size 9 to 14) (size 15 to 20)
#    0.000    1.000    5.000    2.625    0.000    2.000 
#    0.000    1.875    0.000    0.000    0.000    0.000 
#    0.000    0.000    0.000    0.000    0.000    0.000 
#
# Total GULP energy -89304.640335 kJ/mol
# GULP energy per Si atom -5581.540021 kJ/mol
# Density = 2.208306 g / cm^3
# Si number density = 22.133440 Si / 1000 Ang^3
#
#
#
# Elastic Constant Matrix: (Units=GPa)
#
#
# Indices 1 2 3 4 5 6 
#
# 1 83.7993 9.5860 37.0020 37.4005 20.3888 -0.2351
# 2 9.5860 123.2211 16.6659 16.4213 9.8139 -16.1958
# 3 37.0020 16.6659 53.8065 15.3722 -11.9820 -5.3858
# 4 37.4005 16.4213 15.3722 40.2149 1.6756 9.9958
# 5 20.3888 9.8139 -11.9820 1.6756 38.6153 9.0058
# 6 -0.2351 -16.1958 -5.3858 9.9958 9.0058 34.2400
#
#
#
# Elastic Compliance Matrix: (Units=1/GPa)
#
#
# Indices 1 2 3 4 5 6 
#
# 1 0.092701 0.024801 -0.061684 -0.081267 -0.082051 0.047971
# 2 0.024801 0.017060 -0.018615 -0.026816 -0.026749 0.020176
# 3 -0.061684 -0.018615 0.065043 0.044564 0.062162 -0.028358
# 4 -0.081267 -0.026816 0.044564 0.105257 0.072023 -0.055904
# 5 -0.082051 -0.026749 0.062162 0.072023 0.104282 -0.051892
# 6 0.047971 0.020176 -0.028358 -0.055904 -0.051892 0.064587
#
#
# Mechanical properties :
#
#
# Convention : Reuss Voigt Hill
#
# Bulk Modulus (GPa) = 15.67198 43.03718 29.35458
# Shear Modulus (GPa) = 8.60297 35.78556 22.19427
#
# Velocity S-wave (km/s) = 1.97365 4.02532 3.17006
# Velocity P-wave (km/s) = 3.50568 6.41022 5.16627
#
# Compressibility (1/GPa) = 0.06380815
#
# Stress axis : x y z
#
# Youngs Moduli (GPa) = 10.78732 58.61731 15.37453
#
# Poissons Ratio (x) = -1.45379 0.94836
# Poissons Ratio (y) = -0.26754 0.28620
# Poissons Ratio (z) = 0.66540 1.09119
#
# Static dielectric constant tensor:
#      x y z
#    x 2.035420 -0.153360 -0.010190 
#    y -0.153360 2.021600 -0.031120 
#    z -0.010190 -0.031120 1.876780 
# 
# From -- ./inp_files/312763.got.cif
#   From: 2010.05.17/outbox.cif.g08.bks.cpg/sg2_157_cif.got.tgz:312763.got - 2010.06.03 11:33:40.
