data_PCOD9015041
_publ_section_title
;
Structure prediction by ZEFSAII (Michael W. Deem and Ramdas Pophale) SiO2 
 PCOD9015041
Probable space group: P -1
;
_chemical_formula_sum "Si O2"
_cell_formula_units_Z 14
_cell_length_a 10.924956
_cell_length_b 22.771868
_cell_length_c 9.681845
_cell_angle_alpha 28.573532
_cell_angle_beta 39.858324
_cell_angle_gamma 32.786899
_cell_volume 619.829419
_symmetry_space_group_name_H-M "P -1"
_symmetry_group_IT_number 2
_symmetry_cell_setting 'triclinic'
loop_
_space_group_symop_operation_xyz
x,y,z
-x,-y,-z
loop_
_atom_site_type_symbol
_atom_site_label
_atom_site_fract_x
_atom_site_fract_y
_atom_site_fract_z
Si Si1 0.078855 0.215496 0.722723
Si Si2 0.958751 0.659999 0.201066
Si Si3 0.754263 0.602250 0.935115
Si Si4 0.306846 0.762270 0.171146
Si Si5 0.480906 0.054272 0.059486
Si Si6 0.171388 0.666854 0.728733
Si Si7 0.276245 0.039190 0.532332
O O1 0.859822 0.268581 0.708238
O O2 0.012420 0.281034 0.799244
O O3 0.228084 0.276305 0.411048
O O4 0.254870 0.038715 0.931520
O O5 0.000000 0.500000 0.500000
O O6 0.693773 0.771419 0.154760
O O7 0.124907 0.667284 0.930409
O O8 0.555898 0.670084 0.078934
O O9 0.730810 0.495866 0.072511
O O10 0.000000 0.500000 0.000000
O O11 0.312242 0.721129 0.411732
O O12 0.213808 0.929949 0.872442
O O13 0.343486 0.012281 0.368699
O O14 0.500000 0.000000 0.000000
O O15 0.918344 0.790957 0.635546
O O16 0.500000 0.000000 0.500000
#
# Coordination Sequence:
#
# PCOD9015041 Si02
#       7
#     2   2   2   2   2   2   2
#     4  11  22  43  70  97 130 182 222 269 327 394
#     4  10  21  41  70  98 138 178 216 273 337 390
#     4  12  23  42  69  97 137 175 219 273 333 398
#     4  12  25  43  70  99 133 172 231 270 326 409
#     4   9  20  40  66  95 131 177 224 258 329 398
#     4  11  23  39  64 102 133 167 222 273 329 392
#     4  11  22  42  66  96 132 172 217 280 334 384
#
# _framework density 22.586860999999999
#
# number of rings (size 3 to 8) (size 9 to 14) (size 15 to 20)
#    0.000    1.143    4.286    2.571    0.000    0.000 
#    0.000   10.000    3.143    0.000    0.000    0.000 
#    0.000    0.000    0.000    0.000    0.000    0.000 
#
# Total GULP energy -78167.106433 kJ/mol
# GULP energy per Si atom -5583.364745 kJ/mol
# Density = 2.253545 g / cm^3
# Si number density = 22.586861 Si / 1000 Ang^3
#
#
#
# Elastic Constant Matrix: (Units=GPa)
#
#
# Indices 1 2 3 4 5 6 
#
# 1 43.4491 27.1763 41.4508 17.0340 2.2976 9.4362
# 2 27.1763 149.6006 73.7099 18.4552 12.3763 4.5317
# 3 41.4508 73.7099 154.2799 20.3827 9.4800 20.7157
# 4 17.0340 18.4552 20.3827 60.8589 12.2339 8.4407
# 5 2.2976 12.3763 9.4800 12.2339 25.5738 5.2441
# 6 9.4362 4.5317 20.7157 8.4407 5.2441 31.5447
#
#
#
# Elastic Compliance Matrix: (Units=1/GPa)
#
#
# Indices 1 2 3 4 5 6 
#
# 1 0.034519 -0.002224 -0.006999 -0.007009 0.004811 -0.004334
# 2 -0.002224 0.009264 -0.003904 -0.000620 -0.003068 0.002574
# 3 -0.006999 -0.003904 0.010828 0.000273 -0.000722 -0.004409
# 4 -0.007009 -0.000620 0.000273 0.020494 -0.008554 -0.002056
# 5 0.004811 -0.003068 -0.000722 -0.008554 0.045711 -0.005835
# 6 -0.004334 0.002574 -0.004409 -0.002056 -0.005835 0.037043
#
#
# Mechanical properties :
#
#
# Convention : Reuss Voigt Hill
#
# Bulk Modulus (GPa) = 35.26578 70.22260 52.74419
# Shear Modulus (GPa) = 25.83105 37.26167 31.54636
#
# Velocity S-wave (km/s) = 3.38543 4.06606 3.74126
# Velocity P-wave (km/s) = 5.56137 7.29392 6.48576
#
# Compressibility (1/GPa) = 0.02835610
#
# Stress axis : x y z
#
# Youngs Moduli (GPa) = 28.96990 107.94221 92.35602
#
# Poissons Ratio (x) = 0.24007 0.64643
# Poissons Ratio (y) = 0.06443 0.36054
# Poissons Ratio (z) = 0.20277 0.42139
#
# Static dielectric constant tensor:
#      x y z
#    x 1.858350 0.002750 0.007050 
#    y 0.002750 1.862350 -0.015650 
#    z 0.007050 -0.015650 1.896550 
# 
# From -- ./inp_files/285111.got.cif
#   From: 2010.05.17/outbox.cif.g08.bks.cpg/sg2_143_cif.got.tgz:285111.got - 2010.06.03 11:33:40.
