data_PCOD9015642
_publ_section_title
;
Structure prediction by ZEFSAII (Michael W. Deem and Ramdas Pophale) SiO2 
 PCOD9015642
Probable space group: P -1
;
_chemical_formula_sum "Si O2"
_cell_formula_units_Z 16
_cell_length_a 6.852928
_cell_length_b 12.204329
_cell_length_c 11.258965
_cell_angle_alpha 111.102883
_cell_angle_beta 102.597178
_cell_angle_gamma 72.164124
_cell_volume 830.088608
_symmetry_space_group_name_H-M "P -1"
_symmetry_group_IT_number 2
_symmetry_cell_setting 'triclinic'
loop_
_space_group_symop_operation_xyz
x,y,z
-x,-y,-z
loop_
_atom_site_type_symbol
_atom_site_label
_atom_site_fract_x
_atom_site_fract_y
_atom_site_fract_z
Si Si1 0.550447 0.825879 0.704276
Si Si2 0.440763 0.683982 0.161725
Si Si3 0.998152 0.704875 0.792689
Si Si4 0.811335 0.081995 0.119162
Si Si5 0.825729 0.483732 0.060195
Si Si6 0.734228 0.042570 0.837301
Si Si7 0.177277 0.569798 0.544425
Si Si8 0.436753 0.646132 0.425024
O O1 0.751840 0.742940 0.764751
O O2 0.360866 0.867520 0.786152
O O3 0.493672 0.747391 0.557945
O O4 0.628373 0.944636 0.725218
O O5 0.670505 0.610947 0.124761
O O6 0.374562 0.821434 0.161217
O O7 0.419244 0.682550 0.300472
O O8 0.299288 0.603366 0.053559
O O9 0.097096 0.812740 0.888733
O O10 0.074743 0.587339 0.836927
O O11 0.094134 0.680237 0.664696
O O12 0.718633 0.027576 0.972589
O O13 0.018289 0.993763 0.167069
O O14 0.000000 0.500000 0.000000
O O15 0.234444 0.614875 0.442564
O O16 0.382952 0.477772 0.585882
O O17 0.000000 0.500000 0.500000
#
# Coordination Sequence:
#
# PCOD9015642 Si02
#       8
#     2   2   2   2   2   2   2   2
#     4  11  23  38  67  93 118 162 213 255 309 354
#     4  11  25  44  60  92 133 163 204 250 314 377
#     4  11  21  39  66  94 123 156 209 259 303 367
#     4  10  21  42  64  91 122 156 214 264 299 357
#     4  11  26  40  64  94 128 166 200 252 317 374
#     4  10  23  41  63  88 124 165 205 260 305 364
#     4  11  22  39  62  93 128 162 206 251 305 372
#     4  11  24  38  63  94 126 166 202 255 310 370
#
# _framework density 19.275051000000001
#
# number of rings (size 3 to 8) (size 9 to 14) (size 15 to 20)
#    0.000    1.250    5.000    0.375    3.500    1.500 
#    0.000    0.625    0.000    0.000    0.000    0.000 
#    0.000    0.000    0.000    0.000    0.000    0.000 
#
# Total GULP energy -89319.467080 kJ/mol
# GULP energy per Si atom -5582.466692 kJ/mol
# Density = 1.923118 g / cm^3
# Si number density = 19.275051 Si / 1000 Ang^3
#
#
#
# Elastic Constant Matrix: (Units=GPa)
#
#
# Indices 1 2 3 4 5 6 
#
# 1 127.9037 57.1465 44.2183 -1.9320 -21.4762 -14.7597
# 2 57.1465 124.2054 18.9970 -1.3848 -7.6439 -22.2811
# 3 44.2183 18.9970 76.3961 2.4926 -12.2410 -10.3350
# 4 -1.9320 -1.3848 2.4926 29.1679 3.9576 -0.4764
# 5 -21.4762 -7.6439 -12.2410 3.9576 32.2306 12.4627
# 6 -14.7597 -22.2811 -10.3350 -0.4764 12.4627 29.6132
#
#
#
# Elastic Compliance Matrix: (Units=1/GPa)
#
#
# Indices 1 2 3 4 5 6 
#
# 1 0.012697 -0.004966 -0.005420 0.000242 0.005879 -0.001770
# 2 -0.004966 0.011453 0.000493 0.000778 -0.003520 0.007809
# 3 -0.005420 0.000493 0.016869 -0.002026 0.002148 0.002621
# 4 0.000242 0.000778 -0.002026 0.035369 -0.005955 0.003074
# 5 0.005879 -0.003520 0.002148 -0.005955 0.042154 -0.016805
# 6 -0.001770 0.007809 0.002621 0.003074 -0.016805 0.046798
#
#
# Mechanical properties :
#
#
# Convention : Reuss Voigt Hill
#
# Bulk Modulus (GPa) = 47.09320 63.24763 55.17042
# Shear Modulus (GPa) = 26.01407 32.07858 29.04632
#
# Velocity S-wave (km/s) = 3.67771 4.08395 3.88614
# Velocity P-wave (km/s) = 6.52068 7.42446 6.98720
#
# Compressibility (1/GPa) = 0.02123449
#
# Stress axis : x y z
#
# Youngs Moduli (GPa) = 78.75589 87.31019 59.28136
#
# Poissons Ratio (x) = 0.43359 0.32129
# Poissons Ratio (y) = 0.39111 -0.02924
# Poissons Ratio (z) = 0.42683 -0.04306
#
# Static dielectric constant tensor:
#      x y z
#    x 1.707980 0.055450 0.090960 
#    y 0.055450 1.794700 0.179530 
#    z 0.090960 0.179530 1.852570 
# 
# From -- ./inp_files/76404.got.cif
#   From: 2010.05.17/outbox.cif.g08.bks.cpg/sg2_39_cif.got.tgz:76404.got - 2010.06.03 11:33:40.
