data_PCOD9015964
_publ_section_title
;
Structure prediction by ZEFSAII (Michael W. Deem and Ramdas Pophale) SiO2 
 PCOD9015964
Probable space group: P -1
;
_chemical_formula_sum "Si O2"
_cell_formula_units_Z 16
_cell_length_a 7.621232
_cell_length_b 15.001080
_cell_length_c 9.427004
_cell_angle_alpha 139.722743
_cell_angle_beta 102.968922
_cell_angle_gamma 64.095650
_cell_volume 615.667186
_symmetry_space_group_name_H-M "P -1"
_symmetry_group_IT_number 2
_symmetry_cell_setting 'triclinic'
loop_
_space_group_symop_operation_xyz
x,y,z
-x,-y,-z
loop_
_atom_site_type_symbol
_atom_site_label
_atom_site_fract_x
_atom_site_fract_y
_atom_site_fract_z
Si Si1 0.421771 0.432077 0.774371
Si Si2 0.771918 0.335107 0.565958
Si Si3 0.138263 0.055258 0.187098
Si Si4 0.255064 0.371296 0.913028
Si Si5 0.290204 0.870240 0.263769
Si Si6 0.737515 0.462603 0.418252
Si Si7 0.203234 0.241478 0.195153
Si Si8 0.888160 0.839592 0.220472
O O1 0.617062 0.295276 0.581525
O O2 0.250872 0.398486 0.775470
O O3 0.345991 0.540514 0.756769
O O4 0.780473 0.480092 0.820703
O O5 0.684037 0.392956 0.463224
O O6 0.112997 0.300772 0.861477
O O7 0.980701 0.194563 0.418658
O O8 0.257883 0.119649 0.184028
O O9 0.261485 0.927248 0.165338
O O10 0.000000 0.000000 0.000000
O O11 0.483203 0.248441 0.823476
O O12 0.500000 0.500000 0.000000
O O13 0.110212 0.823994 0.214781
O O14 0.241329 0.012307 0.532620
O O15 0.701289 0.638025 0.646295
O O16 0.971885 0.353901 0.317364
O O17 0.210342 0.162611 0.951064
#
# Coordination Sequence:
#
# PCOD9015964 Si02
#       8
#     2   2   2   2   2   2   2   2
#     4  10  24  38  65 102 143 181 234 295 356 421
#     4  10  23  43  72  99 142 183 237 298 357 410
#     4  11  24  44  67 104 141 185 236 295 356 432
#     4  11  25  48  70 108 141 187 243 297 349 435
#     4  11  27  45  75  98 147 195 232 294 367 431
#     4  10  21  42  66 101 137 184 237 297 360 417
#     4  10  22  41  69  98 137 186 239 294 353 431
#     4  11  24  46  72  99 145 191 238 290 367 420
#
# _framework density 25.988068999999999
#
# number of rings (size 3 to 8) (size 9 to 14) (size 15 to 20)
#    0.000    1.500    2.500    0.750    8.750    2.000 
#    0.000    1.875    0.000    0.000    0.000    0.000 
#    0.000    0.000    0.000    0.000    0.000    0.000 
#
# Total GULP energy -89672.351993 kJ/mol
# GULP energy per Si atom -5604.522000 kJ/mol
# Density = 2.592892 g / cm^3
# Si number density = 25.988069 Si / 1000 Ang^3
#
#
#
# Elastic Constant Matrix: (Units=GPa)
#
#
# Indices 1 2 3 4 5 6 
#
# 1 96.6858 59.9837 37.9428 -4.1080 -3.5423 17.6815
# 2 59.9837 131.5137 26.0785 -24.5902 -11.8077 13.0940
# 3 37.9428 26.0785 139.4586 -2.9551 -4.8177 1.4235
# 4 -4.1080 -24.5902 -2.9551 44.5518 7.2587 -6.8746
# 5 -3.5423 -11.8077 -4.8177 7.2587 30.9989 0.8964
# 6 17.6815 13.0940 1.4235 -6.8746 0.8964 52.2404
#
#
#
# Elastic Compliance Matrix: (Units=1/GPa)
#
#
# Indices 1 2 3 4 5 6 
#
# 1 0.016687 -0.007197 -0.003236 -0.003216 -0.000464 -0.004171
# 2 -0.007197 0.012181 -0.000115 0.005663 0.002471 0.000089
# 3 -0.003236 -0.000115 0.008094 0.000190 0.000773 0.000915
# 4 -0.003216 0.005663 0.000190 0.026517 -0.004483 0.003230
# 5 -0.000464 0.002471 0.000773 -0.004483 0.034366 -0.001663
# 6 -0.004171 0.000089 0.000915 0.003230 -0.001663 0.020961
#
#
# Mechanical properties :
#
#
# Convention : Reuss Voigt Hill
#
# Bulk Modulus (GPa) = 63.02919 68.40757 65.71838
# Shear Modulus (GPa) = 34.43789 41.80175 38.11982
#
# Velocity S-wave (km/s) = 3.64420 4.01496 3.83406
# Velocity P-wave (km/s) = 6.48172 6.91903 6.70394
#
# Compressibility (1/GPa) = 0.01586567
#
# Stress axis : x y z
#
# Youngs Moduli (GPa) = 59.92783 82.09458 123.54962
#
# Poissons Ratio (x) = 0.59083 0.39978
# Poissons Ratio (y) = 0.43130 0.01424
# Poissons Ratio (z) = 0.19391 0.00946
#
# Static dielectric constant tensor:
#      x y z
#    x 2.122310 0.016140 0.040510 
#    y 0.016140 2.076910 0.002390 
#    z 0.040510 0.002390 2.020960 
# 
# From -- ./inp_files/268995.got.cif
#   From: 2010.05.17/outbox.cif.g08.bks.cpg/sg2_135_cif.got.tgz:268995.got - 2010.06.03 11:33:40.
