data_PCOD9015450
_publ_section_title
;
Structure prediction by ZEFSAII (Michael W. Deem and Ramdas Pophale) SiO2 
 PCOD9015450
Probable space group: P -1
;
_chemical_formula_sum "Si O2"
_cell_formula_units_Z 14
_cell_length_a 8.208360
_cell_length_b 13.324781
_cell_length_c 13.541326
_cell_angle_alpha 145.608165
_cell_angle_beta 48.462004
_cell_angle_gamma 133.550037
_cell_volume 589.935680
_symmetry_space_group_name_H-M "P -1"
_symmetry_group_IT_number 2
_symmetry_cell_setting 'triclinic'
loop_
_space_group_symop_operation_xyz
x,y,z
-x,-y,-z
loop_
_atom_site_type_symbol
_atom_site_label
_atom_site_fract_x
_atom_site_fract_y
_atom_site_fract_z
Si Si1 0.589744 0.552624 0.116526
Si Si2 0.114141 0.302465 0.150335
Si Si3 0.324595 0.061544 0.515621
Si Si4 0.745854 0.056218 0.227684
Si Si5 0.149989 0.231165 0.532155
Si Si6 0.942688 0.410889 0.100222
Si Si7 0.382364 0.992362 0.145234
O O1 0.371449 0.444792 0.184393
O O2 0.658698 0.775574 0.281544
O O3 0.500000 0.500000 0.000000
O O4 0.820917 0.499079 0.984055
O O5 0.946509 0.246259 0.266762
O O6 0.007161 0.376195 0.159620
O O7 0.145151 0.108377 0.942249
O O8 0.579793 0.059632 0.387910
O O9 0.231301 0.137382 0.516862
O O10 0.124689 0.863971 0.454699
O O11 0.569397 0.006197 0.165564
O O12 0.198191 0.446619 0.715379
O O13 0.280290 0.162575 0.337065
O O14 0.814284 0.211218 0.938926
O O15 0.500000 0.000000 0.000000
#
# Coordination Sequence:
#
# PCOD9015450 Si02
#       7
#     2   2   2   2   2   2   2
#     4  10  22  40  62  91 128 164 214 259 314 385
#     4  10  22  42  59  92 129 169 213 251 321 385
#     4  10  21  42  62  96 127 165 216 264 318 377
#     4  10  22  41  64  89 131 172 210 262 318 379
#     4  10  23  40  67  97 129 162 214 269 318 376
#     4  11  22  42  66  97 126 166 216 265 317 377
#     4  11  22  42  67  96 128 166 213 267 320 373
#
# _framework density 23.731401000000002
#
# number of rings (size 3 to 8) (size 9 to 14) (size 15 to 20)
#    0.000    1.714    2.857    0.857    2.000    1.714 
#    5.143    4.286    0.000    0.000    0.000    0.000 
#    0.000    0.000    0.000    0.000    0.000    0.000 
#
# Total GULP energy -78302.295978 kJ/mol
# GULP energy per Si atom -5593.021141 kJ/mol
# Density = 2.367739 g / cm^3
# Si number density = 23.731401 Si / 1000 Ang^3
#
#
#
# Elastic Constant Matrix: (Units=GPa)
#
#
# Indices 1 2 3 4 5 6 
#
# 1 40.9066 18.7671 11.9885 -6.2626 -7.9526 7.1208
# 2 18.7671 75.4865 1.6786 -10.2727 -8.9472 23.8580
# 3 11.9885 1.6786 116.9589 -13.3019 -7.2039 6.6426
# 4 -6.2626 -10.2727 -13.3019 32.4115 3.7978 -0.5119
# 5 -7.9526 -8.9472 -7.2039 3.7978 37.0106 6.6026
# 6 7.1208 23.8580 6.6426 -0.5119 6.6026 30.9078
#
#
#
# Elastic Compliance Matrix: (Units=1/GPa)
#
#
# Indices 1 2 3 4 5 6 
#
# 1 0.029425 -0.005332 -0.002172 0.002476 0.004929 -0.003209
# 2 -0.005332 0.021615 0.002300 0.005665 0.007043 -0.017362
# 3 -0.002172 0.002300 0.009532 0.003903 0.002210 -0.003731
# 4 0.002476 0.005665 0.003903 0.034642 0.000037 -0.005216
# 5 0.004929 0.007043 0.002210 0.000037 0.032711 -0.014035
# 6 -0.003209 -0.017362 -0.003731 -0.005216 -0.014035 0.050209
#
#
# Mechanical properties :
#
#
# Convention : Reuss Voigt Hill
#
# Bulk Modulus (GPa) = 19.93462 33.13560 26.53511
# Shear Modulus (GPa) = 24.35916 33.46049 28.90983
#
# Velocity S-wave (km/s) = 3.20731 3.75903 3.49407
# Velocity P-wave (km/s) = 4.70469 5.73005 5.24250
#
# Compressibility (1/GPa) = 0.05016398
#
# Stress axis : x y z
#
# Youngs Moduli (GPa) = 33.98526 46.26456 104.91417
#
# Poissons Ratio (x) = 0.24667 0.22789
# Poissons Ratio (y) = 0.18120 -0.24135
# Poissons Ratio (z) = 0.07382 -0.10643
#
# Static dielectric constant tensor:
#      x y z
#    x 1.904170 0.000600 -0.004080 
#    y 0.000600 2.017230 -0.024000 
#    z -0.004080 -0.024000 1.900100 
# 
# From -- ./inp_files/253080.got.cif
#   From: 2010.05.17/outbox.cif.g08.bks.cpg/sg2_127_cif.got.tgz:253080.got - 2010.06.03 11:33:40.
