data_PCOD9015388
_publ_section_title
;
Structure prediction by ZEFSAII (Michael W. Deem and Ramdas Pophale) SiO2 
 PCOD9015388
Probable space group: P -1
;
_chemical_formula_sum "Si O2"
_cell_formula_units_Z 16
_cell_length_a 9.158910
_cell_length_b 17.785642
_cell_length_c 9.575995
_cell_angle_alpha 48.649764
_cell_angle_beta 132.658477
_cell_angle_gamma 100.186171
_cell_volume 750.404132
_symmetry_space_group_name_H-M "P -1"
_symmetry_group_IT_number 2
_symmetry_cell_setting 'triclinic'
loop_
_space_group_symop_operation_xyz
x,y,z
-x,-y,-z
loop_
_atom_site_type_symbol
_atom_site_label
_atom_site_fract_x
_atom_site_fract_y
_atom_site_fract_z
Si Si1 0.311963 0.793845 0.955386
Si Si2 0.192072 0.598449 0.583049
Si Si3 0.707415 0.401997 0.668035
Si Si4 0.848414 0.845993 0.455215
Si Si5 0.502765 0.043189 0.141721
Si Si6 0.569870 0.650425 0.832190
Si Si7 0.109108 0.376708 0.151937
Si Si8 0.657724 0.761869 0.005418
O O1 0.353744 0.897389 0.902107
O O2 0.086640 0.836881 0.662082
O O3 0.298286 0.715579 0.162834
O O4 0.528830 0.722517 0.082496
O O5 0.294080 0.569216 0.529079
O O6 0.252047 0.479204 0.842016
O O7 0.925915 0.685350 0.293213
O O8 0.327456 0.655195 0.675328
O O9 0.500000 0.500000 0.500000
O O10 0.940230 0.383217 0.911495
O O11 0.879640 0.719166 0.617988
O O12 0.673937 0.909832 0.393011
O O13 0.719735 0.915463 0.148739
O O14 0.430034 0.106190 0.166441
O O15 0.586608 0.740515 0.834627
O O16 0.650408 0.658922 0.719325
O O17 0.000000 0.500000 0.000000
#
# Coordination Sequence:
#
# PCOD9015388 Si02
#       8
#     2   2   2   2   2   2   2   2
#     4   9  22  36  65  90 122 155 207 253 302 353
#     4  11  24  38  59  84 130 160 213 241 309 372
#     4  11  22  38  58  93 124 165 203 249 304 370
#     4  10  21  42  61  97 122 154 213 252 302 368
#     4   9  22  38  69  87 122 163 201 258 306 357
#     4  11  24  39  57  87 122 172 194 260 304 362
#     4  11  25  37  63  92 128 158 203 258 305 362
#     4  10  22  37  62  89 116 164 199 251 307 359
#
# _framework density 21.321845
#
# number of rings (size 3 to 8) (size 9 to 14) (size 15 to 20)
#    0.750    1.000    1.250    2.250    8.750    2.000 
#    0.000    0.625    0.000    0.750    0.000    0.000 
#    0.000    0.000    0.000    0.000    0.000    0.000 
#
# Total GULP energy -89340.301220 kJ/mol
# GULP energy per Si atom -5583.768826 kJ/mol
# Density = 2.127332 g / cm^3
# Si number density = 21.321845 Si / 1000 Ang^3
#
#
#
# Elastic Constant Matrix: (Units=GPa)
#
#
# Indices 1 2 3 4 5 6 
#
# 1 57.2445 8.7393 17.0201 7.9771 17.9279 -0.6523
# 2 8.7393 101.3913 22.7605 -0.2227 14.5440 -14.3179
# 3 17.0201 22.7605 49.8233 3.2170 21.6762 3.4484
# 4 7.9771 -0.2227 3.2170 18.9329 -3.8009 -2.5949
# 5 17.9279 14.5440 21.6762 -3.8009 25.9298 -5.8400
# 6 -0.6523 -14.3179 3.4484 -2.5949 -5.8400 24.7660
#
#
#
# Elastic Compliance Matrix: (Units=1/GPa)
#
#
# Indices 1 2 3 4 5 6 
#
# 1 0.027177 -0.000785 0.004606 -0.018840 -0.026922 -0.008702
# 2 -0.000785 0.012540 -0.007205 0.003361 0.002068 0.009072
# 3 0.004606 -0.007205 0.044001 -0.021513 -0.044227 -0.022854
# 4 -0.018840 0.003361 -0.021513 0.076795 0.045617 0.023245
# 5 -0.026922 0.002068 -0.044227 0.045617 0.107986 0.036888
# 6 -0.008702 0.009072 -0.022854 0.023245 0.036888 0.059710
#
#
# Mechanical properties :
#
#
# Convention : Reuss Voigt Hill
#
# Bulk Modulus (GPa) = 12.99544 33.94433 23.46988
# Shear Modulus (GPa) = 13.86480 24.58837 19.22658
#
# Velocity S-wave (km/s) = 2.55279 3.39957 3.00614
# Velocity P-wave (km/s) = 3.84670 5.60035 4.80422
#
# Compressibility (1/GPa) = 0.07695008
#
# Stress axis : x y z
#
# Youngs Moduli (GPa) = 36.79596 79.74739 22.72667
#
# Poissons Ratio (x) = 0.06259 -0.10468
# Poissons Ratio (y) = 0.02888 0.16374
# Poissons Ratio (z) = -0.16948 0.57457
#
# Static dielectric constant tensor:
#      x y z
#    x 1.777140 0.006060 0.001790 
#    y 0.006060 1.804840 -0.000100 
#    z 0.001790 -0.000100 1.768990 
# 
# From -- ./inp_files/214817.got.cif
#   From: 2010.05.17/outbox.cif.g08.bks.cpg/sg2_108_cif.got.tgz:214817.got - 2010.06.03 11:33:40.
