data_PCOD9015766
_publ_section_title
;
Structure prediction by ZEFSAII (Michael W. Deem and Ramdas Pophale) SiO2 
 PCOD9015766
Probable space group: P -1
;
_chemical_formula_sum "Si O2"
_cell_formula_units_Z 14
_cell_length_a 7.035374
_cell_length_b 11.488664
_cell_length_c 11.276827
_cell_angle_alpha 56.212723
_cell_angle_beta 89.249217
_cell_angle_gamma 54.709237
_cell_volume 550.834991
_symmetry_space_group_name_H-M "P -1"
_symmetry_group_IT_number 2
_symmetry_cell_setting 'triclinic'
loop_
_space_group_symop_operation_xyz
x,y,z
-x,-y,-z
loop_
_atom_site_type_symbol
_atom_site_label
_atom_site_fract_x
_atom_site_fract_y
_atom_site_fract_z
Si Si1 0.659039 0.791202 0.259252
Si Si2 0.115620 0.395282 0.378368
Si Si3 0.617830 0.513722 0.803047
Si Si4 0.864151 0.913771 0.547468
Si Si5 0.749377 0.012359 0.234209
Si Si6 0.862671 0.261537 0.145951
Si Si7 0.202430 0.814821 0.187878
O O1 0.782052 0.694358 0.441481
O O2 0.599932 0.987068 0.158763
O O3 0.410909 0.822205 0.222213
O O4 0.882213 0.626165 0.260078
O O5 0.353938 0.350147 0.334765
O O6 0.032119 0.294568 0.372820
O O7 0.350849 0.618357 0.815370
O O8 0.668035 0.375509 0.778788
O O9 0.836585 0.392241 0.973659
O O10 0.860154 0.894719 0.701633
O O11 0.688713 0.017143 0.370326
O O12 0.000000 0.000000 0.500000
O O13 0.050454 0.829231 0.295327
O O14 0.754998 0.176416 0.129403
O O15 0.000000 0.000000 0.000000
#
# Coordination Sequence:
#
# PCOD9015766 Si02
#       7
#     2   2   2   2   2   2   2
#     4  10  23  41  68 100 135 166 221 284 324 391
#     4  10  21  42  65 102 131 171 225 270 332 392
#     4  11  23  40  63  95 133 174 223 263 334 393
#     4   9  20  40  64  88 129 171 214 270 323 389
#     4  10  21  44  65  96 129 172 224 272 333 385
#     4  10  22  42  61  92 138 176 214 273 323 399
#     4  12  24  42  67  99 131 176 222 273 337 385
#
# _framework density 25.415959999999998
#
# number of rings (size 3 to 8) (size 9 to 14) (size 15 to 20)
#    0.000    1.714    2.857    0.857    2.000    1.714 
#    5.143    2.143    0.000    0.000    0.000    0.000 
#    0.000    0.000    0.000    0.000    0.000    0.000 
#
# Total GULP energy -78042.317236 kJ/mol
# GULP energy per Si atom -5574.451231 kJ/mol
# Density = 2.535811 g / cm^3
# Si number density = 25.415960 Si / 1000 Ang^3
#
#
#
# Elastic Constant Matrix: (Units=GPa)
#
#
# Indices 1 2 3 4 5 6 
#
# 1 139.6628 54.8847 10.7309 14.8010 16.3670 27.9285
# 2 54.8847 160.8575 -5.8537 20.4956 -6.3283 28.4464
# 3 10.7309 -5.8537 49.2262 9.8239 -9.6707 2.5271
# 4 14.8010 20.4956 9.8239 22.9206 -1.2769 -5.2013
# 5 16.3670 -6.3283 -9.6707 -1.2769 28.3400 4.4685
# 6 27.9285 28.4464 2.5271 -5.2013 4.4685 43.5631
#
#
#
# Elastic Compliance Matrix: (Units=1/GPa)
#
#
# Indices 1 2 3 4 5 6 
#
# 1 0.010722 -0.002542 -0.002806 -0.004961 -0.007167 -0.004908
# 2 -0.002542 0.010298 0.005671 -0.011329 0.006364 -0.007429
# 3 -0.002806 0.005671 0.027603 -0.015907 0.012646 -0.006702
# 4 -0.004961 -0.011329 -0.015907 0.068066 -0.005205 0.020162
# 5 -0.007167 0.006364 0.012646 -0.005205 0.045812 -0.005615
# 6 -0.004908 -0.007429 -0.006702 0.020162 -0.005615 0.034325
#
#
# Mechanical properties :
#
#
# Convention : Reuss Voigt Hill
#
# Bulk Modulus (GPa) = 20.29619 52.14113 36.21866
# Shear Modulus (GPa) = 23.51805 38.29705 30.90755
#
# Velocity S-wave (km/s) = 3.04522 3.88598 3.49100
# Velocity P-wave (km/s) = 4.51303 6.37919 5.52546
#
# Compressibility (1/GPa) = 0.04927032
#
# Stress axis : x y z
#
# Youngs Moduli (GPa) = 93.26772 97.10487 36.22747
#
# Poissons Ratio (x) = 0.24687 0.10164
# Poissons Ratio (y) = 0.23711 -0.20546
# Poissons Ratio (z) = 0.26167 -0.55071
#
# Static dielectric constant tensor:
#      x y z
#    x 2.043570 -0.076100 0.021070 
#    y -0.076100 2.110920 -0.067480 
#    z 0.021070 -0.067480 2.067990 
# 
# From -- ./inp_files/363816.got.cif
#   From: 2010.05.17/outbox.cif.g08.bks.cpg/sg2_182_cif.got.tgz:363816.got - 2010.06.03 11:33:40.
