data_PCOD9015719
_publ_section_title
;
Structure prediction by ZEFSAII (Michael W. Deem and Ramdas Pophale) SiO2 
 PCOD9015719
Probable space group: P -1
;
_chemical_formula_sum "Si O2"
_cell_formula_units_Z 16
_cell_length_a 12.047778
_cell_length_b 15.375525
_cell_length_c 14.163709
_cell_angle_alpha 151.520504
_cell_angle_beta 44.150247
_cell_angle_gamma 116.212357
_cell_volume 716.619790
_symmetry_space_group_name_H-M "P -1"
_symmetry_group_IT_number 2
_symmetry_cell_setting 'triclinic'
loop_
_space_group_symop_operation_xyz
x,y,z
-x,-y,-z
loop_
_atom_site_type_symbol
_atom_site_label
_atom_site_fract_x
_atom_site_fract_y
_atom_site_fract_z
Si Si1 0.511332 0.676727 0.720384
Si Si2 0.420889 0.142157 0.460901
Si Si3 0.268475 0.319293 0.253575
Si Si4 0.883929 0.869675 0.241959
Si Si5 0.198248 0.373716 0.643420
Si Si6 0.075196 0.046667 0.402351
Si Si7 0.222527 0.974613 0.750296
Si Si8 0.061312 0.691640 0.592008
O O1 0.500000 0.500000 0.500000
O O2 0.659219 0.571424 0.617141
O O3 0.616963 0.752610 0.659869
O O4 0.299263 0.856390 0.060398
O O5 0.288857 0.087516 0.546051
O O6 0.286227 0.347814 0.669643
O O7 0.564024 0.148906 0.452781
O O8 0.559013 0.933585 0.109592
O O9 0.207510 0.451972 0.319464
O O10 0.082660 0.322924 0.403420
O O11 0.817924 0.896551 0.199785
O O12 0.948061 0.032607 0.385616
O O13 0.063759 0.622989 0.925159
O O14 0.078495 0.263352 0.612934
O O15 0.000000 0.000000 0.500000
O O16 0.169464 0.799601 0.595731
O O17 0.077803 0.148090 0.084273
#
# Coordination Sequence:
#
# PCOD9015719 Si02
#       8
#     2   2   2   2   2   2   2   2
#     4  12  25  41  70 106 139 182 239 294 345 418
#     4  11  24  44  68  96 141 184 231 289 357 422
#     4  10  21  42  64  96 142 172 232 288 356 414
#     4  12  25  46  69 102 142 185 237 291 357 422
#     4  12  26  45  73 102 141 190 233 297 354 413
#     4  12  26  46  69 102 146 189 233 287 361 428
#     4  10  23  42  69  96 133 178 237 287 349 423
#     4   9  21  40  68  96 129 184 223 294 357 415
#
# _framework density 22.327041000000001
#
# number of rings (size 3 to 8) (size 9 to 14) (size 15 to 20)
#    0.000    1.000    3.750    1.875    3.500    1.000 
#    2.250    0.625    0.000    0.000    0.000    0.000 
#    0.000    0.000    0.000    0.000    0.000    0.000 
#
# Total GULP energy -89452.787316 kJ/mol
# GULP energy per Si atom -5590.799207 kJ/mol
# Density = 2.227622 g / cm^3
# Si number density = 22.327041 Si / 1000 Ang^3
#
#
#
# Elastic Constant Matrix: (Units=GPa)
#
#
# Indices 1 2 3 4 5 6 
#
# 1 156.1401 39.1677 31.6014 -3.4752 -20.4359 1.8438
# 2 39.1677 107.2419 25.1122 -7.2829 -16.7614 7.8874
# 3 31.6014 25.1122 60.2901 0.4976 -12.0144 2.9964
# 4 -3.4752 -7.2829 0.4976 33.5695 5.3717 -4.0852
# 5 -20.4359 -16.7614 -12.0144 5.3717 24.2366 4.5794
# 6 1.8438 7.8874 2.9964 -4.0852 4.5794 30.5924
#
#
#
# Elastic Compliance Matrix: (Units=1/GPa)
#
#
# Indices 1 2 3 4 5 6 
#
# 1 0.007902 -0.001566 -0.002573 -0.000261 0.004462 -0.000523
# 2 -0.001566 0.011783 -0.002758 0.001082 0.005866 -0.003407
# 3 -0.002573 -0.002758 0.020680 -0.002648 0.007253 -0.002599
# 4 -0.000261 0.001082 -0.002648 0.032158 -0.008976 0.005634
# 5 0.004462 0.005866 0.007253 -0.008976 0.056972 -0.012218
# 6 -0.000523 -0.003407 -0.002599 0.005634 -0.012218 0.036434
#
#
# Mechanical properties :
#
#
# Convention : Reuss Voigt Hill
#
# Bulk Modulus (GPa) = 37.63238 57.27052 47.45145
# Shear Modulus (GPa) = 26.51409 32.86575 29.68992
#
# Velocity S-wave (km/s) = 3.44980 3.84085 3.65056
# Velocity P-wave (km/s) = 5.72362 6.73616 6.25043
#
# Compressibility (1/GPa) = 0.02657286
#
# Stress axis : x y z
#
# Youngs Moduli (GPa) = 126.54632 84.86690 48.35589
#
# Poissons Ratio (x) = 0.13287 0.12440
# Poissons Ratio (y) = 0.19812 0.13337
# Poissons Ratio (z) = 0.32555 0.23407
#
# Static dielectric constant tensor:
#      x y z
#    x 1.860250 -0.007660 0.015700 
#    y -0.007660 1.830940 -0.005780 
#    z 0.015700 -0.005780 1.827790 
# 
# From -- ./inp_files/522577.got.cif
#   From: 2010.05.17/outbox.cif.g08.bks.cpg/sg2_262_cif.got.tgz:522577.got - 2010.06.03 11:33:40.
