data_PCOD9015425
_publ_section_title
;
Structure prediction by ZEFSAII (Michael W. Deem and Ramdas Pophale) SiO2 
 PCOD9015425
Probable space group: P -1
;
_chemical_formula_sum "Si O2"
_cell_formula_units_Z 16
_cell_length_a 11.265870
_cell_length_b 8.399082
_cell_length_c 14.558381
_cell_angle_alpha 53.469644
_cell_angle_beta 68.072651
_cell_angle_gamma 39.907467
_cell_volume 700.843059
_symmetry_space_group_name_H-M "P -1"
_symmetry_group_IT_number 2
_symmetry_cell_setting 'triclinic'
loop_
_space_group_symop_operation_xyz
x,y,z
-x,-y,-z
loop_
_atom_site_type_symbol
_atom_site_label
_atom_site_fract_x
_atom_site_fract_y
_atom_site_fract_z
Si Si1 0.942309 0.993718 0.918410
Si Si2 0.732669 0.449465 0.442891
Si Si3 0.583874 0.226834 0.863372
Si Si4 0.946047 0.446531 0.247216
Si Si5 0.353664 0.852574 0.331017
Si Si6 0.278858 0.233176 0.504063
Si Si7 0.949528 0.738606 0.303611
Si Si8 0.233093 0.402561 0.950615
O O1 0.059684 0.665466 0.972009
O O2 0.724266 0.192175 0.897873
O O3 0.001331 0.093371 0.793078
O O4 0.000000 0.000000 0.000000
O O5 0.886431 0.320980 0.366516
O O6 0.535846 0.751977 0.353976
O O7 0.699610 0.261902 0.544190
O O8 0.774749 0.524821 0.496109
O O9 0.587643 0.302042 0.732188
O O10 0.381090 0.416132 0.899093
O O11 0.666388 0.910173 0.938421
O O12 0.890534 0.693735 0.242492
O O13 0.838002 0.555643 0.146034
O O14 0.168161 0.191238 0.257045
O O15 0.208277 0.122357 0.620954
O O16 0.140627 0.415110 0.395190
O O17 0.500000 0.000000 0.500000
#
# Coordination Sequence:
#
# PCOD9015425 Si02
#       8
#     2   2   2   2   2   2   2   2
#     4  12  26  44  67  97 130 172 213 269 328 391
#     4  10  22  37  58  98 126 161 212 259 310 382
#     4  11  24  44  67  95 126 170 218 268 328 378
#     4  11  21  41  65  93 126 167 207 266 314 377
#     4  11  21  36  64  93 124 162 209 261 318 372
#     4  10  21  42  62  91 135 175 205 259 322 386
#     4  10  24  40  64  97 131 168 219 256 319 394
#     4  11  25  44  68  94 128 166 220 275 319 385
#
# _framework density 22.829647000000001
#
# number of rings (size 3 to 8) (size 9 to 14) (size 15 to 20)
#    0.000    1.250    2.500    3.000    1.750    2.500 
#    2.250    0.000    0.000    0.000    0.000    0.000 
#    0.000    0.000    0.000    0.000    0.000    0.000 
#
# Total GULP energy -89503.262382 kJ/mol
# GULP energy per Si atom -5593.953899 kJ/mol
# Density = 2.277769 g / cm^3
# Si number density = 22.829647 Si / 1000 Ang^3
#
#
#
# Elastic Constant Matrix: (Units=GPa)
#
#
# Indices 1 2 3 4 5 6 
#
# 1 122.6935 16.1720 26.6854 13.1856 11.4861 -27.1159
# 2 16.1720 53.5629 17.3244 13.7466 4.6249 -25.5212
# 3 26.6854 17.3244 70.7680 13.5239 -4.7017 -12.0636
# 4 13.1856 13.7466 13.5239 25.9685 2.8851 2.4004
# 5 11.4861 4.6249 -4.7017 2.8851 40.0637 7.2315
# 6 -27.1159 -25.5212 -12.0636 2.4004 7.2315 41.3744
#
#
#
# Elastic Compliance Matrix: (Units=1/GPa)
#
#
# Indices 1 2 3 4 5 6 
#
# 1 0.012135 0.005637 -0.002720 -0.008181 -0.006057 0.012170
# 2 0.005637 0.039323 -0.002682 -0.023951 -0.010223 0.030345
# 3 -0.002720 -0.002682 0.017610 -0.006885 0.003380 0.001506
# 4 -0.008181 -0.023951 -0.006885 0.060853 0.004703 -0.026496
# 5 -0.006057 -0.010223 0.003380 0.004703 0.030627 -0.014916
# 6 0.012170 0.030345 0.001506 -0.026496 -0.014916 0.055447
#
#
# Mechanical properties :
#
#
# Convention : Reuss Voigt Hill
#
# Bulk Modulus (GPa) = 14.38038 40.82091 27.60064
# Shear Modulus (GPa) = 20.94650 33.93749 27.44200
#
# Velocity S-wave (km/s) = 3.03233 3.85977 3.47080
# Velocity P-wave (km/s) = 4.30961 6.14681 5.30829
#
# Compressibility (1/GPa) = 0.06953919
#
# Stress axis : x y z
#
# Youngs Moduli (GPa) = 82.40681 25.43050 56.78597
#
# Poissons Ratio (x) = -0.14336 0.15447
# Poissons Ratio (y) = -0.46457 0.15227
# Poissons Ratio (z) = 0.22417 0.06819
#
# Static dielectric constant tensor:
#      x y z
#    x 1.836670 -0.015840 -0.029580 
#    y -0.015840 1.854450 -0.006580 
#    z -0.029580 -0.006580 1.879880 
# 
# From -- ./inp_files/258804.got.cif
#   From: 2010.05.17/outbox.cif.g08.bks.cpg/sg2_130_cif.got.tgz:258804.got - 2010.06.03 11:33:40.
