data_PCOD9015557
_publ_section_title
;
Structure prediction by ZEFSAII (Michael W. Deem and Ramdas Pophale) SiO2 
 PCOD9015557
Probable space group: P -1
;
_chemical_formula_sum "Si O2"
_cell_formula_units_Z 16
_cell_length_a 8.678207
_cell_length_b 14.617397
_cell_length_c 9.194874
_cell_angle_alpha 138.131198
_cell_angle_beta 82.202710
_cell_angle_gamma 81.746019
_cell_volume 716.584066
_symmetry_space_group_name_H-M "P -1"
_symmetry_group_IT_number 2
_symmetry_cell_setting 'triclinic'
loop_
_space_group_symop_operation_xyz
x,y,z
-x,-y,-z
loop_
_atom_site_type_symbol
_atom_site_label
_atom_site_fract_x
_atom_site_fract_y
_atom_site_fract_z
Si Si1 0.603877 0.937226 0.199722
Si Si2 0.695594 0.611390 0.813549
Si Si3 0.748966 0.084619 0.147611
Si Si4 0.875129 0.456829 0.867130
Si Si5 0.031069 0.122263 0.359337
Si Si6 0.751616 0.010044 0.547693
Si Si7 0.672633 0.345790 0.977289
Si Si8 0.692238 0.385441 0.342474
O O1 0.419029 0.979602 0.336792
O O2 0.605890 0.054579 0.218883
O O3 0.734242 0.934338 0.309018
O O4 0.655858 0.770624 0.938524
O O5 0.810610 0.582228 0.903740
O O6 0.522780 0.606185 0.899069
O O7 0.775682 0.477992 0.534098
O O8 0.703019 0.237842 0.249409
O O9 0.885512 0.081743 0.250055
O O10 0.821124 0.955109 0.866454
O O11 0.965069 0.297801 0.592221
O O12 0.726759 0.440757 0.966387
O O13 0.000000 0.500000 0.000000
O O14 0.099955 0.058889 0.436011
O O15 0.731393 0.178019 0.717017
O O16 0.755732 0.348366 0.126761
O O17 0.500000 0.500000 0.500000
#
# Coordination Sequence:
#
# PCOD9015557 Si02
#       8
#     2   2   2   2   2   2   2   2
#     4  10  23  41  68  96 126 165 216 273 305 373
#     4  10  22  44  64  94 128 163 214 267 320 377
#     4  11  23  44  68  95 126 172 220 257 317 384
#     4  12  25  41  61  96 132 169 213 261 325 383
#     4  11  24  42  62  94 132 172 212 255 320 395
#     4  10  21  42  63  95 130 161 217 259 323 373
#     4  10  22  42  68  89 120 174 214 267 311 377
#     4  10  21  44  68  95 122 167 222 263 313 382
#
# _framework density 22.328154999999999
#
# number of rings (size 3 to 8) (size 9 to 14) (size 15 to 20)
#    0.000    1.500    2.500    1.875    0.000    4.500 
#   11.250    1.250    0.000    0.000    0.000    0.000 
#    0.000    0.000    0.000    0.000    0.000    0.000 
#
# Total GULP energy -89364.720640 kJ/mol
# GULP energy per Si atom -5585.295040 kJ/mol
# Density = 2.227733 g / cm^3
# Si number density = 22.328155 Si / 1000 Ang^3
#
#
#
# Elastic Constant Matrix: (Units=GPa)
#
#
# Indices 1 2 3 4 5 6 
#
# 1 35.2221 -1.5351 12.7610 -11.9381 13.2950 -12.6449
# 2 -1.5351 76.9767 17.9236 -4.4792 -0.9192 -3.5827
# 3 12.7610 17.9236 108.2841 -4.8100 12.6252 13.6484
# 4 -11.9381 -4.4792 -4.8100 19.2489 -9.6470 8.9486
# 5 13.2950 -0.9192 12.6252 -9.6470 18.6701 -2.4597
# 6 -12.6449 -3.5827 13.6484 8.9486 -2.4597 29.6959
#
#
#
# Elastic Compliance Matrix: (Units=1/GPa)
#
#
# Indices 1 2 3 4 5 6 
#
# 1 0.049811 0.003462 -0.005675 0.009092 -0.024197 0.019492
# 2 0.003462 0.014344 -0.003441 0.004649 0.003454 0.003671
# 3 -0.005675 -0.003441 0.012253 0.000141 -0.005522 -0.008963
# 4 0.009092 0.004649 0.000141 0.084770 0.035053 -0.018274
# 5 -0.024197 0.003454 -0.005522 0.035053 0.091447 -0.010337
# 6 0.019492 0.003671 -0.008963 -0.018274 -0.010337 0.051188
#
#
# Mechanical properties :
#
#
# Convention : Reuss Voigt Hill
#
# Bulk Modulus (GPa) = 15.36105 30.97578 23.16842
# Shear Modulus (GPa) = 14.84471 26.27853 20.56162
#
# Velocity S-wave (km/s) = 2.58125 3.43435 3.03790
# Velocity P-wave (km/s) = 3.97221 5.44330 4.76487
#
# Compressibility (1/GPa) = 0.06509970
#
# Stress axis : x y z
#
# Youngs Moduli (GPa) = 20.07595 69.71598 81.61143
#
# Poissons Ratio (x) = -0.24136 0.46314
# Poissons Ratio (y) = -0.06950 0.28084
# Poissons Ratio (z) = 0.11393 0.23991
#
# Static dielectric constant tensor:
#      x y z
#    x 1.924490 -0.055520 0.069800 
#    y -0.055520 1.811000 -0.066260 
#    z 0.069800 -0.066260 1.870880 
# 
# From -- ./inp_files/184398.got.cif
#   From: 2010.05.17/outbox.cif.g08.bks.cpg/sg2_93_cif.got.tgz:184398.got - 2010.06.03 11:33:40.
