data_PCOD9015521
_publ_section_title
;
Structure prediction by ZEFSAII (Michael W. Deem and Ramdas Pophale) SiO2 
 PCOD9015521
Probable space group: P -1
;
_chemical_formula_sum "Si O2"
_cell_formula_units_Z 14
_cell_length_a 10.571431
_cell_length_b 5.392937
_cell_length_c 12.096784
_cell_angle_alpha 86.340053
_cell_angle_beta 102.172209
_cell_angle_gamma 121.118738
_cell_volume 576.295033
_symmetry_space_group_name_H-M "P -1"
_symmetry_group_IT_number 2
_symmetry_cell_setting 'triclinic'
loop_
_space_group_symop_operation_xyz
x,y,z
-x,-y,-z
loop_
_atom_site_type_symbol
_atom_site_label
_atom_site_fract_x
_atom_site_fract_y
_atom_site_fract_z
Si Si1 0.347210 0.501717 0.456584
Si Si2 0.096251 0.842398 0.045058
Si Si3 0.587716 0.298490 0.148426
Si Si4 0.648584 0.557615 0.928109
Si Si5 0.694502 0.234768 0.768667
Si Si6 0.810186 0.403186 0.367082
Si Si7 0.110715 0.923230 0.460762
O O1 0.500000 0.500000 0.500000
O O2 0.343600 0.727573 0.364572
O O3 0.281620 0.525270 0.561550
O O4 0.223066 0.184427 0.397991
O O5 0.168966 0.817856 0.175964
O O6 0.000000 0.500000 0.000000
O O7 0.255176 0.112107 0.016498
O O8 0.000000 0.000000 0.000000
O O9 0.513506 0.499103 0.137720
O O10 0.740111 0.394234 0.238031
O O11 0.460344 0.013201 0.195673
O O12 0.625610 0.330179 0.024982
O O13 0.728232 0.515205 0.838876
O O14 0.793558 0.115745 0.424866
O O15 0.991266 0.621612 0.391227
O O16 0.000000 0.000000 0.500000
#
# Coordination Sequence:
#
# PCOD9015521 Si02
#       7
#     2   2   2   2   2   2   2
#     4  11  23  39  67 100 134 179 223 290 353 417
#     4  11  23  45  68  99 138 180 230 284 347 414
#     4  10  22  39  66  93 128 180 225 287 342 410
#     4  10  22  42  64  98 134 173 229 281 339 417
#     4  11  23  40  66  97 137 178 229 285 343 418
#     4  10  21  42  63  92 132 175 229 281 346 415
#     4   9  21  41  60  90 132 172 230 277 341 421
#
# _framework density 24.293109999999999
#
# number of rings (size 3 to 8) (size 9 to 14) (size 15 to 20)
#    0.000    1.714    1.429    2.143    0.000    6.857 
#    7.714    0.000    0.000    0.000    0.000    0.000 
#    0.000    0.000    0.000    0.000    0.000    0.000 
#
# Total GULP energy -78001.031408 kJ/mol
# GULP energy per Si atom -5571.502243 kJ/mol
# Density = 2.423782 g / cm^3
# Si number density = 24.293110 Si / 1000 Ang^3
#
#
#
# Elastic Constant Matrix: (Units=GPa)
#
#
# Indices 1 2 3 4 5 6 
#
# 1 104.8273 12.4736 30.4284 -5.9848 37.0444 -10.5134
# 2 12.4736 104.6767 28.0873 -23.2719 5.3893 4.5863
# 3 30.4284 28.0873 120.3562 -22.8383 35.0911 -0.5598
# 4 -5.9848 -23.2719 -22.8383 29.0648 0.7597 -0.1418
# 5 37.0444 5.3893 35.0911 0.7597 47.5035 -1.7528
# 6 -10.5134 4.5863 -0.5598 -0.1418 -1.7528 39.0839
#
#
#
# Elastic Compliance Matrix: (Units=1/GPa)
#
#
# Indices 1 2 3 4 5 6 
#
# 1 0.013884 -0.000696 0.000431 0.002943 -0.010990 0.003340
# 2 -0.000696 0.011889 -0.000840 0.008718 -0.000383 -0.001580
# 3 0.000431 -0.000840 0.013301 0.010135 -0.010229 -0.000017
# 4 0.002943 0.008718 0.010135 0.050258 -0.011591 -0.000424
# 5 -0.010990 -0.000383 -0.010229 -0.011591 0.037354 -0.001425
# 6 0.003340 -0.001580 -0.000017 -0.000424 -0.001425 0.026604
#
#
# Mechanical properties :
#
#
# Convention : Reuss Voigt Hill
#
# Bulk Modulus (GPa) = 27.12684 52.42652 39.77668
# Shear Modulus (GPa) = 29.79941 40.38850 35.09395
#
# Velocity S-wave (km/s) = 3.50617 4.08186 3.80492
# Velocity P-wave (km/s) = 5.25183 6.62141 5.97599
#
# Compressibility (1/GPa) = 0.03686386
#
# Stress axis : x y z
#
# Youngs Moduli (GPa) = 72.02446 84.11329 75.18059
#
# Poissons Ratio (x) = 0.05856 -0.03238
# Poissons Ratio (y) = 0.05014 0.06313
# Poissons Ratio (z) = -0.03102 0.07063
#
# Static dielectric constant tensor:
#      x y z
#    x 1.974340 -0.013880 -0.012810 
#    y -0.013880 2.108630 0.049040 
#    z -0.012810 0.049040 1.935210 
# 
# From -- ./inp_files/372926.got.cif
#   From: 2010.05.17/outbox.cif.g08.bks.cpg/sg2_187_cif.got.tgz:372926.got - 2010.06.03 11:33:40.
