data_PCOD9015009
_publ_section_title
;
Structure prediction by ZEFSAII (Michael W. Deem and Ramdas Pophale) SiO2 
 PCOD9015009
Probable space group: P -1
;
_chemical_formula_sum "Si O2"
_cell_formula_units_Z 16
_cell_length_a 13.521067
_cell_length_b 14.789607
_cell_length_c 6.671085
_cell_angle_alpha 104.343554
_cell_angle_beta 103.470172
_cell_angle_gamma 29.300909
_cell_volume 632.113820
_symmetry_space_group_name_H-M "P -1"
_symmetry_group_IT_number 2
_symmetry_cell_setting 'triclinic'
loop_
_space_group_symop_operation_xyz
x,y,z
-x,-y,-z
loop_
_atom_site_type_symbol
_atom_site_label
_atom_site_fract_x
_atom_site_fract_y
_atom_site_fract_z
Si Si1 0.036250 0.719878 0.714868
Si Si2 0.076134 0.881265 0.278921
Si Si3 0.515888 0.219267 0.177304
Si Si4 0.168976 0.173785 0.957174
Si Si5 0.117015 0.335488 0.640924
Si Si6 0.720694 0.757665 0.712398
Si Si7 0.747086 0.111961 0.897942
Si Si8 0.656616 0.459559 0.538166
O O1 0.987207 0.670026 0.525597
O O2 0.235158 0.610479 0.662411
O O3 0.024472 0.696926 0.927915
O O4 0.857592 0.938686 0.742716
O O5 0.250094 0.802616 0.201572
O O6 0.168072 0.713156 0.319461
O O7 0.000000 0.000000 0.500000
O O8 0.896622 0.018792 0.105116
O O9 0.375212 0.246853 0.202235
O O10 0.541985 0.237186 0.972122
O O11 0.452760 0.358608 0.350847
O O12 0.731266 0.996437 0.183747
O O13 0.158687 0.259239 0.831680
O O14 0.316022 0.109635 0.150632
O O15 0.959551 0.543322 0.713711
O O16 0.302811 0.222503 0.528717
O O17 0.500000 0.500000 0.500000
#
# Coordination Sequence:
#
# PCOD9015009 Si02
#       8
#     2   2   2   2   2   2   2   2
#     4  10  22  41  66  94 132 173 224 267 317 416
#     4  11  23  45  72  90 132 182 229 280 328 398
#     4  11  24  41  63 100 138 166 218 284 326 394
#     4  10  23  42  70  94 131 174 223 265 337 411
#     4  10  21  41  70  96 128 179 215 267 342 398
#     4  10  21  42  66  98 134 162 219 282 328 402
#     4  10  24  43  69  97 125 182 234 265 337 399
#     4  12  26  44  66  99 140 175 222 283 339 384
#
# _framework density 25.311897999999999
#
# number of rings (size 3 to 8) (size 9 to 14) (size 15 to 20)
#    0.000    1.500    2.500    1.500    5.250    2.000 
#    2.250    1.250    0.000    0.000    0.000    0.000 
#    0.000    0.000    0.000    0.000    0.000    0.000 
#
# Total GULP energy -89371.812680 kJ/mol
# GULP energy per Si atom -5585.738293 kJ/mol
# Density = 2.525429 g / cm^3
# Si number density = 25.311898 Si / 1000 Ang^3
#
#
#
# Elastic Constant Matrix: (Units=GPa)
#
#
# Indices 1 2 3 4 5 6 
#
# 1 144.4893 25.8369 68.0988 10.4414 -41.6766 17.4479
# 2 25.8369 82.8721 45.3736 10.6956 -2.7609 13.3606
# 3 68.0988 45.3736 139.1883 9.8969 -41.2106 1.2566
# 4 10.4414 10.6956 9.8969 45.4481 5.7886 -5.1542
# 5 -41.6766 -2.7609 -41.2106 5.7886 70.9642 -1.3559
# 6 17.4479 13.3606 1.2566 -5.1542 -1.3559 30.7783
#
#
#
# Elastic Compliance Matrix: (Units=1/GPa)
#
#
# Indices 1 2 3 4 5 6 
#
# 1 0.010952 0.000310 -0.003915 -0.003020 0.004293 -0.006500
# 2 0.000310 0.016955 -0.006146 -0.003292 -0.002611 -0.007951
# 3 -0.003915 -0.006146 0.012540 -0.000494 0.004870 0.004507
# 4 -0.003020 -0.003292 -0.000494 0.024911 -0.004084 0.007153
# 5 0.004293 -0.002611 0.004870 -0.004084 0.019647 -0.001317
# 6 -0.006500 -0.007951 0.004507 0.007153 -0.001317 0.040582
#
#
# Mechanical properties :
#
#
# Convention : Reuss Voigt Hill
#
# Bulk Modulus (GPa) = 47.74447 71.68536 59.71491
# Shear Modulus (GPa) = 32.87941 44.58748 38.73345
#
# Velocity S-wave (km/s) = 3.60803 4.20160 3.91608
# Velocity P-wave (km/s) = 6.02168 7.20557 6.64006
#
# Compressibility (1/GPa) = 0.02094483
#
# Stress axis : x y z
#
# Youngs Moduli (GPa) = 91.30719 58.98011 79.74638
#
# Poissons Ratio (x) = -0.01827 0.31220
# Poissons Ratio (y) = -0.02828 0.49010
# Poissons Ratio (z) = 0.35746 0.36248
#
# Static dielectric constant tensor:
#      x y z
#    x 2.075550 -0.052470 -0.039580 
#    y -0.052470 2.000540 -0.046440 
#    z -0.039580 -0.046440 2.025130 
# 
# From -- ./inp_files/98251.got.cif
#   From: 2010.05.17/outbox.cif.g08.bks.cpg/sg2_50_cif.got.tgz:98251.got - 2010.06.03 11:33:40.
