data_PCOD9015929
_publ_section_title
;
Structure prediction by ZEFSAII (Michael W. Deem and Ramdas Pophale) SiO2 
 PCOD9015929
Probable space group: P -1
;
_chemical_formula_sum "Si O2"
_cell_formula_units_Z 16
_cell_length_a 18.534930
_cell_length_b 7.668610
_cell_length_c 9.172514
_cell_angle_alpha 111.013790
_cell_angle_beta 36.512890
_cell_angle_gamma 125.495781
_cell_volume 615.653467
_symmetry_space_group_name_H-M "P -1"
_symmetry_group_IT_number 2
_symmetry_cell_setting 'triclinic'
loop_
_space_group_symop_operation_xyz
x,y,z
-x,-y,-z
loop_
_atom_site_type_symbol
_atom_site_label
_atom_site_fract_x
_atom_site_fract_y
_atom_site_fract_z
Si Si1 0.122638 0.199008 0.458113
Si Si2 0.149835 0.663516 0.885338
Si Si3 0.800768 0.455617 0.773085
Si Si4 0.498774 0.285985 0.150933
Si Si5 0.192152 0.142179 0.642479
Si Si6 0.569117 0.151703 0.704688
Si Si7 0.946454 0.728409 0.873810
Si Si8 0.733918 0.041349 0.951009
O O1 0.149978 0.435195 0.434268
O O2 0.117618 0.184181 0.637424
O O3 0.247059 0.150355 0.201728
O O4 0.000000 0.000000 0.500000
O O5 0.284225 0.739062 0.586479
O O6 0.144570 0.498704 0.964347
O O7 0.181501 0.863184 0.004475
O O8 0.000000 0.500000 0.000000
O O9 0.921021 0.656282 0.729661
O O10 0.779981 0.231893 0.807259
O O11 0.648403 0.436006 0.034474
O O12 0.360432 0.300806 0.400422
O O13 0.442901 0.046720 0.239918
O O14 0.541800 0.286972 0.913252
O O15 0.133035 0.156505 0.898649
O O16 0.114453 0.877506 0.676428
O O17 0.434070 0.055884 0.787167
#
# Coordination Sequence:
#
# PCOD9015929 Si02
#       8
#     2   2   2   2   2   2   2   2
#     4  12  25  42  72 101 134 183 227 278 339 403
#     4  11  24  40  67 100 131 181 228 275 339 407
#     4  10  24  44  66 101 136 173 229 276 341 399
#     4  10  22  40  68  97 133 178 224 283 335 397
#     4  11  23  43  66  96 136 177 226 281 338 399
#     4  10  21  42  65  98 137 176 226 276 342 403
#     4  10  24  44  62  93 141 177 220 282 338 402
#     4  10  24  46  68  97 139 178 223 283 338 400
#
# _framework density 25.988645999999999
#
# number of rings (size 3 to 8) (size 9 to 14) (size 15 to 20)
#    0.000    1.500    2.500    1.125    3.500    3.500 
#    0.000    0.000    0.000    0.000    0.000    0.000 
#    0.000    0.000    0.000    0.000    0.000    0.000 
#
# Total GULP energy -89293.795151 kJ/mol
# GULP energy per Si atom -5580.862197 kJ/mol
# Density = 2.592950 g / cm^3
# Si number density = 25.988646 Si / 1000 Ang^3
#
#
#
# Elastic Constant Matrix: (Units=GPa)
#
#
# Indices 1 2 3 4 5 6 
#
# 1 84.5440 9.1935 38.7508 -0.3274 -13.0101 0.7205
# 2 9.1935 62.4961 17.3936 -0.4173 3.1765 -4.2933
# 3 38.7508 17.3936 152.5094 -12.7789 -5.0858 0.9268
# 4 -0.3274 -0.4173 -12.7789 33.2330 1.1451 6.5791
# 5 -13.0101 3.1765 -5.0858 1.1451 44.4130 -23.1128
# 6 0.7205 -4.2933 0.9268 6.5791 -23.1128 37.0761
#
#
#
# Elastic Compliance Matrix: (Units=1/GPa)
#
#
# Indices 1 2 3 4 5 6 
#
# 1 0.014453 -0.001198 -0.003544 -0.002181 0.005919 0.003746
# 2 -0.001198 0.016804 -0.001714 -0.000741 -0.000910 0.001576
# 3 -0.003544 -0.001714 0.007910 0.003299 -0.000843 -0.001439
# 4 -0.002181 -0.000741 0.003299 0.033520 -0.006266 -0.009980
# 5 0.005919 -0.000910 -0.000843 -0.006266 0.036790 0.023847
# 6 0.003746 0.001576 -0.001439 -0.009980 0.023847 0.043754
#
#
# Mechanical properties :
#
#
# Convention : Reuss Voigt Hill
#
# Bulk Modulus (GPa) = 38.08746 47.80281 42.94513
# Shear Modulus (GPa) = 28.58851 38.55852 33.57352
#
# Velocity S-wave (km/s) = 3.32028 3.85602 3.59814
# Velocity P-wave (km/s) = 5.42091 6.18537 5.81572
#
# Compressibility (1/GPa) = 0.02625536
#
# Stress axis : x y z
#
# Youngs Moduli (GPa) = 69.18821 59.51017 126.42282
#
# Poissons Ratio (x) = 0.07129 0.44803
# Poissons Ratio (y) = 0.08288 0.21670
# Poissons Ratio (z) = 0.24520 0.10200
#
# Static dielectric constant tensor:
#      x y z
#    x 2.215130 0.035480 0.046420 
#    y 0.035480 2.185620 0.057830 
#    z 0.046420 0.057830 2.056550 
# 
# From -- ./inp_files/329115.got.cif
#   From: 2010.05.17/outbox.cif.g08.bks.cpg/sg2_165_cif.got.tgz:329115.got - 2010.06.03 11:33:40.
