data_PCOD9015408
_publ_section_title
;
Structure prediction by ZEFSAII (Michael W. Deem and Ramdas Pophale) SiO2 
 PCOD9015408
Probable space group: P -1
;
_chemical_formula_sum "Si O2"
_cell_formula_units_Z 14
_cell_length_a 6.334074
_cell_length_b 15.001231
_cell_length_c 20.404991
_cell_angle_alpha 153.980231
_cell_angle_beta 65.666476
_cell_angle_gamma 98.494782
_cell_volume 643.728123
_symmetry_space_group_name_H-M "P -1"
_symmetry_group_IT_number 2
_symmetry_cell_setting 'triclinic'
loop_
_space_group_symop_operation_xyz
x,y,z
-x,-y,-z
loop_
_atom_site_type_symbol
_atom_site_label
_atom_site_fract_x
_atom_site_fract_y
_atom_site_fract_z
Si Si1 0.359617 0.647931 0.866545
Si Si2 0.878124 0.288903 0.635682
Si Si3 0.591254 0.734857 0.484457
Si Si4 0.726703 0.865973 0.825201
Si Si5 0.641211 0.557208 0.135060
Si Si6 0.870016 0.876867 0.288167
Si Si7 0.320917 0.384813 0.457371
O O1 0.684836 0.514149 0.758477
O O2 0.356983 0.519783 0.715926
O O3 0.257875 0.561508 0.883627
O O4 0.204869 0.935557 0.071840
O O5 0.678309 0.364376 0.774156
O O6 0.176805 0.242969 0.567488
O O7 0.889792 0.054755 0.452159
O O8 0.619866 0.736793 0.559466
O O9 0.292101 0.952331 0.640855
O O10 0.619044 0.801175 0.731871
O O11 0.997873 0.610769 0.644718
O O12 0.500000 0.000000 0.000000
O O13 0.689764 0.772970 0.266528
O O14 0.831778 0.354675 0.923858
O O15 0.500000 0.500000 0.500000
#
# Coordination Sequence:
#
# PCOD9015408 Si02
#       7
#     2   2   2   2   2   2   2
#     4   9  22  40  64  89 128 165 206 252 314 367
#     4   9  21  38  62  89 127 163 209 252 306 366
#     4  11  23  40  65  97 125 164 210 264 306 369
#     4  11  24  46  68  88 127 169 202 260 318 378
#     4   9  21  42  62  89 127 174 202 252 313 371
#     4  10  21  42  62  89 132 165 208 255 310 369
#     4  11  27  42  66  97 125 160 213 259 317 371
#
# _framework density 21.748311999999999
#
# number of rings (size 3 to 8) (size 9 to 14) (size 15 to 20)
#    0.857    1.143    0.000    2.143    4.000    6.286 
#    2.571    1.429    0.000    0.000    0.000    0.000 
#    0.000    0.000    0.000    0.000    0.000    0.000 
#
# Total GULP energy -78179.661096 kJ/mol
# GULP energy per Si atom -5584.261507 kJ/mol
# Density = 2.169881 g / cm^3
# Si number density = 21.748312 Si / 1000 Ang^3
#
#
#
# Elastic Constant Matrix: (Units=GPa)
#
#
# Indices 1 2 3 4 5 6 
#
# 1 51.1888 17.7475 25.3393 -9.7123 -0.3042 1.8382
# 2 17.7475 93.3767 33.6350 -2.9356 7.4847 -6.6295
# 3 25.3393 33.6350 105.4759 -3.7963 13.5985 -2.2138
# 4 -9.7123 -2.9356 -3.7963 36.8077 7.6691 -2.3708
# 5 -0.3042 7.4847 13.5985 7.6691 23.7725 -4.4889
# 6 1.8382 -6.6295 -2.2138 -2.3708 -4.4889 21.9617
#
#
#
# Elastic Compliance Matrix: (Units=1/GPa)
#
#
# Indices 1 2 3 4 5 6 
#
# 1 0.024076 -0.002963 -0.004967 0.005030 0.001995 -0.002460
# 2 -0.002963 0.012776 -0.003033 0.000532 -0.001840 0.003480
# 3 -0.004967 -0.003033 0.012539 0.001112 -0.006733 -0.000492
# 4 0.005030 0.000532 0.001112 0.030910 -0.010515 0.001039
# 5 0.001995 -0.001840 -0.006733 -0.010515 0.051419 0.007974
# 6 -0.002460 0.003480 -0.000492 0.001039 0.007974 0.048483
#
#
# Mechanical properties :
#
#
# Convention : Reuss Voigt Hill
#
# Bulk Modulus (GPa) = 36.40954 44.83166 40.62060
# Shear Modulus (GPa) = 23.66471 28.06301 25.86386
#
# Velocity S-wave (km/s) = 3.30224 3.59605 3.45227
# Velocity P-wave (km/s) = 5.59619 6.15635 5.88294
#
# Compressibility (1/GPa) = 0.02746533
#
# Stress axis : x y z
#
# Youngs Moduli (GPa) = 41.53484 78.26988 79.75153
#
# Poissons Ratio (x) = 0.23194 0.39611
# Poissons Ratio (y) = 0.12308 0.24188
# Poissons Ratio (z) = 0.20630 0.23739
#
# Static dielectric constant tensor:
#      x y z
#    x 1.786640 0.007680 -0.027000 
#    y 0.007680 1.810760 -0.001090 
#    z -0.027000 -0.001090 1.765640 
# 
# From -- ./inp_files/604996.got.cif
#   From: 2010.05.17/outbox.cif.g08.bks.cpg/sg2_303_cif.got.tgz:604996.got - 2010.06.03 11:33:40.
