data_PCOD9015185
_publ_section_title
;
Structure prediction by ZEFSAII (Michael W. Deem and Ramdas Pophale) SiO2 
 PCOD9015185
Probable space group: P -1
;
_chemical_formula_sum "Si O2"
_cell_formula_units_Z 16
_cell_length_a 9.556172
_cell_length_b 21.481518
_cell_length_c 5.117660
_cell_angle_alpha 112.651941
_cell_angle_beta 129.971679
_cell_angle_gamma 55.145229
_cell_volume 660.404013
_symmetry_space_group_name_H-M "P -1"
_symmetry_group_IT_number 2
_symmetry_cell_setting 'triclinic'
loop_
_space_group_symop_operation_xyz
x,y,z
-x,-y,-z
loop_
_atom_site_type_symbol
_atom_site_label
_atom_site_fract_x
_atom_site_fract_y
_atom_site_fract_z
Si Si1 0.392514 0.850464 0.704832
Si Si2 0.527665 0.592574 0.839575
Si Si3 0.087436 0.330883 0.187568
Si Si4 0.201143 0.462488 0.432709
Si Si5 0.586938 0.930660 0.790633
Si Si6 0.530884 0.244478 0.830211
Si Si7 0.192348 0.990027 0.035003
Si Si8 0.099991 0.621735 0.461446
O O1 0.584395 0.863471 0.851879
O O2 0.333625 0.813262 0.328099
O O3 0.444635 0.796827 0.931665
O O4 0.221762 0.932874 0.736136
O O5 0.645585 0.578011 0.687055
O O6 0.326169 0.582406 0.553831
O O7 0.666793 0.541592 0.158793
O O8 0.446220 0.680168 0.970558
O O9 0.093659 0.410659 0.287336
O O10 0.301021 0.277119 0.491451
O O11 0.916441 0.342993 0.216167
O O12 0.042156 0.316049 0.816222
O O13 0.055462 0.549756 0.329333
O O14 0.407729 0.947003 0.388325
O O15 0.784177 0.935498 0.911443
O O16 0.500000 0.000000 0.000000
O O17 0.000000 0.000000 0.000000
#
# Coordination Sequence:
#
# PCOD9015185 Si02
#       8
#     2   2   2   2   2   2   2   2
#     4  11  21  41  69  91 123 176 217 254 303 389
#     4  11  23  39  62  87 124 167 207 263 325 384
#     4  11  23  38  61  88 119 167 206 266 321 374
#     4  11  21  39  61  92 116 164 209 258 340 400
#     4   9  20  39  69 101 136 170 204 259 331 361
#     4  11  23  42  64  84 124 179 222 239 311 391
#     4  10  21  41  72 107 136 164 210 270 325 371
#     4  12  22  38  62  92 125 149 211 285 325 372
#
# _framework density 24.227595999999998
#
# number of rings (size 3 to 8) (size 9 to 14) (size 15 to 20)
#    0.000    1.250    1.250    6.750    0.000    2.000 
#    0.000    1.250   16.500    0.000    0.000    0.000 
#    0.000    0.000    0.000    0.000    0.000    0.000 
#
# Total GULP energy -89401.087539 kJ/mol
# GULP energy per Si atom -5587.567971 kJ/mol
# Density = 2.417245 g / cm^3
# Si number density = 24.227596 Si / 1000 Ang^3
#
#
#
# Elastic Constant Matrix: (Units=GPa)
#
#
# Indices 1 2 3 4 5 6 
#
# 1 189.8348 29.7965 45.9090 5.2535 -14.6753 -0.3177
# 2 29.7965 73.9279 8.3495 8.5897 -9.5721 10.2730
# 3 45.9090 8.3495 63.7090 -5.1210 -27.1423 5.1613
# 4 5.2535 8.5897 -5.1210 40.3820 -1.8343 -15.0355
# 5 -14.6753 -9.5721 -27.1423 -1.8343 47.8009 -1.2178
# 6 -0.3177 10.2730 5.1613 -15.0355 -1.2178 27.8928
#
#
#
# Elastic Compliance Matrix: (Units=1/GPa)
#
#
# Indices 1 2 3 4 5 6 
#
# 1 0.006879 -0.002527 -0.005417 -0.000481 -0.001445 0.001689
# 2 -0.002527 0.016947 0.001006 -0.006740 0.002676 -0.009973
# 3 -0.005417 0.001006 0.025538 0.003273 0.013093 -0.002822
# 4 -0.000481 -0.006740 0.003273 0.034415 0.002205 0.020519
# 5 -0.001445 0.002676 0.013093 0.002205 0.028506 -0.000992
# 6 0.001689 -0.009973 -0.002822 0.020519 -0.000992 0.051083
#
#
# Mechanical properties :
#
#
# Convention : Reuss Voigt Hill
#
# Bulk Modulus (GPa) = 28.17819 55.06465 41.62142
# Shear Modulus (GPa) = 26.44493 39.44293 32.94393
#
# Velocity S-wave (km/s) = 3.30740 4.03925 3.69150
# Velocity P-wave (km/s) = 5.12260 6.67319 5.94863
#
# Compressibility (1/GPa) = 0.03548844
#
# Stress axis : x y z
#
# Youngs Moduli (GPa) = 145.37527 59.00785 39.15751
#
# Poissons Ratio (x) = 0.14909 0.21212
# Poissons Ratio (y) = 0.36730 -0.03939
# Poissons Ratio (z) = 0.78751 -0.05936
#
# Static dielectric constant tensor:
#      x y z
#    x 1.938460 0.017500 -0.038800 
#    y 0.017500 2.001100 0.000160 
#    z -0.038800 0.000160 2.005980 
# 
# From -- ./inp_files/53589.got.cif
#   From: 2010.05.17/outbox.cif.g08.bks.cpg/sg2_27_cif.got.tgz:53589.got - 2010.06.03 11:33:40.
