data_PCOD9015178
_publ_section_title
;
Structure prediction by ZEFSAII (Michael W. Deem and Ramdas Pophale) SiO2 
 PCOD9015178
Probable space group: P -1
;
_chemical_formula_sum "Si O2"
_cell_formula_units_Z 14
_cell_length_a 11.902722
_cell_length_b 13.874338
_cell_length_c 9.132007
_cell_angle_alpha 29.103705
_cell_angle_beta 132.421700
_cell_angle_gamma 124.843125
_cell_volume 540.796544
_symmetry_space_group_name_H-M "P -1"
_symmetry_group_IT_number 2
_symmetry_cell_setting 'triclinic'
loop_
_space_group_symop_operation_xyz
x,y,z
-x,-y,-z
loop_
_atom_site_type_symbol
_atom_site_label
_atom_site_fract_x
_atom_site_fract_y
_atom_site_fract_z
Si Si1 0.700431 0.301060 0.240605
Si Si2 0.604073 0.788821 0.013976
Si Si3 0.400963 0.290815 0.543419
Si Si4 0.653859 0.379520 0.438518
Si Si5 0.893342 0.824184 0.604291
Si Si6 0.042038 0.135937 0.709693
Si Si7 0.986415 0.300529 0.842152
O O1 0.656283 0.355763 0.297740
O O2 0.879478 0.234103 0.490638
O O3 0.572309 0.145845 0.280113
O O4 0.673123 0.490483 0.856629
O O5 0.574284 0.720197 0.246664
O O6 0.635296 0.606248 0.172437
O O7 0.778306 0.874494 0.060907
O O8 0.531097 0.265152 0.571749
O O9 0.283737 0.122336 0.632006
O O10 0.815018 0.301689 0.744398
O O11 0.938432 0.754447 0.575072
O O12 0.000000 0.000000 0.500000
O O13 0.910355 0.687867 0.941335
O O14 0.006523 0.091569 0.054523
O O15 0.000000 0.500000 0.500000
#
# Coordination Sequence:
#
# PCOD9015178 Si02
#       7
#     2   2   2   2   2   2   2
#     4  11  23  42  71 108 150 192 240 306 365 438
#     4  10  23  43  73 106 145 191 245 306 358 434
#     4  10  21  41  72 105 141 190 245 298 365 435
#     4  11  24  41  68 106 143 196 239 290 374 437
#     4   9  21  43  70 104 137 185 245 301 357 428
#     4  10  25  46  72 111 142 189 253 299 369 432
#     4  11  25  46  72 105 147 194 237 302 372 444
#
# _framework density 25.887740000000001
#
# number of rings (size 3 to 8) (size 9 to 14) (size 15 to 20)
#    0.000    1.714    0.000    4.286    8.000    1.714 
#    5.143    2.857    0.000    0.000    0.000    0.000 
#    0.000    0.000    0.000    0.000    0.000    0.000 
#
# Total GULP energy -78066.558838 kJ/mol
# GULP energy per Si atom -5576.182774 kJ/mol
# Density = 2.582882 g / cm^3
# Si number density = 25.887740 Si / 1000 Ang^3
#
#
#
# Elastic Constant Matrix: (Units=GPa)
#
#
# Indices 1 2 3 4 5 6 
#
# 1 168.3190 60.6056 16.4292 13.2022 -7.3615 23.8135
# 2 60.6056 153.8744 45.3013 26.9462 -8.1285 32.9911
# 3 16.4292 45.3013 76.0638 17.9876 -7.0795 1.1709
# 4 13.2022 26.9462 17.9876 53.8517 -0.2244 -3.8192
# 5 -7.3615 -8.1285 -7.0795 -0.2244 45.0014 0.2196
# 6 23.8135 32.9911 1.1709 -3.8192 0.2196 35.6575
#
#
#
# Elastic Compliance Matrix: (Units=1/GPa)
#
#
# Indices 1 2 3 4 5 6 
#
# 1 0.007199 -0.001932 -0.000041 -0.001003 0.000832 -0.003131
# 2 -0.001932 0.011753 -0.005314 -0.004329 0.000998 -0.009879
# 3 -0.000041 -0.005314 0.017061 -0.002733 0.001684 0.004081
# 4 -0.001003 -0.004329 -0.002733 0.022398 -0.001299 0.007172
# 5 0.000832 0.000998 0.001684 -0.001299 0.022805 -0.001814
# 6 -0.003131 -0.009879 0.004081 0.007172 -0.001814 0.039921
#
#
# Mechanical properties :
#
#
# Convention : Reuss Voigt Hill
#
# Bulk Modulus (GPa) = 46.64628 71.43660 59.04144
# Shear Modulus (GPa) = 34.99980 45.29685 40.14833
#
# Velocity S-wave (km/s) = 3.68092 4.18753 3.94237
# Velocity P-wave (km/s) = 6.01027 7.14389 6.60146
#
# Compressibility (1/GPa) = 0.02143794
#
# Stress axis : x y z
#
# Youngs Moduli (GPa) = 138.90940 85.08324 58.61387
#
# Poissons Ratio (x) = 0.16441 0.00242
# Poissons Ratio (y) = 0.26843 0.31147
# Poissons Ratio (z) = 0.00573 0.45212
#
# Static dielectric constant tensor:
#      x y z
#    x 2.092210 0.001470 -0.009790 
#    y 0.001470 2.237630 -0.072150 
#    z -0.009790 -0.072150 2.171400 
# 
# From -- ./inp_files/271648.got.cif
#   From: 2010.05.17/outbox.cif.g08.bks.cpg/sg2_136_cif.got.tgz:271648.got - 2010.06.03 11:33:40.
