data_PCOD9016054
_publ_section_title
;
Structure prediction by ZEFSAII (Michael W. Deem and Ramdas Pophale) SiO2 
 PCOD9016054
Probable space group: P -1
;
_chemical_formula_sum "Si O2"
_cell_formula_units_Z 16
_cell_length_a 11.828420
_cell_length_b 7.615979
_cell_length_c 23.123287
_cell_angle_alpha 128.222649
_cell_angle_beta 27.891388
_cell_angle_gamma 112.918172
_cell_volume 691.743396
_symmetry_space_group_name_H-M "P -1"
_symmetry_group_IT_number 2
_symmetry_cell_setting 'triclinic'
loop_
_space_group_symop_operation_xyz
x,y,z
-x,-y,-z
loop_
_atom_site_type_symbol
_atom_site_label
_atom_site_fract_x
_atom_site_fract_y
_atom_site_fract_z
Si Si1 0.454558 0.846930 0.155714
Si Si2 0.449493 0.490741 0.252628
Si Si3 0.907461 0.969089 0.973245
Si Si4 0.283984 0.003805 0.383594
Si Si5 0.738344 0.268951 0.490936
Si Si6 0.963136 0.741641 0.344395
Si Si7 0.696939 0.453311 0.348537
Si Si8 0.295123 0.160659 0.176060
O O1 0.364483 0.036000 0.289457
O O2 0.270946 0.696228 0.209371
O O3 0.377483 0.978508 0.156318
O O4 0.766878 0.779188 0.003870
O O5 0.477305 0.732258 0.265293
O O6 0.292428 0.579554 0.403389
O O7 0.319192 0.400973 0.240575
O O8 0.712265 0.240385 0.094627
O O9 0.159935 0.833783 0.790885
O O10 0.000000 0.000000 0.000000
O O11 0.213320 0.202378 0.506015
O O12 0.000000 0.000000 0.500000
O O13 0.466237 0.393508 0.602606
O O14 0.977677 0.242690 0.333345
O O15 0.824569 0.992922 0.420468
O O16 0.922457 0.533759 0.285970
O O17 0.500000 0.500000 0.500000
O O18 0.500000 0.000000 0.000000
#
# Coordination Sequence:
#
# PCOD9016054 Si02
#       8
#     2   2   2   2   2   2   2   2
#     4   9  21  42  68  92 133 177 215 282 327 395
#     4  10  21  42  68  94 134 176 226 278 328 412
#     4  11  24  45  64  96 140 179 231 270 340 404
#     4   9  19  40  68 101 125 168 226 278 333 399
#     4  10  21  42  66  93 130 181 222 274 341 406
#     4   9  21  43  67  98 131 169 235 275 341 397
#     4  12  27  40  66  98 135 183 220 285 338 404
#     4  10  22  39  65 102 136 170 221 282 341 400
#
# _framework density 23.129964999999999
#
# number of rings (size 3 to 8) (size 9 to 14) (size 15 to 20)
#    0.000    2.000    1.250    1.500    5.250    4.500 
#    4.500    1.875    0.000    0.000    0.000    0.000 
#    0.000    0.000    0.000    0.000    0.000    0.000 
#
# Total GULP energy -89159.612706 kJ/mol
# GULP energy per Si atom -5572.475794 kJ/mol
# Density = 2.307732 g / cm^3
# Si number density = 23.129965 Si / 1000 Ang^3
#
#
#
# Elastic Constant Matrix: (Units=GPa)
#
#
# Indices 1 2 3 4 5 6 
#
# 1 119.1521 43.7718 49.9887 -1.6749 17.4994 0.7341
# 2 43.7718 50.1407 36.0728 0.3553 17.4507 0.6259
# 3 49.9887 36.0728 136.3820 0.7088 38.3198 -2.9905
# 4 -1.6749 0.3553 0.7088 27.5083 -0.7023 2.9541
# 5 17.4994 17.4507 38.3198 -0.7023 53.3942 -6.0993
# 6 0.7341 0.6259 -2.9905 2.9541 -6.0993 39.1598
#
#
#
# Elastic Compliance Matrix: (Units=1/GPa)
#
#
# Indices 1 2 3 4 5 6 
#
# 1 0.012892 -0.009811 -0.002318 0.001013 0.000631 -0.000240
# 2 -0.009811 0.032973 -0.003732 -0.000912 -0.005049 -0.001346
# 3 -0.002318 -0.003732 0.010793 -0.000526 -0.005766 0.000069
# 4 0.001013 -0.000912 -0.000526 0.036747 0.000514 -0.002737
# 5 0.000631 -0.005049 -0.005766 0.000514 0.024710 0.003438
# 6 -0.000240 -0.001346 0.000069 -0.002737 0.003438 0.026310
#
#
# Mechanical properties :
#
#
# Convention : Reuss Voigt Hill
#
# Bulk Modulus (GPa) = 40.09948 62.81571 51.45760
# Shear Modulus (GPa) = 27.10629 35.73524 31.42076
#
# Velocity S-wave (km/s) = 3.42703 3.93488 3.68971
# Velocity P-wave (km/s) = 5.74749 6.91817 6.35982
#
# Compressibility (1/GPa) = 0.02493798
#
# Stress axis : x y z
#
# Youngs Moduli (GPa) = 77.56512 30.32742 92.64912
#
# Poissons Ratio (x) = 0.29753 0.21480
# Poissons Ratio (y) = 0.76096 0.34574
# Poissons Ratio (z) = 0.17983 0.11317
#
# Static dielectric constant tensor:
#      x y z
#    x 1.956850 -0.007910 -0.020540 
#    y -0.007910 1.959640 -0.060560 
#    z -0.020540 -0.060560 1.926960 
# 
# From -- ./inp_files/609864.got.cif
#   From: 2010.05.17/outbox.cif.g08.bks.cpg/sg2_305_cif.got.tgz:609864.got - 2010.06.03 11:33:40.
