data_PCOD9016328
_publ_section_title
;
Structure prediction by ZEFSAII (Michael W. Deem and Ramdas Pophale) SiO2 
 PCOD9016328
Probable space group: P -1
;
_chemical_formula_sum "Si O2"
_cell_formula_units_Z 15
_cell_length_a 20.590221
_cell_length_b 15.694950
_cell_length_c 7.380443
_cell_angle_alpha 41.925188
_cell_angle_beta 44.458173
_cell_angle_gamma 27.181037
_cell_volume 717.364573
_symmetry_space_group_name_H-M "P -1"
_symmetry_group_IT_number 2
_symmetry_cell_setting 'triclinic'
loop_
_space_group_symop_operation_xyz
x,y,z
-x,-y,-z
loop_
_atom_site_type_symbol
_atom_site_label
_atom_site_fract_x
_atom_site_fract_y
_atom_site_fract_z
Si Si1 0.160990 0.828327 0.029924
Si Si2 0.615197 0.998566 0.983632
Si Si3 0.296142 0.260232 0.100969
Si Si4 0.181334 0.262236 0.680458
Si Si5 0.120563 0.645049 0.640482
Si Si6 0.357767 0.728258 0.476125
Si Si7 0.000000 0.500000 0.000000
Si Si8 0.867898 0.982995 0.847088
O O1 0.185632 0.661524 0.325535
O O2 0.157484 0.922588 0.062389
O O3 0.274802 0.752914 0.772246
O O4 0.000000 0.000000 0.000000
O O5 0.610033 0.156377 0.728798
O O6 0.720386 0.824777 0.896624
O O7 0.460527 0.100696 0.090610
O O8 0.679948 0.890335 0.219179
O O9 0.207621 0.313452 0.367459
O O10 0.243627 0.447106 0.824798
O O11 0.059154 0.448622 0.755721
O O12 0.149751 0.149412 0.874581
O O13 0.021412 0.832661 0.676370
O O14 0.022992 0.632962 0.776420
O O15 0.500000 0.500000 0.500000
O O16 0.250193 0.845944 0.333161
#
# Coordination Sequence:
#
# PCOD9016328 Si02
#       8
#     2   2   2   2   2   2   1   2
#     4  12  26  45  73  97 137 182 225 291 337 393
#     4  10  23  45  64  99 137 171 231 273 337 412
#     4  11  23  41  69  98 134 180 220 281 337 404
#     4  10  21  42  67  93 137 174 215 279 332 402
#     4  11  24  42  69 102 135 173 231 277 335 417
#     4  11  26  47  70  99 137 184 224 283 342 406
#     4  10  22  40  62 100 132 166 224 264 334 400
#     4  10  24  45  67 102 136 172 235 277 339 410
#
# _framework density 20.909867999999999
#
# number of rings (size 3 to 8) (size 9 to 14) (size 15 to 20)
#    0.000    1.333    2.667    1.600    1.867    5.867 
#    9.600    0.000    0.000    0.000    0.000    0.000 
#    0.000    0.000    0.000    0.000    0.000    0.000 
#
# Total GULP energy -83648.210829 kJ/mol
# GULP energy per Si atom -5576.547389 kJ/mol
# Density = 2.086228 g / cm^3
# Si number density = 20.909868 Si / 1000 Ang^3
#
#
#
# Elastic Constant Matrix: (Units=GPa)
#
#
# Indices 1 2 3 4 5 6 
#
# 1 72.4790 11.0344 26.2345 10.1632 8.8434 26.0391
# 2 11.0344 98.4233 32.7177 9.3967 8.8263 22.9418
# 3 26.2345 32.7177 147.6168 13.8428 18.5344 20.3933
# 4 10.1632 9.3967 13.8428 36.7176 2.2272 7.1612
# 5 8.8434 8.8263 18.5344 2.2272 18.1661 -0.5137
# 6 26.0391 22.9418 20.3933 7.1612 -0.5137 30.9914
#
#
#
# Elastic Compliance Matrix: (Units=1/GPa)
#
#
# Indices 1 2 3 4 5 6 
#
# 1 0.023074 0.003981 -0.000038 -0.002282 -0.013471 -0.022004
# 2 0.003981 0.013839 -0.000876 -0.001326 -0.007968 -0.012838
# 3 -0.000038 -0.000876 0.008884 -0.001634 -0.008559 -0.004930
# 4 -0.002282 -0.001326 -0.001634 0.029388 -0.000260 -0.002821
# 5 -0.013471 -0.007968 -0.008559 -0.000260 0.074924 0.024151
# 6 -0.022004 -0.012838 -0.004930 -0.002821 0.024151 0.064555
#
#
# Mechanical properties :
#
#
# Convention : Reuss Voigt Hill
#
# Bulk Modulus (GPa) = 19.25660 50.94357 35.10008
# Shear Modulus (GPa) = 22.13952 33.74385 27.94169
#
# Velocity S-wave (km/s) = 3.25746 4.02154 3.65950
# Velocity P-wave (km/s) = 4.83502 6.78086 5.88886
#
# Compressibility (1/GPa) = 0.05193025
#
# Stress axis : x y z
#
# Youngs Moduli (GPa) = 43.33931 72.26056 112.55912
#
# Poissons Ratio (x) = -0.28765 0.00424
# Poissons Ratio (y) = -0.17252 0.09864
# Poissons Ratio (z) = 0.00163 0.06332
#
# Static dielectric constant tensor:
#      x y z
#    x 1.871800 -0.174680 0.007460 
#    y -0.174680 1.980180 -0.050310 
#    z 0.007460 -0.050310 1.722610 
# 
# From -- ./inp_files/100520.got.cif
#   From: 2010.05.17/outbox.cif.g08.bks.cpg/sg2_51_cif.got.tgz:100520.got - 2010.06.03 11:33:40.
