data_PCOD9016579
_publ_section_title
;
Structure prediction by ZEFSAII (Michael W. Deem and Ramdas Pophale) SiO2 
 PCOD9016579
Probable space group: P -1
;
_chemical_formula_sum "Si O2"
_cell_formula_units_Z 16
_cell_length_a 11.660127
_cell_length_b 11.645120
_cell_length_c 11.968753
_cell_angle_alpha 59.762251
_cell_angle_beta 53.070125
_cell_angle_gamma 32.276872
_cell_volume 693.700439
_symmetry_space_group_name_H-M "P -1"
_symmetry_group_IT_number 2
_symmetry_cell_setting 'triclinic'
loop_
_space_group_symop_operation_xyz
x,y,z
-x,-y,-z
loop_
_atom_site_type_symbol
_atom_site_label
_atom_site_fract_x
_atom_site_fract_y
_atom_site_fract_z
Si Si1 0.681650 0.627216 0.383564
Si Si2 0.117745 0.251000 0.153283
Si Si3 0.937942 0.303833 0.583865
Si Si4 0.801043 0.032053 0.593194
Si Si5 0.825340 0.496881 0.993285
Si Si6 0.143520 0.218779 0.739502
Si Si7 0.271665 0.838701 0.909007
Si Si8 0.437474 0.605459 0.154063
O O1 0.884832 0.441746 0.269407
O O2 0.750258 0.522520 0.516128
O O3 0.698270 0.773932 0.317732
O O4 0.446578 0.738829 0.417355
O O5 0.220179 0.040850 0.245882
O O6 0.249149 0.294991 0.072835
O O7 0.043257 0.311837 0.038261
O O8 0.802756 0.269616 0.717730
O O9 0.126242 0.123173 0.471622
O O10 0.046549 0.295083 0.632519
O O11 0.000000 0.000000 0.500000
O O12 0.918768 0.382653 0.873462
O O13 0.619629 0.560949 0.135106
O O14 0.278326 0.982876 0.790360
O O15 0.415723 0.631577 0.850672
O O16 0.380371 0.737552 0.016143
O O17 0.000000 0.000000 0.000000
#
# Coordination Sequence:
#
# PCOD9016579 Si02
#       8
#     2   2   2   2   2   2   2   2
#     4  10  25  45  67  93 128 180 214 268 325 367
#     4   9  23  45  64  95 128 165 224 264 322 380
#     4  11  25  43  65  99 133 170 219 262 320 388
#     4  11  27  45  67  94 125 174 227 268 310 384
#     4  10  21  42  68  94 132 168 205 276 321 383
#     4  11  22  43  68  97 136 165 215 266 323 400
#     4  11  21  39  56  95 133 164 206 251 318 391
#     4  11  23  36  63  93 129 172 201 259 327 372
#
# _framework density 23.064710999999999
#
# number of rings (size 3 to 8) (size 9 to 14) (size 15 to 20)
#    0.000    1.500    2.500    1.125    7.000    2.500 
#    2.250    1.875    0.000    0.000    0.000    0.000 
#    0.000    0.000    0.000    0.000    0.000    0.000 
#
# Total GULP energy -89421.894585 kJ/mol
# GULP energy per Si atom -5588.868412 kJ/mol
# Density = 2.301221 g / cm^3
# Si number density = 23.064711 Si / 1000 Ang^3
#
#
#
# Elastic Constant Matrix: (Units=GPa)
#
#
# Indices 1 2 3 4 5 6 
#
# 1 76.0958 17.2968 20.0902 -6.1804 3.3568 -7.6962
# 2 17.2968 48.5943 11.9730 -27.6451 12.5774 -11.0882
# 3 20.0902 11.9730 82.6083 -20.3184 12.4624 3.7276
# 4 -6.1804 -27.6451 -20.3184 36.1516 5.6640 -11.2162
# 5 3.3568 12.5774 12.4624 5.6640 30.4784 12.2379
# 6 -7.6962 -11.0882 3.7276 -11.2162 12.2379 12.5502
#
#
#
# Elastic Compliance Matrix: (Units=1/GPa)
#
#
# Indices 1 2 3 4 5 6 
#
# 1 0.015493 -0.004780 -0.003797 -0.001876 0.000441 0.004299
# 2 -0.004780 0.000470 -0.004459 -0.017075 0.019614 -0.035577
# 3 -0.003797 -0.004459 0.014182 0.000501 0.000649 -0.010665
# 4 -0.001876 -0.017075 0.000501 -0.002576 0.024702 -0.042775
# 5 0.000441 0.019614 0.000649 0.024702 0.006505 0.033141
# 6 0.004299 -0.035577 -0.010665 -0.042775 0.033141 -0.016493
#
#
# Mechanical properties :
#
#
# Convention : Reuss Voigt Hill
#
# Bulk Modulus (GPa) = 245.53097 34.00205 139.76651
# Shear Modulus (GPa) = 111.08517 26.36527 68.72522
#
# Velocity S-wave (km/s) = 6.94744 3.38464 5.46456
# Velocity P-wave (km/s) = 13.07823 5.48165 10.02718
#
# Compressibility (1/GPa) = 0.00407281
#
# Stress axis : x y z
#
# Youngs Moduli (GPa) = 64.54445 2126.98154 70.51352
#
# Poissons Ratio (x) = 10.16672 0.26775
# Poissons Ratio (y) = 0.30851 0.31442
# Poissons Ratio (z) = 0.24509 9.48435
#
# Static dielectric constant tensor:
#      x y z
#    x 1.894600 -0.004600 -0.010870 
#    y -0.004600 1.876890 0.002500 
#    z -0.010870 0.002500 1.887980 
# 
# From -- ./inp_files/69910.got.cif
#   From: 2010.05.17/outbox.cif.g08.bks.cpg/sg2_35_cif.got.tgz:69910.got - 2010.06.03 11:33:40.
