data_PCOD9016227
_publ_section_title
;
Structure prediction by ZEFSAII (Michael W. Deem and Ramdas Pophale) SiO2 
 PCOD9016227
Probable space group: P -1
;
_chemical_formula_sum "Si O2"
_cell_formula_units_Z 16
_cell_length_a 6.430042
_cell_length_b 14.031943
_cell_length_c 12.768221
_cell_angle_alpha 127.392635
_cell_angle_beta 48.989159
_cell_angle_gamma 126.521249
_cell_volume 652.450505
_symmetry_space_group_name_H-M "P -1"
_symmetry_group_IT_number 2
_symmetry_cell_setting 'triclinic'
loop_
_space_group_symop_operation_xyz
x,y,z
-x,-y,-z
loop_
_atom_site_type_symbol
_atom_site_label
_atom_site_fract_x
_atom_site_fract_y
_atom_site_fract_z
Si Si1 0.423510 0.158380 0.295700
Si Si2 0.848181 0.983757 0.424065
Si Si3 0.515003 0.539645 0.701865
Si Si4 0.345735 0.795739 0.292725
Si Si5 0.302171 0.760360 0.959231
Si Si6 0.318393 0.040161 0.874743
Si Si7 0.132838 0.377919 0.548427
Si Si8 0.180894 0.291432 0.763795
O O1 0.638102 0.203079 0.156948
O O2 0.309447 0.275691 0.444266
O O3 0.585452 0.083846 0.266939
O O4 0.111308 0.051908 0.302691
O O5 0.727647 0.834493 0.344469
O O6 0.673380 0.080092 0.559864
O O7 0.000000 0.000000 0.500000
O O8 0.468055 0.657965 0.854339
O O9 0.283153 0.496395 0.653006
O O10 0.186676 0.415071 0.433499
O O11 0.416755 0.418251 0.728022
O O12 0.628799 0.857832 0.168574
O O13 0.090252 0.747486 0.254851
O O14 0.199909 0.681980 0.345520
O O15 0.462738 0.885142 0.056417
O O16 0.973605 0.698048 0.068334
O O17 0.000000 0.000000 0.000000
#
# Coordination Sequence:
#
# PCOD9016227 Si02
#       8
#     2   2   2   2   2   2   2   2
#     4  10  17  30  51  72  96 123 160 198 239 276
#     4   9  13  24  45  72  92 116 154 198 236 268
#     4   9  16  26  43  75 101 118 152 196 248 274
#     4   8  15  27  44  67  93 120 155 195 236 273
#     4  10  19  30  45  72 105 127 149 198 239 281
#     4  11  21  31  47  71  99 130 158 191 239 292
#     4   8  16  27  48  75  95 120 155 203 236 278
#     4   9  15  23  42  71 100 119 145 192 241 280
#
# _framework density 24.522931
#
# number of rings (size 3 to 8) (size 9 to 14) (size 15 to 20)
#    0.000    2.750    3.750    1.500    0.000    0.000 
#    0.000    0.000    0.000    7.500    0.000   54.250 
#    0.000    0.000    0.000    0.000    0.000    0.000 
#
# Total GULP energy -89181.563012 kJ/mol
# GULP energy per Si atom -5573.847688 kJ/mol
# Density = 2.446712 g / cm^3
# Si number density = 24.522931 Si / 1000 Ang^3
#
#
#
# Elastic Constant Matrix: (Units=GPa)
#
#
# Indices 1 2 3 4 5 6 
#
# 1 30.2580 15.1955 7.8736 -3.7349 -8.0513 -12.9895
# 2 15.1955 160.3716 50.0719 -42.6407 -9.0074 -10.0982
# 3 7.8736 50.0719 108.8019 -35.8215 -1.4890 -11.4105
# 4 -3.7349 -42.6407 -35.8215 65.0257 3.7685 1.8133
# 5 -8.0513 -9.0074 -1.4890 3.7685 17.1548 5.4011
# 6 -12.9895 -10.0982 -11.4105 1.8133 5.4011 28.2842
#
#
#
# Elastic Compliance Matrix: (Units=1/GPa)
#
#
# Indices 1 2 3 4 5 6 
#
# 1 0.045596 -0.002436 -0.000345 -0.000505 0.014806 0.017136
# 2 -0.002436 0.008375 -0.002321 0.003944 0.002098 0.000281
# 3 -0.000345 -0.002321 0.012456 0.005364 -0.002810 0.004230
# 4 -0.000505 0.003944 0.005364 0.021000 -0.003130 0.002592
# 5 0.014806 0.002098 -0.002810 -0.003130 0.068843 -0.006530
# 6 0.017136 0.000281 0.004230 0.002592 -0.006530 0.046113
#
#
# Mechanical properties :
#
#
# Convention : Reuss Voigt Hill
#
# Bulk Modulus (GPa) = 17.78653 49.52373 33.65513
# Shear Modulus (GPa) = 21.61424 37.17897 29.39661
#
# Velocity S-wave (km/s) = 2.97204 3.89792 3.46604
# Velocity P-wave (km/s) = 4.36419 6.36374 5.45634
#
# Compressibility (1/GPa) = 0.05622233
#
# Stress axis : x y z
#
# Youngs Moduli (GPa) = 21.93169 119.39818 80.28471
#
# Poissons Ratio (x) = 0.29088 0.02768
# Poissons Ratio (y) = 0.05343 0.18637
# Poissons Ratio (z) = 0.00756 0.27717
#
# Static dielectric constant tensor:
#      x y z
#    x 2.080140 -0.019830 -0.035220 
#    y -0.019830 1.975470 -0.065160 
#    z -0.035220 -0.065160 1.972170 
# 
# From -- ./inp_files/259641.got.cif
#   From: 2010.05.17/outbox.cif.g08.bks.cpg/sg2_130_cif.got.tgz:259641.got - 2010.06.03 11:33:40.
