data_PCOD9016303
_publ_section_title
;
Structure prediction by ZEFSAII (Michael W. Deem and Ramdas Pophale) SiO2 
 PCOD9016303
Probable space group: P -1
;
_chemical_formula_sum "Si O2"
_cell_formula_units_Z 16
_cell_length_a 11.935422
_cell_length_b 15.592243
_cell_length_c 7.706966
_cell_angle_alpha 84.689153
_cell_angle_beta 106.358876
_cell_angle_gamma 37.598524
_cell_volume 707.089904
_symmetry_space_group_name_H-M "P -1"
_symmetry_group_IT_number 2
_symmetry_cell_setting 'triclinic'
loop_
_space_group_symop_operation_xyz
x,y,z
-x,-y,-z
loop_
_atom_site_type_symbol
_atom_site_label
_atom_site_fract_x
_atom_site_fract_y
_atom_site_fract_z
Si Si1 0.337213 0.815812 0.294251
Si Si2 0.065248 0.348475 0.422724
Si Si3 0.546430 0.086475 0.823153
Si Si4 0.932864 0.713502 0.936612
Si Si5 0.892223 0.167107 0.596768
Si Si6 0.653774 0.169547 0.324187
Si Si7 0.797536 0.422957 0.590214
Si Si8 0.728807 0.687059 0.038215
O O1 0.354169 0.879416 0.149868
O O2 0.133480 0.879187 0.237588
O O3 0.356763 0.855860 0.477293
O O4 0.554912 0.617094 0.407936
O O5 0.976103 0.358603 0.555455
O O6 0.909063 0.529269 0.274352
O O7 0.325095 0.211797 0.584074
O O8 0.036249 0.303499 0.252722
O O9 0.444687 0.143606 0.960998
O O10 0.741046 0.899829 0.884340
O O11 0.846635 0.671821 0.950691
O O12 0.141323 0.599277 0.177964
O O13 0.726908 0.222866 0.375747
O O14 0.814557 0.311341 0.579218
O O15 0.140141 0.005098 0.654105
O O16 0.419513 0.295567 0.110029
#
# Coordination Sequence:
#
# PCOD9016303 Si02
#       8
#     2   2   2   2   2   2   2   2
#     4  10  21  42  67  92 131 176 215 265 332 380
#     4  12  26  42  66 101 136 175 214 273 335 393
#     4  12  24  42  65 101 136 172 218 274 331 394
#     4  12  27  40  69 102 135 172 220 271 332 401
#     4   9  22  41  71  93 131 180 217 273 329 383
#     4   9  21  40  69  94 125 179 219 268 326 386
#     4  12  23  45  68 100 135 173 221 269 330 396
#     4  12  22  44  65  99 136 172 220 268 335 396
#
# _framework density 22.627956999999999
#
# number of rings (size 3 to 8) (size 9 to 14) (size 15 to 20)
#    0.750    0.250    2.500    4.875    3.500    0.000 
#    0.000    4.375    0.000    0.000    0.000    0.000 
#    0.000    0.000    0.000    0.000    0.000    0.000 
#
# Total GULP energy -89431.489493 kJ/mol
# GULP energy per Si atom -5589.468093 kJ/mol
# Density = 2.257645 g / cm^3
# Si number density = 22.627957 Si / 1000 Ang^3
#
#
#
# Elastic Constant Matrix: (Units=GPa)
#
#
# Indices 1 2 3 4 5 6 
#
# 1 58.1562 13.2154 6.3712 -3.0306 2.5415 16.9518
# 2 13.2154 113.3732 -0.5518 12.0580 -0.9305 16.4285
# 3 6.3712 -0.5518 57.8436 12.2877 16.4225 13.6099
# 4 -3.0306 12.0580 12.2877 29.0294 -1.5757 -4.7667
# 5 2.5415 -0.9305 16.4225 -1.5757 30.4696 9.3132
# 6 16.9518 16.4285 13.6099 -4.7667 9.3132 29.1324
#
#
#
# Elastic Compliance Matrix: (Units=1/GPa)
#
#
# Indices 1 2 3 4 5 6 
#
# 1 0.020885 -0.000713 -0.000161 0.000649 0.002097 -0.012240
# 2 -0.000713 0.011062 0.003740 -0.007701 0.000756 -0.009072
# 3 -0.000161 0.003740 0.027102 -0.015899 -0.011106 -0.013728
# 4 0.000649 -0.007701 -0.015899 0.047603 0.005407 0.017453
# 5 0.002097 0.000756 -0.011106 0.005407 0.041650 -0.008889
# 6 -0.012240 -0.009072 -0.013728 0.017453 -0.008889 0.058674
#
#
# Mechanical properties :
#
#
# Convention : Reuss Voigt Hill
#
# Bulk Modulus (GPa) = 15.43701 29.71585 22.57643
# Shear Modulus (GPa) = 22.43786 31.74882 27.09334
#
# Velocity S-wave (km/s) = 3.15238 3.74983 3.46401
# Velocity P-wave (km/s) = 4.48184 5.64882 5.09883
#
# Compressibility (1/GPa) = 0.06477937
#
# Stress axis : x y z
#
# Youngs Moduli (GPa) = 47.88218 90.40332 36.89782
#
# Poissons Ratio (x) = 0.06449 0.00593
# Poissons Ratio (y) = 0.03416 -0.13799
# Poissons Ratio (z) = 0.00769 -0.33808
#
# Static dielectric constant tensor:
#      x y z
#    x 1.822120 -0.014820 0.009600 
#    y -0.014820 1.834630 0.031530 
#    z 0.009600 0.031530 1.868720 
# 
# From -- ./inp_files/273230.got.cif
#   From: 2010.05.17/outbox.cif.g08.bks.cpg/sg2_137_cif.got.tgz:273230.got - 2010.06.03 11:33:40.
