data_PCOD9016428
_publ_section_title
;
Structure prediction by ZEFSAII (Michael W. Deem and Ramdas Pophale) SiO2 
 PCOD9016428
Probable space group: P -1
;
_chemical_formula_sum "Si O2"
_cell_formula_units_Z 15
_cell_length_a 7.975647
_cell_length_b 15.365597
_cell_length_c 7.137832
_cell_angle_alpha 116.494232
_cell_angle_beta 86.688346
_cell_angle_gamma 129.526765
_cell_volume 570.532050
_symmetry_space_group_name_H-M "P -1"
_symmetry_group_IT_number 2
_symmetry_cell_setting 'triclinic'
loop_
_space_group_symop_operation_xyz
x,y,z
-x,-y,-z
loop_
_atom_site_type_symbol
_atom_site_label
_atom_site_fract_x
_atom_site_fract_y
_atom_site_fract_z
Si Si1 0.792080 0.182581 0.155303
Si Si2 0.775338 0.607946 0.112659
Si Si3 0.581278 0.937532 0.675278
Si Si4 0.248934 0.443689 0.500005
Si Si5 0.000000 0.500000 0.000000
Si Si6 0.805787 0.857554 0.787047
Si Si7 0.624310 0.314583 0.137236
Si Si8 0.961493 0.099667 0.545612
O O1 0.679989 0.143821 0.333545
O O2 0.657855 0.216162 0.090478
O O3 0.056938 0.315108 0.268943
O O4 0.725019 0.059078 0.932929
O O5 0.809629 0.599140 0.322027
O O6 0.894110 0.760040 0.219003
O O7 0.500000 0.500000 0.000000
O O8 0.904708 0.565914 0.976471
O O9 0.635485 0.848595 0.648545
O O10 0.695072 0.004278 0.532708
O O11 0.500000 0.500000 0.500000
O O12 0.248122 0.560696 0.606500
O O13 0.259796 0.621934 0.009294
O O14 0.639932 0.761220 0.875486
O O15 0.952623 0.852878 0.626976
O O16 0.000000 0.000000 0.000000
O O17 0.000000 0.000000 0.500000
#
# Coordination Sequence:
#
# PCOD9016428 Si02
#       8
#     2   2   2   2   1   2   2   2
#     4  10  21  42  67  97 142 183 246 297 368 433
#     4  11  26  47  71 105 154 195 243 313 374 448
#     4   9  21  39  68  93 134 190 230 299 362 432
#     4  11  25  39  68 100 134 187 244 290 367 443
#     4  10  24  44  70 108 144 194 248 296 378 452
#     4  10  22  40  67  99 141 182 240 304 366 437
#     4  10  22  43  64 100 138 188 233 303 367 436
#     4  10  22  43  69 106 137 194 252 297 382 437
#
# _framework density 26.291249000000001
#
# number of rings (size 3 to 8) (size 9 to 14) (size 15 to 20)
#    0.000    1.867    0.000    2.000    7.467    3.200 
#   19.200    0.667    0.000    0.000    0.000    0.000 
#    0.000    0.000    0.000    0.000    0.000    0.000 
#
# Total GULP energy -83533.212618 kJ/mol
# GULP energy per Si atom -5568.880841 kJ/mol
# Density = 2.623141 g / cm^3
# Si number density = 26.291249 Si / 1000 Ang^3
#
#
#
# Elastic Constant Matrix: (Units=GPa)
#
#
# Indices 1 2 3 4 5 6 
#
# 1 135.8382 38.6282 16.5399 16.1910 -11.9042 7.7344
# 2 38.6282 196.7140 11.6062 -7.0378 1.1256 30.8971
# 3 16.5399 11.6062 42.9188 20.8879 3.7766 -0.4966
# 4 16.1910 -7.0378 20.8879 54.8451 -0.3129 -7.9371
# 5 -11.9042 1.1256 3.7766 -0.3129 24.0162 14.0910
# 6 7.7344 30.8971 -0.4966 -7.9371 14.0910 64.2107
#
#
#
# Elastic Compliance Matrix: (Units=1/GPa)
#
#
# Indices 1 2 3 4 5 6 
#
# 1 0.008977 -0.001400 -0.002623 -0.002088 0.006087 -0.002022
# 2 -0.001400 0.005950 -0.001925 0.001520 0.000951 -0.002730
# 3 -0.002623 -0.001925 0.030845 -0.011015 -0.007201 0.001699
# 4 -0.002088 0.001520 -0.011015 0.023594 -0.000513 0.002464
# 5 0.006087 0.000951 -0.007201 -0.000513 0.053378 -0.013024
# 6 -0.002022 -0.002730 0.001699 0.002464 -0.013024 0.020307
#
#
# Mechanical properties :
#
#
# Convention : Reuss Voigt Hill
#
# Bulk Modulus (GPa) = 29.51931 56.55774 43.03852
# Shear Modulus (GPa) = 30.07732 49.19418 39.63575
#
# Velocity S-wave (km/s) = 3.38598 4.33034 3.88695
# Velocity P-wave (km/s) = 5.15157 6.82358 6.04565
#
# Compressibility (1/GPa) = 0.03387613
#
# Stress axis : x y z
#
# Youngs Moduli (GPa) = 111.39972 168.07555 32.41964
#
# Poissons Ratio (x) = 0.23529 0.08505
# Poissons Ratio (y) = 0.15595 0.06239
# Poissons Ratio (z) = 0.29225 0.32346
#
# Static dielectric constant tensor:
#      x y z
#    x 2.151880 -0.037090 -0.070630 
#    y -0.037090 2.110130 -0.027000 
#    z -0.070630 -0.027000 2.071040 
# 
# From -- ./inp_files/218253.got.cif
#   From: 2010.05.17/outbox.cif.g08.bks.cpg/sg2_110_cif.got.tgz:218253.got - 2010.06.03 11:33:40.
