data_PCOD9016940
_publ_section_title
;
Structure prediction by ZEFSAII (Michael W. Deem and Ramdas Pophale) SiO2 
 PCOD9016940
Probable space group: P -1
;
_chemical_formula_sum "Si O2"
_cell_formula_units_Z 16
_cell_length_a 9.516013
_cell_length_b 11.580654
_cell_length_c 9.294675
_cell_angle_alpha 80.074715
_cell_angle_beta 41.384081
_cell_angle_gamma 80.967202
_cell_volume 666.423187
_symmetry_space_group_name_H-M "P -1"
_symmetry_group_IT_number 2
_symmetry_cell_setting 'triclinic'
loop_
_space_group_symop_operation_xyz
x,y,z
-x,-y,-z
loop_
_atom_site_type_symbol
_atom_site_label
_atom_site_fract_x
_atom_site_fract_y
_atom_site_fract_z
Si Si1 0.348529 0.107139 0.039475
Si Si2 0.012843 0.729634 0.673061
Si Si3 0.296311 0.844276 0.675716
Si Si4 0.756414 0.913400 0.197283
Si Si5 0.846891 0.504859 0.979093
Si Si6 0.686546 0.287331 0.799754
Si Si7 0.504909 0.350163 0.223823
Si Si8 0.055840 0.284129 0.704408
O O1 0.151671 0.163516 0.272660
O O2 0.243915 0.078063 0.974928
O O3 0.521225 0.205823 0.870087
O O4 0.500000 0.000000 0.000000
O O5 0.865944 0.631992 0.871749
O O6 0.158631 0.779184 0.677541
O O7 0.167744 0.665724 0.450288
O O8 0.511940 0.885596 0.428329
O O9 0.364952 0.756455 0.771625
O O10 0.193190 0.964546 0.792102
O O11 0.880396 0.801385 0.195470
O O12 0.947609 0.405067 0.818424
O O13 0.604340 0.465847 0.192651
O O14 0.000000 0.500000 0.000000
O O15 0.878896 0.223469 0.757342
O O16 0.554096 0.353700 0.014605
O O17 0.262979 0.322121 0.449547
#
# Coordination Sequence:
#
# PCOD9016940 Si02
#       8
#     2   2   2   2   2   2   2   2
#     4  12  27  44  68 105 139 184 233 286 350 414
#     4  12  26  44  71 102 142 184 229 291 351 407
#     4  10  21  42  70 102 136 180 232 281 345 415
#     4  10  22  43  72 103 136 180 234 286 341 418
#     4  11  23  43  70 107 141 181 238 287 344 411
#     4  11  25  46  67 103 144 178 233 285 348 415
#     4  10  22  44  70 103 141 183 233 283 342 416
#     4  10  24  44  74 102 139 190 230 285 349 411
#
# _framework density 24.008769000000001
#
# number of rings (size 3 to 8) (size 9 to 14) (size 15 to 20)
#    0.000    1.250    2.500    2.250    3.500    6.500 
#    0.000    3.750    0.000    0.000    0.000    0.000 
#    0.000    0.000    0.000    0.000    0.000    0.000 
#
# Total GULP energy -89409.740226 kJ/mol
# GULP energy per Si atom -5588.108764 kJ/mol
# Density = 2.395412 g / cm^3
# Si number density = 24.008769 Si / 1000 Ang^3
#
#
#
# Elastic Constant Matrix: (Units=GPa)
#
#
# Indices 1 2 3 4 5 6 
#
# 1 122.6290 31.7186 25.0221 7.6596 -5.6236 13.2226
# 2 31.7186 88.5069 15.3139 -7.9992 -1.8033 0.0226
# 3 25.0221 15.3139 101.7624 0.4575 -4.7445 -0.5761
# 4 7.6596 -7.9992 0.4575 30.3487 2.0786 -11.9755
# 5 -5.6236 -1.8033 -4.7445 2.0786 38.9936 3.4950
# 6 13.2226 0.0226 -0.5761 -11.9755 3.4950 34.8573
#
#
#
# Elastic Compliance Matrix: (Units=1/GPa)
#
#
# Indices 1 2 3 4 5 6 
#
# 1 0.010823 -0.004085 -0.001958 -0.006518 0.002071 -0.006582
# 2 -0.004085 0.013483 -0.001066 0.006112 -0.000753 0.003698
# 3 -0.001958 -0.001066 0.010512 0.000377 0.000841 0.000962
# 4 -0.006518 0.006112 0.000377 0.043575 -0.004539 0.017900
# 5 0.002071 -0.000753 0.000841 -0.004539 0.026702 -0.005008
# 6 -0.006582 0.003698 0.000962 0.017900 -0.005008 0.037850
#
#
# Mechanical properties :
#
#
# Convention : Reuss Voigt Hill
#
# Bulk Modulus (GPa) = 48.54532 50.77862 49.66197
# Shear Modulus (GPa) = 30.48239 36.89616 33.68928
#
# Velocity S-wave (km/s) = 3.56706 3.92443 3.75000
# Velocity P-wave (km/s) = 6.10155 6.45994 6.28330
#
# Compressibility (1/GPa) = 0.02059931
#
# Stress axis : x y z
#
# Youngs Moduli (GPa) = 92.39977 74.16696 95.13276
#
# Poissons Ratio (x) = 0.30297 0.18625
# Poissons Ratio (y) = 0.37745 0.10143
# Poissons Ratio (z) = 0.18090 0.07908
#
# Static dielectric constant tensor:
#      x y z
#    x 1.906290 0.009980 -0.020340 
#    y 0.009980 1.900390 0.026330 
#    z -0.020340 0.026330 1.985420 
# 
# From -- ./inp_files/187290.got.cif
#   From: 2010.05.17/outbox.cif.g08.bks.cpg/sg2_94_cif.got.tgz:187290.got - 2010.06.03 11:33:40.
