data_PCOD9016806
_publ_section_title
;
Structure prediction by ZEFSAII (Michael W. Deem and Ramdas Pophale) SiO2 
 PCOD9016806
Probable space group: P -1
;
_chemical_formula_sum "Si O2"
_cell_formula_units_Z 16
_cell_length_a 15.692905
_cell_length_b 11.890870
_cell_length_c 15.118159
_cell_angle_alpha 26.201384
_cell_angle_beta 44.127280
_cell_angle_gamma 61.216535
_cell_volume 736.110293
_symmetry_space_group_name_H-M "P -1"
_symmetry_group_IT_number 2
_symmetry_cell_setting 'triclinic'
loop_
_space_group_symop_operation_xyz
x,y,z
-x,-y,-z
loop_
_atom_site_type_symbol
_atom_site_label
_atom_site_fract_x
_atom_site_fract_y
_atom_site_fract_z
Si Si1 0.803221 0.204682 0.525231
Si Si2 0.076287 0.106368 0.092609
Si Si3 0.874639 0.788651 0.309925
Si Si4 0.721797 0.098243 0.861478
Si Si5 0.633280 0.258943 0.332392
Si Si6 0.040601 0.284320 0.176438
Si Si7 0.480165 0.044169 0.194996
Si Si8 0.401907 0.281010 0.371066
O O1 0.871358 0.563455 0.216898
O O2 0.737116 0.074640 0.761954
O O3 0.928591 0.158545 0.429295
O O4 0.676016 0.054979 0.654733
O O5 0.029189 0.073033 0.253802
O O6 0.211488 0.066122 0.020553
O O7 0.946242 0.868530 0.296957
O O8 0.817346 0.449567 0.565850
O O9 0.739259 0.833770 0.381270
O O10 0.000000 0.000000 0.000000
O O11 0.565475 0.997770 0.085836
O O12 0.543244 0.332730 0.279790
O O13 0.543807 0.160612 0.559089
O O14 0.634605 0.971472 0.496403
O O15 0.796205 0.517232 0.050132
O O16 0.000000 0.500000 0.000000
O O17 0.562362 0.392710 0.916408
#
# Coordination Sequence:
#
# PCOD9016806 Si02
#       8
#     2   2   2   2   2   2   2   2
#     4  11  23  43  65  96 134 168 209 269 323 373
#     4  11  23  43  67  96 126 171 213 266 320 376
#     4  11  23  44  67  90 134 169 209 272 316 376
#     4  11  26  41  64 100 125 174 219 253 327 387
#     4  11  22  44  66  96 127 173 217 263 320 381
#     4  10  21  42  69  94 126 169 214 264 324 371
#     4  11  24  41  65  93 137 168 213 266 315 389
#     4  10  25  42  65  96 130 172 219 260 322 380
#
# _framework density 21.735873000000002
#
# number of rings (size 3 to 8) (size 9 to 14) (size 15 to 20)
#    0.000    1.250    3.750    2.625    3.500    1.000 
#    0.000    0.000    0.000    0.000    0.000    0.000 
#    0.000    0.000    0.000    0.000    0.000    0.000 
#
# Total GULP energy -89464.858305 kJ/mol
# GULP energy per Si atom -5591.553644 kJ/mol
# Density = 2.168640 g / cm^3
# Si number density = 21.735873 Si / 1000 Ang^3
#
#
#
# Elastic Constant Matrix: (Units=GPa)
#
#
# Indices 1 2 3 4 5 6 
#
# 1 67.4578 17.6889 9.1105 8.0585 -12.1210 11.0537
# 2 17.6889 75.1155 18.1763 27.7198 5.8899 4.6813
# 3 9.1105 18.1763 72.5650 31.5747 -4.0617 6.8672
# 4 8.0585 27.7198 31.5747 32.9156 1.1705 -4.8670
# 5 -12.1210 5.8899 -4.0617 1.1705 26.1460 -1.9486
# 6 11.0537 4.6813 6.8672 -4.8670 -1.9486 43.4792
#
#
#
# Elastic Compliance Matrix: (Units=1/GPa)
#
#
# Indices 1 2 3 4 5 6 
#
# 1 0.018499 -0.003889 0.000969 -0.003164 0.009419 -0.004370
# 2 -0.003889 0.022379 0.005328 -0.023576 -0.005344 -0.005141
# 3 0.000969 0.005328 0.027571 -0.032603 0.004348 -0.008629
# 4 -0.003164 -0.023576 -0.032603 0.085055 -0.003699 0.017847
# 5 0.009419 -0.005344 0.004348 -0.003699 0.044590 -0.000922
# 6 -0.004370 -0.005141 -0.008629 0.017847 -0.000922 0.027983
#
#
# Mechanical properties :
#
#
# Convention : Reuss Voigt Hill
#
# Bulk Modulus (GPa) = 13.64900 33.89887 23.77393
# Shear Modulus (GPa) = 20.35153 31.85232 26.10193
#
# Velocity S-wave (km/s) = 3.06324 3.83224 3.46911
# Velocity P-wave (km/s) = 4.33640 5.93390 5.19690
#
# Compressibility (1/GPa) = 0.07326545
#
# Stress axis : x y z
#
# Youngs Moduli (GPa) = 54.05552 44.68500 36.27053
#
# Poissons Ratio (x) = 0.17380 -0.03516
# Poissons Ratio (y) = 0.21025 -0.19326
# Poissons Ratio (z) = -0.05239 -0.23810
#
# Static dielectric constant tensor:
#      x y z
#    x 1.778660 -0.013870 0.034440 
#    y -0.013870 1.801870 0.003280 
#    z 0.034440 0.003280 1.799260 
# 
# From -- ./inp_files/456054.got.cif
#   From: 2010.05.17/outbox.cif.g08.bks.cpg/sg2_229_cif.got.tgz:456054.got - 2010.06.03 11:33:40.
