data_PCOD9016950
_publ_section_title
;
Structure prediction by ZEFSAII (Michael W. Deem and Ramdas Pophale) SiO2 
 PCOD9016950
Probable space group: P -1
;
_chemical_formula_sum "Si O2"
_cell_formula_units_Z 16
_cell_length_a 9.303396
_cell_length_b 11.997851
_cell_length_c 14.730325
_cell_angle_alpha 29.968034
_cell_angle_beta 73.968341
_cell_angle_gamma 85.631428
_cell_volume 742.435966
_symmetry_space_group_name_H-M "P -1"
_symmetry_group_IT_number 2
_symmetry_cell_setting 'triclinic'
loop_
_space_group_symop_operation_xyz
x,y,z
-x,-y,-z
loop_
_atom_site_type_symbol
_atom_site_label
_atom_site_fract_x
_atom_site_fract_y
_atom_site_fract_z
Si Si1 0.662746 0.751322 0.036339
Si Si2 0.349506 0.372035 0.679038
Si Si3 0.091558 0.889176 0.491430
Si Si4 0.333671 0.831978 0.044877
Si Si5 0.175466 0.493881 0.475696
Si Si6 0.671405 0.634488 0.914592
Si Si7 0.885174 0.410442 0.918444
Si Si8 0.984351 0.975811 0.252725
O O1 0.627137 0.586990 0.247187
O O2 0.517690 0.854694 0.980461
O O3 0.670129 0.620843 0.033126
O O4 0.840275 0.944134 0.880498
O O5 0.500000 0.500000 0.500000
O O6 0.225274 0.481032 0.579872
O O7 0.314017 0.088978 0.874512
O O8 0.048972 0.617871 0.717309
O O9 0.266624 0.082823 0.317779
O O10 0.000000 0.000000 0.500000
O O11 0.011892 0.892000 0.406128
O O12 0.282910 0.687851 0.250265
O O13 0.222592 0.686819 0.084275
O O14 0.000000 0.500000 0.500000
O O15 0.152011 0.233381 0.624766
O O16 0.789847 0.520637 0.926400
O O17 0.500000 0.500000 0.000000
O O18 0.928941 0.200923 0.104353
#
# Coordination Sequence:
#
# PCOD9016950 Si02
#       8
#     2   2   2   2   2   2   2   2
#     4  11  25  43  69 101 143 180 232 281 352 405
#     4  12  27  46  70 102 139 185 232 283 351 416
#     4   9  21  39  67  95 134 180 221 277 342 401
#     4  12  24  46  72 100 141 182 229 292 343 418
#     4  12  27  44  71 103 136 183 233 285 351 412
#     4  10  21  42  70 103 138 183 231 286 344 417
#     4  11  22  43  73  99 139 182 231 282 349 407
#     4  11  24  43  67 104 136 176 234 286 339 421
#
# _framework density 21.550681999999998
#
# number of rings (size 3 to 8) (size 9 to 14) (size 15 to 20)
#    0.000    1.000    5.000    1.125    3.500    5.500 
#    2.250    1.250    0.000    6.000    0.000    0.000 
#    0.000    0.000    0.000    0.000    0.000    0.000 
#
# Total GULP energy -89415.810381 kJ/mol
# GULP energy per Si atom -5588.488149 kJ/mol
# Density = 2.150163 g / cm^3
# Si number density = 21.550682 Si / 1000 Ang^3
#
#
#
# Elastic Constant Matrix: (Units=GPa)
#
#
# Indices 1 2 3 4 5 6 
#
# 1 78.8077 15.1037 22.0436 3.9320 -0.6461 -6.2436
# 2 15.1037 107.1775 48.2642 18.1802 -1.7070 5.7964
# 3 22.0436 48.2642 129.8528 2.2930 0.0551 -0.4088
# 4 3.9320 18.1802 2.2930 38.9437 1.2934 2.7101
# 5 -0.6461 -1.7070 0.0551 1.2934 33.2943 -5.5532
# 6 -6.2436 5.7964 -0.4088 2.7101 -5.5532 34.1066
#
#
#
# Elastic Compliance Matrix: (Units=1/GPa)
#
#
# Indices 1 2 3 4 5 6 
#
# 1 0.013707 -0.001042 -0.001913 -0.001008 0.000732 0.002863
# 2 -0.001042 0.012457 -0.004365 -0.005342 0.000525 -0.001850
# 3 -0.001913 -0.004365 0.009620 0.001651 -0.000286 0.000329
# 4 -0.001008 -0.005342 0.001651 0.028357 -0.001696 -0.001786
# 5 0.000732 0.000525 -0.000286 -0.001696 0.031014 0.005226
# 6 0.002863 -0.001850 0.000329 -0.001786 0.005226 0.031155
#
#
# Mechanical properties :
#
#
# Convention : Reuss Voigt Hill
#
# Bulk Modulus (GPa) = 47.29452 54.07345 50.68399
# Shear Modulus (GPa) = 33.78384 36.63070 35.20727
#
# Velocity S-wave (km/s) = 3.96365 4.12727 4.04629
# Velocity P-wave (km/s) = 6.55291 6.91797 6.73791
#
# Compressibility (1/GPa) = 0.02114410
#
# Stress axis : x y z
#
# Youngs Moduli (GPa) = 72.95494 80.27347 103.94826
#
# Poissons Ratio (x) = 0.08367 0.19885
# Poissons Ratio (y) = 0.07604 0.45373
# Poissons Ratio (z) = 0.13956 0.35039
#
# Static dielectric constant tensor:
#      x y z
#    x 1.786760 -0.032210 -0.082500 
#    y -0.032210 1.775740 -0.085960 
#    z -0.082500 -0.085960 1.749920 
# 
# From -- ./inp_files/85106.got.cif
#   From: 2010.05.17/outbox.cif.g08.bks.cpg/sg2_43_cif.got.tgz:85106.got - 2010.06.03 11:33:40.
