data_PCOD9016277
_publ_section_title
;
Structure prediction by ZEFSAII (Michael W. Deem and Ramdas Pophale) SiO2 
 PCOD9016277
Probable space group: P -1
;
_chemical_formula_sum "Si O2"
_cell_formula_units_Z 14
_cell_length_a 17.273395
_cell_length_b 20.523223
_cell_length_c 9.063820
_cell_angle_alpha 39.286454
_cell_angle_beta 52.959762
_cell_angle_gamma 22.274619
_cell_volume 678.900426
_symmetry_space_group_name_H-M "P -1"
_symmetry_group_IT_number 2
_symmetry_cell_setting 'triclinic'
loop_
_space_group_symop_operation_xyz
x,y,z
-x,-y,-z
loop_
_atom_site_type_symbol
_atom_site_label
_atom_site_fract_x
_atom_site_fract_y
_atom_site_fract_z
Si Si1 0.676557 0.083608 0.492236
Si Si2 0.562964 0.177834 0.133274
Si Si3 0.183332 0.651607 0.571190
Si Si4 0.756421 0.430078 0.706591
Si Si5 0.086563 0.303584 0.586960
Si Si6 0.246733 0.194934 0.924888
Si Si7 0.123924 0.927004 0.131120
O O1 0.539411 0.189513 0.314196
O O2 0.504031 0.318267 0.376957
O O3 0.913048 0.905265 0.475875
O O4 0.747533 0.915385 0.797452
O O5 0.713030 0.938455 0.319664
O O6 0.320573 0.432952 0.886363
O O7 0.708233 0.141306 0.986564
O O8 0.234552 0.582365 0.460690
O O9 0.244919 0.710247 0.439804
O O10 0.886397 0.409198 0.642720
O O11 0.915891 0.181737 0.013174
O O12 0.196088 0.220990 0.765436
O O13 0.955969 0.530049 0.279059
O O14 0.500000 0.000000 0.000000
O O15 0.000000 0.000000 0.000000
#
# Coordination Sequence:
#
# PCOD9016277 Si02
#       7
#     2   2   2   2   2   2   2
#     4  12  24  40  65  98 125 165 216 263 309 374
#     4  11  23  40  67  94 130 168 209 258 315 375
#     4  11  23  43  65  93 131 172 209 256 313 376
#     4  10  21  42  67  90 133 163 208 265 313 368
#     4  10  22  44  66  91 124 172 204 257 326 373
#     4  11  24  41  68  93 127 164 213 262 320 378
#     4   9  18  42  65  90 130 173 204 255 316 369
#
# _framework density 20.621580000000002
#
# number of rings (size 3 to 8) (size 9 to 14) (size 15 to 20)
#    0.000    1.429    5.714    1.286    2.000    1.143 
#    0.000    2.143    0.000    0.000    0.000    0.000 
#    0.000    0.000    0.000    0.000    0.000    0.000 
#
# Total GULP energy -78136.765039 kJ/mol
# GULP energy per Si atom -5581.197503 kJ/mol
# Density = 2.057464 g / cm^3
# Si number density = 20.621580 Si / 1000 Ang^3
#
#
#
# Elastic Constant Matrix: (Units=GPa)
#
#
# Indices 1 2 3 4 5 6 
#
# 1 57.5130 27.2713 18.9819 -10.0422 -3.3864 10.6299
# 2 27.2713 133.3390 38.7120 -19.7706 1.9653 21.6465
# 3 18.9819 38.7120 109.5697 -20.5663 3.5571 17.2614
# 4 -10.0422 -19.7706 -20.5663 28.8827 1.2547 -3.4559
# 5 -3.3864 1.9653 3.5571 1.2547 29.3052 -8.8051
# 6 10.6299 21.6465 17.2614 -3.4559 -8.8051 16.6493
#
#
#
# Elastic Compliance Matrix: (Units=1/GPa)
#
#
# Indices 1 2 3 4 5 6 
#
# 1 0.021017 -0.001889 -0.000601 0.004451 -0.000465 -0.009662
# 2 -0.001889 0.011289 -0.000019 0.005468 -0.005835 -0.015402
# 3 -0.000601 -0.000019 0.013306 0.007712 -0.006604 -0.015279
# 4 0.004451 0.005468 0.007712 0.044230 -0.006320 -0.012107
# 5 -0.000465 -0.005835 -0.006604 -0.006320 0.047040 0.038296
# 6 -0.009662 -0.015402 -0.015279 -0.012107 0.038296 0.119838
#
#
# Mechanical properties :
#
#
# Convention : Reuss Voigt Hill
#
# Bulk Modulus (GPa) = 24.63397 52.26134 38.44766
# Shear Modulus (GPa) = 18.16405 29.33120 23.74763
#
# Velocity S-wave (km/s) = 2.97109 3.77550 3.39719
# Velocity P-wave (km/s) = 4.87253 6.66363 5.83719
#
# Compressibility (1/GPa) = 0.04059435
#
# Stress axis : x y z
#
# Youngs Moduli (GPa) = 47.58090 88.58485 75.15173
#
# Poissons Ratio (x) = 0.16731 0.04517
# Poissons Ratio (y) = 0.08986 0.00143
# Poissons Ratio (z) = 0.02860 0.00169
#
# Static dielectric constant tensor:
#      x y z
#    x 1.762910 -0.039340 -0.013790 
#    y -0.039340 1.759390 -0.024070 
#    z -0.013790 -0.024070 1.762700 
# 
# From -- ./inp_files/315304.got.cif
#   From: 2010.05.17/outbox.cif.g08.bks.cpg/sg2_158_cif.got.tgz:315304.got - 2010.06.03 11:33:40.
