data_PCOD9016133
_publ_section_title
;
Structure prediction by ZEFSAII (Michael W. Deem and Ramdas Pophale) SiO2 
 PCOD9016133
Probable space group: P -1
;
_chemical_formula_sum "Si O2"
_cell_formula_units_Z 14
_cell_length_a 9.556483
_cell_length_b 9.027295
_cell_length_c 8.687483
_cell_angle_alpha 118.355109
_cell_angle_beta 61.802095
_cell_angle_gamma 102.459225
_cell_volume 581.232045
_symmetry_space_group_name_H-M "P -1"
_symmetry_group_IT_number 2
_symmetry_cell_setting 'triclinic'
loop_
_space_group_symop_operation_xyz
x,y,z
-x,-y,-z
loop_
_atom_site_type_symbol
_atom_site_label
_atom_site_fract_x
_atom_site_fract_y
_atom_site_fract_z
Si Si1 0.837303 0.798824 0.393800
Si Si2 0.128988 0.649729 0.475627
Si Si3 0.561211 0.514066 0.650320
Si Si4 0.918300 0.971071 0.745722
Si Si5 0.664981 0.705874 0.157071
Si Si6 0.390633 0.133693 0.037416
Si Si7 0.047890 0.518234 0.160561
O O1 0.836982 0.919675 0.599645
O O2 0.697318 0.806216 0.348002
O O3 0.876112 0.609408 0.338997
O O4 0.991397 0.857916 0.245179
O O5 0.291256 0.611909 0.458091
O O6 0.153099 0.639997 0.274091
O O7 0.000000 0.500000 0.500000
O O8 0.047808 0.826346 0.643412
O O9 0.500000 0.500000 0.500000
O O10 0.424209 0.457328 0.812859
O O11 0.613640 0.698866 0.770811
O O12 0.778867 0.958448 0.932631
O O13 0.570098 0.803951 0.123516
O O14 0.835697 0.646595 0.966100
O O15 0.500000 0.000000 0.000000
O O16 0.000000 0.500000 0.000000
#
# Coordination Sequence:
#
# PCOD9016133 Si02
#       7
#     2   2   2   2   2   2   2
#     4   9  21  38  67  99 131 175 223 283 337 415
#     4  11  21  40  66  91 128 176 227 270 329 407
#     4  12  27  45  71 101 138 188 233 280 343 419
#     4  10  21  42  66  96 134 176 228 278 346 405
#     4  11  23  43  65  97 139 176 228 280 347 407
#     4  12  27  44  67 101 142 179 228 293 346 403
#     4   9  19  35  65  95 126 169 215 277 328 399
#
# _framework density 24.086767999999999
#
# number of rings (size 3 to 8) (size 9 to 14) (size 15 to 20)
#    0.000    1.429    2.857    1.286    6.000    4.000 
#    0.000    2.143    0.000    0.000    0.000    0.000 
#    0.000    0.000    0.000    0.000    0.000    0.000 
#
# Total GULP energy -77949.988423 kJ/mol
# GULP energy per Si atom -5567.856316 kJ/mol
# Density = 2.403195 g / cm^3
# Si number density = 24.086768 Si / 1000 Ang^3
#
#
#
# Elastic Constant Matrix: (Units=GPa)
#
#
# Indices 1 2 3 4 5 6 
#
# 1 135.2288 39.1030 26.5466 -6.9059 19.3389 -40.6419
# 2 39.1030 103.1171 21.9112 -18.7896 -3.1558 -13.5573
# 3 26.5466 21.9112 45.7548 -7.4205 6.0336 -13.1000
# 4 -6.9059 -18.7896 -7.4205 30.9966 -5.6104 -4.8143
# 5 19.3389 -3.1558 6.0336 -5.6104 26.4864 -4.7813
# 6 -40.6419 -13.5573 -13.1000 -4.8143 -4.7813 56.2016
#
#
#
# Elastic Compliance Matrix: (Units=1/GPa)
#
#
# Indices 1 2 3 4 5 6 
#
# 1 0.011866 -0.003406 -0.002463 -0.000337 -0.007402 0.006527
# 2 -0.003406 0.013633 -0.003813 0.008029 0.006900 0.001211
# 3 -0.002463 -0.003813 0.027192 0.003596 -0.003429 0.003653
# 4 -0.000337 0.008029 0.003596 0.040848 0.010283 0.006905
# 5 -0.007402 0.006900 -0.003429 0.010283 0.047012 0.000393
# 6 0.006527 0.001211 0.003653 0.006905 0.000393 0.024282
#
#
# Mechanical properties :
#
#
# Convention : Reuss Voigt Hill
#
# Bulk Modulus (GPa) = 30.00656 51.02469 40.51563
# Shear Modulus (GPa) = 25.60060 35.83959 30.72010
#
# Velocity S-wave (km/s) = 3.26367 3.86156 3.57514
# Velocity P-wave (km/s) = 5.16593 6.41186 5.82232
#
# Compressibility (1/GPa) = 0.03332604
#
# Stress axis : x y z
#
# Youngs Moduli (GPa) = 84.27246 73.35056 36.77506
#
# Poissons Ratio (x) = 0.24984 0.09059
# Poissons Ratio (y) = 0.28705 0.14023
# Poissons Ratio (z) = 0.20760 0.27970
#
# Static dielectric constant tensor:
#      x y z
#    x 1.934910 -0.004530 -0.024020 
#    y -0.004530 1.995160 -0.110500 
#    z -0.024020 -0.110500 2.044670 
# 
# From -- ./inp_files/159553.got.cif
#   From: 2010.05.17/outbox.cif.g08.bks.cpg/sg2_80_cif.got.tgz:159553.got - 2010.06.03 11:33:40.
