data_PCOD9016134
_publ_section_title
;
Structure prediction by ZEFSAII (Michael W. Deem and Ramdas Pophale) SiO2 
 PCOD9016134
Probable space group: P -1
;
_chemical_formula_sum "Si O2"
_cell_formula_units_Z 13
_cell_length_a 12.231220
_cell_length_b 6.871072
_cell_length_c 12.334183
_cell_angle_alpha 118.841637
_cell_angle_beta 113.505116
_cell_angle_gamma 46.883684
_cell_volume 658.928013
_symmetry_space_group_name_H-M "P -1"
_symmetry_group_IT_number 2
_symmetry_cell_setting 'triclinic'
loop_
_space_group_symop_operation_xyz
x,y,z
-x,-y,-z
loop_
_atom_site_type_symbol
_atom_site_label
_atom_site_fract_x
_atom_site_fract_y
_atom_site_fract_z
Si Si1 0.658256 0.267377 0.055057
Si Si2 0.697208 0.126438 0.274639
Si Si3 0.192201 0.620234 0.371330
Si Si4 0.097084 0.341280 0.104145
Si Si5 0.146495 0.509489 0.778546
Si Si6 0.940873 0.236685 0.416533
Si Si7 0.500000 0.500000 0.500000
O O1 0.633447 0.202877 0.149012
O O2 0.754951 0.383172 0.134228
O O3 0.500000 0.500000 0.000000
O O4 0.761046 0.972930 0.953529
O O5 0.842387 0.124029 0.330164
O O6 0.582510 0.352878 0.377084
O O7 0.753586 0.821037 0.249668
O O8 0.151478 0.507429 0.225821
O O9 0.118800 0.607500 0.449946
O O10 0.367509 0.463805 0.411772
O O11 0.111113 0.953466 0.414545
O O12 0.990206 0.344546 0.151169
O O13 0.000000 0.500000 0.000000
O O14 0.090118 0.579178 0.650476
#
# Coordination Sequence:
#
# PCOD9016134 Si02
#       7
#     2   2   2   2   2   2   1
#     4  11  26  42  62 100 137 171 223 274 327 398
#     4  10  21  45  63  93 131 170 219 273 325 393
#     4  10  21  42  66  96 135 166 218 280 325 393
#     4  12  23  43  69  97 131 180 226 268 322 399
#     4  11  22  42  71  89 129 180 220 273 332 383
#     4   9  20  42  65  95 125 164 225 277 320 384
#     4  10  24  40  68  92 132 176 202 274 352 380
#
# _framework density 19.729015
#
# number of rings (size 3 to 8) (size 9 to 14) (size 15 to 20)
#    0.000    1.538    3.077    1.385    2.154    3.692 
#    2.769    2.308    0.000    0.000    0.000    0.000 
#    0.000    0.000    0.000    0.000    0.000    0.000 
#
# Total GULP energy -72391.421681 kJ/mol
# GULP energy per Si atom -5568.570899 kJ/mol
# Density = 1.968411 g / cm^3
# Si number density = 19.729015 Si / 1000 Ang^3
#
#
#
# Elastic Constant Matrix: (Units=GPa)
#
#
# Indices 1 2 3 4 5 6 
#
# 1 81.5926 34.7102 42.9645 -5.4174 -8.0711 4.6635
# 2 34.7102 102.8150 55.5228 -26.5340 -14.1622 13.0117
# 3 42.9645 55.5228 143.9567 -20.3936 -9.6758 1.8677
# 4 -5.4174 -26.5340 -20.3936 25.2379 8.2350 -0.7173
# 5 -8.0711 -14.1622 -9.6758 8.2350 35.4389 -3.0592
# 6 4.6635 13.0117 1.8677 -0.7173 -3.0592 23.4278
#
#
#
# Elastic Compliance Matrix: (Units=1/GPa)
#
#
# Indices 1 2 3 4 5 6 
#
# 1 0.015894 -0.004309 -0.003609 -0.004687 0.001970 -0.000369
# 2 -0.004309 0.018001 -0.003397 0.014639 0.001169 -0.008268
# 3 -0.003609 -0.003397 0.009821 0.003708 -0.000195 0.001910
# 4 -0.004687 0.014639 0.003708 0.059632 -0.008649 -0.006796
# 5 0.001970 0.001169 -0.000195 -0.008649 0.031332 0.002800
# 6 -0.000369 -0.008268 0.001910 -0.006796 0.002800 0.047355
#
#
# Mechanical properties :
#
#
# Convention : Reuss Voigt Hill
#
# Bulk Modulus (GPa) = 47.42274 66.08437 56.75355
# Shear Modulus (GPa) = 23.61916 29.83205 26.72560
#
# Velocity S-wave (km/s) = 3.46378 3.89278 3.68453
# Velocity P-wave (km/s) = 6.33137 7.33306 6.85055
#
# Compressibility (1/GPa) = 0.02108693
#
# Stress axis : x y z
#
# Youngs Moduli (GPa) = 62.91715 55.55373 101.82093
#
# Poissons Ratio (x) = 0.23936 0.36744
# Poissons Ratio (y) = 0.27108 0.34590
# Poissons Ratio (z) = 0.22705 0.18872
#
# Static dielectric constant tensor:
#      x y z
#    x 1.678490 0.003850 0.024160 
#    y 0.003850 1.694970 -0.014420 
#    z 0.024160 -0.014420 1.713080 
# 
# From -- ./inp_files/20562.got.cif
#   From: 2010.05.17/outbox.cif.g08.bks.cpg/sg2_11_cif.got.tgz:20562.got - 2010.06.03 11:33:40.
