data_PCOD9016291
_publ_section_title
;
Structure prediction by ZEFSAII (Michael W. Deem and Ramdas Pophale) SiO2 
 PCOD9016291
Probable space group: P -1
;
_chemical_formula_sum "Si O2"
_cell_formula_units_Z 14
_cell_length_a 12.843122
_cell_length_b 14.194334
_cell_length_c 19.517514
_cell_angle_alpha 153.989177
_cell_angle_beta 22.058568
_cell_angle_gamma 146.950531
_cell_volume 585.693015
_symmetry_space_group_name_H-M "P -1"
_symmetry_group_IT_number 2
_symmetry_cell_setting 'triclinic'
loop_
_space_group_symop_operation_xyz
x,y,z
-x,-y,-z
loop_
_atom_site_type_symbol
_atom_site_label
_atom_site_fract_x
_atom_site_fract_y
_atom_site_fract_z
Si Si1 0.305966 0.722330 0.632386
Si Si2 0.195093 0.507889 0.124378
Si Si3 0.705951 0.703284 0.493374
Si Si4 0.538271 0.998409 0.058838
Si Si5 0.533835 0.141348 0.710717
Si Si6 0.952641 0.820622 0.184771
Si Si7 0.615622 0.429511 0.148801
O O1 0.566313 0.790086 0.567632
O O2 0.420538 0.524680 0.388961
O O3 0.036140 0.620219 0.768841
O O4 0.303809 0.947702 0.739610
O O5 0.356731 0.705649 0.193521
O O6 0.011973 0.617629 0.249437
O O7 0.403664 0.320792 0.859026
O O8 0.500000 0.500000 0.500000
O O9 0.681301 0.871000 0.679840
O O10 0.542602 0.752207 0.916699
O O11 0.834717 0.116740 0.963668
O O12 0.500000 0.000000 0.000000
O O13 0.796238 0.023119 0.441560
O O14 0.728958 0.641963 0.183195
O O15 0.129933 0.700337 0.057241
#
# Coordination Sequence:
#
# PCOD9016291 Si02
#       7
#     2   2   2   2   2   2   2
#     4  10  20  36  54  79 107 134 170 220 266 299
#     4  10  19  33  50  77 108 138 174 208 255 314
#     4  10  20  34  55  80 107 136 170 217 267 301
#     4  10  17  30  51  73  99 133 170 213 250 296
#     4  10  20  32  53  79 105 139 173 212 256 310
#     4   9  16  28  46  73  97 123 170 211 246 292
#     4   9  17  29  51  74  97 130 172 214 249 296
#
# _framework density 23.903306000000001
#
# number of rings (size 3 to 8) (size 9 to 14) (size 15 to 20)
#    0.000    2.286    0.000    6.429    0.000    0.571 
#    0.000    2.857    0.000    7.714    0.000   58.000 
#    0.000    0.000    0.000    0.000    0.000    0.000 
#
# Total GULP energy -78094.741722 kJ/mol
# GULP energy per Si atom -5578.195837 kJ/mol
# Density = 2.384890 g / cm^3
# Si number density = 23.903306 Si / 1000 Ang^3
#
#
#
# Elastic Constant Matrix: (Units=GPa)
#
#
# Indices 1 2 3 4 5 6 
#
# 1 37.6052 -5.6122 10.6429 12.8456 3.6933 8.6630
# 2 -5.6122 102.9164 16.6288 22.6329 -1.1701 1.9335
# 3 10.6429 16.6288 148.6435 34.9700 8.0112 -3.0508
# 4 12.8456 22.6329 34.9700 43.0265 2.8339 3.5283
# 5 3.6933 -1.1701 8.0112 2.8339 23.0462 0.3945
# 6 8.6630 1.9335 -3.0508 3.5283 0.3945 12.0759
#
#
#
# Elastic Compliance Matrix: (Units=1/GPa)
#
#
# Indices 1 2 3 4 5 6 
#
# 1 0.037277 0.004961 -0.001027 -0.010651 -0.003635 -0.024565
# 2 0.004961 0.011687 -0.000036 -0.007379 0.000775 -0.003309
# 3 -0.001027 -0.000036 0.008666 -0.006995 -0.002076 0.005043
# 4 -0.010651 -0.007379 -0.006995 0.036320 -0.000642 -0.003536
# 5 -0.003635 0.000775 -0.002076 -0.000642 0.044802 0.000683
# 6 -0.024565 -0.003309 0.005043 -0.003536 0.000683 0.103247
#
#
# Mechanical properties :
#
#
# Convention : Reuss Voigt Hill
#
# Bulk Modulus (GPa) = 15.28441 36.94266 26.11353
# Shear Modulus (GPa) = 19.53045 33.46344 26.49694
#
# Velocity S-wave (km/s) = 2.86153 3.74565 3.33303
# Velocity P-wave (km/s) = 4.16244 5.84766 5.07548
#
# Compressibility (1/GPa) = 0.06542615
#
# Stress axis : x y z
#
# Youngs Moduli (GPa) = 26.82605 85.56719 115.39339
#
# Poissons Ratio (x) = -0.42451 0.11847
# Poissons Ratio (y) = -0.13309 0.00419
# Poissons Ratio (z) = 0.02754 0.00311
#
# Static dielectric constant tensor:
#      x y z
#    x 2.027810 0.029790 -0.020580 
#    y 0.029790 2.071450 -0.009100 
#    z -0.020580 -0.009100 1.912030 
# 
# From -- ./inp_files/223854.got.cif
#   From: 2010.05.17/outbox.cif.g08.bks.cpg/sg2_112_cif.got.tgz:223854.got - 2010.06.03 11:33:40.
