data_PCOD9016056
_publ_section_title
;
Structure prediction by ZEFSAII (Michael W. Deem and Ramdas Pophale) SiO2 
 PCOD9016056
Probable space group: P -1
;
_chemical_formula_sum "Si O2"
_cell_formula_units_Z 15
_cell_length_a 17.066976
_cell_length_b 13.759895
_cell_length_c 15.438226
_cell_angle_alpha 28.100746
_cell_angle_beta 146.297121
_cell_angle_gamma 159.871329
_cell_volume 587.518272
_symmetry_space_group_name_H-M "P -1"
_symmetry_group_IT_number 2
_symmetry_cell_setting 'triclinic'
loop_
_space_group_symop_operation_xyz
x,y,z
-x,-y,-z
loop_
_atom_site_type_symbol
_atom_site_label
_atom_site_fract_x
_atom_site_fract_y
_atom_site_fract_z
Si Si1 0.859779 0.897971 0.663327
Si Si2 0.893165 0.680970 0.024762
Si Si3 0.257649 0.170438 0.114917
Si Si4 0.000000 0.500000 0.500000
Si Si5 0.534238 0.275391 0.540686
Si Si6 0.671492 0.412501 0.371194
Si Si7 0.119900 0.954448 0.740379
Si Si8 0.097702 0.600818 0.150347
O O1 0.718673 0.945195 0.494387
O O2 0.891573 0.820661 0.662402
O O3 0.116636 0.225425 0.675303
O O4 0.774669 0.653990 0.853820
O O5 0.973678 0.558079 0.152917
O O6 0.129647 0.013343 0.029348
O O7 0.730904 0.583073 0.029276
O O8 0.502386 0.346026 0.207662
O O9 0.093995 0.843766 0.285326
O O10 0.202927 0.629938 0.526233
O O11 0.530325 0.203842 0.493116
O O12 0.669166 0.249976 0.731788
O O13 0.678961 0.651128 0.394257
O O14 0.069877 0.755391 0.768992
O O15 0.150219 0.836851 0.942444
#
# Coordination Sequence:
#
# PCOD9016056 Si02
#       8
#     2   2   2   1   2   2   2   2
#     4  10  21  42  66  93 131 169 216 270 322 384
#     4  10  21  43  62  93 129 170 216 264 320 390
#     4  11  23  40  66  89 129 175 214 265 324 380
#     4  12  22  38  58  94 122 162 220 260 316 384
#     4  11  21  41  70  95 131 175 212 268 328 382
#     4  11  22  39  63  92 128 175 212 268 321 383
#     4   9  22  42  68  96 135 166 216 270 324 385
#     4  10  21  42  68  99 133 169 215 270 324 391
#
# _framework density 25.531122
#
# number of rings (size 3 to 8) (size 9 to 14) (size 15 to 20)
#    0.000    1.600    2.667    1.600    0.000    2.133 
#    0.000   14.000    0.000    0.000    0.000    0.000 
#    0.000    0.000    0.000    0.000    0.000    0.000 
#
# Total GULP energy -83518.122152 kJ/mol
# GULP energy per Si atom -5567.874810 kJ/mol
# Density = 2.547301 g / cm^3
# Si number density = 25.531122 Si / 1000 Ang^3
#
#
#
# Elastic Constant Matrix: (Units=GPa)
#
#
# Indices 1 2 3 4 5 6 
#
# 1 171.9615 55.6315 59.0285 5.0013 57.0875 -17.8226
# 2 55.6315 58.4818 53.5415 13.3221 10.6439 -9.1185
# 3 59.0285 53.5415 136.4888 35.8659 18.4354 10.6971
# 4 5.0013 13.3221 35.8659 42.2102 20.1465 4.8299
# 5 57.0875 10.6439 18.4354 20.1465 47.2394 -0.1530
# 6 -17.8226 -9.1185 10.6971 4.8299 -0.1530 29.0292
#
#
#
# Elastic Compliance Matrix: (Units=1/GPa)
#
#
# Indices 1 2 3 4 5 6 
#
# 1 0.023375 -0.013842 -0.006717 0.021388 -0.031601 0.008754
# 2 -0.013842 0.040441 -0.009772 -0.011826 0.016504 0.009860
# 3 -0.006717 -0.009772 0.017373 -0.014155 0.009540 -0.011190
# 4 0.021388 -0.011826 -0.014155 0.056196 -0.041608 0.005063
# 5 -0.031601 0.016504 0.009540 -0.041608 0.069627 -0.010443
# 6 0.008754 0.009860 -0.011190 0.005063 -0.010443 0.046146
#
#
# Mechanical properties :
#
#
# Convention : Reuss Voigt Hill
#
# Bulk Modulus (GPa) = 48.71825 78.14838 63.43331
# Shear Modulus (GPa) = 15.59269 36.94445 26.26857
#
# Velocity S-wave (km/s) = 2.47398 3.80812 3.21110
# Velocity P-wave (km/s) = 5.22342 7.07186 6.21672
#
# Compressibility (1/GPa) = 0.02052619
#
# Stress axis : x y z
#
# Youngs Moduli (GPa) = 42.78036 24.72760 57.56017
#
# Poissons Ratio (x) = 0.34227 0.38666
# Poissons Ratio (y) = 0.59216 0.56249
# Poissons Ratio (z) = 0.28738 0.24164
#
# Static dielectric constant tensor:
#      x y z
#    x 2.040380 0.045020 -0.052540 
#    y 0.045020 2.114790 -0.104560 
#    z -0.052540 -0.104560 2.097620 
# 
# From -- ./inp_files/576095.got.cif
#   From: 2010.05.17/outbox.cif.g08.bks.cpg/sg2_289_cif.got.tgz:576095.got - 2010.06.03 11:33:40.
