data_PCOD9016876
_publ_section_title
;
Structure prediction by ZEFSAII (Michael W. Deem and Ramdas Pophale) SiO2 
 PCOD9016876
Probable space group: P -1
;
_chemical_formula_sum "Si O2"
_cell_formula_units_Z 14
_cell_length_a 14.219089
_cell_length_b 14.912217
_cell_length_c 9.116441
_cell_angle_alpha 105.903132
_cell_angle_beta 51.922874
_cell_angle_gamma 149.826972
_cell_volume 577.901518
_symmetry_space_group_name_H-M "P -1"
_symmetry_group_IT_number 2
_symmetry_cell_setting 'triclinic'
loop_
_space_group_symop_operation_xyz
x,y,z
-x,-y,-z
loop_
_atom_site_type_symbol
_atom_site_label
_atom_site_fract_x
_atom_site_fract_y
_atom_site_fract_z
Si Si1 0.868419 0.325012 0.869303
Si Si2 0.305114 0.447834 0.631968
Si Si3 0.311306 0.263946 0.884528
Si Si4 0.661451 0.006313 0.118768
Si Si5 0.221914 0.529967 0.331143
Si Si6 0.947107 0.185403 0.244369
Si Si7 0.577809 0.273155 0.265917
O O1 0.988245 0.369492 0.621855
O O2 0.175135 0.568875 0.772757
O O3 0.685787 0.121899 0.060693
O O4 0.665958 0.272563 0.043695
O O5 0.500000 0.500000 0.500000
O O6 0.434993 0.570990 0.407764
O O7 0.374388 0.582307 0.736734
O O8 0.958065 0.171298 0.836769
O O9 0.474320 0.318407 0.875339
O O10 0.223464 0.309405 0.012423
O O11 0.000000 0.000000 0.000000
O O12 0.756208 0.069647 0.228341
O O13 0.359460 0.731317 0.270396
O O14 0.046210 0.354709 0.290689
O O15 0.738764 0.983136 0.474468
#
# Coordination Sequence:
#
# PCOD9016876 Si02
#       7
#     2   2   2   2   2   2   2
#     4  10  22  45  71  92 136 181 225 269 340 394
#     4  11  19  37  70  97 129 176 221 268 338 392
#     4  12  19  41  66  93 137 177 214 279 337 399
#     4  11  22  44  65  97 135 174 223 277 328 398
#     4  12  24  44  65 101 135 180 223 278 334 404
#     4  12  24  40  69  99 135 176 227 277 342 391
#     4  10  21  42  69  98 128 187 218 274 335 402
#
# _framework density 24.225580999999998
#
# number of rings (size 3 to 8) (size 9 to 14) (size 15 to 20)
#    0.000    0.857    8.571    0.429    0.000    1.143 
#    7.714    1.429    0.000    0.000    0.000    0.000 
#    0.000    0.000    0.000    0.000    0.000    0.000 
#
# Total GULP energy -78190.831429 kJ/mol
# GULP energy per Si atom -5585.059388 kJ/mol
# Density = 2.417044 g / cm^3
# Si number density = 24.225581 Si / 1000 Ang^3
#
#
#
# Elastic Constant Matrix: (Units=GPa)
#
#
# Indices 1 2 3 4 5 6 
#
# 1 89.2761 30.0687 35.4586 10.3863 -13.0120 -17.3746
# 2 30.0687 106.5097 56.5935 6.1154 6.7842 -9.9928
# 3 35.4586 56.5935 122.0713 12.8205 -4.8470 -8.0074
# 4 10.3863 6.1154 12.8205 46.6319 -11.2427 -5.7575
# 5 -13.0120 6.7842 -4.8470 -11.2427 35.9764 2.6062
# 6 -17.3746 -9.9928 -8.0074 -5.7575 2.6062 39.0965
#
#
#
# Elastic Compliance Matrix: (Units=1/GPa)
#
#
# Indices 1 2 3 4 5 6 
#
# 1 0.014860 -0.002699 -0.002491 -0.000436 0.005049 0.005003
# 2 -0.002699 0.013535 -0.005522 -0.000587 -0.004553 0.001346
# 3 -0.002491 -0.005522 0.011671 -0.001693 0.001217 -0.000458
# 4 -0.000436 -0.000587 -0.001693 0.024085 0.007079 0.002384
# 5 0.005049 -0.004553 0.001217 0.007079 0.032844 0.000182
# 6 0.005003 0.001346 -0.000458 0.002384 0.000182 0.028390
#
#
# Mechanical properties :
#
#
# Convention : Reuss Voigt Hill
#
# Bulk Modulus (GPa) = 53.63827 62.45542 58.04684
# Shear Modulus (GPa) = 32.67503 37.39005 35.03254
#
# Velocity S-wave (km/s) = 3.67656 3.93289 3.80688
# Velocity P-wave (km/s) = 6.34130 6.81617 6.58302
#
# Compressibility (1/GPa) = 0.01864341
#
# Stress axis : x y z
#
# Youngs Moduli (GPa) = 67.29588 73.88424 85.67942
#
# Poissons Ratio (x) = 0.19940 0.21340
# Poissons Ratio (y) = 0.18162 0.47309
# Poissons Ratio (z) = 0.16762 0.40797
#
# Static dielectric constant tensor:
#      x y z
#    x 2.022440 -0.039670 0.001930 
#    y -0.039670 1.914820 0.019890 
#    z 0.001930 0.019890 1.919690 
# 
# From -- ./inp_files/315539.got.cif
#   From: 2010.05.17/outbox.cif.g08.bks.cpg/sg2_158_cif.got.tgz:315539.got - 2010.06.03 11:33:40.
