data_PCOD9016997
_publ_section_title
;
Structure prediction by ZEFSAII (Michael W. Deem and Ramdas Pophale) SiO2 
 PCOD9016997
Probable space group: P -1
;
_chemical_formula_sum "Si O2"
_cell_formula_units_Z 16
_cell_length_a 8.773461
_cell_length_b 5.405064
_cell_length_c 14.159154
_cell_angle_alpha 74.403120
_cell_angle_beta 110.942711
_cell_angle_gamma 110.847255
_cell_volume 578.261461
_symmetry_space_group_name_H-M "P -1"
_symmetry_group_IT_number 2
_symmetry_cell_setting 'triclinic'
loop_
_space_group_symop_operation_xyz
x,y,z
-x,-y,-z
loop_
_atom_site_type_symbol
_atom_site_label
_atom_site_fract_x
_atom_site_fract_y
_atom_site_fract_z
Si Si1 0.355479 0.717479 0.996573
Si Si2 0.129883 0.835348 0.067224
Si Si3 0.851269 0.310731 0.551323
Si Si4 0.876461 0.925402 0.327676
Si Si5 0.737452 0.418580 0.217893
Si Si6 0.417705 0.463450 0.588358
Si Si7 0.790243 0.519189 0.724145
Si Si8 0.371613 0.272376 0.190417
O O1 0.387421 0.542235 0.108157
O O2 0.171710 0.738824 0.984821
O O3 0.327655 0.574606 0.904088
O O4 0.500000 0.000000 0.000000
O O5 0.302829 0.043693 0.121847
O O6 0.106104 0.620933 0.167951
O O7 0.000000 0.000000 0.000000
O O8 0.674618 0.295108 0.462112
O O9 0.835803 0.444619 0.636246
O O10 0.000000 0.500000 0.500000
O O11 0.929338 0.060411 0.604246
O O12 0.823580 0.706967 0.253677
O O13 0.743078 0.787474 0.394575
O O14 0.846993 0.207237 0.267676
O O15 0.565296 0.289610 0.254261
O O16 0.500000 0.500000 0.500000
O O17 0.578747 0.421074 0.686900
O O18 0.777122 0.777105 0.758265
#
# Coordination Sequence:
#
# PCOD9016997 Si02
#       8
#     2   2   2   2   2   2   2   2
#     4  11  24  41  66 100 137 189 242 294 345 419
#     4  11  26  41  63 100 143 187 235 292 355 427
#     4   9  21  42  71 102 138 175 236 298 363 425
#     4  11  24  42  69 104 138 179 229 295 362 423
#     4  12  24  40  72 101 140 185 238 287 352 421
#     4   9  18  41  72  96 133 179 231 287 355 431
#     4  10  21  42  70  94 138 185 235 288 361 425
#     4  11  23  41  67  98 140 186 246 289 348 424
#
# _framework density 27.669146000000001
#
# number of rings (size 3 to 8) (size 9 to 14) (size 15 to 20)
#    0.000    1.500    2.500    1.875    3.500    3.000 
#    0.000    6.250   11.000    0.000    0.000    0.000 
#    0.000    0.000    0.000    0.000    0.000    0.000 
#
# Total GULP energy -89340.639903 kJ/mol
# GULP energy per Si atom -5583.789994 kJ/mol
# Density = 2.760617 g / cm^3
# Si number density = 27.669146 Si / 1000 Ang^3
#
#
#
# Elastic Constant Matrix: (Units=GPa)
#
#
# Indices 1 2 3 4 5 6 
#
# 1 142.2097 41.6680 75.7612 -8.0011 -2.0879 -47.8426
# 2 41.6680 108.6573 51.3314 0.1818 -1.0262 -13.8154
# 3 75.7612 51.3314 182.6324 6.8958 -4.2183 -13.6867
# 4 -8.0011 0.1818 6.8958 43.7709 -6.5127 -1.5377
# 5 -2.0879 -1.0262 -4.2183 -6.5127 74.5644 0.1354
# 6 -47.8426 -13.8154 -13.6867 -1.5377 0.1354 59.1014
#
#
#
# Elastic Compliance Matrix: (Units=1/GPa)
#
#
# Indices 1 2 3 4 5 6 
#
# 1 0.013282 -0.001813 -0.004420 0.003520 0.000387 0.009395
# 2 -0.001813 0.011066 -0.002315 0.000003 -0.000030 0.000583
# 3 -0.004420 -0.002315 0.007866 -0.002104 0.000110 -0.002353
# 4 0.003520 0.000003 -0.002104 0.024237 0.002091 0.002988
# 5 0.000387 -0.000030 0.000110 0.002091 0.013610 0.000355
# 6 0.009395 0.000583 -0.002353 0.002988 0.000355 0.024194
#
#
# Mechanical properties :
#
#
# Convention : Reuss Voigt Hill
#
# Bulk Modulus (GPa) = 66.15074 85.66897 75.90985
# Shear Modulus (GPa) = 42.95854 53.13659 48.04756
#
# Velocity S-wave (km/s) = 3.94455 4.38702 4.17166
# Velocity P-wave (km/s) = 6.68623 7.52930 7.12026
#
# Compressibility (1/GPa) = 0.01511699
#
# Stress axis : x y z
#
# Youngs Moduli (GPa) = 75.28729 90.36557 127.13729
#
# Poissons Ratio (x) = 0.16384 0.56197
# Poissons Ratio (y) = 0.13650 0.29436
# Poissons Ratio (z) = 0.33279 0.20923
#
# Static dielectric constant tensor:
#      x y z
#    x 1.140450 -0.223350 1.218970 
#    y -0.223350 2.322520 0.259230 
#    z 1.218970 0.259230 0.824310 
# 
# From -- ./inp_files/488322.got.cif
#   From: 2010.05.17/outbox.cif.g08.bks.cpg/sg2_245_cif.got.tgz:488322.got - 2010.06.03 11:33:40.
