data_PCOD9016760
_publ_section_title
;
Structure prediction by ZEFSAII (Michael W. Deem and Ramdas Pophale) SiO2 
 PCOD9016760
Probable space group: P -1
;
_chemical_formula_sum "Si O2"
_cell_formula_units_Z 16
_cell_length_a 8.060982
_cell_length_b 10.362891
_cell_length_c 11.577035
_cell_angle_alpha 62.423525
_cell_angle_beta 69.679993
_cell_angle_gamma 54.106633
_cell_volume 690.557420
_symmetry_space_group_name_H-M "P -1"
_symmetry_group_IT_number 2
_symmetry_cell_setting 'triclinic'
loop_
_space_group_symop_operation_xyz
x,y,z
-x,-y,-z
loop_
_atom_site_type_symbol
_atom_site_label
_atom_site_fract_x
_atom_site_fract_y
_atom_site_fract_z
Si Si1 0.765038 0.215977 0.767356
Si Si2 0.941975 0.816094 0.083549
Si Si3 0.224591 0.474305 0.468496
Si Si4 0.505157 0.075635 0.155271
Si Si5 0.482407 0.845501 0.623297
Si Si6 0.636611 0.707389 0.259978
Si Si7 0.032787 0.915009 0.653706
Si Si8 0.943823 0.690980 0.905451
O O1 0.783372 0.356889 0.634464
O O2 0.520066 0.285383 0.801715
O O3 0.896850 0.192603 0.860023
O O4 0.876369 0.051164 0.727868
O O5 0.854360 0.689764 0.182673
O O6 0.727224 0.998118 0.070822
O O7 0.030438 0.757500 0.959453
O O8 0.363404 0.324225 0.409702
O O9 0.319415 0.420351 0.595253
O O10 0.000000 0.500000 0.500000
O O11 0.480698 0.167873 0.242934
O O12 0.305108 0.189937 0.080543
O O13 0.518829 0.899279 0.259071
O O14 0.256997 0.876162 0.648563
O O15 0.500000 0.000000 0.500000
O O16 0.011111 0.748223 0.747853
O O17 0.000000 0.000000 0.500000
O O18 0.000000 0.500000 0.000000
#
# Coordination Sequence:
#
# PCOD9016760 Si02
#       8
#     2   2   2   2   2   2   2   2
#     4  12  23  43  72 109 146 192 252 305 367 447
#     4  10  23  47  70 100 147 195 245 300 369 447
#     4  12  23  40  68 109 148 197 247 310 373 432
#     4  10  21  45  69 100 141 197 244 297 375 439
#     4  12  22  42  72 105 147 193 246 308 371 444
#     4  10  21  42  69 106 141 193 248 295 373 431
#     4  12  25  49  74 109 146 197 248 305 375 450
#     4  12  28  47  75 110 147 196 248 312 378 438
#
# _framework density 23.169689000000002
#
# number of rings (size 3 to 8) (size 9 to 14) (size 15 to 20)
#    0.750    0.000    5.000    3.000    1.750    2.500 
#    2.250    0.625    0.000    0.000    0.000    0.000 
#    0.000    0.000    0.000    0.000    0.000    0.000 
#
# Total GULP energy -89372.465506 kJ/mol
# GULP energy per Si atom -5585.779094 kJ/mol
# Density = 2.311695 g / cm^3
# Si number density = 23.169689 Si / 1000 Ang^3
#
#
#
# Elastic Constant Matrix: (Units=GPa)
#
#
# Indices 1 2 3 4 5 6 
#
# 1 155.0586 6.1462 49.7554 -5.6031 4.4037 -10.9464
# 2 6.1462 57.5139 36.6296 -15.5301 -2.6788 4.4401
# 3 49.7554 36.6296 120.7544 -21.6032 -0.4784 10.8411
# 4 -5.6031 -15.5301 -21.6032 45.8487 11.6478 -0.2726
# 5 4.4037 -2.6788 -0.4784 11.6478 56.4270 -3.3630
# 6 -10.9464 4.4401 10.8411 -0.2726 -3.3630 26.7811
#
#
#
# Elastic Compliance Matrix: (Units=1/GPa)
#
#
# Indices 1 2 3 4 5 6 
#
# 1 0.008087 0.001336 -0.004252 -0.000478 -0.000221 0.004772
# 2 0.001336 0.022746 -0.006542 0.004809 -0.000105 -0.000541
# 3 -0.004252 -0.006542 0.013225 0.003713 -0.000996 -0.006094
# 4 -0.000478 0.004809 0.003713 0.026470 -0.005340 -0.002897
# 5 -0.000221 -0.000105 -0.000996 -0.005340 0.018987 0.002660
# 6 0.004772 -0.000541 -0.006094 -0.002897 0.002660 0.042152
#
#
# Mechanical properties :
#
#
# Convention : Reuss Voigt Hill
#
# Bulk Modulus (GPa) = 39.77408 57.59883 48.68646
# Shear Modulus (GPa) = 31.45393 41.86441 36.65917
#
# Velocity S-wave (km/s) = 3.68849 4.25533 3.98201
# Velocity P-wave (km/s) = 5.94505 7.00409 6.49619
#
# Compressibility (1/GPa) = 0.02514200
#
# Stress axis : x y z
#
# Youngs Moduli (GPa) = 123.66208 43.96354 75.61349
#
# Poissons Ratio (x) = -0.05874 0.32152
# Poissons Ratio (y) = -0.16522 0.49465
# Poissons Ratio (z) = 0.52583 0.28760
#
# Static dielectric constant tensor:
#      x y z
#    x 1.870470 -0.015930 -0.005400 
#    y -0.015930 1.869640 -0.002260 
#    z -0.005400 -0.002260 1.934770 
# 
# From -- ./inp_files/389361.got.cif
#   From: 2010.05.17/outbox.cif.g08.bks.cpg/sg2_195_cif.got.tgz:389361.got - 2010.06.03 11:33:40.
