data_PCOD9016785
_publ_section_title
;
Structure prediction by ZEFSAII (Michael W. Deem and Ramdas Pophale) SiO2 
 PCOD9016785
Probable space group: P -1
;
_chemical_formula_sum "Si O2"
_cell_formula_units_Z 16
_cell_length_a 11.286542
_cell_length_b 10.172300
_cell_length_c 8.008148
_cell_angle_alpha 89.749500
_cell_angle_beta 110.384243
_cell_angle_gamma 55.036052
_cell_volume 680.935496
_symmetry_space_group_name_H-M "P -1"
_symmetry_group_IT_number 2
_symmetry_cell_setting 'triclinic'
loop_
_space_group_symop_operation_xyz
x,y,z
-x,-y,-z
loop_
_atom_site_type_symbol
_atom_site_label
_atom_site_fract_x
_atom_site_fract_y
_atom_site_fract_z
Si Si1 0.213331 0.025018 0.721738
Si Si2 0.921118 0.107188 0.131673
Si Si3 0.853449 0.681683 0.143729
Si Si4 0.466663 0.272189 0.970717
Si Si5 0.431310 0.897951 0.501697
Si Si6 0.616164 0.290073 0.768267
Si Si7 0.342977 0.458160 0.236564
Si Si8 0.998971 0.338187 0.108879
O O1 0.303334 0.975512 0.589469
O O2 0.119896 0.217279 0.717703
O O3 0.096585 0.980489 0.721822
O O4 0.367678 0.912305 0.923054
O O5 0.740692 0.241485 0.978015
O O6 0.995468 0.202229 0.201057
O O7 0.000000 0.000000 0.000000
O O8 0.679022 0.734839 0.089774
O O9 0.862631 0.732213 0.958451
O O10 0.974672 0.481216 0.209809
O O11 0.457949 0.357047 0.793715
O O12 0.446353 0.382092 0.116967
O O13 0.349925 0.864625 0.314505
O O14 0.583713 0.707473 0.621515
O O15 0.500000 0.000000 0.500000
O O16 0.632125 0.414143 0.673405
O O17 0.160144 0.559053 0.089221
#
# Coordination Sequence:
#
# PCOD9016785 Si02
#       8
#     2   2   2   2   2   2   2   2
#     4  10  20  34  57  80 115 145 185 233 277 322
#     4  10  19  37  59  87 110 140 184 235 275 332
#     4  10  17  30  51  81 114 141 180 221 281 324
#     4   9  18  31  56  90 108 138 185 242 277 323
#     4  11  23  38  53  84 115 153 186 226 276 333
#     4  10  20  35  59  84 110 148 185 226 285 325
#     4   9  19  36  57  79 112 144 187 232 277 328
#     4   9  19  32  54  86 110 144 179 232 284 328
#
# _framework density 23.497085999999999
#
# number of rings (size 3 to 8) (size 9 to 14) (size 15 to 20)
#    0.000    2.250    1.250    1.875    0.000    8.000 
#    0.000    1.875    0.000    3.000    0.000    0.000 
#    0.000    0.000    0.000    0.000    0.000    0.000 
#
# Total GULP energy -89227.650395 kJ/mol
# GULP energy per Si atom -5576.728150 kJ/mol
# Density = 2.344361 g / cm^3
# Si number density = 23.497086 Si / 1000 Ang^3
#
#
#
# Elastic Constant Matrix: (Units=GPa)
#
#
# Indices 1 2 3 4 5 6 
#
# 1 111.6599 58.9349 18.1401 -11.6400 -37.8789 34.8357
# 2 58.9349 117.4782 14.9081 4.7675 -11.0230 45.0585
# 3 18.1401 14.9081 34.9447 -2.6769 -6.2901 15.2001
# 4 -11.6400 4.7675 -2.6769 20.7712 -3.4943 4.1232
# 5 -37.8789 -11.0230 -6.2901 -3.4943 34.8708 -10.1711
# 6 34.8357 45.0585 15.2001 4.1232 -10.1711 50.3343
#
#
#
# Elastic Compliance Matrix: (Units=1/GPa)
#
#
# Indices 1 2 3 4 5 6 
#
# 1 0.028576 -0.009908 -0.000614 0.024345 0.028190 -0.007020
# 2 -0.009908 0.016434 -0.000368 -0.009153 -0.009129 -0.008838
# 3 -0.000614 -0.000368 0.034317 0.006600 0.003302 -0.009482
# 4 0.024345 -0.009153 0.006600 0.071708 0.028806 -0.010701
# 5 0.028190 -0.009129 0.003302 0.028806 0.059093 -0.002754
# 6 -0.007020 -0.008838 -0.009482 -0.010701 -0.002754 0.035821
#
#
# Mechanical properties :
#
#
# Convention : Reuss Voigt Hill
#
# Bulk Modulus (GPa) = 17.37723 49.78322 33.58022
# Shear Modulus (GPa) = 17.42694 32.66858 25.04776
#
# Velocity S-wave (km/s) = 2.72631 3.73275 3.26850
# Velocity P-wave (km/s) = 4.16195 6.30959 5.34475
#
# Compressibility (1/GPa) = 0.05754657
#
# Stress axis : x y z
#
# Youngs Moduli (GPa) = 34.99413 60.84876 29.14010
#
# Poissons Ratio (x) = 0.60290 0.01791
# Poissons Ratio (y) = 0.34673 0.01072
# Poissons Ratio (z) = 0.02150 0.02238
#
# Static dielectric constant tensor:
#      x y z
#    x 1.948790 0.014450 -0.028630 
#    y 0.014450 1.970270 -0.037800 
#    z -0.028630 -0.037800 1.987870 
# 
# From -- ./inp_files/175175.got.cif
#   From: 2010.05.17/outbox.cif.g08.bks.cpg/sg2_88_cif.got.tgz:175175.got - 2010.06.03 11:33:40.
