data_PCOD9016529
_publ_section_title
;
Structure prediction by ZEFSAII (Michael W. Deem and Ramdas Pophale) SiO2 
 PCOD9016529
Probable space group: P -1
;
_chemical_formula_sum "Si O2"
_cell_formula_units_Z 16
_cell_length_a 9.437477
_cell_length_b 9.356046
_cell_length_c 27.649620
_cell_angle_alpha 130.907863
_cell_angle_beta 154.745623
_cell_angle_gamma 46.401839
_cell_volume 750.467782
_symmetry_space_group_name_H-M "P -1"
_symmetry_group_IT_number 2
_symmetry_cell_setting 'triclinic'
loop_
_space_group_symop_operation_xyz
x,y,z
-x,-y,-z
loop_
_atom_site_type_symbol
_atom_site_label
_atom_site_fract_x
_atom_site_fract_y
_atom_site_fract_z
Si Si1 0.353075 0.012717 0.086741
Si Si2 0.353466 0.450504 0.809063
Si Si3 0.188800 0.070938 0.696180
Si Si4 0.644888 0.574411 0.377185
Si Si5 0.359094 0.438626 0.175463
Si Si6 0.388712 0.370917 0.978684
Si Si7 0.026768 0.826838 0.509295
Si Si8 0.634304 0.451863 0.614517
O O1 0.664547 0.976390 0.214794
O O2 0.452154 0.852897 0.039417
O O3 0.285359 0.234438 0.096883
O O4 0.000000 0.000000 0.000000
O O5 0.412912 0.215159 0.780616
O O6 0.520328 0.484424 0.818629
O O7 0.935693 0.532674 0.703743
O O8 0.488923 0.555080 0.917560
O O9 0.789030 0.216584 0.598327
O O10 0.210147 0.890550 0.627078
O O11 0.646622 0.422522 0.301521
O O12 0.369568 0.565947 0.331961
O O13 0.000000 0.500000 0.500000
O O14 0.673302 0.778608 0.406568
O O15 0.021686 0.583099 0.129507
O O16 0.500000 0.500000 0.000000
O O17 0.278225 0.610021 0.522136
O O18 0.000000 0.000000 0.500000
#
# Coordination Sequence:
#
# PCOD9016529 Si02
#       8
#     2   2   2   2   2   2   2   2
#     4  12  24  38  70  99 123 174 222 263 318 399
#     4  10  23  44  64  95 136 171 202 279 330 380
#     4  10  22  42  63  93 129 170 213 259 327 382
#     4  10  21  42  68  89 129 177 213 265 322 381
#     4  12  24  43  63  98 134 164 223 273 323 382
#     4  12  22  43  69  93 132 173 214 263 333 390
#     4  11  23  41  67  99 127 169 216 272 327 378
#     4   9  22  44  63  90 132 171 211 264 323 387
#
# _framework density 21.320038
#
# number of rings (size 3 to 8) (size 9 to 14) (size 15 to 20)
#    0.750    0.500    2.500    4.125    1.750    1.500 
#    9.000    0.000    0.000    0.000    0.000    0.000 
#    0.000    0.000    0.000    0.000    0.000    0.000 
#
# Total GULP energy -89115.665455 kJ/mol
# GULP energy per Si atom -5569.729091 kJ/mol
# Density = 2.127151 g / cm^3
# Si number density = 21.320038 Si / 1000 Ang^3
#
#
#
# Elastic Constant Matrix: (Units=GPa)
#
#
# Indices 1 2 3 4 5 6 
#
# 1 141.0884 34.9593 17.6893 8.8590 10.9646 8.2536
# 2 34.9593 85.9632 5.4451 14.6525 16.0167 -7.9164
# 3 17.6893 5.4451 48.6788 16.1567 -4.5412 -20.3128
# 4 8.8590 14.6525 16.1567 37.9452 -4.1736 3.5171
# 5 10.9646 16.0167 -4.5412 -4.1736 28.3066 9.3701
# 6 8.2536 -7.9164 -20.3128 3.5171 9.3701 30.8155
#
#
#
# Elastic Compliance Matrix: (Units=1/GPa)
#
#
# Indices 1 2 3 4 5 6 
#
# 1 0.009871 -0.005926 -0.009365 0.005361 0.002716 -0.011777
# 2 -0.005926 0.021533 0.013339 -0.016739 -0.017920 0.023271
# 3 -0.009365 0.013339 0.051445 -0.031139 -0.016262 0.048345
# 4 0.005361 -0.016739 -0.031139 0.050952 0.022828 -0.039019
# 5 0.002716 -0.017920 -0.016262 0.022828 0.057094 -0.036016
# 6 -0.011777 0.023271 0.048345 -0.039019 -0.036016 0.088857
#
#
# Mechanical properties :
#
#
# Convention : Reuss Voigt Hill
#
# Bulk Modulus (GPa) = 12.66650 43.54643 28.10646
# Shear Modulus (GPa) = 16.13055 33.92255 25.02655
#
# Velocity S-wave (km/s) = 2.75360 3.99320 3.42987
# Velocity P-wave (km/s) = 4.00797 6.45990 5.37560
#
# Compressibility (1/GPa) = 0.07894841
#
# Stress axis : x y z
#
# Youngs Moduli (GPa) = 101.30286 46.44047 19.43805
#
# Poissons Ratio (x) = 0.27519 0.18203
# Poissons Ratio (y) = 0.60028 -0.25929
# Poissons Ratio (z) = 0.94866 -0.61949
#
# Static dielectric constant tensor:
#      x y z
#    x 1.785770 -0.004160 0.036240 
#    y -0.004160 1.784930 -0.042880 
#    z 0.036240 -0.042880 1.865620 
# 
# From -- ./inp_files/616697.got.cif
#   From: 2010.05.17/outbox.cif.g08.bks.cpg/sg2_309_cif.got.tgz:616697.got - 2010.06.03 11:33:40.
