data_PCOD9016509
_publ_section_title
;
Structure prediction by ZEFSAII (Michael W. Deem and Ramdas Pophale) SiO2 
 PCOD9016509
Probable space group: P -1
;
_chemical_formula_sum "Si O2"
_cell_formula_units_Z 15
_cell_length_a 10.610265
_cell_length_b 5.359310
_cell_length_c 11.680295
_cell_angle_alpha 111.947073
_cell_angle_beta 104.665654
_cell_angle_gamma 91.843997
_cell_volume 589.998990
_symmetry_space_group_name_H-M "P -1"
_symmetry_group_IT_number 2
_symmetry_cell_setting 'triclinic'
loop_
_space_group_symop_operation_xyz
x,y,z
-x,-y,-z
loop_
_atom_site_type_symbol
_atom_site_label
_atom_site_fract_x
_atom_site_fract_y
_atom_site_fract_z
Si Si1 0.500000 0.500000 0.000000
Si Si2 0.871236 0.265784 0.294322
Si Si3 0.470639 0.957928 0.220450
Si Si4 0.811154 0.622388 0.130547
Si Si5 0.293599 0.868292 0.556675
Si Si6 0.133499 0.079807 0.376598
Si Si7 0.331921 0.409000 0.327224
Si Si8 0.182456 0.622972 0.148782
O O1 0.504293 0.826996 0.088247
O O2 0.655204 0.523840 0.074485
O O3 0.865264 0.482100 0.229884
O O4 0.768307 0.302735 0.377758
O O5 0.832675 0.950066 0.191988
O O6 0.019556 0.263861 0.372865
O O7 0.331175 0.784012 0.192631
O O8 0.586449 0.925937 0.330426
O O9 0.447412 0.271402 0.273445
O O10 0.863189 0.497437 0.004174
O O11 0.168506 0.982238 0.492765
O O12 0.352883 0.702362 0.440220
O O13 0.105317 0.825494 0.237645
O O14 0.272063 0.231753 0.389315
O O15 0.214024 0.391575 0.204558
#
# Coordination Sequence:
#
# PCOD9016509 Si02
#       8
#     1   2   2   2   2   2   2   2
#     4  10  22  46  70 102 148 176 234 294 356 432
#     4  12  28  46  72 107 144 191 242 289 360 424
#     4  10  21  42  68 104 140 179 243 286 373 416
#     4  11  27  45  73 106 142 189 234 299 360 428
#     4  11  24  43  68 103 142 188 236 297 354 426
#     4  10  25  45  68  98 142 187 243 293 348 423
#     4  10  23  41  71  98 142 189 233 299 352 421
#     4   9  23  44  67 103 138 185 235 300 356 423
#
# _framework density 25.423770000000001
#
# number of rings (size 3 to 8) (size 9 to 14) (size 15 to 20)
#    0.000    1.600    1.333    0.800   11.200   10.133 
#    0.000    0.000    0.000    0.000    0.000    0.000 
#    0.000    0.000    0.000    0.000    0.000    0.000 
#
# Total GULP energy -83597.195383 kJ/mol
# GULP energy per Si atom -5573.146359 kJ/mol
# Density = 2.536590 g / cm^3
# Si number density = 25.423770 Si / 1000 Ang^3
#
#
#
# Elastic Constant Matrix: (Units=GPa)
#
#
# Indices 1 2 3 4 5 6 
#
# 1 95.7044 25.0590 28.3261 5.4523 0.6436 -32.8897
# 2 25.0590 78.3420 39.5077 3.5620 -17.9066 -7.2760
# 3 28.3261 39.5077 105.8236 19.0296 -20.1608 -14.3654
# 4 5.4523 3.5620 19.0296 33.2563 8.6075 -9.0203
# 5 0.6436 -17.9066 -20.1608 8.6075 36.1380 9.7270
# 6 -32.8897 -7.2760 -14.3654 -9.0203 9.7270 37.2984
#
#
#
# Elastic Compliance Matrix: (Units=1/GPa)
#
#
# Indices 1 2 3 4 5 6 
#
# 1 0.019785 -0.005562 -0.004594 0.008878 -0.013219 0.020187
# 2 -0.005562 0.018163 -0.003826 -0.002845 0.009239 -0.005933
# 3 -0.004594 -0.003826 0.015738 -0.011909 0.011010 -0.004487
# 4 0.008878 -0.002845 -0.011909 0.047924 -0.025241 0.020859
# 5 -0.013219 0.009239 0.011010 -0.025241 0.051402 -0.025123
# 6 0.020187 -0.005933 -0.004487 0.020859 -0.025123 0.053322
#
#
# Mechanical properties :
#
#
# Convention : Reuss Voigt Hill
#
# Bulk Modulus (GPa) = 38.87661 51.73949 45.30805
# Shear Modulus (GPa) = 20.58697 33.80367 27.19532
#
# Velocity S-wave (km/s) = 2.84870 3.65034 3.27415
# Velocity P-wave (km/s) = 5.11320 6.17751 5.67038
#
# Compressibility (1/GPa) = 0.02572241
#
# Stress axis : x y z
#
# Youngs Moduli (GPa) = 50.54214 55.05651 63.54199
#
# Poissons Ratio (x) = 0.30624 0.29191
# Poissons Ratio (y) = 0.28113 0.24309
# Poissons Ratio (z) = 0.23219 0.21063
#
# Static dielectric constant tensor:
#      x y z
#    x 1.902680 0.130880 0.061880 
#    y 0.130880 1.853520 -0.062860 
#    z 0.061880 -0.062860 1.971720 
# 
# From -- ./inp_files/363439.got.cif
#   From: 2010.05.17/outbox.cif.g08.bks.cpg/sg2_182_cif.got.tgz:363439.got - 2010.06.03 11:33:40.
