data_PCOD9016005
_publ_section_title
;
Structure prediction by ZEFSAII (Michael W. Deem and Ramdas Pophale) SiO2 
 PCOD9016005
Probable space group: P -1
;
_chemical_formula_sum "Si O2"
_cell_formula_units_Z 16
_cell_length_a 20.901733
_cell_length_b 8.773571
_cell_length_c 8.123172
_cell_angle_alpha 85.282625
_cell_angle_beta 32.505736
_cell_angle_gamma 86.438386
_cell_volume 797.729770
_symmetry_space_group_name_H-M "P -1"
_symmetry_group_IT_number 2
_symmetry_cell_setting 'triclinic'
loop_
_space_group_symop_operation_xyz
x,y,z
-x,-y,-z
loop_
_atom_site_type_symbol
_atom_site_label
_atom_site_fract_x
_atom_site_fract_y
_atom_site_fract_z
Si Si1 0.814660 0.089040 0.555031
Si Si2 0.121168 0.431805 0.316725
Si Si3 0.430011 0.866507 0.759720
Si Si4 0.463282 0.575531 0.898589
Si Si5 0.822710 0.427269 0.495829
Si Si6 0.031087 0.123193 0.558944
Si Si7 0.820618 0.257751 0.204646
Si Si8 0.646249 0.380804 0.326098
O O1 0.851741 0.259751 0.524214
O O2 0.806248 0.119372 0.376990
O O3 0.907450 0.965026 0.417385
O O4 0.686117 0.058704 0.913954
O O5 0.122336 0.449769 0.511652
O O6 0.120310 0.254064 0.288894
O O7 0.000000 0.500000 0.500000
O O8 0.240382 0.517312 0.988657
O O9 0.486894 0.756366 0.788300
O O10 0.389486 0.742207 0.722049
O O11 0.500000 0.000000 0.500000
O O12 0.536186 0.481792 0.612810
O O13 0.500000 0.500000 0.000000
O O14 0.320319 0.557042 0.196362
O O15 0.856762 0.401520 0.232790
O O16 0.000000 0.000000 0.500000
O O17 0.916136 0.210218 0.867531
O O18 0.697576 0.294599 0.381733
#
# Coordination Sequence:
#
# PCOD9016005 Si02
#       8
#     2   2   2   2   2   2   2   2
#     4   9  20  42  60  88 130 164 215 267 338 386
#     4  12  24  41  65  98 129 175 224 275 328 397
#     4  11  24  41  68  97 133 175 222 280 334 397
#     4  11  21  42  69  94 133 173 220 278 336 398
#     4   9  21  42  65  93 127 168 218 274 333 395
#     4  12  24  39  64  91 129 174 226 271 326 400
#     4  10  21  42  66  89 133 175 213 278 334 389
#     4  12  21  42  67  96 129 174 223 270 336 396
#
# _framework density 20.056916000000001
#
# number of rings (size 3 to 8) (size 9 to 14) (size 15 to 20)
#    0.750    0.500    5.000    2.250    1.750    0.500 
#    0.000    3.750    0.000    0.000    0.000    0.000 
#    0.000    0.000    0.000    0.000    0.000    0.000 
#
# Total GULP energy -89179.302947 kJ/mol
# GULP energy per Si atom -5573.706434 kJ/mol
# Density = 2.001127 g / cm^3
# Si number density = 20.056916 Si / 1000 Ang^3
#
#
#
# Elastic Constant Matrix: (Units=GPa)
#
#
# Indices 1 2 3 4 5 6 
#
# 1 96.7573 41.2449 9.3284 -2.5637 7.5593 -3.9530
# 2 41.2449 99.0687 34.7056 -11.1723 -7.4607 -1.9357
# 3 9.3284 34.7056 99.2675 6.6710 8.5396 13.1194
# 4 -2.5637 -11.1723 6.6710 39.8463 -5.3757 -1.5195
# 5 7.5593 -7.4607 8.5396 -5.3757 24.7305 6.6293
# 6 -3.9530 -1.9357 13.1194 -1.5195 6.6293 35.8841
#
#
#
# Elastic Compliance Matrix: (Units=1/GPa)
#
#
# Indices 1 2 3 4 5 6 
#
# 1 0.013915 -0.007307 0.001870 -0.002494 -0.008143 0.001854
# 2 -0.007307 0.017184 -0.006863 0.007025 0.011078 0.000882
# 3 0.001870 -0.006863 0.013833 -0.005284 -0.007478 -0.004064
# 4 -0.002494 0.007025 -0.005284 0.029287 0.010725 0.001295
# 5 -0.008143 0.011078 -0.007478 0.010725 0.053032 -0.006909
# 6 0.001854 0.000882 -0.004064 0.001295 -0.006909 0.030936
#
#
# Mechanical properties :
#
#
# Convention : Reuss Voigt Hill
#
# Bulk Modulus (GPa) = 49.18109 51.73902 50.46006
# Shear Modulus (GPa) = 26.37637 34.07982 30.22810
#
# Velocity S-wave (km/s) = 3.63033 4.12655 3.88637
# Velocity P-wave (km/s) = 6.49203 6.96826 6.73436
#
# Compressibility (1/GPa) = 0.02033302
#
# Stress axis : x y z
#
# Youngs Moduli (GPa) = 71.86361 58.19416 72.29168
#
# Poissons Ratio (x) = 0.42520 -0.13518
# Poissons Ratio (y) = 0.52508 0.49612
# Poissons Ratio (z) = -0.13438 0.39938
#
# Static dielectric constant tensor:
#      x y z
#    x 1.749570 -0.015480 0.044200 
#    y -0.015480 1.717630 -0.037860 
#    z 0.044200 -0.037860 1.738850 
# 
# From -- ./inp_files/343601.got.cif
#   From: 2010.05.17/outbox.cif.g08.bks.cpg/sg2_172_cif.got.tgz:343601.got - 2010.06.03 11:33:40.
