data_PCOD9016699
_publ_section_title
;
Structure prediction by ZEFSAII (Michael W. Deem and Ramdas Pophale) SiO2 
 PCOD9016699
Probable space group: P -1
;
_chemical_formula_sum "Si O2"
_cell_formula_units_Z 15
_cell_length_a 11.244565
_cell_length_b 5.197817
_cell_length_c 17.693926
_cell_angle_alpha 124.028636
_cell_angle_beta 46.053641
_cell_angle_gamma 105.832922
_cell_volume 605.404805
_symmetry_space_group_name_H-M "P -1"
_symmetry_group_IT_number 2
_symmetry_cell_setting 'triclinic'
loop_
_space_group_symop_operation_xyz
x,y,z
-x,-y,-z
loop_
_atom_site_type_symbol
_atom_site_label
_atom_site_fract_x
_atom_site_fract_y
_atom_site_fract_z
Si Si1 0.261594 0.544078 0.507534
Si Si2 0.219930 0.202184 0.659402
Si Si3 0.969168 0.648179 0.956186
Si Si4 0.500000 0.500000 0.500000
Si Si5 0.320633 0.871883 0.144399
Si Si6 0.401095 0.426017 0.914115
Si Si7 0.961643 0.269713 0.655723
Si Si8 0.294266 0.566860 0.318802
O O1 0.413962 0.296871 0.436848
O O2 0.281791 0.543707 0.409530
O O3 0.078348 0.497111 0.606233
O O4 0.308050 0.843046 0.586854
O O5 0.357217 0.399241 0.606821
O O6 0.089055 0.411740 0.807532
O O7 0.107693 0.100221 0.622421
O O8 0.772782 0.678280 0.033738
O O9 0.000000 0.500000 0.000000
O O10 0.000000 0.000000 0.000000
O O11 0.488612 0.775744 0.103000
O O12 0.191563 0.671444 0.206185
O O13 0.256806 0.239954 0.246875
O O14 0.354235 0.778955 0.027950
O O15 0.521681 0.408522 0.786536
O O16 0.850578 0.177820 0.617927
#
# Coordination Sequence:
#
# PCOD9016699 Si02
#       8
#     2   2   2   1   2   2   2   2
#     4  11  25  43  68  98 137 186 237 300 357 442
#     4  11  25  47  70  96 141 186 242 300 373 426
#     4  12  31  48  78 108 147 195 253 308 358 442
#     4  10  26  44  70  92 136 194 244 296 366 422
#     4  10  21  42  68  99 142 182 226 293 367 438
#     4  10  24  43  67 102 141 185 233 294 370 423
#     4  10  22  40  67  98 138 178 228 290 367 430
#     4  11  24  39  69 106 137 180 238 294 363 439
#
# _framework density 24.776812
#
# number of rings (size 3 to 8) (size 9 to 14) (size 15 to 20)
#    0.000    1.333    1.333    2.000    7.467    6.400 
#    0.000    0.000    0.000    0.000    0.000    0.000 
#    0.000    0.000    0.000    0.000    0.000    0.000 
#
# Total GULP energy -83517.495545 kJ/mol
# GULP energy per Si atom -5567.833036 kJ/mol
# Density = 2.472042 g / cm^3
# Si number density = 24.776812 Si / 1000 Ang^3
#
#
#
# Elastic Constant Matrix: (Units=GPa)
#
#
# Indices 1 2 3 4 5 6 
#
# 1 101.4141 11.8671 57.0288 -14.8268 -31.8785 32.8699
# 2 11.8671 114.4275 83.4114 -19.6936 1.9505 16.6267
# 3 57.0288 83.4114 182.4597 -26.4266 -19.9151 20.4706
# 4 -14.8268 -19.6936 -26.4266 44.9890 16.2614 -8.7975
# 5 -31.8785 1.9505 -19.9151 16.2614 40.7118 -18.0262
# 6 32.8699 16.6267 20.4706 -8.7975 -18.0262 26.1156
#
#
#
# Elastic Compliance Matrix: (Units=1/GPa)
#
#
# Indices 1 2 3 4 5 6 
#
# 1 0.021270 0.005824 -0.006335 0.000238 0.002766 -0.023524
# 2 0.005824 0.017813 -0.008387 0.005045 -0.010102 -0.017371
# 3 -0.006335 -0.008387 0.010973 0.000778 0.003889 0.007658
# 4 0.000238 0.005045 0.000778 0.028921 -0.012583 -0.003065
# 5 0.002766 -0.010102 0.003889 -0.012583 0.046403 0.027692
# 6 -0.023524 -0.017371 0.007658 -0.003065 0.027692 0.091037
#
#
# Mechanical properties :
#
#
# Convention : Reuss Voigt Hill
#
# Bulk Modulus (GPa) = 30.99744 78.10177 54.54960
# Shear Modulus (GPa) = 20.41102 38.76287 29.58695
#
# Velocity S-wave (km/s) = 2.87330 3.95964 3.45938
# Velocity P-wave (km/s) = 4.85238 7.24538 6.16608
#
# Compressibility (1/GPa) = 0.03226073
#
# Stress axis : x y z
#
# Youngs Moduli (GPa) = 47.01390 56.13865 91.13654
#
# Poissons Ratio (x) = -0.32694 0.57734
# Poissons Ratio (y) = -0.27380 0.76432
# Poissons Ratio (z) = 0.29783 0.47081
#
# Static dielectric constant tensor:
#      x y z
#    x 1.369230 0.414810 0.171690 
#    y 0.414810 1.708230 -0.015610 
#    z 0.171690 -0.015610 1.918080 
# 
# From -- ./inp_files/65989.got.cif
#   From: 2010.05.17/outbox.cif.g08.bks.cpg/sg2_33_cif.got.tgz:65989.got - 2010.06.03 11:33:40.
