data_PCOD9016619
_publ_section_title
;
Structure prediction by ZEFSAII (Michael W. Deem and Ramdas Pophale) SiO2 
 PCOD9016619
Probable space group: P -1
;
_chemical_formula_sum "Si O2"
_cell_formula_units_Z 16
_cell_length_a 10.114529
_cell_length_b 15.259746
_cell_length_c 8.422228
_cell_angle_alpha 110.430757
_cell_angle_beta 109.831896
_cell_angle_gamma 39.698613
_cell_volume 772.653801
_symmetry_space_group_name_H-M "P -1"
_symmetry_group_IT_number 2
_symmetry_cell_setting 'triclinic'
loop_
_space_group_symop_operation_xyz
x,y,z
-x,-y,-z
loop_
_atom_site_type_symbol
_atom_site_label
_atom_site_fract_x
_atom_site_fract_y
_atom_site_fract_z
Si Si1 0.547403 0.028697 0.871292
Si Si2 0.958036 0.924674 0.028444
Si Si3 0.425062 0.162820 0.424396
Si Si4 0.211088 0.903805 0.619625
Si Si5 0.423529 0.638011 0.118555
Si Si6 0.885831 0.554492 0.659049
Si Si7 0.686745 0.693111 0.191607
Si Si8 0.501978 0.604004 0.506907
O O1 0.401460 0.192010 0.901609
O O2 0.512209 0.972280 0.679413
O O3 0.500000 0.000000 0.000000
O O4 0.787344 0.942650 0.889325
O O5 0.180781 0.770263 0.060018
O O6 0.837702 0.011682 0.194389
O O7 0.000000 0.000000 0.000000
O O8 0.624387 0.127684 0.446584
O O9 0.249870 0.284135 0.303038
O O10 0.352997 0.229581 0.611294
O O11 0.316657 0.753364 0.609066
O O12 0.000000 0.000000 0.500000
O O13 0.554226 0.662224 0.118965
O O14 0.457713 0.626050 0.314473
O O15 0.500000 0.500000 0.000000
O O16 0.718345 0.552525 0.594850
O O17 0.000000 0.500000 0.500000
O O18 0.068654 0.452871 0.797170
O O19 0.500000 0.500000 0.500000
#
# Coordination Sequence:
#
# PCOD9016619 Si02
#       8
#     2   2   2   2   2   2   2   2
#     4  12  26  42  66 100 137 170 221 278 339 397
#     4  12  26  45  68  97 137 184 222 278 345 398
#     4  10  21  42  68  96 130 174 222 278 328 399
#     4  11  21  43  70  91 138 178 225 278 332 395
#     4  12  26  44  65 101 137 174 225 279 338 406
#     4   9  19  40  69  89 128 170 219 266 324 388
#     4  11  22  45  68  96 132 180 228 271 331 406
#     4  11  24  41  68 102 132 171 228 280 332 394
#
# _framework density 20.707851000000002
#
# number of rings (size 3 to 8) (size 9 to 14) (size 15 to 20)
#    0.000    1.000    7.500    0.375    3.500    2.000 
#    0.000    0.625    0.000    0.000    0.000    0.000 
#    0.000    0.000    0.000    0.000    0.000    0.000 
#
# Total GULP energy -89366.387208 kJ/mol
# GULP energy per Si atom -5585.399201 kJ/mol
# Density = 2.066072 g / cm^3
# Si number density = 20.707851 Si / 1000 Ang^3
#
#
#
# Elastic Constant Matrix: (Units=GPa)
#
#
# Indices 1 2 3 4 5 6 
#
# 1 93.9389 61.9106 -0.0406 -16.7460 8.1104 16.4680
# 2 61.9106 167.0881 11.6296 -14.0430 13.6197 2.5716
# 3 -0.0406 11.6296 38.2166 5.5108 2.7376 7.3979
# 4 -16.7460 -14.0430 5.5108 39.1376 3.6434 7.5395
# 5 8.1104 13.6197 2.7376 3.6434 29.2023 2.2601
# 6 16.4680 2.5716 7.3979 7.5395 2.2601 41.4820
#
#
#
# Elastic Compliance Matrix: (Units=1/GPa)
#
#
# Indices 1 2 3 4 5 6 
#
# 1 0.017202 -0.005643 0.002497 0.006770 -0.002604 -0.008013
# 2 -0.005643 0.008517 -0.002979 0.000857 -0.002404 0.002219
# 3 0.002497 -0.002979 0.028609 -0.002891 -0.001214 -0.005317
# 4 0.006770 0.000857 -0.002891 0.031119 -0.005304 -0.007592
# 5 -0.002604 -0.002404 -0.001214 -0.005304 0.036837 0.000356
# 6 -0.008013 0.002219 -0.005317 -0.007592 0.000356 0.029459
#
#
# Mechanical properties :
#
#
# Convention : Reuss Voigt Hill
#
# Bulk Modulus (GPa) = 23.76520 49.58252 36.67386
# Shear Modulus (GPa) = 28.08723 37.01398 32.55060
#
# Velocity S-wave (km/s) = 3.68687 4.23240 3.96902
# Velocity P-wave (km/s) = 5.44292 6.91954 6.22517
#
# Compressibility (1/GPa) = 0.04207833
#
# Stress axis : x y z
#
# Youngs Moduli (GPa) = 58.13400 117.41330 34.95417
#
# Poissons Ratio (x) = 0.66255 -0.08728
# Poissons Ratio (y) = 0.32804 0.10412
# Poissons Ratio (z) = -0.14516 0.34973
#
# Static dielectric constant tensor:
#      x y z
#    x 1.692420 0.032920 -0.065880 
#    y 0.032920 1.766850 -0.012030 
#    z -0.065880 -0.012030 1.642830 
# 
# From -- ./inp_files/208473.got.cif
#   From: 2010.05.17/outbox.cif.g08.bks.cpg/sg2_105_cif.got.tgz:208473.got - 2010.06.03 11:33:40.
