data_PCOD9016567
_publ_section_title
;
Structure prediction by ZEFSAII (Michael W. Deem and Ramdas Pophale) SiO2 
 PCOD9016567
Probable space group: P -1
;
_chemical_formula_sum "Si O2"
_cell_formula_units_Z 14
_cell_length_a 8.304324
_cell_length_b 8.569548
_cell_length_c 8.264215
_cell_angle_alpha 90.684673
_cell_angle_beta 121.124037
_cell_angle_gamma 76.761736
_cell_volume 486.066166
_symmetry_space_group_name_H-M "P -1"
_symmetry_group_IT_number 2
_symmetry_cell_setting 'triclinic'
loop_
_space_group_symop_operation_xyz
x,y,z
-x,-y,-z
loop_
_atom_site_type_symbol
_atom_site_label
_atom_site_fract_x
_atom_site_fract_y
_atom_site_fract_z
Si Si1 0.873653 0.230072 0.009401
Si Si2 0.076579 0.941968 0.295546
Si Si3 0.325459 0.410634 0.432143
Si Si4 0.541680 0.156728 0.329399
Si Si5 0.444551 0.183115 0.804071
Si Si6 0.717177 0.528951 0.092091
Si Si7 0.130202 0.683010 0.540431
O O1 0.960541 0.149230 0.886775
O O2 0.666791 0.189950 0.924171
O O3 0.818640 0.424094 0.990888
O O4 0.995079 0.130405 0.220235
O O5 0.310264 0.908305 0.442487
O O6 0.000747 0.854959 0.407714
O O7 0.500000 0.500000 0.500000
O O8 0.347325 0.280201 0.297670
O O9 0.355256 0.296681 0.605684
O O10 0.158973 0.568350 0.395489
O O11 0.668823 0.266068 0.318867
O O12 0.545863 0.001976 0.224229
O O13 0.327251 0.280394 0.896876
O O14 0.861469 0.434093 0.306940
O O15 0.500000 0.500000 0.000000
#
# Coordination Sequence:
#
# PCOD9016567 Si02
#       7
#     2   2   2   2   2   2   2
#     4  10  18  32  48  76 102 132 163 203 247 303
#     4   9  19  31  52  74  99 131 169 200 247 299
#     4   9  14  25  47  75  96 122 164 208 235 283
#     4   9  17  29  50  80  95 125 171 210 244 284
#     4  10  17  30  51  77  98 125 170 211 245 284
#     4   9  19  32  51  76 100 130 167 206 246 299
#     4   8  17  32  49  76  96 133 166 201 245 303
#
# _framework density 28.802662999999999
#
# number of rings (size 3 to 8) (size 9 to 14) (size 15 to 20)
#    0.857    2.000    1.429    0.429    0.000    0.571 
#    0.000    3.571    0.000    0.857   29.714    0.000 
#    0.000    0.000    0.000    0.000    0.000    0.000 
#
# Total GULP energy -78203.432756 kJ/mol
# GULP energy per Si atom -5585.959483 kJ/mol
# Density = 2.873711 g / cm^3
# Si number density = 28.802663 Si / 1000 Ang^3
#
#
#
# Elastic Constant Matrix: (Units=GPa)
#
#
# Indices 1 2 3 4 5 6 
#
# 1 60.5290 42.2917 8.0335 12.3923 3.9716 19.7225
# 2 42.2917 279.4718 52.6742 12.3574 -8.1117 -5.9799
# 3 8.0335 52.6742 99.9542 -21.1856 -12.3996 4.4962
# 4 12.3923 12.3574 -21.1856 69.0858 -1.3150 -4.7738
# 5 3.9716 -8.1117 -12.3996 -1.3150 20.6656 5.9197
# 6 19.7225 -5.9799 4.4962 -4.7738 5.9197 30.4898
#
#
#
# Elastic Compliance Matrix: (Units=1/GPa)
#
#
# Indices 1 2 3 4 5 6 
#
# 1 0.026830 -0.004165 -0.000579 -0.005567 -0.002183 -0.018535
# 2 -0.004165 0.004788 -0.002488 -0.000602 0.000032 0.003900
# 3 -0.000579 -0.002488 0.013526 0.004649 0.008409 -0.003013
# 4 -0.005567 -0.000602 0.004649 0.017407 0.003334 0.004876
# 5 -0.002183 0.000032 0.008409 0.003334 0.057052 -0.010376
# 6 -0.018535 0.003900 -0.003013 0.004876 -0.010376 0.048774
#
#
# Mechanical properties :
#
#
# Convention : Reuss Voigt Hill
#
# Bulk Modulus (GPa) = 32.59248 71.77264 52.18256
# Shear Modulus (GPa) = 25.89767 46.51194 36.20480
#
# Velocity S-wave (km/s) = 3.00182 4.02288 3.54926
# Velocity P-wave (km/s) = 4.83269 6.82282 5.91210
#
# Compressibility (1/GPa) = 0.03068193
#
# Stress axis : x y z
#
# Youngs Moduli (GPa) = 37.27158 208.84217 73.93116
#
# Poissons Ratio (x) = 0.86979 0.04279
# Poissons Ratio (y) = 0.15523 0.18392
# Poissons Ratio (z) = 0.02157 0.51954
#
# Static dielectric constant tensor:
#      x y z
#    x 2.263340 -0.020970 -0.011360 
#    y -0.020970 2.194300 0.037890 
#    z -0.011360 0.037890 2.340130 
# 
# From -- ./inp_files/344773.got.cif
#   From: 2010.05.17/outbox.cif.g08.bks.cpg/sg2_173_cif.got.tgz:344773.got - 2010.06.03 11:33:40.
