data_PCOD9016507
_publ_section_title
;
Structure prediction by ZEFSAII (Michael W. Deem and Ramdas Pophale) SiO2 
 PCOD9016507
Probable space group: P -1
;
_chemical_formula_sum "Si O2"
_cell_formula_units_Z 13
_cell_length_a 8.861842
_cell_length_b 14.727185
_cell_length_c 8.548424
_cell_angle_alpha 127.915569
_cell_angle_beta 102.815396
_cell_angle_gamma 42.015508
_cell_volume 527.706890
_symmetry_space_group_name_H-M "P -1"
_symmetry_group_IT_number 2
_symmetry_cell_setting 'triclinic'
loop_
_space_group_symop_operation_xyz
x,y,z
-x,-y,-z
loop_
_atom_site_type_symbol
_atom_site_label
_atom_site_fract_x
_atom_site_fract_y
_atom_site_fract_z
Si Si1 0.241028 0.973571 0.661434
Si Si2 0.527349 0.502577 0.694494
Si Si3 0.000000 0.500000 0.000000
Si Si4 0.900270 0.386155 0.141204
Si Si5 0.978133 0.896253 0.590123
Si Si6 0.661713 0.794831 0.763659
Si Si7 0.518831 0.212648 0.987116
O O1 0.183640 0.994485 0.487872
O O2 0.531355 0.834023 0.615043
O O3 0.145751 0.913217 0.661008
O O4 0.065921 0.180219 0.901764
O O5 0.500000 0.500000 0.500000
O O6 0.371156 0.500294 0.751585
O O7 0.823409 0.322829 0.611071
O O8 0.425579 0.685887 0.914949
O O9 0.900883 0.477692 0.100480
O O10 0.706736 0.693185 0.076327
O O11 0.048748 0.346624 0.287044
O O12 0.779931 0.994337 0.786309
O O13 0.583351 0.744197 0.816941
O O14 0.500000 0.000000 0.000000
#
# Coordination Sequence:
#
# PCOD9016507 Si02
#       7
#     2   2   1   2   2   2   2
#     4  10  21  42  68 104 133 181 233 280 354 404
#     4  12  27  44  73 108 135 185 238 282 347 413
#     4  10  24  44  72 102 136 192 222 280 366 396
#     4  10  22  45  71  98 147 178 230 294 336 416
#     4  11  25  40  73 107 133 179 230 292 347 406
#     4   9  21  42  72  96 136 191 222 281 356 402
#     4  11  24  48  70 100 144 178 232 294 339 414
#
# _framework density 24.634886000000002
#
# number of rings (size 3 to 8) (size 9 to 14) (size 15 to 20)
#    0.000    1.538    1.538    1.846    8.615    2.462 
#    2.769   10.000    0.000    0.000    0.000    0.000 
#    0.000    0.000    0.000    0.000    0.000    0.000 
#
# Total GULP energy -72533.993252 kJ/mol
# GULP energy per Si atom -5579.537942 kJ/mol
# Density = 2.457882 g / cm^3
# Si number density = 24.634886 Si / 1000 Ang^3
#
#
#
# Elastic Constant Matrix: (Units=GPa)
#
#
# Indices 1 2 3 4 5 6 
#
# 1 98.3262 21.8084 22.2380 1.2207 -22.4911 -6.3330
# 2 21.8084 88.5979 -0.5708 -1.2318 -4.8692 -10.9036
# 3 22.2380 -0.5708 60.0597 13.8061 -7.9906 -10.7009
# 4 1.2207 -1.2318 13.8061 27.3291 -9.0956 2.2477
# 5 -22.4911 -4.8692 -7.9906 -9.0956 32.3729 0.3016
# 6 -6.3330 -10.9036 -10.7009 2.2477 0.3016 39.0779
#
#
#
# Elastic Compliance Matrix: (Units=1/GPa)
#
#
# Indices 1 2 3 4 5 6 
#
# 1 0.014085 -0.002950 -0.005201 0.005047 0.009479 -0.000328
# 2 -0.002950 0.012465 0.001995 -0.000567 0.000125 0.003578
# 3 -0.005201 0.001995 0.022331 -0.011896 -0.001204 0.006523
# 4 0.005047 -0.000567 -0.011896 0.047408 0.013855 -0.005432
# 5 0.009479 0.000125 -0.001204 0.013855 0.041089 0.000127
# 6 -0.000328 0.003578 0.006523 -0.005432 0.000127 0.028633
#
#
# Mechanical properties :
#
#
# Convention : Reuss Voigt Hill
#
# Bulk Modulus (GPa) = 27.34410 37.10390 32.22400
# Shear Modulus (GPa) = 26.24500 33.32321 29.78411
#
# Velocity S-wave (km/s) = 3.26753 3.68187 3.48087
# Velocity P-wave (km/s) = 5.03582 5.75927 5.40965
#
# Compressibility (1/GPa) = 0.03657096
#
# Stress axis : x y z
#
# Youngs Moduli (GPa) = 70.99625 80.22301 44.78023
#
# Poissons Ratio (x) = 0.23664 0.23289
# Poissons Ratio (y) = 0.20943 -0.08934
# Poissons Ratio (z) = 0.36924 -0.16006
#
# Static dielectric constant tensor:
#      x y z
#    x 1.934530 0.012440 0.048220 
#    y 0.012440 1.945590 -0.003010 
#    z 0.048220 -0.003010 1.964090 
# 
# From -- ./inp_files/204360.got.cif
#   From: 2010.05.17/outbox.cif.g08.bks.cpg/sg2_103_cif.got.tgz:204360.got - 2010.06.03 11:33:40.
