data_PCOD9016401
_publ_section_title
;
Structure prediction by ZEFSAII (Michael W. Deem and Ramdas Pophale) SiO2 
 PCOD9016401
Probable space group: P -1
;
_chemical_formula_sum "Si O2"
_cell_formula_units_Z 16
_cell_length_a 8.058494
_cell_length_b 14.063433
_cell_length_c 8.051096
_cell_angle_alpha 102.742084
_cell_angle_beta 51.251413
_cell_angle_gamma 103.586481
_cell_volume 688.430529
_symmetry_space_group_name_H-M "P -1"
_symmetry_group_IT_number 2
_symmetry_cell_setting 'triclinic'
loop_
_space_group_symop_operation_xyz
x,y,z
-x,-y,-z
loop_
_atom_site_type_symbol
_atom_site_label
_atom_site_fract_x
_atom_site_fract_y
_atom_site_fract_z
Si Si1 0.276078 0.635482 0.935433
Si Si2 0.101624 0.065671 0.110305
Si Si3 0.403961 0.439499 0.877462
Si Si4 0.277786 0.280376 0.135759
Si Si5 0.910702 0.715961 0.384846
Si Si6 0.161586 0.929948 0.291836
Si Si7 0.366431 0.902987 0.469698
Si Si8 0.439971 0.700090 0.514274
O O1 0.308841 0.520961 0.859044
O O2 0.481540 0.691636 0.929657
O O3 0.283857 0.681284 0.763391
O O4 0.067207 0.646354 0.178620
O O5 0.240620 0.170581 0.045483
O O6 0.884308 0.096932 0.336525
O O7 0.222242 0.990540 0.112125
O O8 0.000000 0.000000 0.000000
O O9 0.575587 0.387024 0.644950
O O10 0.500000 0.500000 0.000000
O O11 0.247475 0.352748 0.029884
O O12 0.126769 0.291875 0.395525
O O13 0.022855 0.825104 0.312122
O O14 0.677289 0.699882 0.442594
O O15 0.357070 0.914098 0.281810
O O16 0.000000 0.000000 0.500000
O O17 0.428953 0.803499 0.470428
O O18 0.500000 0.000000 0.500000
#
# Coordination Sequence:
#
# PCOD9016401 Si02
#       8
#     2   2   2   2   2   2   2   2
#     4  10  25  45  74 102 138 193 237 298 370 413
#     4  11  25  42  68 106 146 183 241 292 355 438
#     4  10  24  45  72 103 142 187 241 299 358 427
#     4  10  23  44  71 104 143 187 234 303 358 425
#     4  11  23  45  71 103 142 187 238 298 353 438
#     4  10  21  42  67  96 147 184 232 290 350 427
#     4  11  25  41  69 105 142 194 232 291 361 427
#     4  11  25  45  72 104 146 182 241 294 357 431
#
# _framework density 23.241268000000002
#
# number of rings (size 3 to 8) (size 9 to 14) (size 15 to 20)
#    0.000    1.500    2.500    1.875   10.500    1.000 
#    0.000    3.750    0.000    0.000    0.000    0.000 
#    0.000    0.000    0.000    0.000    0.000    0.000 
#
# Total GULP energy -89405.611096 kJ/mol
# GULP energy per Si atom -5587.850694 kJ/mol
# Density = 2.318837 g / cm^3
# Si number density = 23.241268 Si / 1000 Ang^3
#
#
#
# Elastic Constant Matrix: (Units=GPa)
#
#
# Indices 1 2 3 4 5 6 
#
# 1 82.1493 34.4641 32.5598 -6.5401 11.9778 -0.8498
# 2 34.4641 115.5620 22.8084 -12.2992 18.8263 -16.8755
# 3 32.5598 22.8084 100.4770 -4.0278 0.4981 -12.2714
# 4 -6.5401 -12.2992 -4.0278 38.9210 -2.3882 4.5193
# 5 11.9778 18.8263 0.4981 -2.3882 39.9246 0.3582
# 6 -0.8498 -16.8755 -12.2714 4.5193 0.3582 36.6782
#
#
#
# Elastic Compliance Matrix: (Units=1/GPa)
#
#
# Indices 1 2 3 4 5 6 
#
# 1 0.016070 -0.003707 -0.004671 0.001217 -0.002915 -0.003018
# 2 -0.003707 0.011509 -0.000726 0.002129 -0.004221 0.004746
# 3 -0.004671 -0.000726 0.012058 -0.000088 0.001556 0.003588
# 4 0.001217 0.002129 -0.000088 0.026848 0.000259 -0.002332
# 5 -0.002915 -0.004221 0.001556 0.000259 0.027924 -0.001794
# 6 -0.003018 0.004746 0.003588 -0.002332 -0.001794 0.030883
#
#
# Mechanical properties :
#
#
# Convention : Reuss Voigt Hill
#
# Bulk Modulus (GPa) = 46.66380 53.09479 49.87930
# Shear Modulus (GPa) = 33.19078 36.99515 35.09296
#
# Velocity S-wave (km/s) = 3.78312 3.99405 3.89001
# Velocity P-wave (km/s) = 6.26133 6.64564 6.45634
#
# Compressibility (1/GPa) = 0.02142989
#
# Stress axis : x y z
#
# Youngs Moduli (GPa) = 62.22634 86.88584 82.93257
#
# Poissons Ratio (x) = 0.32208 0.38742
# Poissons Ratio (y) = 0.23067 0.06017
# Poissons Ratio (z) = 0.29069 0.06304
#
# Static dielectric constant tensor:
#      x y z
#    x 1.909260 -0.160310 0.329450 
#    y -0.160310 2.402460 -0.936990 
#    z 0.329450 -0.936990 3.624470 
# 
# From -- ./inp_files/188212.got.cif
#   From: 2010.05.17/outbox.cif.g08.bks.cpg/sg2_95_cif.got.tgz:188212.got - 2010.06.03 11:33:40.
