data_PCOD9016022
_publ_section_title
;
Structure prediction by ZEFSAII (Michael W. Deem and Ramdas Pophale) SiO2 
 PCOD9016022
Probable space group: P -1
;
_chemical_formula_sum "Si O2"
_cell_formula_units_Z 12
_cell_length_a 7.006236
_cell_length_b 8.739164
_cell_length_c 16.709453
_cell_angle_alpha 50.495960
_cell_angle_beta 125.420582
_cell_angle_gamma 91.521543
_cell_volume 539.729640
_symmetry_space_group_name_H-M "P -1"
_symmetry_group_IT_number 2
_symmetry_cell_setting 'triclinic'
loop_
_space_group_symop_operation_xyz
x,y,z
-x,-y,-z
loop_
_atom_site_type_symbol
_atom_site_label
_atom_site_fract_x
_atom_site_fract_y
_atom_site_fract_z
Si Si1 0.556787 0.757775 0.558566
Si Si2 0.818097 0.075225 0.742312
Si Si3 0.714994 0.471052 0.994946
Si Si4 0.532049 0.452706 0.785459
Si Si5 0.865313 0.687747 0.198978
Si Si6 0.823702 0.846456 0.968189
O O1 0.407206 0.801538 0.422655
O O2 0.448426 0.643089 0.632901
O O3 0.884869 0.564209 0.691383
O O4 0.500000 0.000000 0.500000
O O5 0.986807 0.199486 0.757158
O O6 0.689830 0.059221 0.801219
O O7 0.039703 0.803885 0.860874
O O8 0.557997 0.548669 0.845874
O O9 0.823980 0.634465 0.993449
O O10 0.500000 0.500000 0.000000
O O11 0.851292 0.239747 0.916306
O O12 0.328968 0.362619 0.779027
O O13 0.714471 0.847150 0.030106
#
# Coordination Sequence:
#
# PCOD9016022 Si02
#       6
#     2   2   2   2   2   2
#     4  11  24  44  64  89 127 165 208 254 307 373
#     4  11  23  41  64  93 129 163 204 259 308 364
#     4  11  21  41  66  93 121 162 213 256 300 364
#     4  10  22  40  66  90 127 159 208 255 308 365
#     4  11  23  42  63  94 127 163 206 252 314 370
#     4  10  21  42  66  91 126 161 208 259 304 361
#
# _framework density 22.233353000000001
#
# number of rings (size 3 to 8) (size 9 to 14) (size 15 to 20)
#    0.000    1.333    1.667    6.000    0.000    4.000 
#    9.000    0.000    0.000    0.000    0.000    0.000 
#    0.000    0.000    0.000    0.000    0.000    0.000 
#
# Total GULP energy -67190.284811 kJ/mol
# GULP energy per Si atom -5599.190401 kJ/mol
# Density = 2.218275 g / cm^3
# Si number density = 22.233353 Si / 1000 Ang^3
#
#
#
# Elastic Constant Matrix: (Units=GPa)
#
#
# Indices 1 2 3 4 5 6 
#
# 1 160.1937 36.7428 58.5430 -6.3698 -40.9828 6.9169
# 2 36.7428 118.4162 52.1245 4.3303 -17.1497 12.4536
# 3 58.5430 52.1245 125.8591 18.7649 -38.4230 -0.4214
# 4 -6.3698 4.3303 18.7649 46.9057 -12.6896 -11.9080
# 5 -40.9828 -17.1497 -38.4230 -12.6896 35.7268 2.5742
# 6 6.9169 12.4536 -0.4214 -11.9080 2.5742 40.8810
#
#
#
# Elastic Compliance Matrix: (Units=1/GPa)
#
#
# Indices 1 2 3 4 5 6 
#
# 1 0.010170 -0.000897 -0.001666 0.004997 0.011271 -0.000719
# 2 -0.000897 0.010860 -0.004060 -0.000357 -0.000072 -0.003298
# 3 -0.001666 -0.004060 0.013882 -0.002597 0.010128 0.000267
# 4 0.004997 -0.000357 -0.002597 0.028073 0.012260 0.006642
# 5 0.011271 -0.000072 0.010128 0.012260 0.056258 -0.001752
# 6 -0.000719 -0.003298 0.000267 0.006642 -0.001752 0.027635
#
#
# Mechanical properties :
#
#
# Convention : Reuss Voigt Hill
#
# Bulk Modulus (GPa) = 46.15556 77.69885 61.92720
# Shear Modulus (GPa) = 29.87835 41.83995 35.85915
#
# Velocity S-wave (km/s) = 3.66984 4.34274 4.02039
# Velocity P-wave (km/s) = 6.22588 7.75685 7.03315
#
# Compressibility (1/GPa) = 0.02166586
#
# Stress axis : x y z
#
# Youngs Moduli (GPa) = 98.32686 92.08283 72.03781
#
# Poissons Ratio (x) = 0.08263 0.11998
# Poissons Ratio (y) = 0.08823 0.29247
# Poissons Ratio (z) = 0.16377 0.37385
#
# Static dielectric constant tensor:
#      x y z
#    x 1.826320 -0.020920 -0.009270 
#    y -0.020920 1.864530 -0.019670 
#    z -0.009270 -0.019670 1.808010 
# 
# From -- ./inp_files/345034.got.cif
#   From: 2010.05.17/outbox.cif.g08.bks.cpg/sg2_173_cif.got.tgz:345034.got - 2010.06.03 11:33:40.
