data_PCOD9016592
_publ_section_title
;
Structure prediction by ZEFSAII (Michael W. Deem and Ramdas Pophale) SiO2 
 PCOD9016592
Probable space group: P -1
;
_chemical_formula_sum "Si O2"
_cell_formula_units_Z 16
_cell_length_a 9.298450
_cell_length_b 8.794805
_cell_length_c 11.184809
_cell_angle_alpha 107.442601
_cell_angle_beta 105.644129
_cell_angle_gamma 47.620385
_cell_volume 641.621191
_symmetry_space_group_name_H-M "P -1"
_symmetry_group_IT_number 2
_symmetry_cell_setting 'triclinic'
loop_
_space_group_symop_operation_xyz
x,y,z
-x,-y,-z
loop_
_atom_site_type_symbol
_atom_site_label
_atom_site_fract_x
_atom_site_fract_y
_atom_site_fract_z
Si Si1 0.698752 0.786275 0.438571
Si Si2 0.495928 0.160863 0.838260
Si Si3 0.447857 0.545471 0.182883
Si Si4 0.851661 0.063752 0.169944
Si Si5 0.500317 0.336165 0.529500
Si Si6 0.908949 0.849733 0.877035
Si Si7 0.813589 0.533716 0.009568
Si Si8 0.128626 0.057737 0.591155
O O1 0.638144 0.783619 0.290433
O O2 0.697838 0.623469 0.476408
O O3 0.500000 0.000000 0.500000
O O4 0.882562 0.775460 0.454565
O O5 0.539797 0.322411 0.882571
O O6 0.697561 0.926512 0.815905
O O7 0.365327 0.227803 0.941354
O O8 0.647411 0.304288 0.186604
O O9 0.413477 0.672334 0.324451
O O10 0.275189 0.542076 0.112156
O O11 0.885715 0.935640 0.266416
O O12 0.025371 0.071755 0.190830
O O13 0.863996 0.959555 0.023057
O O14 0.500000 0.500000 0.500000
O O15 0.646674 0.136575 0.433337
O O16 0.096177 0.612208 0.886645
O O17 0.000000 0.500000 0.000000
O O18 0.000000 0.000000 0.500000
#
# Coordination Sequence:
#
# PCOD9016592 Si02
#       8
#     2   2   2   2   2   2   2   2
#     4   9  23  43  67  98 135 177 227 282 346 415
#     4  11  23  45  73  90 139 182 220 287 352 406
#     4  11  21  43  68  93 133 181 222 281 346 408
#     4  11  22  40  69  98 134 176 239 281 339 424
#     4  10  21  42  68  95 127 180 227 275 346 411
#     4  11  25  41  67 101 131 184 230 283 349 411
#     4  12  27  42  63 103 139 171 231 286 346 416
#     4  11  25  41  66 100 136 179 232 285 344 414
#
# _framework density 24.936831999999999
#
# number of rings (size 3 to 8) (size 9 to 14) (size 15 to 20)
#    0.000    1.250    3.750    1.875    8.750    1.500 
#    0.000    0.625    0.000    0.000    0.000    0.000 
#    0.000    0.000    0.000    0.000    0.000    0.000 
#
# Total GULP energy -89307.331228 kJ/mol
# GULP energy per Si atom -5581.708202 kJ/mol
# Density = 2.488007 g / cm^3
# Si number density = 24.936832 Si / 1000 Ang^3
#
#
#
# Elastic Constant Matrix: (Units=GPa)
#
#
# Indices 1 2 3 4 5 6 
#
# 1 208.1561 27.5709 44.9361 -14.5486 -17.8816 14.4681
# 2 27.5709 75.5009 10.3533 -3.8955 -5.4741 -17.5107
# 3 44.9361 10.3533 71.1123 15.3258 -25.9290 0.0252
# 4 -14.5486 -3.8955 15.3258 29.0279 6.6623 -7.6544
# 5 -17.8816 -5.4741 -25.9290 6.6623 36.4843 -1.9889
# 6 14.4681 -17.5107 0.0252 -7.6544 -1.9889 40.1145
#
#
#
# Elastic Compliance Matrix: (Units=1/GPa)
#
#
# Indices 1 2 3 4 5 6 
#
# 1 0.006855 -0.001976 -0.006577 0.006745 -0.002962 -0.002191
# 2 -0.001976 0.016583 -0.002524 0.005075 -0.000716 0.008886
# 3 -0.006577 -0.002524 0.033969 -0.028184 0.025530 -0.002863
# 4 0.006745 0.005075 -0.028184 0.062265 -0.026769 0.010354
# 5 -0.002962 -0.000716 0.025530 -0.026769 0.048776 -0.001950
# 6 -0.002191 0.008886 -0.002863 0.010354 -0.001950 0.031479
#
#
# Mechanical properties :
#
#
# Convention : Reuss Voigt Hill
#
# Bulk Modulus (GPa) = 28.36501 57.83222 43.09861
# Shear Modulus (GPa) = 21.38284 39.25262 30.31773
#
# Velocity S-wave (km/s) = 2.93145 3.97177 3.49059
# Velocity P-wave (km/s) = 4.78093 6.65396 5.79364
#
# Compressibility (1/GPa) = 0.03525471
#
# Stress axis : x y z
#
# Youngs Moduli (GPa) = 145.88276 60.30104 29.43817
#
# Poissons Ratio (x) = 0.11917 0.19360
# Poissons Ratio (y) = 0.28829 0.07429
# Poissons Ratio (z) = 0.95942 0.15218
#
# Static dielectric constant tensor:
#      x y z
#    x 2.117680 0.167750 -0.087210 
#    y 0.167750 2.296670 -0.085800 
#    z -0.087210 -0.085800 1.999310 
# 
# From -- ./inp_files/382678.got.cif
#   From: 2010.05.17/outbox.cif.g08.bks.cpg/sg2_192_cif.got.tgz:382678.got - 2010.06.03 11:33:40.
