data_PCOD9016113
_publ_section_title
;
Structure prediction by ZEFSAII (Michael W. Deem and Ramdas Pophale) SiO2 
 PCOD9016113
Probable space group: P -1
;
_chemical_formula_sum "Si O2"
_cell_formula_units_Z 16
_cell_length_a 14.583390
_cell_length_b 11.190908
_cell_length_c 5.168381
_cell_angle_alpha 75.691814
_cell_angle_beta 93.348960
_cell_angle_gamma 57.362219
_cell_volume 669.000090
_symmetry_space_group_name_H-M "P -1"
_symmetry_group_IT_number 2
_symmetry_cell_setting 'triclinic'
loop_
_space_group_symop_operation_xyz
x,y,z
-x,-y,-z
loop_
_atom_site_type_symbol
_atom_site_label
_atom_site_fract_x
_atom_site_fract_y
_atom_site_fract_z
Si Si1 0.197689 0.330629 0.045749
Si Si2 0.183321 0.865574 0.743612
Si Si3 0.427465 0.279161 0.985865
Si Si4 0.014996 0.379167 0.357150
Si Si5 0.791215 0.930282 0.993602
Si Si6 0.403643 0.571984 0.729353
Si Si7 0.568998 0.192113 0.578982
Si Si8 0.987216 0.864575 0.751981
O O1 0.138245 0.306818 0.289727
O O2 0.216939 0.209316 0.897913
O O3 0.318655 0.299918 0.083752
O O4 0.097798 0.503591 0.888061
O O5 0.291217 0.710921 0.759907
O O6 0.099810 0.837416 0.893289
O O7 0.102268 0.963636 0.441116
O O8 0.220418 0.960050 0.844867
O O9 0.384294 0.441598 0.766569
O O10 0.497282 0.179610 0.799338
O O11 0.514825 0.218714 0.272589
O O12 0.002257 0.240032 0.429050
O O13 0.000000 0.500000 0.500000
O O14 0.918835 0.845162 0.966381
O O15 0.694285 0.043335 0.712612
O O16 0.427381 0.659336 0.468206
O O17 0.500000 0.500000 0.000000
#
# Coordination Sequence:
#
# PCOD9016113 Si02
#       8
#     2   2   2   2   2   2   2   2
#     4  10  24  41  64  99 132 177 228 281 340 415
#     4  11  21  39  63  97 130 174 228 280 347 401
#     4  11  25  44  66 104 135 180 236 283 338 411
#     4  10  21  42  67  93 134 178 221 280 350 406
#     4  11  22  41  65  92 137 179 220 280 348 405
#     4  10  21  42  66  95 133 177 223 281 337 402
#     4  11  24  43  69  98 139 181 230 284 346 406
#     4  10  22  38  63  98 131 168 230 284 335 412
#
# _framework density 23.916288000000002
#
# number of rings (size 3 to 8) (size 9 to 14) (size 15 to 20)
#    0.000    1.500    1.250    3.750    1.750    2.000 
#    0.000    1.250    0.000    0.000    0.000    0.000 
#    0.000    0.000    0.000    0.000    0.000    0.000 
#
# Total GULP energy -89092.635932 kJ/mol
# GULP energy per Si atom -5568.289746 kJ/mol
# Density = 2.386185 g / cm^3
# Si number density = 23.916288 Si / 1000 Ang^3
#
#
#
# Elastic Constant Matrix: (Units=GPa)
#
#
# Indices 1 2 3 4 5 6 
#
# 1 134.9337 41.4091 21.1791 -4.4701 8.1956 -28.9024
# 2 41.4091 100.4067 27.9507 -7.1512 8.0518 -10.5927
# 3 21.1791 27.9507 85.0290 -5.0173 13.2120 -9.5306
# 4 -4.4701 -7.1512 -5.0173 40.0175 -4.1374 -1.4622
# 5 8.1956 8.0518 13.2120 -4.1374 11.2496 -6.2400
# 6 -28.9024 -10.5927 -9.5306 -1.4622 -6.2400 28.6576
#
#
#
# Elastic Compliance Matrix: (Units=1/GPa)
#
#
# Indices 1 2 3 4 5 6 
#
# 1 0.010475 -0.003162 -0.000598 0.000972 0.000933 0.009449
# 2 -0.003162 0.012338 -0.002758 0.001200 -0.002912 -0.000119
# 3 -0.000598 -0.002758 0.015220 -0.000256 -0.015535 0.000043
# 4 0.000972 0.001200 -0.000256 0.026649 0.011409 0.005183
# 5 0.000933 -0.002912 -0.015535 0.011409 0.125247 0.022552
# 6 0.009449 -0.000119 0.000043 0.005183 0.022552 0.049570
#
#
# Mechanical properties :
#
#
# Convention : Reuss Voigt Hill
#
# Bulk Modulus (GPa) = 40.00658 55.71637 47.86147
# Shear Modulus (GPa) = 19.16678 31.30696 25.23687
#
# Velocity S-wave (km/s) = 2.83399 3.62197 3.25193
# Velocity P-wave (km/s) = 5.24144 6.39050 5.84428
#
# Compressibility (1/GPa) = 0.02499589
#
# Stress axis : x y z
#
# Youngs Moduli (GPa) = 95.46604 81.05103 65.70332
#
# Poissons Ratio (x) = 0.25630 0.03930
# Poissons Ratio (y) = 0.30189 0.18121
# Poissons Ratio (z) = 0.05710 0.22354
#
# Static dielectric constant tensor:
#      x y z
#    x 2.097820 0.092720 -0.119010 
#    y 0.092720 2.008180 0.024090 
#    z -0.119010 0.024090 2.034270 
# 
# From -- ./inp_files/94603.got.cif
#   From: 2010.05.17/outbox.cif.g08.bks.cpg/sg2_48_cif.got.tgz:94603.got - 2010.06.03 11:33:40.
