data_PCOD9016703
_publ_section_title
;
Structure prediction by ZEFSAII (Michael W. Deem and Ramdas Pophale) SiO2 
 PCOD9016703
Probable space group: P -1
;
_chemical_formula_sum "Si O2"
_cell_formula_units_Z 14
_cell_length_a 5.599189
_cell_length_b 12.866154
_cell_length_c 23.536993
_cell_angle_alpha 21.932426
_cell_angle_beta 128.088415
_cell_angle_gamma 121.058150
_cell_volume 489.234965
_symmetry_space_group_name_H-M "P -1"
_symmetry_group_IT_number 2
_symmetry_cell_setting 'triclinic'
loop_
_space_group_symop_operation_xyz
x,y,z
-x,-y,-z
loop_
_atom_site_type_symbol
_atom_site_label
_atom_site_fract_x
_atom_site_fract_y
_atom_site_fract_z
Si Si1 0.546661 0.267772 0.430584
Si Si2 0.406289 0.438376 0.109303
Si Si3 0.932690 0.572918 0.531915
Si Si4 0.056991 0.566201 0.266087
Si Si5 0.333099 0.086667 0.066297
Si Si6 0.138366 0.323205 0.249597
Si Si7 0.258039 0.979990 0.233592
O O1 0.230369 0.263351 0.421680
O O2 0.356535 0.462100 0.253916
O O3 0.774414 0.290427 0.505442
O O4 0.750256 0.012426 0.556101
O O5 0.261519 0.357386 0.187319
O O6 0.775855 0.374774 0.183754
O O7 0.277376 0.252851 0.136416
O O8 0.372360 0.781938 0.936868
O O9 0.032412 0.477212 0.660505
O O10 0.611026 0.793947 0.372371
O O11 0.915532 0.280467 0.647150
O O12 0.317032 0.769336 0.204665
O O13 0.807611 0.726687 0.103645
O O14 0.150977 0.092003 0.097452
#
# Coordination Sequence:
#
# PCOD9016703 Si02
#       7
#     2   2   2   2   2   2   2
#     4  11  22  40  70 105 134 178 238 303 346 408
#     4  12  23  49  65 103 145 189 231 287 350 435
#     4  10  21  42  69 100 134 178 238 291 349 410
#     4  10  21  42  69 100 134 178 238 291 349 410
#     4  10  22  43  67  98 141 186 230 283 354 422
#     4  11  26  40  76 103 139 183 240 292 358 406
#     4  10  22  43  67  98 141 186 230 283 354 422
#
# _framework density 28.616109000000002
#
# number of rings (size 3 to 8) (size 9 to 14) (size 15 to 20)
#    0.000    1.429    2.857    2.143    0.000    1.143 
#   10.286   10.000    0.000    0.000    0.000    0.000 
#    0.000    0.000    0.000    0.000    0.000    0.000 
#
# Total GULP energy -78018.009662 kJ/mol
# GULP energy per Si atom -5572.714976 kJ/mol
# Density = 2.855098 g / cm^3
# Si number density = 28.616109 Si / 1000 Ang^3
#
#
#
# Elastic Constant Matrix: (Units=GPa)
#
#
# Indices 1 2 3 4 5 6 
#
# 1 64.6307 49.2765 25.7072 15.2149 14.6039 7.8773
# 2 49.2765 217.8645 48.8349 1.3299 1.9082 -1.0661
# 3 25.7072 48.8349 69.7996 14.4635 9.5153 11.7834
# 4 15.2149 1.3299 14.4635 48.8721 -1.0056 -13.7509
# 5 14.6039 1.9082 9.5153 -1.0056 40.0014 -0.1354
# 6 7.8773 -1.0661 11.7834 -13.7509 -0.1354 63.4848
#
#
#
# Elastic Compliance Matrix: (Units=1/GPa)
#
#
# Indices 1 2 3 4 5 6 
#
# 1 0.024501 -0.005031 -0.001816 -0.008432 -0.008501 -0.004632
# 2 -0.005031 0.006641 -0.004216 0.003318 0.002614 0.002243
# 3 -0.001816 -0.004216 0.020884 -0.007070 -0.004299 -0.005262
# 4 -0.008432 0.003318 -0.007070 0.027560 0.005323 0.008395
# 5 -0.008501 0.002614 -0.004299 0.005323 0.029145 0.003112
# 6 -0.004632 0.002243 -0.005262 0.008395 0.003112 0.019166
#
#
# Mechanical properties :
#
#
# Convention : Reuss Voigt Hill
#
# Bulk Modulus (GPa) = 33.44364 66.65913 50.05139
# Shear Modulus (GPa) = 31.25208 45.70340 38.47774
#
# Velocity S-wave (km/s) = 3.30830 4.00074 3.67088
# Velocity P-wave (km/s) = 5.12889 6.68476 5.95783
#
# Compressibility (1/GPa) = 0.02990105
#
# Stress axis : x y z
#
# Youngs Moduli (GPa) = 40.81448 150.58493 47.88298
#
# Poissons Ratio (x) = 0.75766 0.08693
# Poissons Ratio (y) = 0.20536 0.20185
# Poissons Ratio (z) = 0.07410 0.63480
#
# Static dielectric constant tensor:
#      x y z
#    x 2.386610 0.151410 -0.118810 
#    y 0.151410 2.534140 -0.146180 
#    z -0.118810 -0.146180 2.428940 
# 
# From -- ./inp_files/583161.got.cif
#   From: 2010.05.17/outbox.cif.g08.bks.cpg/sg2_292_cif.got.tgz:583161.got - 2010.06.03 11:33:40.
