data_PCOD9016072
_publ_section_title
;
Structure prediction by ZEFSAII (Michael W. Deem and Ramdas Pophale) SiO2 
 PCOD9016072
Probable space group: P -1
;
_chemical_formula_sum "Si O2"
_cell_formula_units_Z 14
_cell_length_a 5.183641
_cell_length_b 10.650431
_cell_length_c 13.526581
_cell_angle_alpha 132.323087
_cell_angle_beta 99.009402
_cell_angle_gamma 83.730296
_cell_volume 545.316757
_symmetry_space_group_name_H-M "P -1"
_symmetry_group_IT_number 2
_symmetry_cell_setting 'triclinic'
loop_
_space_group_symop_operation_xyz
x,y,z
-x,-y,-z
loop_
_atom_site_type_symbol
_atom_site_label
_atom_site_fract_x
_atom_site_fract_y
_atom_site_fract_z
Si Si1 0.860074 0.410638 0.562970
Si Si2 0.973827 0.916989 0.297352
Si Si3 0.786725 0.813439 0.430803
Si Si4 0.351997 0.620250 0.660282
Si Si5 0.741625 0.111202 0.037242
Si Si6 0.369189 0.620714 0.192706
Si Si7 0.594392 0.741072 0.063915
O O1 0.652076 0.560115 0.651700
O O2 0.711226 0.305144 0.412787
O O3 0.955032 0.303410 0.604788
O O4 0.146248 0.465274 0.569146
O O5 0.120825 0.737304 0.219327
O O6 0.800587 0.928517 0.393729
O O7 0.796391 0.893417 0.178025
O O8 0.186077 0.064699 0.407150
O O9 0.545593 0.690185 0.330025
O O10 0.257721 0.734698 0.804387
O O11 0.662797 0.183567 0.963565
O O12 0.500000 0.000000 0.000000
O O13 0.000000 0.000000 0.000000
O O14 0.540549 0.662359 0.126682
O O15 0.314580 0.419446 0.082376
#
# Coordination Sequence:
#
# PCOD9016072 Si02
#       7
#     2   2   2   2   2   2   2
#     4  10  22  41  70  93 130 174 219 282 327 396
#     4  10  22  40  60  98 128 165 215 275 341 399
#     4  10  22  36  62  97 127 166 215 272 340 397
#     4  10  23  45  63  99 126 174 233 269 329 398
#     4  12  28  45  68 101 138 184 227 280 340 408
#     4  10  21  42  66  94 128 173 224 271 339 403
#     4  10  24  41  65  95 130 175 224 273 334 408
#
# _framework density 25.673154
#
# number of rings (size 3 to 8) (size 9 to 14) (size 15 to 20)
#    0.000    1.714    0.000    2.571    8.000    0.000 
#    0.000    0.000    0.000    0.000    0.000    0.000 
#    0.000    0.000    0.000    0.000    0.000    0.000 
#
# Total GULP energy -78207.900521 kJ/mol
# GULP energy per Si atom -5586.278609 kJ/mol
# Density = 2.561472 g / cm^3
# Si number density = 25.673154 Si / 1000 Ang^3
#
#
#
# Elastic Constant Matrix: (Units=GPa)
#
#
# Indices 1 2 3 4 5 6 
#
# 1 115.8689 27.1633 40.1506 -1.0703 1.4590 -34.8534
# 2 27.1633 54.9474 34.3742 -9.2002 16.2002 -36.3115
# 3 40.1506 34.3742 154.7644 -6.5496 29.3094 -26.0988
# 4 -1.0703 -9.2002 -6.5496 36.8889 -8.3115 4.0519
# 5 1.4590 16.2002 29.3094 -8.3115 27.2495 2.3188
# 6 -34.8534 -36.3115 -26.0988 4.0519 2.3188 52.7424
#
#
#
# Elastic Compliance Matrix: (Units=1/GPa)
#
#
# Indices 1 2 3 4 5 6 
#
# 1 0.011276 -0.001172 -0.002059 -0.000572 0.001657 0.005597
# 2 -0.001172 0.055218 0.001984 0.001172 -0.037928 0.039801
# 3 -0.002059 0.001984 0.009783 -0.001232 -0.012435 0.005488
# 4 -0.000572 0.001172 -0.001232 0.029732 0.009975 -0.002903
# 5 0.001657 -0.037928 -0.012435 0.009975 0.078587 -0.035392
# 6 0.005597 0.039801 0.005488 -0.002903 -0.035392 0.054555
#
#
# Mechanical properties :
#
#
# Convention : Reuss Voigt Hill
#
# Bulk Modulus (GPa) = 13.55321 58.77300 36.16310
# Shear Modulus (GPa) = 18.78007 38.30234 28.54120
#
# Velocity S-wave (km/s) = 2.70757 3.86673 3.33785
# Velocity P-wave (km/s) = 3.88139 6.54813 5.38252
#
# Compressibility (1/GPa) = 0.07378326
#
# Stress axis : x y z
#
# Youngs Moduli (GPa) = 88.68288 18.10998 102.21633
#
# Poissons Ratio (x) = 0.02122 0.21050
# Poissons Ratio (y) = 0.10392 -0.20280
# Poissons Ratio (z) = 0.18263 -0.03593
#
# Static dielectric constant tensor:
#      x y z
#    x 2.008780 0.069650 -0.012790 
#    y 0.069650 2.094550 -0.028760 
#    z -0.012790 -0.028760 2.081460 
# 
# From -- ./inp_files/60655.got.cif
#   From: 2010.05.17/outbox.cif.g08.bks.cpg/sg2_31_cif.got.tgz:60655.got - 2010.06.03 11:33:40.
