data_PCOD9016839
_publ_section_title
;
Structure prediction by ZEFSAII (Michael W. Deem and Ramdas Pophale) SiO2 
 PCOD9016839
Probable space group: P -1
;
_chemical_formula_sum "Si O2"
_cell_formula_units_Z 16
_cell_length_a 18.360404
_cell_length_b 15.259933
_cell_length_c 4.843527
_cell_angle_alpha 70.203774
_cell_angle_beta 100.974567
_cell_angle_gamma 149.151471
_cell_volume 640.402971
_symmetry_space_group_name_H-M "P -1"
_symmetry_group_IT_number 2
_symmetry_cell_setting 'triclinic'
loop_
_space_group_symop_operation_xyz
x,y,z
-x,-y,-z
loop_
_atom_site_type_symbol
_atom_site_label
_atom_site_fract_x
_atom_site_fract_y
_atom_site_fract_z
Si Si1 0.840136 0.457610 0.950806
Si Si2 0.547767 0.147406 0.726790
Si Si3 0.360695 0.343190 0.385672
Si Si4 0.478149 0.628385 0.783963
Si Si5 0.402259 0.070260 0.176701
Si Si6 0.181112 0.391279 0.835054
Si Si7 0.103852 0.671743 0.595066
Si Si8 0.888511 0.809076 0.479963
O O1 0.710451 0.338424 0.766523
O O2 0.997701 0.625782 0.736583
O O3 0.839023 0.526099 0.141188
O O4 0.825072 0.333708 0.164163
O O5 0.506790 0.118391 0.404964
O O6 0.436748 0.095465 0.855320
O O7 0.500000 0.000000 0.000000
O O8 0.500000 0.500000 0.500000
O O9 0.379341 0.258533 0.385901
O O10 0.237349 0.250816 0.590235
O O11 0.391523 0.448160 0.047294
O O12 0.548703 0.772904 0.898780
O O13 0.342568 0.544022 0.663781
O O14 0.236790 0.866435 0.337833
O O15 0.080116 0.224927 0.721036
O O16 0.162954 0.316633 0.187336
O O17 0.000000 0.500000 0.500000
O O18 0.000000 0.000000 0.500000
#
# Coordination Sequence:
#
# PCOD9016839 Si02
#       8
#     2   2   2   2   2   2   2   2
#     4  11  26  45  71 103 142 194 239 296 369 430
#     4  12  25  44  73 103 137 185 243 299 349 421
#     4  10  21  42  69  95 142 178 221 289 362 410
#     4  10  23  41  68 106 132 181 234 296 350 416
#     4  12  27  44  72 108 137 183 252 297 346 435
#     4  11  24  43  72 100 135 178 239 288 349 421
#     4  11  27  48  69 100 153 197 230 301 375 429
#     4  11  25  45  69 102 135 183 227 286 354 432
#
# _framework density 24.984266999999999
#
# number of rings (size 3 to 8) (size 9 to 14) (size 15 to 20)
#    0.000    1.000    3.750    1.500    8.750    1.000 
#    0.000    0.000    0.000    0.000    0.000    0.000 
#    0.000    0.000    0.000    0.000    0.000    0.000 
#
# Total GULP energy -89200.156666 kJ/mol
# GULP energy per Si atom -5575.009792 kJ/mol
# Density = 2.492740 g / cm^3
# Si number density = 24.984267 Si / 1000 Ang^3
#
#
#
# Elastic Constant Matrix: (Units=GPa)
#
#
# Indices 1 2 3 4 5 6 
#
# 1 139.7026 42.1511 31.2514 5.0386 -26.5017 -12.3391
# 2 42.1511 114.6457 12.2726 5.0462 -22.7033 4.3146
# 3 31.2514 12.2726 79.2055 16.1691 -16.0139 9.6649
# 4 5.0386 5.0462 16.1691 40.5209 -0.4097 -7.3607
# 5 -26.5017 -22.7033 -16.0139 -0.4097 35.9465 13.1747
# 6 -12.3391 4.3146 9.6649 -7.3607 13.1747 40.3517
#
#
#
# Elastic Compliance Matrix: (Units=1/GPa)
#
#
# Indices 1 2 3 4 5 6 
#
# 1 0.009517 -0.002835 -0.003509 0.001229 0.002396 0.003496
# 2 -0.002835 0.011533 0.002378 -0.003032 0.008406 -0.005967
# 3 -0.003509 0.002378 0.019350 -0.009553 0.011643 -0.011506
# 4 0.001229 -0.003032 -0.009553 0.030727 -0.009160 0.011584
# 5 0.002396 0.008406 0.011643 -0.009160 0.047337 -0.020081
# 6 0.003496 -0.005967 -0.011506 0.011584 -0.020081 0.037914
#
#
# Mechanical properties :
#
#
# Convention : Reuss Voigt Hill
#
# Bulk Modulus (GPa) = 30.79931 56.10045 43.44988
# Shear Modulus (GPa) = 28.54984 39.88906 34.21945
#
# Velocity S-wave (km/s) = 3.38407 4.00004 3.70488
# Velocity P-wave (km/s) = 5.25581 6.62094 5.97747
#
# Compressibility (1/GPa) = 0.03246826
#
# Stress axis : x y z
#
# Youngs Moduli (GPa) = 105.07249 86.70923 51.68049
#
# Poissons Ratio (x) = 0.24580 0.18135
# Poissons Ratio (y) = 0.29785 -0.12290
# Poissons Ratio (z) = 0.36870 -0.20619
#
# Static dielectric constant tensor:
#      x y z
#    x 2.005080 -0.004000 0.011060 
#    y -0.004000 2.061730 0.046600 
#    z 0.011060 0.046600 1.988940 
# 
# From -- ./inp_files/110805.got.cif
#   From: 2010.05.17/outbox.cif.g08.bks.cpg/sg2_56_cif.got.tgz:110805.got - 2010.06.03 11:33:40.
