data_PCOD9016739
_publ_section_title
;
Structure prediction by ZEFSAII (Michael W. Deem and Ramdas Pophale) SiO2 
 PCOD9016739
Probable space group: P -1
;
_chemical_formula_sum "Si O2"
_cell_formula_units_Z 16
_cell_length_a 15.538915
_cell_length_b 8.579557
_cell_length_c 17.877394
_cell_angle_alpha 39.941039
_cell_angle_beta 26.496581
_cell_angle_gamma 41.054146
_cell_volume 663.182816
_symmetry_space_group_name_H-M "P -1"
_symmetry_group_IT_number 2
_symmetry_cell_setting 'triclinic'
loop_
_space_group_symop_operation_xyz
x,y,z
-x,-y,-z
loop_
_atom_site_type_symbol
_atom_site_label
_atom_site_fract_x
_atom_site_fract_y
_atom_site_fract_z
Si Si1 0.954923 0.338899 0.842186
Si Si2 0.820534 0.196627 0.607168
Si Si3 0.245206 0.745377 0.674680
Si Si4 0.580308 0.287216 0.075390
Si Si5 0.432467 0.240530 0.791030
Si Si6 0.361348 0.275178 0.405032
Si Si7 0.110153 0.195312 0.182712
Si Si8 0.226726 0.865345 0.797582
O O1 0.928849 0.618353 0.785099
O O2 0.808391 0.296295 0.907530
O O3 0.867715 0.225887 0.023801
O O4 0.173120 0.164736 0.728742
O O5 0.634282 0.212968 0.690944
O O6 0.817013 0.487576 0.521189
O O7 0.803627 0.072042 0.747580
O O8 0.000000 0.000000 0.500000
O O9 0.388472 0.472104 0.680529
O O10 0.127498 0.782189 0.831939
O O11 0.098860 0.767772 0.710965
O O12 0.327014 0.997755 0.520074
O O13 0.458332 0.343057 0.227116
O O14 0.564576 0.015866 0.160020
O O15 0.500000 0.500000 0.000000
O O16 0.263203 0.261308 0.979343
O O17 0.540221 0.245758 0.336606
#
# Coordination Sequence:
#
# PCOD9016739 Si02
#       8
#     2   2   2   2   2   2   2   2
#     4  10  22  40  71 107 138 184 245 296 361 423
#     4  12  29  51  74 104 149 199 243 303 370 446
#     4  12  26  43  75 108 149 187 238 309 361 436
#     4  11  24  46  76 106 147 197 244 302 360 440
#     4  12  25  48  78 110 146 192 253 296 367 429
#     4  11  26  48  70 104 150 194 242 295 384 430
#     4  12  26  46  76 111 147 188 252 303 357 440
#     4  10  21  42  69 102 141 190 232 299 366 430
#
# _framework density 24.126076999999999
#
# number of rings (size 3 to 8) (size 9 to 14) (size 15 to 20)
#    0.000    0.750    2.500    4.125    8.750    1.000 
#    2.250    0.000    0.000    0.000    0.000    0.000 
#    0.000    0.000    0.000    0.000    0.000    0.000 
#
# Total GULP energy -89425.091875 kJ/mol
# GULP energy per Si atom -5589.068242 kJ/mol
# Density = 2.407116 g / cm^3
# Si number density = 24.126077 Si / 1000 Ang^3
#
#
#
# Elastic Constant Matrix: (Units=GPa)
#
#
# Indices 1 2 3 4 5 6 
#
# 1 124.7086 55.9952 33.4129 -20.6843 -9.2205 -21.0410
# 2 55.9952 204.7224 57.8812 -27.7000 -1.2845 -9.1149
# 3 33.4129 57.8812 72.5592 -15.4395 -0.3566 -16.2851
# 4 -20.6843 -27.7000 -15.4395 48.6948 0.0568 9.3939
# 5 -9.2205 -1.2845 -0.3566 0.0568 32.3796 -7.2005
# 6 -21.0410 -9.1149 -16.2851 9.3939 -7.2005 38.5279
#
#
#
# Elastic Compliance Matrix: (Units=1/GPa)
#
#
# Indices 1 2 3 4 5 6 
#
# 1 0.010856 -0.001915 -0.001925 0.001952 0.004092 0.004951
# 2 -0.001915 0.006903 -0.004650 0.002029 -0.000775 -0.002018
# 3 -0.001925 -0.004650 0.020117 0.001741 0.000839 0.006084
# 4 0.001952 0.002029 0.001741 0.023755 -0.000174 -0.003542
# 5 0.004092 -0.000775 0.000839 -0.000174 0.033984 0.008800
# 6 0.004951 -0.002018 0.006084 -0.003542 0.008800 0.033262
#
#
# Mechanical properties :
#
#
# Convention : Reuss Voigt Hill
#
# Bulk Modulus (GPa) = 47.85272 77.39654 62.62463
# Shear Modulus (GPa) = 32.71785 40.90052 36.80919
#
# Velocity S-wave (km/s) = 3.68655 4.12185 3.91026
# Velocity P-wave (km/s) = 6.16428 7.40287 6.81179
#
# Compressibility (1/GPa) = 0.02089746
#
# Stress axis : x y z
#
# Youngs Moduli (GPa) = 92.11693 144.86791 49.70804
#
# Poissons Ratio (x) = 0.27739 0.09569
# Poissons Ratio (y) = 0.17639 0.23112
# Poissons Ratio (z) = 0.17732 0.67357
#
# Static dielectric constant tensor:
#      x y z
#    x 1.890730 0.003730 0.028780 
#    y 0.003730 2.001770 0.003300 
#    z 0.028780 0.003300 2.049140 
# 
# From -- ./inp_files/572815.got.cif
#   From: 2010.05.17/outbox.cif.g08.bks.cpg/sg2_287_cif.got.tgz:572815.got - 2010.06.03 11:33:40.
