data_PCOD9016289
_publ_section_title
;
Structure prediction by ZEFSAII (Michael W. Deem and Ramdas Pophale) SiO2 
 PCOD9016289
Probable space group: P -1
;
_chemical_formula_sum "Si O2"
_cell_formula_units_Z 14
_cell_length_a 5.383688
_cell_length_b 19.362064
_cell_length_c 8.978817
_cell_angle_alpha 130.072487
_cell_angle_beta 62.736366
_cell_angle_gamma 118.070080
_cell_volume 615.055161
_symmetry_space_group_name_H-M "P -1"
_symmetry_group_IT_number 2
_symmetry_cell_setting 'triclinic'
loop_
_space_group_symop_operation_xyz
x,y,z
-x,-y,-z
loop_
_atom_site_type_symbol
_atom_site_label
_atom_site_fract_x
_atom_site_fract_y
_atom_site_fract_z
Si Si1 0.857948 0.902652 0.131666
Si Si2 0.933256 0.781526 0.204032
Si Si3 0.549256 0.226639 0.137953
Si Si4 0.592316 0.102560 0.192115
Si Si5 0.731739 0.078819 0.453687
Si Si6 0.272940 0.420752 0.043482
Si Si7 0.593819 0.421218 0.269786
O O1 0.817281 0.855848 0.240828
O O2 0.951342 0.014490 0.267590
O O3 0.571724 0.862951 0.060418
O O4 0.079780 0.867859 0.918556
O O5 0.112464 0.835355 0.367881
O O6 0.121844 0.749553 0.977124
O O7 0.743338 0.681157 0.166542
O O8 0.470627 0.183233 0.261726
O O9 0.469897 0.321098 0.247657
O O10 0.601733 0.100596 0.363778
O O11 0.500000 0.000000 0.000000
O O12 0.500000 0.000000 0.500000
O O13 0.425452 0.417030 0.155226
O O14 0.945210 0.437226 0.169394
O O15 0.500000 0.500000 0.000000
O O16 0.500000 0.500000 0.500000
#
# Coordination Sequence:
#
# PCOD9016289 Si02
#       7
#     2   2   2   2   2   2   2
#     4  11  20  41  63  86 135 177 222 276 348 411
#     4  10  22  40  65  97 131 184 228 287 354 430
#     4  10  21  42  67  91 129 182 225 286 353 414
#     4  11  23  39  61  93 131 178 229 281 344 418
#     4  12  22  39  64  97 135 178 230 280 345 431
#     4  11  24  47  75 107 149 188 233 308 381 430
#     4  11  24  48  77 105 140 189 250 304 359 435
#
# _framework density 22.762184000000001
#
# number of rings (size 3 to 8) (size 9 to 14) (size 15 to 20)
#    0.000    1.143    4.286    2.571    0.000    0.000 
#    2.571    2.857    0.000    0.000    0.000    0.000 
#    0.000    0.000    0.000    0.000    0.000    0.000 
#
# Total GULP energy -78028.545056 kJ/mol
# GULP energy per Si atom -5573.467504 kJ/mol
# Density = 2.271038 g / cm^3
# Si number density = 22.762184 Si / 1000 Ang^3
#
#
#
# Elastic Constant Matrix: (Units=GPa)
#
#
# Indices 1 2 3 4 5 6 
#
# 1 104.9224 59.1377 51.7602 -4.2907 23.4703 -17.1887
# 2 59.1377 192.1794 83.6598 11.0016 32.7623 -29.9905
# 3 51.7602 83.6598 131.7488 7.4482 26.3620 -20.8644
# 4 -4.2907 11.0016 7.4482 39.0485 0.2353 0.9872
# 5 23.4703 32.7623 26.3620 0.2353 45.6158 -9.3775
# 6 -17.1887 -29.9905 -20.8644 0.9872 -9.3775 47.3866
#
#
#
# Elastic Compliance Matrix: (Units=1/GPa)
#
#
# Indices 1 2 3 4 5 6 
#
# 1 0.013353 -0.002098 -0.003191 0.002651 -0.003242 0.001414
# 2 -0.002098 0.008248 -0.003437 -0.001949 -0.002329 0.002525
# 3 -0.003191 -0.003437 0.011832 -0.001661 -0.002425 0.001432
# 4 0.002651 -0.001949 -0.001661 0.026800 0.000559 -0.001451
# 5 -0.003242 -0.002329 -0.002425 0.000559 0.026993 0.001612
# 6 0.001414 0.002525 0.001432 -0.001451 0.001612 0.024194
#
#
# Mechanical properties :
#
#
# Convention : Reuss Voigt Hill
#
# Bulk Modulus (GPa) = 62.57509 90.88512 76.73010
# Shear Modulus (GPa) = 37.25826 42.02970 39.64398
#
# Velocity S-wave (km/s) = 4.05019 4.30172 4.17785
# Velocity P-wave (km/s) = 7.03012 8.04288 7.55349
#
# Compressibility (1/GPa) = 0.01598080
#
# Stress axis : x y z
#
# Youngs Moduli (GPa) = 74.89017 121.24091 84.51636
#
# Poissons Ratio (x) = 0.25441 0.26967
# Poissons Ratio (y) = 0.15715 0.29048
# Poissons Ratio (z) = 0.23895 0.41671
#
# Static dielectric constant tensor:
#      x y z
#    x 2.179960 0.050230 -0.169910 
#    y 0.050230 1.925930 -0.016950 
#    z -0.169910 -0.016950 1.915940 
# 
# From -- ./inp_files/43132.got.cif
#   From: 2010.05.17/outbox.cif.g08.bks.cpg/sg2_22_cif.got.tgz:43132.got - 2010.06.03 11:33:40.
