data_PCOD9016264
_publ_section_title
;
Structure prediction by ZEFSAII (Michael W. Deem and Ramdas Pophale) SiO2 
 PCOD9016264
Probable space group: P -1
;
_chemical_formula_sum "Si O2"
_cell_formula_units_Z 15
_cell_length_a 11.388331
_cell_length_b 7.047803
_cell_length_c 8.817694
_cell_angle_alpha 74.545423
_cell_angle_beta 65.031421
_cell_angle_gamma 73.973577
_cell_volume 607.452721
_symmetry_space_group_name_H-M "P -1"
_symmetry_group_IT_number 2
_symmetry_cell_setting 'triclinic'
loop_
_space_group_symop_operation_xyz
x,y,z
-x,-y,-z
loop_
_atom_site_type_symbol
_atom_site_label
_atom_site_fract_x
_atom_site_fract_y
_atom_site_fract_z
Si Si1 0.357817 0.103694 0.112244
Si Si2 0.500000 0.500000 0.500000
Si Si3 0.393309 0.343704 0.309095
Si Si4 0.841342 0.092824 0.911895
Si Si5 0.870654 0.467757 0.491006
Si Si6 0.335899 0.542275 0.897352
Si Si7 0.276859 0.762546 0.568287
Si Si8 0.866863 0.870050 0.251401
O O1 0.367600 0.149956 0.274838
O O2 0.250031 0.973521 0.152692
O O3 0.323865 0.321752 0.001580
O O4 0.500000 0.000000 0.000000
O O5 0.433601 0.337496 0.463525
O O6 0.407389 0.692372 0.413736
O O7 0.253344 0.492414 0.336774
O O8 0.521722 0.407152 0.151879
O O9 0.773418 0.290419 0.999776
O O10 0.860397 0.920203 0.067175
O O11 0.986284 0.113372 0.776455
O O12 0.850862 0.277509 0.443757
O O13 0.000000 0.500000 0.500000
O O14 0.847558 0.650525 0.346269
O O15 0.329228 0.581676 0.707335
O O16 0.238002 0.962696 0.640808
#
# Coordination Sequence:
#
# PCOD9016264 Si02
#       8
#     2   1   2   2   2   2   2   2
#     4  12  24  38  65 103 128 162 217 274 331 374
#     4   8  18  42  64  82 124 168 206 252 306 382
#     4  10  22  42  62  94 129 169 211 261 323 385
#     4  10  23  42  66  96 126 168 222 265 319 382
#     4  11  25  41  61  93 132 169 213 261 323 387
#     4  10  21  42  67  89 130 168 209 275 325 373
#     4   9  20  42  63  88 120 168 219 257 314 377
#     4  10  23  43  66  91 127 174 218 261 315 387
#
# _framework density 24.693280000000001
#
# number of rings (size 3 to 8) (size 9 to 14) (size 15 to 20)
#    0.000    1.867    1.333    1.200    3.733    0.533 
#    7.200   10.667    0.000    0.000    0.000    0.000 
#    0.000    0.000    0.000    0.000    0.000    0.000 
#
# Total GULP energy -83635.352897 kJ/mol
# GULP energy per Si atom -5575.690193 kJ/mol
# Density = 2.463708 g / cm^3
# Si number density = 24.693280 Si / 1000 Ang^3
#
#
#
# Elastic Constant Matrix: (Units=GPa)
#
#
# Indices 1 2 3 4 5 6 
#
# 1 163.5060 10.5156 12.8375 17.9585 4.0488 21.6038
# 2 10.5156 69.4683 11.1745 8.0439 8.4545 5.1707
# 3 12.8375 11.1745 59.4065 -8.0665 11.4785 -2.0147
# 4 17.9585 8.0439 -8.0665 43.7262 0.5051 9.4974
# 5 4.0488 8.4545 11.4785 0.5051 35.9350 20.3402
# 6 21.6038 5.1707 -2.0147 9.4974 20.3402 40.0663
#
#
#
# Elastic Compliance Matrix: (Units=1/GPa)
#
#
# Indices 1 2 3 4 5 6 
#
# 1 0.007161 -0.000402 -0.002502 -0.002311 0.002858 -0.004838
# 2 -0.000402 0.015596 -0.002721 -0.003237 -0.002876 0.000294
# 3 -0.002502 -0.002721 0.020460 0.003990 -0.009372 0.006541
# 4 -0.002311 -0.003237 0.003990 0.026360 0.002608 -0.005708
# 5 0.002858 -0.002876 -0.009372 0.002608 0.045490 -0.025353
# 6 -0.004838 0.000294 0.006541 -0.005708 -0.025353 0.042082
#
#
# Mechanical properties :
#
#
# Convention : Reuss Voigt Hill
#
# Bulk Modulus (GPa) = 31.28065 40.15955 35.72010
# Shear Modulus (GPa) = 27.92472 41.13571 34.53022
#
# Velocity S-wave (km/s) = 3.36648 4.08593 3.74353
# Velocity P-wave (km/s) = 5.27315 6.20954 5.76040
#
# Compressibility (1/GPa) = 0.03196864
#
# Stress axis : x y z
#
# Youngs Moduli (GPa) = 139.65503 64.11726 48.87591
#
# Poissons Ratio (x) = 0.02575 0.12228
# Poissons Ratio (y) = 0.05609 0.13298
# Poissons Ratio (z) = 0.34939 0.17444
#
# Static dielectric constant tensor:
#      x y z
#    x 1.740750 0.168620 0.396340 
#    y 0.168620 1.843430 -0.358230 
#    z 0.396340 -0.358230 1.420180 
# 
# From -- ./inp_files/408327.got.cif
#   From: 2010.05.17/outbox.cif.g08.bks.cpg/sg2_205_cif.got.tgz:408327.got - 2010.06.03 11:33:40.
