data_PCOD9016970
_publ_section_title
;
Structure prediction by ZEFSAII (Michael W. Deem and Ramdas Pophale) SiO2 
 PCOD9016970
Probable space group: P -1
;
_chemical_formula_sum "Si O2"
_cell_formula_units_Z 13
_cell_length_a 12.267822
_cell_length_b 7.773454
_cell_length_c 8.523050
_cell_angle_alpha 105.114205
_cell_angle_beta 68.911684
_cell_angle_gamma 137.245377
_cell_volume 514.807048
_symmetry_space_group_name_H-M "P -1"
_symmetry_group_IT_number 2
_symmetry_cell_setting 'triclinic'
loop_
_space_group_symop_operation_xyz
x,y,z
-x,-y,-z
loop_
_atom_site_type_symbol
_atom_site_label
_atom_site_fract_x
_atom_site_fract_y
_atom_site_fract_z
Si Si1 0.797961 0.017416 0.239564
Si Si2 0.458638 0.119172 0.436756
Si Si3 0.674950 0.108166 0.872202
Si Si4 0.818262 0.460494 0.291360
Si Si5 0.689870 0.737022 0.919994
Si Si6 0.075021 0.231023 0.398217
Si Si7 0.000000 0.500000 0.000000
O O1 0.821312 0.245255 0.203870
O O2 0.942483 0.140047 0.315530
O O3 0.633309 0.844269 0.392729
O O4 0.779899 0.863596 0.070203
O O5 0.641595 0.360361 0.331952
O O6 0.500000 0.000000 0.500000
O O7 0.341042 0.919703 0.313493
O O8 0.683638 0.913999 0.872500
O O9 0.839244 0.369820 0.924932
O O10 0.500000 0.000000 0.000000
O O11 0.872992 0.555234 0.460987
O O12 0.963328 0.657596 0.143179
O O13 0.767972 0.673394 0.753707
O O14 0.500000 0.500000 0.000000
O O15 0.000000 0.000000 0.500000
#
# Coordination Sequence:
#
# PCOD9016970 Si02
#       7
#     2   2   2   2   2   2   1
#     4  11  23  46  71 101 143 197 252 304 371 459
#     4  10  21  42  70 109 142 182 252 314 371 432
#     4  12  24  47  75 112 148 202 254 315 372 463
#     4  11  23  42  73 103 142 190 252 299 373 446
#     4  12  27  49  71 110 155 199 249 314 395 456
#     4  12  27  46  70 107 152 194 250 319 384 449
#     4  12  22  42  74 114 140 184 260 312 366 434
#
# _framework density 25.252179000000002
#
# number of rings (size 3 to 8) (size 9 to 14) (size 15 to 20)
#    0.000    0.615    3.077    5.538    0.000    4.923 
#    2.769    3.077    0.000    0.000    0.000    0.000 
#    0.000    0.000    0.000    0.000    0.000    0.000 
#
# Total GULP energy -72604.072988 kJ/mol
# GULP energy per Si atom -5584.928691 kJ/mol
# Density = 2.519470 g / cm^3
# Si number density = 25.252179 Si / 1000 Ang^3
#
#
#
# Elastic Constant Matrix: (Units=GPa)
#
#
# Indices 1 2 3 4 5 6 
#
# 1 96.8614 26.3715 48.0083 0.8509 21.2379 31.9115
# 2 26.3715 81.8772 40.8329 -9.6143 10.3808 31.9579
# 3 48.0083 40.8329 220.6154 11.1025 6.5700 32.4095
# 4 0.8509 -9.6143 11.1025 46.7770 24.9209 -2.6892
# 5 21.2379 10.3808 6.5700 24.9209 59.3644 -2.0532
# 6 31.9115 31.9579 32.4095 -2.6892 -2.0532 47.5089
#
#
#
# Elastic Compliance Matrix: (Units=1/GPa)
#
#
# Indices 1 2 3 4 5 6 
#
# 1 0.016157 0.001461 -0.002229 0.004138 -0.007887 -0.010422
# 2 0.001461 0.019605 -0.002282 0.007763 -0.007390 -0.012493
# 3 -0.002229 -0.002282 0.005661 -0.002720 0.001680 -0.000911
# 4 0.004138 0.007763 -0.002720 0.031814 -0.016066 -0.005040
# 5 -0.007887 -0.007390 0.001680 -0.016066 0.027843 0.009416
# 6 -0.010422 -0.012493 -0.000911 -0.005040 0.009416 0.037195
#
#
# Mechanical properties :
#
#
# Convention : Reuss Voigt Hill
#
# Bulk Modulus (GPa) = 28.30940 69.97548 49.14244
# Shear Modulus (GPa) = 32.02053 49.67281 40.84667
#
# Velocity S-wave (km/s) = 3.56480 4.43998 4.02624
# Velocity P-wave (km/s) = 5.30837 7.35224 6.41226
#
# Compressibility (1/GPa) = 0.03532396
#
# Stress axis : x y z
#
# Youngs Moduli (GPa) = 61.89145 51.00639 176.65352
#
# Poissons Ratio (x) = -0.07452 0.39372
# Poissons Ratio (y) = -0.09043 0.40313
# Poissons Ratio (z) = 0.13794 0.11640
#
# Static dielectric constant tensor:
#      x y z
#    x 1.954640 0.034450 -0.049850 
#    y 0.034450 1.563160 0.434040 
#    z -0.049850 0.434040 1.538620 
# 
# From -- ./inp_files/237805.got.cif
#   From: 2010.05.17/outbox.cif.g08.bks.cpg/sg2_119_cif.got.tgz:237805.got - 2010.06.03 11:33:40.
