data_PCOD9016547
_publ_section_title
;
Structure prediction by ZEFSAII (Michael W. Deem and Ramdas Pophale) SiO2 
 PCOD9016547
Probable space group: P -1
;
_chemical_formula_sum "Si O2"
_cell_formula_units_Z 14
_cell_length_a 18.542839
_cell_length_b 9.368911
_cell_length_c 7.738098
_cell_angle_alpha 123.369001
_cell_angle_beta 120.030536
_cell_angle_gamma 33.693889
_cell_volume 620.154316
_symmetry_space_group_name_H-M "P -1"
_symmetry_group_IT_number 2
_symmetry_cell_setting 'triclinic'
loop_
_space_group_symop_operation_xyz
x,y,z
-x,-y,-z
loop_
_atom_site_type_symbol
_atom_site_label
_atom_site_fract_x
_atom_site_fract_y
_atom_site_fract_z
Si Si1 0.083451 0.700112 0.368135
Si Si2 0.129390 0.327185 0.433181
Si Si3 0.603750 0.995231 0.455757
Si Si4 0.845741 0.949075 0.048795
Si Si5 0.664882 0.637705 0.786638
Si Si6 0.331696 0.485202 0.907498
Si Si7 0.608086 0.098464 0.934434
O O1 0.116902 0.530789 0.459609
O O2 0.212197 0.549380 0.317693
O O3 0.000000 0.000000 0.500000
O O4 0.985333 0.736745 0.163897
O O5 0.137893 0.168393 0.192974
O O6 0.000000 0.500000 0.500000
O O7 0.271189 0.109200 0.549094
O O8 0.461767 0.252509 0.376152
O O9 0.608039 0.040437 0.693139
O O10 0.629110 0.752631 0.298452
O O11 0.732185 0.023110 0.059702
O O12 0.785677 0.231207 0.134152
O O13 0.625360 0.899360 0.935168
O O14 0.698743 0.507027 0.925189
O O15 0.463009 0.393852 0.997907
#
# Coordination Sequence:
#
# PCOD9016547 Si02
#       7
#     2   2   2   2   2   2   2
#     4  12  27  44  67  94 129 176 216 263 325 389
#     4  11  26  45  68  96 129 170 214 269 331 378
#     4  10  21  42  69  92 130 170 215 265 317 385
#     4  11  25  43  65  93 136 169 210 270 324 383
#     4  11  23  40  67  95 128 166 222 257 321 377
#     4  11  23  38  67 101 125 168 220 265 316 382
#     4  10  21  42  68  92 128 173 212 267 328 372
#
# _framework density 22.575026000000001
#
# number of rings (size 3 to 8) (size 9 to 14) (size 15 to 20)
#    0.000    1.143    2.857    5.143    6.000    1.714 
#    0.000    2.857    0.000    0.000    0.000    0.000 
#    0.000    0.000    0.000    0.000    0.000    0.000 
#
# Total GULP energy -78313.471847 kJ/mol
# GULP energy per Si atom -5593.819418 kJ/mol
# Density = 2.252364 g / cm^3
# Si number density = 22.575026 Si / 1000 Ang^3
#
#
#
# Elastic Constant Matrix: (Units=GPa)
#
#
# Indices 1 2 3 4 5 6 
#
# 1 136.9280 41.7775 28.5823 -20.1477 -11.1966 -42.4103
# 2 41.7775 96.9366 12.0964 -14.6666 1.0390 -29.5523
# 3 28.5823 12.0964 46.4592 -11.4841 15.0606 -9.6056
# 4 -20.1477 -14.6666 -11.4841 41.9450 -9.1901 11.1657
# 5 -11.1966 1.0390 15.0606 -9.1901 29.0793 -4.9221
# 6 -42.4103 -29.5523 -9.6056 11.1657 -4.9221 50.6015
#
#
#
# Elastic Compliance Matrix: (Units=1/GPa)
#
#
# Indices 1 2 3 4 5 6 
#
# 1 0.014721 -0.001574 -0.010081 0.004170 0.013946 0.009941
# 2 -0.001574 0.013237 -0.001099 0.002286 0.001197 0.005815
# 3 -0.010081 -0.001099 0.034378 0.000599 -0.022281 -0.004865
# 4 0.004170 0.002286 0.000599 0.029208 0.010361 -0.000494
# 5 0.013946 0.001197 -0.022281 0.010361 0.056453 0.011363
# 6 0.009941 0.005815 -0.004865 -0.000494 0.011363 0.031781
#
#
# Mechanical properties :
#
#
# Convention : Reuss Voigt Hill
#
# Bulk Modulus (GPa) = 27.15381 49.47067 38.31224
# Shear Modulus (GPa) = 22.98189 37.51633 30.24911
#
# Velocity S-wave (km/s) = 3.19411 4.08100 3.66449
# Velocity P-wave (km/s) = 5.06532 6.64587 5.90868
#
# Compressibility (1/GPa) = 0.03682725
#
# Stress axis : x y z
#
# Youngs Moduli (GPa) = 67.93158 75.54374 29.08866
#
# Poissons Ratio (x) = 0.11892 0.29325
# Poissons Ratio (y) = 0.10694 0.03196
# Poissons Ratio (z) = 0.68484 0.08300
#
# Static dielectric constant tensor:
#      x y z
#    x 1.863340 -0.030320 0.049810 
#    y -0.030320 1.856850 -0.018500 
#    z 0.049810 -0.018500 1.873730 
# 
# From -- ./inp_files/329473.got.cif
#   From: 2010.05.17/outbox.cif.g08.bks.cpg/sg2_165_cif.got.tgz:329473.got - 2010.06.03 11:33:40.
