data_PCOD9016880
_publ_section_title
;
Structure prediction by ZEFSAII (Michael W. Deem and Ramdas Pophale) SiO2 
 PCOD9016880
Probable space group: P -1
;
_chemical_formula_sum "Si O2"
_cell_formula_units_Z 12
_cell_length_a 16.080005
_cell_length_b 13.940355
_cell_length_c 7.893255
_cell_angle_alpha 34.047566
_cell_angle_beta 126.688360
_cell_angle_gamma 146.183299
_cell_volume 527.323468
_symmetry_space_group_name_H-M "P -1"
_symmetry_group_IT_number 2
_symmetry_cell_setting 'triclinic'
loop_
_space_group_symop_operation_xyz
x,y,z
-x,-y,-z
loop_
_atom_site_type_symbol
_atom_site_label
_atom_site_fract_x
_atom_site_fract_y
_atom_site_fract_z
Si Si1 0.995881 0.263092 0.298674
Si Si2 0.870711 0.225495 0.837902
Si Si3 0.867083 0.866205 0.176985
Si Si4 0.574583 0.409431 0.276821
Si Si5 0.671993 0.238743 0.427268
Si Si6 0.751164 0.173171 0.272195
O O1 0.065041 0.160982 0.545416
O O2 0.855300 0.129730 0.453614
O O3 0.141900 0.565114 0.089871
O O4 0.923094 0.222298 0.088765
O O5 0.721562 0.167422 0.738538
O O6 0.000000 0.500000 0.500000
O O7 0.844833 0.030488 0.973025
O O8 0.699558 0.592291 0.309002
O O9 0.000000 0.000000 0.000000
O O10 0.673889 0.433802 0.214670
O O11 0.425446 0.100406 0.585039
O O12 0.500000 0.500000 0.000000
O O13 0.759370 0.282965 0.300125
O O14 0.500000 0.000000 0.500000
#
# Coordination Sequence:
#
# PCOD9016880 Si02
#       6
#     2   2   2   2   2   2
#     4  11  25  44  72 104 142 180 236 282 340 417
#     4  12  24  44  72 100 137 184 232 284 345 414
#     4  12  26  44  71 102 141 182 233 288 346 407
#     4  11  24  43  72 103 140 181 231 286 349 410
#     4  10  21  42  69  98 133 182 225 276 341 410
#     4  10  23  44  69 101 141 178 233 276 345 406
#
# _framework density 22.756430000000002
#
# number of rings (size 3 to 8) (size 9 to 14) (size 15 to 20)
#    0.000    1.000    1.667    5.500    7.000    0.667 
#    6.000    0.833    0.000    0.000    0.000    0.000 
#    0.000    0.000    0.000    0.000    0.000    0.000 
#
# Total GULP energy -66932.865294 kJ/mol
# GULP energy per Si atom -5577.738774 kJ/mol
# Density = 2.270464 g / cm^3
# Si number density = 22.756430 Si / 1000 Ang^3
#
#
#
# Elastic Constant Matrix: (Units=GPa)
#
#
# Indices 1 2 3 4 5 6 
#
# 1 129.3398 54.1672 38.3248 6.5376 28.7449 -12.0426
# 2 54.1672 155.8033 51.6540 8.9833 1.1448 2.7287
# 3 38.3248 51.6540 75.4763 27.2132 24.2929 -2.9518
# 4 6.5376 8.9833 27.2132 51.5371 3.5288 5.4544
# 5 28.7449 1.1448 24.2929 3.5288 42.9790 -1.0315
# 6 -12.0426 2.7287 -2.9518 5.4544 -1.0315 41.0229
#
#
#
# Elastic Compliance Matrix: (Units=1/GPa)
#
#
# Indices 1 2 3 4 5 6 
#
# 1 0.011389 -0.003693 -0.000781 -0.000270 -0.006974 0.003394
# 2 -0.003693 0.010367 -0.008571 0.003004 0.006729 -0.002621
# 3 -0.000781 -0.008571 0.029082 -0.013174 -0.014514 0.003820
# 4 -0.000270 0.003004 -0.013174 0.025989 0.005304 -0.004549
# 5 -0.006974 0.006729 -0.014514 0.005304 0.035440 -0.003353
# 6 0.003394 -0.002621 0.003820 -0.004549 -0.003353 0.026343
#
#
# Mechanical properties :
#
#
# Convention : Reuss Voigt Hill
#
# Bulk Modulus (GPa) = 40.40622 72.10126 56.25374
# Shear Modulus (GPa) = 28.91010 41.53935 35.22473
#
# Velocity S-wave (km/s) = 3.56815 4.27709 3.93861
# Velocity P-wave (km/s) = 5.89662 7.49293 6.74219
#
# Compressibility (1/GPa) = 0.02474866
#
# Stress axis : x y z
#
# Youngs Moduli (GPa) = 87.80222 96.45729 34.38527
#
# Poissons Ratio (x) = 0.35626 0.02684
# Poissons Ratio (y) = 0.32429 0.29472
# Poissons Ratio (z) = 0.06853 0.82674
#
# Static dielectric constant tensor:
#      x y z
#    x 1.905550 0.024600 -0.036080 
#    y 0.024600 1.850780 0.015750 
#    z -0.036080 0.015750 1.923210 
# 
# From -- ./inp_files/162825.got.cif
#   From: 2010.05.17/outbox.cif.g08.bks.cpg/sg2_82_cif.got.tgz:162825.got - 2010.06.03 11:33:40.
