data_PCOD9016864
_publ_section_title
;
Structure prediction by ZEFSAII (Michael W. Deem and Ramdas Pophale) SiO2 
 PCOD9016864
Probable space group: P -1
;
_chemical_formula_sum "Si O2"
_cell_formula_units_Z 12
_cell_length_a 8.106692
_cell_length_b 8.869010
_cell_length_c 8.048098
_cell_angle_alpha 124.983923
_cell_angle_beta 81.142529
_cell_angle_gamma 107.815623
_cell_volume 451.186083
_symmetry_space_group_name_H-M "P -1"
_symmetry_group_IT_number 2
_symmetry_cell_setting 'triclinic'
loop_
_space_group_symop_operation_xyz
x,y,z
-x,-y,-z
loop_
_atom_site_type_symbol
_atom_site_label
_atom_site_fract_x
_atom_site_fract_y
_atom_site_fract_z
Si Si1 0.892022 0.810613 0.569321
Si Si2 0.041918 0.508764 0.194776
Si Si3 0.199214 0.893955 0.009622
Si Si4 0.523723 0.806330 0.051100
Si Si5 0.411741 0.166650 0.581380
Si Si6 0.354913 0.481954 0.334221
O O1 0.025346 0.706294 0.403227
O O2 0.782445 0.869822 0.474615
O O3 0.765578 0.635148 0.579444
O O4 0.920544 0.987026 0.806055
O O5 0.228536 0.491170 0.206441
O O6 0.909554 0.314213 0.162209
O O7 0.000000 0.500000 0.000000
O O8 0.345774 0.867569 0.101872
O O9 0.314977 0.023033 0.931031
O O10 0.569420 0.740603 0.181333
O O11 0.512385 0.635669 0.816972
O O12 0.534259 0.304442 0.516819
O O13 0.500000 0.000000 0.500000
#
# Coordination Sequence:
#
# PCOD9016864 Si02
#       6
#     2   2   2   2   2   2
#     4  11  25  45  68 100 135 178 222 277 329 400
#     4  12  26  45  69  96 141 178 220 277 333 404
#     4  10  23  44  68 101 131 177 222 272 338 388
#     4  10  21  42  69  97 133 170 225 277 324 394
#     4  12  23  40  70 102 130 169 228 279 325 389
#     4  11  25  44  67 100 135 180 219 271 341 394
#
# _framework density 26.596563
#
# number of rings (size 3 to 8) (size 9 to 14) (size 15 to 20)
#    0.000    1.000    1.667    4.500    2.333    3.333 
#    3.000    0.000    0.000    0.000    0.000    0.000 
#    0.000    0.000    0.000    0.000    0.000    0.000 
#
# Total GULP energy -67236.407324 kJ/mol
# GULP energy per Si atom -5603.033944 kJ/mol
# Density = 2.653603 g / cm^3
# Si number density = 26.596563 Si / 1000 Ang^3
#
#
#
# Elastic Constant Matrix: (Units=GPa)
#
#
# Indices 1 2 3 4 5 6 
#
# 1 99.1070 15.0948 40.4571 10.1269 -2.0091 -19.2514
# 2 15.0948 103.2246 21.9437 15.1197 -3.0435 -10.5206
# 3 40.4571 21.9437 104.8965 9.5070 -28.8061 -13.8839
# 4 10.1269 15.1197 9.5070 52.8309 -12.8977 9.3453
# 5 -2.0091 -3.0435 -28.8061 -12.8977 50.9078 3.2868
# 6 -19.2514 -10.5206 -13.8839 9.3453 3.2868 31.5245
#
#
#
# Elastic Compliance Matrix: (Units=1/GPa)
#
#
# Indices 1 2 3 4 5 6 
#
# 1 0.014059 0.000371 -0.005113 -0.004278 -0.003926 0.008135
# 2 0.000371 0.011055 -0.001983 -0.004096 -0.001771 0.004442
# 3 -0.005113 -0.001983 0.014193 0.000632 0.007776 0.001468
# 4 -0.004278 -0.004096 0.000632 0.024568 0.006924 -0.011706
# 5 -0.003926 -0.001771 0.007776 0.006924 0.025815 -0.004308
# 6 0.008135 0.004442 0.001468 -0.011706 -0.004308 0.042737
#
#
# Mechanical properties :
#
#
# Convention : Reuss Voigt Hill
#
# Bulk Modulus (GPa) = 38.67581 51.35770 45.01675
# Shear Modulus (GPa) = 32.36317 42.36813 37.36565
#
# Velocity S-wave (km/s) = 3.49208 3.99556 3.75227
# Velocity P-wave (km/s) = 5.55272 6.37478 5.97790
#
# Compressibility (1/GPa) = 0.02585595
#
# Stress axis : x y z
#
# Youngs Moduli (GPa) = 71.13025 90.45354 70.45910
#
# Poissons Ratio (x) = -0.03358 0.36029
# Poissons Ratio (y) = -0.02640 0.13973
# Poissons Ratio (z) = 0.36372 0.17938
#
# Static dielectric constant tensor:
#      x y z
#    x 2.013720 0.023780 0.030580 
#    y 0.023780 2.102390 -0.029440 
#    z 0.030580 -0.029440 2.221260 
# 
# From -- ./inp_files/146467.got.cif
#   From: 2010.05.17/outbox.cif.g08.bks.cpg/sg2_74_cif.got.tgz:146467.got - 2010.06.03 11:33:40.
