data_PCOD9016886
_publ_section_title
;
Structure prediction by ZEFSAII (Michael W. Deem and Ramdas Pophale) SiO2 
 PCOD9016886
Probable space group: P -1
;
_chemical_formula_sum "Si O2"
_cell_formula_units_Z 14
_cell_length_a 10.933883
_cell_length_b 8.050074
_cell_length_c 10.829913
_cell_angle_alpha 111.205935
_cell_angle_beta 135.183893
_cell_angle_gamma 67.414542
_cell_volume 614.478378
_symmetry_space_group_name_H-M "P -1"
_symmetry_group_IT_number 2
_symmetry_cell_setting 'triclinic'
loop_
_space_group_symop_operation_xyz
x,y,z
-x,-y,-z
loop_
_atom_site_type_symbol
_atom_site_label
_atom_site_fract_x
_atom_site_fract_y
_atom_site_fract_z
Si Si1 0.799895 0.809790 0.812442
Si Si2 0.523025 0.506339 0.801733
Si Si3 0.602150 0.693098 0.135364
Si Si4 0.648740 0.981204 0.991404
Si Si5 0.913025 0.843352 0.343964
Si Si6 0.233195 0.585783 0.417547
Si Si7 0.193705 0.809294 0.199032
O O1 0.766320 0.620048 0.682170
O O2 0.782091 0.983806 0.754083
O O3 0.666713 0.864687 0.848042
O O4 0.000903 0.787937 0.003246
O O5 0.388822 0.458673 0.796651
O O6 0.402951 0.592171 0.625615
O O7 0.655460 0.331103 0.801804
O O8 0.630748 0.624525 0.995623
O O9 0.748236 0.811255 0.298636
O O10 0.405128 0.811907 0.036081
O O11 0.831356 0.918897 0.174975
O O12 0.500000 0.000000 0.000000
O O13 0.054099 0.658608 0.384265
O O14 0.000000 0.000000 0.500000
O O15 0.218875 0.729715 0.334092
#
# Coordination Sequence:
#
# PCOD9016886 Si02
#       7
#     2   2   2   2   2   2   2
#     4  11  24  45  71 102 139 190 233 288 357 411
#     4  11  24  44  68 104 140 187 232 291 352 417
#     4  10  23  45  71  96 142 185 236 290 354 416
#     4  10  21  42  69  98 135 186 231 286 350 415
#     4  11  24  44  70 102 137 182 237 296 351 414
#     4  12  26  43  70 106 143 180 237 291 347 421
#     4  11  24  45  69 100 143 186 233 283 350 425
#
# _framework density 22.783550000000002
#
# number of rings (size 3 to 8) (size 9 to 14) (size 15 to 20)
#    0.000    1.143    2.857    2.571    4.000    2.286 
#    5.143    0.000    0.000    0.000    0.000    0.000 
#    0.000    0.000    0.000    0.000    0.000    0.000 
#
# Total GULP energy -78119.585188 kJ/mol
# GULP energy per Si atom -5579.970371 kJ/mol
# Density = 2.273169 g / cm^3
# Si number density = 22.783550 Si / 1000 Ang^3
#
#
#
# Elastic Constant Matrix: (Units=GPa)
#
#
# Indices 1 2 3 4 5 6 
#
# 1 73.1150 43.0197 45.0545 -6.2410 1.0612 4.2211
# 2 43.0197 132.5601 63.7835 -5.3419 -2.0888 -8.2951
# 3 45.0545 63.7835 103.0880 -0.4544 -2.3511 20.8080
# 4 -6.2410 -5.3419 -0.4544 40.2197 4.5528 -0.9234
# 5 1.0612 -2.0888 -2.3511 4.5528 23.3324 0.4149
# 6 4.2211 -8.2951 20.8080 -0.9234 0.4149 41.8147
#
#
#
# Elastic Compliance Matrix: (Units=1/GPa)
#
#
# Indices 1 2 3 4 5 6 
#
# 1 0.020065 -0.002868 -0.007263 0.002959 -0.002498 0.001110
# 2 -0.002868 0.012846 -0.008077 0.001318 0.000087 0.006885
# 3 -0.007263 -0.008077 0.020127 -0.002486 0.002315 -0.010963
# 4 0.002959 0.001318 -0.002486 0.026123 -0.005397 0.001830
# 5 -0.002498 0.000087 0.002315 -0.005397 0.044292 -0.001441
# 6 0.001110 0.006885 -0.010963 0.001830 -0.001441 0.030679
#
#
# Mechanical properties :
#
#
# Convention : Reuss Voigt Hill
#
# Bulk Modulus (GPa) = 60.15953 68.05318 64.10635
# Shear Modulus (GPa) = 25.49892 31.53374 28.51633
#
# Velocity S-wave (km/s) = 3.34905 3.72433 3.54166
# Velocity P-wave (km/s) = 6.43560 6.95905 6.70244
#
# Compressibility (1/GPa) = 0.01662247
#
# Stress axis : x y z
#
# Youngs Moduli (GPa) = 49.83913 77.84479 49.68502
#
# Poissons Ratio (x) = 0.22322 0.36086
# Poissons Ratio (y) = 0.14292 0.40131
# Poissons Ratio (z) = 0.36198 0.62875
#
# Static dielectric constant tensor:
#      x y z
#    x 1.916190 0.055590 -0.013320 
#    y 0.055590 1.913590 -0.002280 
#    z -0.013320 -0.002280 1.835300 
# 
# From -- ./inp_files/262134.got.cif
#   From: 2010.05.17/outbox.cif.g08.bks.cpg/sg2_132_cif.got.tgz:262134.got - 2010.06.03 11:33:40.
