data_PCOD9016143
_publ_section_title
;
Structure prediction by ZEFSAII (Michael W. Deem and Ramdas Pophale) SiO2 
 PCOD9016143
Probable space group: P -1
;
_chemical_formula_sum "Si O2"
_cell_formula_units_Z 16
_cell_length_a 9.030711
_cell_length_b 9.726144
_cell_length_c 12.151355
_cell_angle_alpha 130.499884
_cell_angle_beta 94.618261
_cell_angle_gamma 63.246768
_cell_volume 688.538080
_symmetry_space_group_name_H-M "P -1"
_symmetry_group_IT_number 2
_symmetry_cell_setting 'triclinic'
loop_
_space_group_symop_operation_xyz
x,y,z
-x,-y,-z
loop_
_atom_site_type_symbol
_atom_site_label
_atom_site_fract_x
_atom_site_fract_y
_atom_site_fract_z
Si Si1 0.085658 0.666807 0.876903
Si Si2 0.011011 0.604630 0.168025
Si Si3 0.592677 0.666489 0.401797
Si Si4 0.233583 0.680626 0.570923
Si Si5 0.648089 0.989094 0.298320
Si Si6 0.096426 0.024496 0.175302
Si Si7 0.523971 0.113929 0.955355
Si Si8 0.323091 0.570192 0.273882
O O1 0.955138 0.584935 0.846175
O O2 0.263583 0.451702 0.744077
O O3 0.021488 0.823924 0.852657
O O4 0.102858 0.802168 0.045950
O O5 0.825147 0.819182 0.280291
O O6 0.160980 0.651430 0.225760
O O7 0.000000 0.500000 0.000000
O O8 0.670230 0.493975 0.417810
O O9 0.414909 0.703258 0.358158
O O10 0.523549 0.890589 0.572506
O O11 0.268871 0.567592 0.395959
O O12 0.024991 0.836005 0.658308
O O13 0.313684 0.833005 0.654322
O O14 0.606389 0.878393 0.140527
O O15 0.286261 0.985741 0.141665
O O16 0.469326 0.342598 0.118228
O O17 0.500000 0.000000 0.000000
#
# Coordination Sequence:
#
# PCOD9016143 Si02
#       8
#     2   2   2   2   2   2   2   2
#     4  10  22  40  64  92 130 168 206 265 320 374
#     4  12  25  42  59  89 131 174 216 256 311 378
#     4  10  21  42  66  97 126 161 212 270 321 371
#     4  10  22  42  67  98 130 160 208 268 325 373
#     4  11  24  40  64  91 131 169 208 262 315 376
#     4  10  22  39  67  97 125 162 212 264 325 372
#     4  12  22  37  65  98 121 159 215 262 317 373
#     4  11  22  40  64  92 127 170 208 258 314 378
#
# _framework density 23.237639999999999
#
# number of rings (size 3 to 8) (size 9 to 14) (size 15 to 20)
#    0.000    1.250    2.500    4.500    3.500    3.500 
#    0.000    6.875    0.000    0.000    0.000    0.000 
#    0.000    0.000    0.000    0.000    0.000    0.000 
#
# Total GULP energy -89315.374981 kJ/mol
# GULP energy per Si atom -5582.210936 kJ/mol
# Density = 2.318475 g / cm^3
# Si number density = 23.237640 Si / 1000 Ang^3
#
#
#
# Elastic Constant Matrix: (Units=GPa)
#
#
# Indices 1 2 3 4 5 6 
#
# 1 83.7739 13.6997 29.8871 -4.6610 -18.0683 -26.7051
# 2 13.6997 31.2853 7.0659 2.4202 -0.3183 -10.9409
# 3 29.8871 7.0659 119.7558 -0.4504 -21.5244 -13.9972
# 4 -4.6610 2.4202 -0.4504 29.2800 -13.7736 4.1316
# 5 -18.0683 -0.3183 -21.5244 -13.7736 42.1119 6.9573
# 6 -26.7051 -10.9409 -13.9972 4.1316 6.9573 29.0799
#
#
#
# Elastic Compliance Matrix: (Units=1/GPa)
#
#
# Indices 1 2 3 4 5 6 
#
# 1 0.018977 -0.003646 -0.001814 0.004533 0.006526 0.012977
# 2 -0.003646 0.039313 -0.001098 -0.009163 -0.007125 0.013921
# 3 -0.001814 -0.001098 0.009867 0.001985 0.004697 0.001265
# 4 0.004533 -0.009163 0.001985 0.046233 0.019595 -0.009586
# 5 0.006526 -0.007125 0.004697 0.019595 0.036275 -0.005890
# 6 0.012977 0.013921 0.001265 -0.009586 -0.005890 0.054922
#
#
# Mechanical properties :
#
#
# Convention : Reuss Voigt Hill
#
# Bulk Modulus (GPa) = 18.16821 37.34671 27.75746
# Shear Modulus (GPa) = 21.09254 32.37184 26.73219
#
# Velocity S-wave (km/s) = 3.01606 3.73644 3.39541
# Velocity P-wave (km/s) = 4.46813 5.89247 5.22903
#
# Compressibility (1/GPa) = 0.05504119
#
# Stress axis : x y z
#
# Youngs Moduli (GPa) = 52.69603 25.43682 101.34441
#
# Poissons Ratio (x) = 0.09275 0.18385
# Poissons Ratio (y) = 0.19215 0.11124
# Poissons Ratio (z) = 0.09560 0.02792
#
# Static dielectric constant tensor:
#      x y z
#    x 1.905540 0.049560 -0.077890 
#    y 0.049560 1.879480 -0.017800 
#    z -0.077890 -0.017800 1.887260 
# 
# From -- ./inp_files/501002.got.cif
#   From: 2010.05.17/outbox.cif.g08.bks.cpg/sg2_251_cif.got.tgz:501002.got - 2010.06.03 11:33:40.
