data_PCOD9016809
_publ_section_title
;
Structure prediction by ZEFSAII (Michael W. Deem and Ramdas Pophale) SiO2 
 PCOD9016809
Probable space group: P -1
;
_chemical_formula_sum "Si O2"
_cell_formula_units_Z 16
_cell_length_a 7.779639
_cell_length_b 9.164065
_cell_length_c 18.810836
_cell_angle_alpha 39.530996
_cell_angle_beta 128.529259
_cell_angle_gamma 115.828721
_cell_volume 665.054396
_symmetry_space_group_name_H-M "P -1"
_symmetry_group_IT_number 2
_symmetry_cell_setting 'triclinic'
loop_
_space_group_symop_operation_xyz
x,y,z
-x,-y,-z
loop_
_atom_site_type_symbol
_atom_site_label
_atom_site_fract_x
_atom_site_fract_y
_atom_site_fract_z
Si Si1 0.024102 0.246658 0.876166
Si Si2 0.024568 0.749695 0.674609
Si Si3 0.246656 0.311444 0.667627
Si Si4 0.206554 0.645001 0.004229
Si Si5 0.952980 0.251488 0.486567
Si Si6 0.085538 0.916802 0.230828
Si Si7 0.529219 0.858696 0.916645
Si Si8 0.458283 0.213557 0.213806
O O1 0.981172 0.511784 0.792430
O O2 0.882632 0.240077 0.770866
O O3 0.291003 0.224702 0.946956
O O4 0.000000 0.000000 0.000000
O O5 0.991556 0.719421 0.592906
O O6 0.280724 0.809506 0.718459
O O7 0.900223 0.986521 0.581463
O O8 0.241050 0.564688 0.603877
O O9 0.165752 0.303296 0.568873
O O10 0.044725 0.206995 0.696535
O O11 0.459455 0.131135 0.799876
O O12 0.310438 0.736016 0.924362
O O13 0.390936 0.449045 0.150513
O O14 0.097379 0.879452 0.921229
O O15 0.000000 0.500000 0.000000
O O16 0.308422 0.018269 0.275978
O O17 0.616846 0.779524 0.891762
#
# Coordination Sequence:
#
# PCOD9016809 Si02
#       8
#     2   2   2   2   2   2   2   2
#     4  12  24  39  64 101 141 166 215 278 333 402
#     4  11  23  40  70  97 127 175 227 272 327 389
#     4  10  21  42  69  94 128 174 224 270 334 387
#     4   9  20  33  56  89 130 164 204 265 323 395
#     4  10  22  42  69  91 128 176 231 274 317 391
#     4  10  22  39  59  95 135 173 209 268 342 389
#     4  11  21  35  65  94 130 171 218 260 336 399
#     4  11  20  38  60  94 128 173 218 262 328 402
#
# _framework density 24.058181999999999
#
# number of rings (size 3 to 8) (size 9 to 14) (size 15 to 20)
#    0.000    1.500    5.000    0.375    0.000    3.000 
#    2.250    1.250   11.000    0.000    0.000    0.000 
#    0.000    0.000    0.000    0.000    0.000    0.000 
#
# Total GULP energy -89127.694673 kJ/mol
# GULP energy per Si atom -5570.480917 kJ/mol
# Density = 2.400342 g / cm^3
# Si number density = 24.058182 Si / 1000 Ang^3
#
#
#
# Elastic Constant Matrix: (Units=GPa)
#
#
# Indices 1 2 3 4 5 6 
#
# 1 70.6131 24.8316 3.0680 -11.0337 -7.7694 11.5836
# 2 24.8316 111.7582 55.8006 -35.8991 -1.5243 -6.1007
# 3 3.0680 55.8006 83.0950 -41.4436 4.9861 -0.6872
# 4 -11.0337 -35.8991 -41.4436 57.4921 -10.4069 2.6737
# 5 -7.7694 -1.5243 4.9861 -10.4069 22.9238 -11.1704
# 6 11.5836 -6.1007 -0.6872 2.6737 -11.1704 30.5957
#
#
#
# Elastic Compliance Matrix: (Units=1/GPa)
#
#
# Indices 1 2 3 4 5 6 
#
# 1 0.018067 -0.005335 0.004982 0.004669 0.003417 -0.006953
# 2 -0.005335 0.016378 -0.009569 0.003101 0.006214 0.007068
# 3 0.004982 -0.009569 0.024700 0.012869 -0.000736 -0.004632
# 4 0.004669 0.003101 0.012869 0.032016 0.014282 0.001556
# 5 0.003417 0.006214 -0.000736 0.014282 0.062274 0.021417
# 6 -0.006953 0.007068 -0.004632 0.001556 0.021417 0.044305
#
#
# Mechanical properties :
#
#
# Convention : Reuss Voigt Hill
#
# Bulk Modulus (GPa) = 25.44446 48.09630 36.77038
# Shear Modulus (GPa) = 21.67454 34.32006 27.99730
#
# Velocity S-wave (km/s) = 3.00479 3.78106 3.41505
# Velocity P-wave (km/s) = 4.75789 6.25275 5.55583
#
# Compressibility (1/GPa) = 0.03930128
#
# Stress axis : x y z
#
# Youngs Moduli (GPa) = 55.34842 61.05859 40.48510
#
# Poissons Ratio (x) = 0.32574 -0.20168
# Poissons Ratio (y) = 0.29527 0.38740
# Poissons Ratio (z) = -0.27572 0.58426
#
# Static dielectric constant tensor:
#      x y z
#    x 1.912890 -0.002750 0.019430 
#    y -0.002750 1.970760 -0.031770 
#    z 0.019430 -0.031770 2.040760 
# 
# From -- ./inp_files/587791.got.cif
#   From: 2010.05.17/outbox.cif.g08.bks.cpg/sg2_294_cif.got.tgz:587791.got - 2010.06.03 11:33:40.
