data_PCOD9016872
_publ_section_title
;
Structure prediction by ZEFSAII (Michael W. Deem and Ramdas Pophale) SiO2 
 PCOD9016872
Probable space group: P -1
;
_chemical_formula_sum "Si O2"
_cell_formula_units_Z 12
_cell_length_a 5.777810
_cell_length_b 13.761724
_cell_length_c 8.867071
_cell_angle_alpha 139.957629
_cell_angle_beta 88.033832
_cell_angle_gamma 89.870260
_cell_volume 452.879345
_symmetry_space_group_name_H-M "P -1"
_symmetry_group_IT_number 2
_symmetry_cell_setting 'triclinic'
loop_
_space_group_symop_operation_xyz
x,y,z
-x,-y,-z
loop_
_atom_site_type_symbol
_atom_site_label
_atom_site_fract_x
_atom_site_fract_y
_atom_site_fract_z
Si Si1 0.928723 0.114737 0.004496
Si Si2 0.686174 0.094455 0.695055
Si Si3 0.264143 0.358145 0.748341
Si Si4 0.219476 0.683628 0.292517
Si Si5 0.751420 0.436147 0.485529
Si Si6 0.713150 0.705903 0.991257
O O1 0.780547 0.256620 0.250700
O O2 0.136531 0.196986 0.009263
O O3 0.811976 0.029918 0.764399
O O4 0.000000 0.000000 0.000000
O O5 0.811548 0.169965 0.642497
O O6 0.500000 0.000000 0.500000
O O7 0.549220 0.235997 0.945901
O O8 0.521922 0.305587 0.627568
O O9 0.029015 0.323806 0.626000
O O10 0.249427 0.537358 0.004310
O O11 0.234545 0.279003 0.816736
O O12 0.500000 0.500000 0.500000
O O13 0.738136 0.528541 0.751413
O O14 0.000000 0.500000 0.500000
#
# Coordination Sequence:
#
# PCOD9016872 Si02
#       6
#     2   2   2   2   2   2
#     4  11  24  45  69 106 145 189 246 304 369 443
#     4  11  23  42  68 100 148 193 236 296 379 444
#     4   9  17  33  62  88 126 166 227 292 340 405
#     4   9  18  35  56  93 126 172 225 279 346 419
#     4  10  21  42  71 100 130 189 247 301 355 426
#     4  10  21  42  69  97 138 186 239 304 360 432
#
# _framework density 26.497121
#
# number of rings (size 3 to 8) (size 9 to 14) (size 15 to 20)
#    0.000    2.000    3.333    0.000    0.000    1.333 
#    3.000    5.000    0.000    0.000    0.000    0.000 
#    0.000    0.000    0.000    0.000    0.000    0.000 
#
# Total GULP energy -66872.871637 kJ/mol
# GULP energy per Si atom -5572.739303 kJ/mol
# Density = 2.643681 g / cm^3
# Si number density = 26.497121 Si / 1000 Ang^3
#
#
#
# Elastic Constant Matrix: (Units=GPa)
#
#
# Indices 1 2 3 4 5 6 
#
# 1 199.4929 68.5464 58.2274 -6.4856 12.8415 -3.4185
# 2 68.5464 168.4669 36.3248 8.3294 4.9498 -16.6741
# 3 58.2274 36.3248 118.5923 11.2363 -12.0866 -22.7588
# 4 -6.4856 8.3294 11.2363 32.4874 -2.2690 -3.2013
# 5 12.8415 4.9498 -12.0866 -2.2690 43.1212 -0.3793
# 6 -3.4185 -16.6741 -22.7588 -3.2013 -0.3793 52.5182
#
#
#
# Elastic Compliance Matrix: (Units=1/GPa)
#
#
# Indices 1 2 3 4 5 6 
#
# 1 0.007132 -0.002344 -0.003670 0.002934 -0.002744 -0.001711
# 2 -0.002344 0.007305 -0.000596 -0.001987 -0.000396 0.001784
# 3 -0.003670 -0.000596 0.012130 -0.004014 0.004391 0.004616
# 4 0.002934 -0.001987 -0.004014 0.033248 -0.000023 -0.000153
# 5 -0.002744 -0.000396 0.004391 -0.000023 0.025298 0.001780
# 6 -0.001711 0.001784 0.004616 -0.000153 0.001780 0.021500
#
#
# Mechanical properties :
#
#
# Convention : Reuss Voigt Hill
#
# Bulk Modulus (GPa) = 74.92611 90.30547 82.61579
# Shear Modulus (GPa) = 40.23099 47.18893 43.70996
#
# Velocity S-wave (km/s) = 3.90078 4.22466 4.06595
# Velocity P-wave (km/s) = 6.97328 7.61263 7.29996
#
# Compressibility (1/GPa) = 0.01334648
#
# Stress axis : x y z
#
# Youngs Moduli (GPa) = 140.21152 136.89611 82.43918
#
# Poissons Ratio (x) = 0.32095 0.30253
# Poissons Ratio (y) = 0.32872 0.04914
# Poissons Ratio (z) = 0.51454 0.08160
#
# Static dielectric constant tensor:
#      x y z
#    x 3.224930 0.599320 -0.283190 
#    y 0.599320 2.720440 -0.171950 
#    z -0.283190 -0.171950 2.152160 
# 
# From -- ./inp_files/135946.got.cif
#   From: 2010.05.17/outbox.cif.g08.bks.cpg/sg2_68_cif.got.tgz:135946.got - 2010.06.03 11:33:40.
