data_PCOD9016292
_publ_section_title
;
Structure prediction by ZEFSAII (Michael W. Deem and Ramdas Pophale) SiO2 
 PCOD9016292
Probable space group: P -1
;
_chemical_formula_sum "Si O2"
_cell_formula_units_Z 15
_cell_length_a 12.616119
_cell_length_b 7.526465
_cell_length_c 8.870506
_cell_angle_alpha 130.347467
_cell_angle_beta 113.845579
_cell_angle_gamma 59.703440
_cell_volume 550.395116
_symmetry_space_group_name_H-M "P -1"
_symmetry_group_IT_number 2
_symmetry_cell_setting 'triclinic'
loop_
_space_group_symop_operation_xyz
x,y,z
-x,-y,-z
loop_
_atom_site_type_symbol
_atom_site_label
_atom_site_fract_x
_atom_site_fract_y
_atom_site_fract_z
Si Si1 0.338333 0.235188 0.173943
Si Si2 0.296921 0.655714 0.924059
Si Si3 0.000000 0.000000 0.500000
Si Si4 0.864124 0.575354 0.094611
Si Si5 0.771945 0.062993 0.456255
Si Si6 0.564161 0.283186 0.210338
Si Si7 0.632864 0.996435 0.630564
Si Si8 0.051965 0.043445 0.893576
O O1 0.429308 0.384925 0.262713
O O2 0.317776 0.215007 0.327937
O O3 0.226142 0.323232 0.041894
O O4 0.424062 0.948520 0.022580
O O5 0.222565 0.498664 0.873175
O O6 0.387852 0.545139 0.776387
O O7 0.196251 0.899945 0.925402
O O8 0.363843 0.753436 0.147048
O O9 0.982498 0.070816 0.339036
O O10 0.985934 0.341005 0.009733
O O11 0.884959 0.821218 0.312357
O O12 0.723952 0.981816 0.535044
O O13 0.859662 0.222031 0.588210
O O14 0.660018 0.163959 0.333536
O O15 0.500000 0.000000 0.500000
O O16 0.000000 0.000000 0.000000
#
# Coordination Sequence:
#
# PCOD9016292 Si02
#       8
#     2   2   1   2   2   2   2   2
#     4   9  19  37  62  96 129 171 219 274 331 403
#     4  10  21  42  67  91 134 184 221 275 345 410
#     4  12  24  44  74  96 132 180 234 282 340 414
#     4  10  23  42  66  99 135 176 225 284 336 402
#     4  11  22  41  66  99 129 176 226 278 336 402
#     4   9  17  36  64  87 127 177 219 252 342 409
#     4  11  22  42  69  97 133 182 226 275 340 417
#     4  10  22  45  67  93 133 182 226 272 343 404
#
# _framework density 27.253150000000002
#
# number of rings (size 3 to 8) (size 9 to 14) (size 15 to 20)
#    0.000    1.867    2.667    1.600    1.867    1.067 
#    4.800    4.000    0.000    0.000    0.000    0.000 
#    0.000    0.000    0.000    0.000    0.000    0.000 
#
# Total GULP energy -83746.328378 kJ/mol
# GULP energy per Si atom -5583.088559 kJ/mol
# Density = 2.719112 g / cm^3
# Si number density = 27.253150 Si / 1000 Ang^3
#
#
#
# Elastic Constant Matrix: (Units=GPa)
#
#
# Indices 1 2 3 4 5 6 
#
# 1 211.1929 47.3853 61.8226 -38.6392 -5.8772 40.7165
# 2 47.3853 139.5164 54.4684 -24.5516 -11.9277 10.7956
# 3 61.8226 54.4684 170.3053 -22.7861 -3.8934 -1.9528
# 4 -38.6392 -24.5516 -22.7861 64.6164 -2.5993 -9.8131
# 5 -5.8772 -11.9277 -3.8934 -2.5993 43.7091 -6.4115
# 6 40.7165 10.7956 -1.9528 -9.8131 -6.4115 44.1455
#
#
#
# Elastic Compliance Matrix: (Units=1/GPa)
#
#
# Indices 1 2 3 4 5 6 
#
# 1 0.007079 -0.000733 -0.002099 0.002303 -0.000172 -0.005956
# 2 -0.000733 0.008919 -0.002264 0.002113 0.002138 -0.000825
# 3 -0.002099 -0.002264 0.007537 0.001023 0.000286 0.003092
# 4 0.002303 0.002113 0.001023 0.018389 0.002340 0.001832
# 5 -0.000172 0.002138 0.000286 0.002340 0.024143 0.003675
# 6 -0.005956 -0.000825 0.003092 0.001832 0.003675 0.029425
#
#
# Mechanical properties :
#
#
# Convention : Reuss Voigt Hill
#
# Bulk Modulus (GPa) = 74.95647 94.26301 84.60974
# Shear Modulus (GPa) = 45.40019 54.31675 49.85847
#
# Velocity S-wave (km/s) = 4.08593 4.46920 4.28186
# Velocity P-wave (km/s) = 7.05856 7.82909 7.45379
#
# Compressibility (1/GPa) = 0.01334108
#
# Stress axis : x y z
#
# Youngs Moduli (GPa) = 141.26781 112.11921 132.67981
#
# Poissons Ratio (x) = 0.08222 0.27853
# Poissons Ratio (y) = 0.10359 0.30042
# Poissons Ratio (z) = 0.29656 0.25387
#
# Static dielectric constant tensor:
#      x y z
#    x -0.179010 0.148520 -1.136350 
#    y 0.148520 2.199480 0.167760 
#    z -1.136350 0.167760 1.639340 
# 
# From -- ./inp_files/293299.got.cif
#   From: 2010.05.17/outbox.cif.g08.bks.cpg/sg2_147_cif.got.tgz:293299.got - 2010.06.03 11:33:40.
