data_PCOD9016003
_publ_section_title
;
Structure prediction by ZEFSAII (Michael W. Deem and Ramdas Pophale) SiO2 
 PCOD9016003
Probable space group: P -1
;
_chemical_formula_sum "Si O2"
_cell_formula_units_Z 16
_cell_length_a 7.834468
_cell_length_b 8.796645
_cell_length_c 25.961664
_cell_angle_alpha 142.729842
_cell_angle_beta 44.140417
_cell_angle_gamma 111.612524
_cell_volume 661.636823
_symmetry_space_group_name_H-M "P -1"
_symmetry_group_IT_number 2
_symmetry_cell_setting 'triclinic'
loop_
_space_group_symop_operation_xyz
x,y,z
-x,-y,-z
loop_
_atom_site_type_symbol
_atom_site_label
_atom_site_fract_x
_atom_site_fract_y
_atom_site_fract_z
Si Si1 0.143317 0.833301 0.841152
Si Si2 0.584603 0.263709 0.704117
Si Si3 0.707516 0.791753 0.146580
Si Si4 0.200563 0.670035 0.581975
Si Si5 0.870033 0.722111 0.439386
Si Si6 0.480772 0.303028 0.573368
Si Si7 0.343646 0.938009 0.928689
Si Si8 0.658324 0.165866 0.862081
O O1 0.388396 0.509644 0.698082
O O2 0.179838 0.008528 0.928386
O O3 0.191960 0.971922 0.817456
O O4 0.842153 0.875058 0.932959
O O5 0.457153 0.196765 0.763627
O O6 0.428372 0.607522 0.827820
O O7 0.902815 0.208317 0.616794
O O8 0.606617 0.025005 0.594151
O O9 0.487587 0.846406 0.163099
O O10 0.000000 0.500000 0.000000
O O11 0.500000 0.500000 0.500000
O O12 0.054840 0.477372 0.579383
O O13 0.272462 0.694847 0.513407
O O14 0.989727 0.990472 0.733349
O O15 0.786140 0.567063 0.372014
O O16 0.500000 0.000000 0.500000
O O17 0.590637 0.005077 0.879541
O O18 0.500000 0.500000 0.000000
#
# Coordination Sequence:
#
# PCOD9016003 Si02
#       8
#     2   2   2   2   2   2   2   2
#     4  10  22  41  62  94 127 173 215 273 324 399
#     4  11  21  41  64  91 130 167 222 267 324 401
#     4  11  24  42  66 100 133 171 218 270 336 390
#     4  10  23  46  64  95 135 174 221 267 337 391
#     4  10  23  40  64  91 126 176 211 271 332 390
#     4  11  24  39  64  94 129 166 224 271 329 386
#     4  10  21  42  66  89 131 173 219 265 336 391
#     4  11  26  44  70  99 136 179 224 275 331 395
#
# _framework density 24.182449999999999
#
# number of rings (size 3 to 8) (size 9 to 14) (size 15 to 20)
#    0.000    1.500    2.500    1.500    3.500    4.000 
#    0.000    3.125    0.000    0.000    0.000    0.000 
#    0.000    0.000    0.000    0.000    0.000    0.000 
#
# Total GULP energy -89188.483183 kJ/mol
# GULP energy per Si atom -5574.280199 kJ/mol
# Density = 2.412741 g / cm^3
# Si number density = 24.182450 Si / 1000 Ang^3
#
#
#
# Elastic Constant Matrix: (Units=GPa)
#
#
# Indices 1 2 3 4 5 6 
#
# 1 36.3803 11.7444 17.1121 -13.2371 -2.7881 1.1476
# 2 11.7444 171.5916 90.1001 -24.6916 8.0699 -8.8787
# 3 17.1121 90.1001 200.4309 -18.9209 -1.8547 -2.6841
# 4 -13.2371 -24.6916 -18.9209 60.4806 0.7622 -1.9271
# 5 -2.7881 8.0699 -1.8547 0.7622 28.8035 2.0668
# 6 1.1476 -8.8787 -2.6841 -1.9271 2.0668 21.4401
#
#
#
# Elastic Compliance Matrix: (Units=1/GPa)
#
#
# Indices 1 2 3 4 5 6 
#
# 1 0.030958 -0.000545 -0.001840 0.005880 0.003010 -0.001875
# 2 -0.000545 0.008342 -0.003461 0.002354 -0.002930 0.003545
# 3 -0.001840 -0.003461 0.006730 0.000255 0.001261 -0.000591
# 4 0.005880 0.002354 0.000255 0.018950 -0.000752 0.002468
# 5 0.003010 -0.002930 0.001261 -0.000752 0.036274 -0.004781
# 6 -0.001875 0.003545 -0.000591 0.002468 -0.004781 0.048819
#
#
# Mechanical properties :
#
#
# Convention : Reuss Voigt Hill
#
# Bulk Modulus (GPa) = 29.12253 71.81289 50.46771
# Shear Modulus (GPa) = 28.86640 41.44125 35.15382
#
# Velocity S-wave (km/s) = 3.45873 4.14417 3.81687
# Velocity P-wave (km/s) = 5.29334 7.25669 6.35134
#
# Compressibility (1/GPa) = 0.03433768
#
# Stress axis : x y z
#
# Youngs Moduli (GPa) = 32.30168 119.87113 148.58747
#
# Poissons Ratio (x) = 0.06534 0.27344
# Poissons Ratio (y) = 0.01761 0.51427
# Poissons Ratio (z) = 0.05944 0.41488
#
# Static dielectric constant tensor:
#      x y z
#    x 2.010310 -0.014920 -0.051220 
#    y -0.014920 2.039970 0.016460 
#    z -0.051220 0.016460 1.997680 
# 
# From -- ./inp_files/380074.got.cif
#   From: 2010.05.17/outbox.cif.g08.bks.cpg/sg2_191_cif.got.tgz:380074.got - 2010.06.03 11:33:40.
