data_PCOD9016481
_publ_section_title
;
Structure prediction by ZEFSAII (Michael W. Deem and Ramdas Pophale) SiO2 
 PCOD9016481
Probable space group: P -1
;
_chemical_formula_sum "Si O2"
_cell_formula_units_Z 14
_cell_length_a 8.135500
_cell_length_b 13.619035
_cell_length_c 14.456648
_cell_angle_alpha 32.463073
_cell_angle_beta 132.739824
_cell_angle_gamma 135.479175
_cell_volume 590.052000
_symmetry_space_group_name_H-M "P -1"
_symmetry_group_IT_number 2
_symmetry_cell_setting 'triclinic'
loop_
_space_group_symop_operation_xyz
x,y,z
-x,-y,-z
loop_
_atom_site_type_symbol
_atom_site_label
_atom_site_fract_x
_atom_site_fract_y
_atom_site_fract_z
Si Si1 0.757797 0.160063 0.995079
Si Si2 0.025891 0.840363 0.537757
Si Si3 0.845894 0.922936 0.908520
Si Si4 0.981992 0.247764 0.204110
Si Si5 0.509732 0.528003 0.182958
Si Si6 0.678592 0.162076 0.509516
Si Si7 0.599849 0.499302 0.638472
O O1 0.766953 0.370329 0.796812
O O2 0.969108 0.105863 0.073094
O O3 0.798711 0.190140 0.096104
O O4 0.500000 0.000000 0.000000
O O5 0.083998 0.775584 0.512383
O O6 0.133207 0.770124 0.723962
O O7 0.745480 0.724230 0.539255
O O8 0.083259 0.068920 0.382081
O O9 0.726914 0.065070 0.699883
O O10 0.646935 0.713403 0.025120
O O11 0.000000 0.000000 0.000000
O O12 0.218563 0.441614 0.127893
O O13 0.600420 0.348228 0.343068
O O14 0.560837 0.585394 0.265613
O O15 0.500000 0.000000 0.500000
O O16 0.500000 0.500000 0.500000
#
# Coordination Sequence:
#
# PCOD9016481 Si02
#       7
#     2   2   2   2   2   2   2
#     4  12  25  46  71 103 147 192 245 307 358 441
#     4  10  21  42  68 101 136 180 242 291 352 433
#     4  12  29  47  73 114 150 195 247 306 379 447
#     4  10  22  45  72 103 139 185 246 300 361 431
#     4  11  26  49  74 109 150 192 244 310 372 441
#     4  12  25  46  77 108 147 195 240 307 376 439
#     4  11  26  43  71 101 138 196 243 295 364 437
#
# _framework density 23.726723
#
# number of rings (size 3 to 8) (size 9 to 14) (size 15 to 20)
#    0.000    0.857    2.857    2.571    4.000    8.571 
#    0.000    0.000    0.000    0.000    0.000    0.000 
#    0.000    0.000    0.000    0.000    0.000    0.000 
#
# Total GULP energy -78274.621925 kJ/mol
# GULP energy per Si atom -5591.044423 kJ/mol
# Density = 2.367272 g / cm^3
# Si number density = 23.726723 Si / 1000 Ang^3
#
#
#
# Elastic Constant Matrix: (Units=GPa)
#
#
# Indices 1 2 3 4 5 6 
#
# 1 72.1573 20.4059 26.7263 -3.2353 -12.8512 -0.4291
# 2 20.4059 135.7853 64.0738 5.4400 -21.7746 -1.6438
# 3 26.7263 64.0738 154.4201 12.5181 -24.4382 -4.3967
# 4 -3.2353 5.4400 12.5181 47.4904 -11.1098 -12.7471
# 5 -12.8512 -21.7746 -24.4382 -11.1098 40.2537 -5.6445
# 6 -0.4291 -1.6438 -4.3967 -12.7471 -5.6445 42.7502
#
#
#
# Elastic Compliance Matrix: (Units=1/GPa)
#
#
# Indices 1 2 3 4 5 6 
#
# 1 0.015741 -0.000875 -0.001862 0.003101 0.004480 0.001449
# 2 -0.000875 0.009561 -0.003356 0.000622 0.003112 0.000610
# 3 -0.001862 -0.003356 0.008731 -0.001225 0.002656 0.000736
# 4 0.003101 0.000622 -0.001225 0.026008 0.009005 0.008873
# 5 0.004480 0.003112 0.002656 0.009005 0.033105 0.007494
# 6 0.001449 0.000610 0.000736 0.008873 0.007494 0.027140
#
#
# Mechanical properties :
#
#
# Convention : Reuss Voigt Hill
#
# Bulk Modulus (GPa) = 45.77358 64.97499 55.37428
# Shear Modulus (GPa) = 35.77635 42.84264 39.30950
#
# Velocity S-wave (km/s) = 3.88732 4.25393 4.07475
# Velocity P-wave (km/s) = 6.28349 7.18137 6.74738
#
# Compressibility (1/GPa) = 0.02184666
#
# Stress axis : x y z
#
# Youngs Moduli (GPa) = 63.52638 104.58708 114.52911
#
# Poissons Ratio (x) = 0.09151 0.21330
# Poissons Ratio (y) = 0.05559 0.38440
# Poissons Ratio (z) = 0.11831 0.35104
#
# Static dielectric constant tensor:
#      x y z
#    x 2.002070 0.065330 -0.005680 
#    y 0.065330 1.978770 0.034490 
#    z -0.005680 0.034490 1.965470 
# 
# From -- ./inp_files/469139.got.cif
#   From: 2010.05.17/outbox.cif.g08.bks.cpg/sg2_235_cif.got.tgz:469139.got - 2010.06.03 11:33:40.
