data_PCOD9016243
_publ_section_title
;
Structure prediction by ZEFSAII (Michael W. Deem and Ramdas Pophale) SiO2 
 PCOD9016243
Probable space group: P -1
;
_chemical_formula_sum "Si O2"
_cell_formula_units_Z 16
_cell_length_a 11.806212
_cell_length_b 7.580888
_cell_length_c 17.592768
_cell_angle_alpha 121.175931
_cell_angle_beta 42.436974
_cell_angle_gamma 87.961416
_cell_volume 627.664042
_symmetry_space_group_name_H-M "P -1"
_symmetry_group_IT_number 2
_symmetry_cell_setting 'triclinic'
loop_
_space_group_symop_operation_xyz
x,y,z
-x,-y,-z
loop_
_atom_site_type_symbol
_atom_site_label
_atom_site_fract_x
_atom_site_fract_y
_atom_site_fract_z
Si Si1 0.603237 0.632834 0.008099
Si Si2 0.495154 0.750842 0.666869
Si Si3 0.185362 0.161594 0.245049
Si Si4 0.778670 0.474850 0.610486
Si Si5 0.365853 0.154621 0.680157
Si Si6 0.085871 0.815224 0.744552
Si Si7 0.046827 0.345568 0.099701
Si Si8 0.622553 0.490842 0.137533
O O1 0.850286 0.553799 0.878151
O O2 0.555610 0.655129 0.127240
O O3 0.458561 0.896815 0.077581
O O4 0.500000 0.500000 0.000000
O O5 0.669891 0.675869 0.632006
O O6 0.660421 0.410068 0.478539
O O7 0.438761 0.925715 0.657107
O O8 0.242984 0.006883 0.893861
O O9 0.135675 0.442029 0.350479
O O10 0.099546 0.160733 0.207408
O O11 0.026031 0.161688 0.383455
O O12 0.566563 0.525481 0.759464
O O13 0.428708 0.314000 0.723946
O O14 0.500000 0.000000 0.500000
O O15 0.087507 0.428650 0.853537
O O16 0.123976 0.653399 0.766329
O O17 0.906525 0.167579 0.924070
#
# Coordination Sequence:
#
# PCOD9016243 Si02
#       8
#     2   2   2   2   2   2   2   2
#     4  12  25  41  68 106 146 184 237 293 361 424
#     4  11  22  48  71 102 139 192 233 287 364 425
#     4  10  21  42  67 103 146 192 227 280 364 434
#     4  10  22  41  72 103 141 186 234 292 354 423
#     4  12  27  50  75 101 141 194 241 298 360 424
#     4  11  24  43  74 106 143 186 242 287 355 435
#     4  12  25  48  74  99 146 196 233 290 366 423
#     4  12  25  45  71 109 145 179 252 299 343 426
#
# _framework density 25.491343000000001
#
# number of rings (size 3 to 8) (size 9 to 14) (size 15 to 20)
#    0.000    0.750    6.250    0.375    1.750    3.000 
#    0.000    1.250    0.000    0.000    0.000    0.000 
#    0.000    0.000    0.000    0.000    0.000    0.000 
#
# Total GULP energy -89100.997384 kJ/mol
# GULP energy per Si atom -5568.812337 kJ/mol
# Density = 2.543332 g / cm^3
# Si number density = 25.491343 Si / 1000 Ang^3
#
#
#
# Elastic Constant Matrix: (Units=GPa)
#
#
# Indices 1 2 3 4 5 6 
#
# 1 118.2584 17.1579 20.2744 -4.0002 10.4647 -13.8671
# 2 17.1579 60.9316 -0.1886 -4.0445 -0.0295 -15.2782
# 3 20.2744 -0.1886 105.5912 5.6685 11.9159 7.0428
# 4 -4.0002 -4.0445 5.6685 22.4944 -8.3464 -8.5835
# 5 10.4647 -0.0295 11.9159 -8.3464 46.8899 3.4525
# 6 -13.8671 -15.2782 7.0428 -8.5835 3.4525 37.8715
#
#
#
# Elastic Compliance Matrix: (Units=1/GPa)
#
#
# Indices 1 2 3 4 5 6 
#
# 1 0.009766 -0.001497 -0.002168 0.003104 -0.001386 0.004205
# 2 -0.001497 0.019594 -0.000813 0.007366 0.001196 0.009068
# 3 -0.002168 -0.000813 0.010830 -0.005993 -0.003025 -0.004218
# 4 0.003104 0.007366 -0.005993 0.058199 0.009905 0.017510
# 5 -0.001386 0.001196 -0.003025 0.009905 0.024126 0.000583
# 6 0.004205 0.009068 -0.004218 0.017510 0.000583 0.036303
#
#
# Mechanical properties :
#
#
# Convention : Reuss Voigt Hill
#
# Bulk Modulus (GPa) = 32.01704 39.91872 35.96788
# Shear Modulus (GPa) = 28.06071 37.95365 33.00718
#
# Velocity S-wave (km/s) = 3.32142 3.86279 3.60229
# Velocity P-wave (km/s) = 5.22459 5.96562 5.60736
#
# Compressibility (1/GPa) = 0.03123337
#
# Stress axis : x y z
#
# Youngs Moduli (GPa) = 102.39810 51.03565 92.33757
#
# Poissons Ratio (x) = 0.07640 0.20023
# Poissons Ratio (y) = 0.15328 0.07506
# Poissons Ratio (z) = 0.22205 0.04148
#
# Static dielectric constant tensor:
#      x y z
#    x 1.977690 0.060750 0.023890 
#    y 0.060750 2.028310 0.084180 
#    z 0.023890 0.084180 2.345590 
# 
# From -- ./inp_files/566843.got.cif
#   From: 2010.05.17/outbox.cif.g08.bks.cpg/sg2_284_cif.got.tgz:566843.got - 2010.06.03 11:33:40.
