data_PCOD9016941
_publ_section_title
;
Structure prediction by ZEFSAII (Michael W. Deem and Ramdas Pophale) SiO2 
 PCOD9016941
Probable space group: P -1
;
_chemical_formula_sum "Si O2"
_cell_formula_units_Z 14
_cell_length_a 18.858814
_cell_length_b 5.363079
_cell_length_c 5.276356
_cell_angle_alpha 93.929217
_cell_angle_beta 76.938590
_cell_angle_gamma 89.669654
_cell_volume 518.505037
_symmetry_space_group_name_H-M "P -1"
_symmetry_group_IT_number 2
_symmetry_cell_setting 'triclinic'
loop_
_space_group_symop_operation_xyz
x,y,z
-x,-y,-z
loop_
_atom_site_type_symbol
_atom_site_label
_atom_site_fract_x
_atom_site_fract_y
_atom_site_fract_z
Si Si1 0.052405 0.806965 0.597056
Si Si2 0.079765 0.394453 0.110764
Si Si3 0.288288 0.928725 0.877399
Si Si4 0.449393 0.510537 0.294699
Si Si5 0.224366 0.434918 0.702609
Si Si6 0.584989 0.999453 0.860015
Si Si7 0.177380 0.073796 0.343619
O O1 0.071386 0.587973 0.365127
O O2 0.003443 0.703603 0.861250
O O3 0.126920 0.952511 0.590160
O O4 0.000000 0.000000 0.500000
O O5 0.140495 0.482760 0.870188
O O6 0.122299 0.151530 0.172763
O O7 0.261718 0.193436 0.797174
O O8 0.239203 0.897265 0.168919
O O9 0.269450 0.682834 0.719370
O O10 0.368728 0.955262 0.923957
O O11 0.500000 0.500000 0.500000
O O12 0.406602 0.772116 0.322456
O O13 0.399709 0.268616 0.298110
O O14 0.500000 0.500000 0.000000
O O15 0.214133 0.325542 0.424300
O O16 0.500000 0.000000 0.000000
#
# Coordination Sequence:
#
# PCOD9016941 Si02
#       7
#     2   2   2   2   2   2   2
#     4   9  17  35  60  87 122 165 207 273 321 382
#     4   9  19  37  60  85 129 161 212 271 320 386
#     4  11  24  45  63  94 132 168 221 271 332 396
#     4  10  21  42  70 102 138 178 223 283 352 415
#     4  11  24  40  67  92 128 174 215 267 328 403
#     4  10  22  44  69  95 135 175 222 285 345 412
#     4  10  22  39  62  89 126 168 218 263 333 391
#
# _framework density 27.000706000000001
#
# number of rings (size 3 to 8) (size 9 to 14) (size 15 to 20)
#    0.000    2.000    1.429    1.286    2.000    0.571 
#   15.429    6.429    0.000    0.000    0.000    0.000 
#    0.000    0.000    0.000    0.000    0.000    0.000 
#
# Total GULP energy -78372.758274 kJ/mol
# GULP energy per Si atom -5598.054162 kJ/mol
# Density = 2.693925 g / cm^3
# Si number density = 27.000706 Si / 1000 Ang^3
#
#
#
# Elastic Constant Matrix: (Units=GPa)
#
#
# Indices 1 2 3 4 5 6 
#
# 1 138.2531 43.0463 13.9866 5.8660 -7.2157 24.2770
# 2 43.0463 186.9672 29.1981 14.9174 1.8721 4.6400
# 3 13.9866 29.1981 93.4958 6.1951 -4.5260 17.2940
# 4 5.8660 14.9174 6.1951 35.8235 14.5329 19.8564
# 5 -7.2157 1.8721 -4.5260 14.5329 33.6847 -7.6453
# 6 24.2770 4.6400 17.2940 19.8564 -7.6453 39.6485
#
#
#
# Elastic Compliance Matrix: (Units=1/GPa)
#
#
# Indices 1 2 3 4 5 6 
#
# 1 0.009039 -0.002301 0.000478 0.004543 -0.001663 -0.008069
# 2 -0.002301 0.006510 -0.002095 -0.005620 0.002386 0.004836
# 3 0.000478 -0.002095 0.012351 0.003080 -0.001081 -0.007186
# 4 0.004543 -0.005620 0.003080 0.070688 -0.039342 -0.046455
# 5 -0.001663 0.002386 -0.001081 -0.039342 0.053097 0.031152
# 6 -0.008069 0.004836 -0.007186 -0.046455 0.031152 0.062003
#
#
# Mechanical properties :
#
#
# Convention : Reuss Voigt Hill
#
# Bulk Modulus (GPa) = 49.84541 65.68647 57.76594
# Shear Modulus (GPa) = 21.90926 43.99700 32.95313
#
# Velocity S-wave (km/s) = 2.85166 4.04106 3.49729
# Velocity P-wave (km/s) = 5.41696 6.79367 6.14400
#
# Compressibility (1/GPa) = 0.02006203
#
# Stress axis : x y z
#
# Youngs Moduli (GPa) = 110.63549 153.60797 80.96311
#
# Poissons Ratio (x) = 0.35348 -0.03866
# Poissons Ratio (y) = 0.25459 0.16965
# Poissons Ratio (z) = -0.05283 0.32187
#
# Static dielectric constant tensor:
#      x y z
#    x 2.029340 0.018800 0.031280 
#    y 0.018800 2.233910 -0.042450 
#    z 0.031280 -0.042450 2.134170 
# 
# From -- ./inp_files/7865.got.cif
#   From: 2010.05.17/outbox.cif.g08.bks.cpg/sg2_4_cif.got.tgz:7865.got - 2010.06.03 11:33:40.
