data_PCOD9016559
_publ_section_title
;
Structure prediction by ZEFSAII (Michael W. Deem and Ramdas Pophale) SiO2 
 PCOD9016559
Probable space group: P -1
;
_chemical_formula_sum "Si O2"
_cell_formula_units_Z 16
_cell_length_a 18.198111
_cell_length_b 9.352467
_cell_length_c 8.836642
_cell_angle_alpha 130.410575
_cell_angle_beta 86.910426
_cell_angle_gamma 125.153353
_cell_volume 803.717753
_symmetry_space_group_name_H-M "P -1"
_symmetry_group_IT_number 2
_symmetry_cell_setting 'triclinic'
loop_
_space_group_symop_operation_xyz
x,y,z
-x,-y,-z
loop_
_atom_site_type_symbol
_atom_site_label
_atom_site_fract_x
_atom_site_fract_y
_atom_site_fract_z
Si Si1 0.742850 0.601845 0.950144
Si Si2 0.249286 0.151103 0.164881
Si Si3 0.120454 0.763843 0.191145
Si Si4 0.879157 0.834293 0.385689
Si Si5 0.286477 0.867446 0.440987
Si Si6 0.592711 0.539061 0.145323
Si Si7 0.643376 0.963162 0.125827
Si Si8 0.317655 0.570924 0.686431
O O1 0.791613 0.795622 0.932961
O O2 0.687951 0.304173 0.710399
O O3 0.831119 0.722715 0.148691
O O4 0.658476 0.589557 0.026797
O O5 0.310098 0.411557 0.440094
O O6 0.169727 0.906127 0.120822
O O7 0.317971 0.114170 0.055222
O O8 0.186199 0.729653 0.253104
O O9 0.130542 0.965813 0.432312
O O10 0.000000 0.500000 0.000000
O O11 0.798904 0.592561 0.347482
O O12 0.000000 0.000000 0.500000
O O13 0.366909 0.183905 0.611494
O O14 0.277402 0.871710 0.627113
O O15 0.624703 0.438800 0.195429
O O16 0.468815 0.302689 0.979516
O O17 0.631529 0.144404 0.175143
#
# Coordination Sequence:
#
# PCOD9016559 Si02
#       8
#     2   2   2   2   2   2   2   2
#     4  11  23  42  67  91 132 172 212 270 314 380
#     4  11  23  43  63  95 133 159 220 267 310 388
#     4  11  24  45  68  97 128 167 211 265 331 388
#     4  10  21  42  68  93 130 166 212 265 332 378
#     4  12  23  43  66  94 132 170 216 264 321 381
#     4  11  24  44  62  95 134 172 216 265 320 382
#     4  12  25  40  67  94 131 175 215 266 321 372
#     4  10  23  43  61  95 133 163 219 265 314 395
#
# _framework density 19.907485999999999
#
# number of rings (size 3 to 8) (size 9 to 14) (size 15 to 20)
#    0.000    1.000    6.250    1.500    5.250    2.000 
#    2.250    3.125    0.000    0.000    0.000    0.000 
#    0.000    0.000    0.000    0.000    0.000    0.000 
#
# Total GULP energy -89297.466965 kJ/mol
# GULP energy per Si atom -5581.091685 kJ/mol
# Density = 1.986218 g / cm^3
# Si number density = 19.907486 Si / 1000 Ang^3
#
#
#
# Elastic Constant Matrix: (Units=GPa)
#
#
# Indices 1 2 3 4 5 6 
#
# 1 87.4841 43.1785 50.0523 0.2349 -1.7746 2.5417
# 2 43.1785 87.8465 51.0489 -8.8312 -6.6402 -10.2590
# 3 50.0523 51.0489 88.7298 -10.6002 -1.7425 8.0028
# 4 0.2349 -8.8312 -10.6002 34.4391 1.4292 2.7518
# 5 -1.7746 -6.6402 -1.7425 1.4292 29.1162 1.2158
# 6 2.5417 -10.2590 8.0028 2.7518 1.2158 25.5895
#
#
#
# Elastic Compliance Matrix: (Units=1/GPa)
#
#
# Indices 1 2 3 4 5 6 
#
# 1 0.018444 -0.004975 -0.007911 -0.003751 -0.000261 -0.000937
# 2 -0.004975 0.021838 -0.010651 0.001230 0.003466 0.012283
# 3 -0.007911 -0.010651 0.023521 0.005525 -0.001300 -0.011372
# 4 -0.003751 0.001230 0.005525 0.031455 -0.000986 -0.004198
# 5 -0.000261 0.003466 -0.001300 -0.000986 0.035080 0.000261
# 6 -0.000937 0.012283 -0.011372 -0.004198 0.000261 0.048091
#
#
# Mechanical properties :
#
#
# Convention : Reuss Voigt Hill
#
# Bulk Modulus (GPa) = 59.77219 61.40220 60.58719
# Shear Modulus (GPa) = 21.63779 25.81435 23.72607
#
# Velocity S-wave (km/s) = 3.30042 3.60490 3.45601
# Velocity P-wave (km/s) = 6.67936 6.94534 6.81365
#
# Compressibility (1/GPa) = 0.01673019
#
# Stress axis : x y z
#
# Youngs Moduli (GPa) = 54.21831 45.79166 42.51598
#
# Poissons Ratio (x) = 0.22779 0.33634
# Poissons Ratio (y) = 0.26971 0.45282
# Poissons Ratio (z) = 0.42892 0.48771
#
# Static dielectric constant tensor:
#      x y z
#    x 1.728030 -0.038080 0.016590 
#    y -0.038080 1.749830 0.003020 
#    z 0.016590 0.003020 1.711840 
# 
# From -- ./inp_files/201772.got.cif
#   From: 2010.05.17/outbox.cif.g08.bks.cpg/sg2_101_cif.got.tgz:201772.got - 2010.06.03 11:33:40.
