data_PCOD9016615
_publ_section_title
;
Structure prediction by ZEFSAII (Michael W. Deem and Ramdas Pophale) SiO2 
 PCOD9016615
Probable space group: P -1
;
_chemical_formula_sum "Si O2"
_cell_formula_units_Z 10
_cell_length_a 12.233358
_cell_length_b 10.891513
_cell_length_c 9.273774
_cell_angle_alpha 142.642013
_cell_angle_beta 131.076798
_cell_angle_gamma 36.893429
_cell_volume 449.335650
_symmetry_space_group_name_H-M "P -1"
_symmetry_group_IT_number 2
_symmetry_cell_setting 'triclinic'
loop_
_space_group_symop_operation_xyz
x,y,z
-x,-y,-z
loop_
_atom_site_type_symbol
_atom_site_label
_atom_site_fract_x
_atom_site_fract_y
_atom_site_fract_z
Si Si1 0.818428 0.240200 0.493139
Si Si2 0.782363 0.553554 0.011744
Si Si3 0.441556 0.985984 0.278307
Si Si4 0.079746 0.040128 0.965082
Si Si5 0.400045 0.934092 0.742528
O O1 0.780124 0.470167 0.769437
O O2 0.852614 0.186216 0.302722
O O3 0.658075 0.220415 0.379020
O O4 0.000000 0.000000 0.500000
O O5 0.590295 0.706365 0.074634
O O6 0.786345 0.793808 0.219477
O O7 0.932294 0.307500 0.003777
O O8 0.467632 0.168183 0.375377
O O9 0.500000 0.000000 0.500000
O O10 0.247252 0.045337 0.155234
O O11 0.000000 0.000000 0.000000
O O12 0.500000 0.000000 0.000000
#
# Coordination Sequence:
#
# PCOD9016615 Si02
#       5
#     2   2   2   2   2
#     4  10  21  42  68  96 127 167 223 270 315 391
#     4   9  24  44  69  97 128 175 220 265 338 365
#     4  10  24  44  63  96 135 169 219 268 319 391
#     4  11  24  42  65 100 134 170 218 268 326 395
#     4  10  21  44  66  95 130 167 224 266 315 391
#
# _framework density 22.255078999999999
#
# number of rings (size 3 to 8) (size 9 to 14) (size 15 to 20)
#    1.200    0.800    2.000    0.000    5.600    8.000 
#    3.600    0.000    0.000    0.000    0.000    0.000 
#    0.000    0.000    0.000    0.000    0.000    0.000 
#
# Total GULP energy -55723.749817 kJ/mol
# GULP energy per Si atom -5572.374982 kJ/mol
# Density = 2.220443 g / cm^3
# Si number density = 22.255079 Si / 1000 Ang^3
#
#
#
# Elastic Constant Matrix: (Units=GPa)
#
#
# Indices 1 2 3 4 5 6 
#
# 1 153.9852 35.5679 63.8843 -13.1836 -36.2525 -9.7457
# 2 35.5679 126.8837 44.2262 6.8952 -9.0481 -10.1656
# 3 63.8843 44.2262 86.8563 -14.4481 -32.3767 -3.3249
# 4 -13.1836 6.8952 -14.4481 40.6777 5.7935 -2.3653
# 5 -36.2525 -9.0481 -32.3767 5.7935 36.3153 -14.8484
# 6 -9.7457 -10.1656 -3.3249 -2.3653 -14.8484 29.2164
#
#
#
# Elastic Compliance Matrix: (Units=1/GPa)
#
#
# Indices 1 2 3 4 5 6 
#
# 1 0.011546 -0.000660 -0.002795 0.001634 0.012641 0.009860
# 2 -0.000660 0.010400 -0.006482 -0.003818 -0.002873 0.000892
# 3 -0.002795 -0.006482 0.027675 0.007301 0.024400 0.012954
# 4 0.001634 -0.003818 0.007301 0.027964 0.004636 0.004668
# 5 0.012641 -0.002873 0.024400 0.004636 0.079598 0.046823
# 6 0.009860 0.000892 0.012954 0.004668 0.046823 0.063475
#
#
# Mechanical properties :
#
#
# Convention : Reuss Voigt Hill
#
# Bulk Modulus (GPa) = 33.61638 72.78689 53.20163
# Shear Modulus (GPa) = 19.96422 36.17834 28.07128
#
# Velocity S-wave (km/s) = 2.99835 4.03627 3.55539
# Velocity P-wave (km/s) = 5.20813 7.38233 6.38840
#
# Compressibility (1/GPa) = 0.02974740
#
# Stress axis : x y z
#
# Youngs Moduli (GPa) = 86.60956 96.15827 36.13314
#
# Poissons Ratio (x) = 0.06344 0.10100
# Poissons Ratio (y) = 0.05714 0.23421
# Poissons Ratio (z) = 0.24209 0.62329
#
# Static dielectric constant tensor:
#      x y z
#    x 1.862230 0.039140 -0.003310 
#    y 0.039140 1.982400 0.038920 
#    z -0.003310 0.038920 1.821940 
# 
# From -- ./inp_files/57618.got.cif
#   From: 2010.05.17/outbox.cif.g08.bks.cpg/sg2_29_cif.got.tgz:57618.got - 2010.06.03 11:33:40.
