data_PCOD9016367
_publ_section_title
;
Structure prediction by ZEFSAII (Michael W. Deem and Ramdas Pophale) SiO2 
 PCOD9016367
Probable space group: P -1
;
_chemical_formula_sum "Si O2"
_cell_formula_units_Z 14
_cell_length_a 14.937112
_cell_length_b 14.478649
_cell_length_c 14.983608
_cell_angle_alpha 37.612267
_cell_angle_beta 19.643081
_cell_angle_gamma 44.572318
_cell_volume 655.803163
_symmetry_space_group_name_H-M "P -1"
_symmetry_group_IT_number 2
_symmetry_cell_setting 'triclinic'
loop_
_space_group_symop_operation_xyz
x,y,z
-x,-y,-z
loop_
_atom_site_type_symbol
_atom_site_label
_atom_site_fract_x
_atom_site_fract_y
_atom_site_fract_z
Si Si1 0.601248 0.581372 0.549051
Si Si2 0.060695 0.384438 0.267576
Si Si3 0.687425 0.903951 0.134541
Si Si4 0.206823 0.960881 0.261867
Si Si5 0.287380 0.009346 0.556288
Si Si6 0.213872 0.507249 0.217267
Si Si7 0.476892 0.228228 0.357623
O O1 0.857792 0.503442 0.347154
O O2 0.576959 0.724599 0.397144
O O3 0.637811 0.656276 0.556492
O O4 0.335973 0.450677 0.905618
O O5 0.904778 0.216308 0.521046
O O6 0.135801 0.391744 0.296975
O O7 0.467628 0.006420 0.299435
O O8 0.974747 0.945193 0.883702
O O9 0.764068 0.942412 0.931110
O O10 0.000000 0.000000 0.500000
O O11 0.500000 0.000000 0.000000
O O12 0.436990 0.899984 0.561477
O O13 0.307856 0.160222 0.482869
O O14 0.000000 0.500000 0.500000
O O15 0.500000 0.500000 0.000000
O O16 0.251479 0.674867 0.009660
#
# Coordination Sequence:
#
# PCOD9016367 Si02
#       7
#     2   2   2   2   2   2   2
#     4  10  21  42  67  95 131 175 214 264 321 388
#     4  11  24  44  67  93 134 175 211 272 337 376
#     4  11  23  42  68  94 128 170 225 270 325 384
#     4  12  28  49  71  96 130 168 221 284 346 389
#     4  10  22  36  64  92 130 176 215 266 307 377
#     4  11  23  34  57  89 131 170 211 245 305 393
#     4   9  21  37  57  94 136 171 218 253 309 373
#
# _framework density 21.347867999999998
#
# number of rings (size 3 to 8) (size 9 to 14) (size 15 to 20)
#    0.000    1.429    0.000    6.000    4.000    8.571 
#    0.000    4.286    0.000    0.000    0.000    0.000 
#    0.000    0.000    0.000    0.000    0.000    0.000 
#
# Total GULP energy -78202.848091 kJ/mol
# GULP energy per Si atom -5585.917721 kJ/mol
# Density = 2.129928 g / cm^3
# Si number density = 21.347868 Si / 1000 Ang^3
#
#
#
# Elastic Constant Matrix: (Units=GPa)
#
#
# Indices 1 2 3 4 5 6 
#
# 1 87.8996 23.9560 54.4722 -20.7562 2.7828 10.7932
# 2 23.9560 52.1751 26.7493 -7.6996 -3.0648 11.7405
# 3 54.4722 26.7493 140.7449 4.0499 -3.9670 10.1467
# 4 -20.7562 -7.6996 4.0499 41.7335 0.7160 -8.6326
# 5 2.7828 -3.0648 -3.9670 0.7160 52.4829 1.3202
# 6 10.7932 11.7405 10.1467 -8.6326 1.3202 18.5707
#
#
#
# Elastic Compliance Matrix: (Units=1/GPa)
#
#
# Indices 1 2 3 4 5 6 
#
# 1 0.019043 -0.003829 -0.006940 0.009397 -0.001877 -0.000353
# 2 -0.003829 0.025056 -0.002355 0.000376 0.001792 -0.012281
# 3 -0.006940 -0.002355 0.010645 -0.005552 0.001185 -0.002959
# 4 0.009397 0.000376 -0.005552 0.031802 -0.001638 0.012234
# 5 -0.001877 0.001792 0.001185 -0.001638 0.019441 -0.002833
# 6 -0.000353 -0.012281 -0.002959 0.012234 -0.002833 0.069322
#
#
# Mechanical properties :
#
#
# Convention : Reuss Voigt Hill
#
# Bulk Modulus (GPa) = 35.09382 54.57496 44.83439
# Shear Modulus (GPa) = 23.69028 34.26691 28.97859
#
# Velocity S-wave (km/s) = 3.33487 4.01080 3.68835
# Velocity P-wave (km/s) = 5.59492 6.86067 6.25987
#
# Compressibility (1/GPa) = 0.02849505
#
# Stress axis : x y z
#
# Youngs Moduli (GPa) = 52.51271 39.91063 93.93965
#
# Poissons Ratio (x) = 0.15284 0.65196
# Poissons Ratio (y) = 0.20110 0.22121
# Poissons Ratio (z) = 0.36445 0.09398
#
# Static dielectric constant tensor:
#      x y z
#    x 1.796560 -0.000030 0.020300 
#    y -0.000030 1.833150 -0.033950 
#    z 0.020300 -0.033950 1.771400 
# 
# From -- ./inp_files/533645.got.cif
#   From: 2010.05.17/outbox.cif.g08.bks.cpg/sg2_267_cif.got.tgz:533645.got - 2010.06.03 11:33:40.
