data_PCOD9016847
_publ_section_title
;
Structure prediction by ZEFSAII (Michael W. Deem and Ramdas Pophale) SiO2 
 PCOD9016847
Probable space group: P -1
;
_chemical_formula_sum "Si O2"
_cell_formula_units_Z 14
_cell_length_a 12.484466
_cell_length_b 6.916384
_cell_length_c 10.920008
_cell_angle_alpha 64.904820
_cell_angle_beta 83.211808
_cell_angle_gamma 47.375101
_cell_volume 607.760014
_symmetry_space_group_name_H-M "P -1"
_symmetry_group_IT_number 2
_symmetry_cell_setting 'triclinic'
loop_
_space_group_symop_operation_xyz
x,y,z
-x,-y,-z
loop_
_atom_site_type_symbol
_atom_site_label
_atom_site_fract_x
_atom_site_fract_y
_atom_site_fract_z
Si Si1 0.321824 0.229120 0.953331
Si Si2 0.056225 0.785967 0.219694
Si Si3 0.675028 0.709214 0.337113
Si Si4 0.102196 0.176707 0.011487
Si Si5 0.684815 0.802666 0.767117
Si Si6 0.148302 0.157459 0.599405
Si Si7 0.680901 0.250008 0.550532
O O1 0.281265 0.390796 0.785089
O O2 0.260738 0.071893 0.993619
O O3 0.273899 0.362286 0.062605
O O4 0.500000 0.000000 0.000000
O O5 0.212750 0.439388 0.287587
O O6 0.931893 0.930544 0.301002
O O7 0.100625 0.968084 0.148301
O O8 0.970669 0.799920 0.111425
O O9 0.748645 0.828461 0.337281
O O10 0.723421 0.442372 0.488215
O O11 0.492803 0.979787 0.292036
O O12 0.000000 0.500000 0.000000
O O13 0.715943 0.015650 0.707796
O O14 0.000000 0.500000 0.500000
O O15 0.243323 0.949207 0.527827
O O16 0.500000 0.500000 0.500000
#
# Coordination Sequence:
#
# PCOD9016847 Si02
#       7
#     2   2   2   2   2   2   2
#     4  10  21  42  69  96 131 178 228 277 339 409
#     4  11  24  41  64  99 134 176 225 283 344 404
#     4  10  24  44  69  97 141 180 226 291 337 406
#     4  11  23  41  65  93 139 176 218 281 349 406
#     4  10  21  45  65 100 136 178 234 274 348 415
#     4  12  25  43  68 102 135 176 239 280 342 415
#     4  10  24  45  69  97 138 182 226 281 345 409
#
# _framework density 23.035406999999999
#
# number of rings (size 3 to 8) (size 9 to 14) (size 15 to 20)
#    0.000    1.429    4.286    0.000    2.000    4.000 
#    7.714    1.429    0.000    0.000    0.000    0.000 
#    0.000    0.000    0.000    0.000    0.000    0.000 
#
# Total GULP energy -78117.335663 kJ/mol
# GULP energy per Si atom -5579.809690 kJ/mol
# Density = 2.298298 g / cm^3
# Si number density = 23.035407 Si / 1000 Ang^3
#
#
#
# Elastic Constant Matrix: (Units=GPa)
#
#
# Indices 1 2 3 4 5 6 
#
# 1 160.6809 55.0436 40.4154 -1.0392 -19.0127 -8.6731
# 2 55.0436 116.3645 27.3268 8.3502 -8.8878 -17.9928
# 3 40.4154 27.3268 64.4104 5.7067 -21.2658 -14.6480
# 4 -1.0392 8.3502 5.7067 35.7709 5.8764 -15.5431
# 5 -19.0127 -8.8878 -21.2658 5.8764 40.7769 6.5650
# 6 -8.6731 -17.9928 -14.6480 -15.5431 6.5650 24.6370
#
#
#
# Elastic Compliance Matrix: (Units=1/GPa)
#
#
# Indices 1 2 3 4 5 6 
#
# 1 0.008389 -0.003262 -0.003872 0.000678 0.001351 -0.001663
# 2 -0.003262 0.011471 -0.001662 0.000712 -0.001115 0.006987
# 3 -0.003872 -0.001662 0.023630 -0.001438 0.009050 0.008153
# 4 0.000678 0.000712 -0.001438 0.042928 -0.011294 0.029996
# 5 0.001351 -0.001115 0.009050 -0.011294 0.033010 -0.010879
# 6 -0.001663 0.006987 0.008153 0.029996 -0.010879 0.071777
#
#
# Mechanical properties :
#
#
# Convention : Reuss Voigt Hill
#
# Bulk Modulus (GPa) = 38.61353 65.22526 51.91940
# Shear Modulus (GPa) = 22.99586 34.81494 28.90540
#
# Velocity S-wave (km/s) = 3.16299 3.89185 3.54619
# Velocity P-wave (km/s) = 5.48985 6.96936 6.27337
#
# Compressibility (1/GPa) = 0.02589766
#
# Stress axis : x y z
#
# Youngs Moduli (GPa) = 119.19863 87.17601 42.31874
#
# Poissons Ratio (x) = 0.28434 0.16388
# Poissons Ratio (y) = 0.38878 0.07035
# Poissons Ratio (z) = 0.46160 0.14492
#
# Static dielectric constant tensor:
#      x y z
#    x 1.888590 -0.007390 -0.037930 
#    y -0.007390 1.800210 0.006380 
#    z -0.037930 0.006380 2.009720 
# 
# From -- ./inp_files/270941.got.cif
#   From: 2010.05.17/outbox.cif.g08.bks.cpg/sg2_136_cif.got.tgz:270941.got - 2010.06.03 11:33:40.
