data_PCOD9016651
_publ_section_title
;
Structure prediction by ZEFSAII (Michael W. Deem and Ramdas Pophale) SiO2 
 PCOD9016651
Probable space group: P -1
;
_chemical_formula_sum "Si O2"
_cell_formula_units_Z 12
_cell_length_a 6.972708
_cell_length_b 8.750231
_cell_length_c 14.161425
_cell_angle_alpha 64.048844
_cell_angle_beta 80.398840
_cell_angle_gamma 121.753325
_cell_volume 564.541314
_symmetry_space_group_name_H-M "P -1"
_symmetry_group_IT_number 2
_symmetry_cell_setting 'triclinic'
loop_
_space_group_symop_operation_xyz
x,y,z
-x,-y,-z
loop_
_atom_site_type_symbol
_atom_site_label
_atom_site_fract_x
_atom_site_fract_y
_atom_site_fract_z
Si Si1 0.777787 0.888682 0.628915
Si Si2 0.251946 0.467864 0.677065
Si Si3 0.273481 0.239468 0.121980
Si Si4 0.301260 0.099711 0.755796
Si Si5 0.604721 0.139752 0.552135
Si Si6 0.343006 0.901572 0.136409
O O1 0.497331 0.666529 0.668355
O O2 0.795681 0.800615 0.749919
O O3 0.772917 0.087563 0.597173
O O4 0.000000 0.000000 0.500000
O O5 0.301181 0.302779 0.687852
O O6 0.968720 0.314995 0.791447
O O7 0.248868 0.599818 0.555721
O O8 0.359834 0.098341 0.128728
O O9 0.500000 0.500000 0.000000
O O10 0.995143 0.116868 0.127776
O O11 0.370678 0.049397 0.665793
O O12 0.519721 0.160358 0.793655
O O13 0.500000 0.000000 0.500000
O O14 0.500000 0.000000 0.000000
#
# Coordination Sequence:
#
# PCOD9016651 Si02
#       6
#     2   2   2   2   2   2
#     4  11  24  44  70 104 138 178 229 284 336 405
#     4  10  25  42  71  99 136 178 223 274 346 401
#     4  11  26  44  70 100 135 181 232 279 339 402
#     4  11  24  46  67 100 138 174 226 280 339 405
#     4  10  21  42  68  97 135 173 223 277 338 398
#     4  11  27  45  67  99 137 181 228 275 337 409
#
# _framework density 21.256197
#
# number of rings (size 3 to 8) (size 9 to 14) (size 15 to 20)
#    0.000    1.333    1.667    2.500    7.000    6.667 
#    0.000    0.000    0.000    0.000    0.000    0.000 
#    0.000    0.000    0.000    0.000    0.000    0.000 
#
# Total GULP energy -67041.179395 kJ/mol
# GULP energy per Si atom -5586.764950 kJ/mol
# Density = 2.120782 g / cm^3
# Si number density = 21.256197 Si / 1000 Ang^3
#
#
#
# Elastic Constant Matrix: (Units=GPa)
#
#
# Indices 1 2 3 4 5 6 
#
# 1 137.1907 43.9041 71.8983 -11.0301 -18.5566 -10.1398
# 2 43.9041 65.8244 43.5888 -9.8733 -9.7294 -0.6785
# 3 71.8983 43.5888 145.9878 -4.3043 -16.7181 -4.3078
# 4 -11.0301 -9.8733 -4.3043 41.4479 0.5184 -2.9479
# 5 -18.5566 -9.7294 -16.7181 0.5184 30.5638 1.5237
# 6 -10.1398 -0.6785 -4.3078 -2.9479 1.5237 31.7076
#
#
#
# Elastic Compliance Matrix: (Units=1/GPa)
#
#
# Indices 1 2 3 4 5 6 
#
# 1 0.011519 -0.004337 -0.003853 0.001809 0.003321 0.003076
# 2 -0.004337 0.021537 -0.003996 0.003447 0.002041 -0.001247
# 3 -0.003853 -0.003996 0.010133 -0.000958 0.001953 -0.000124
# 4 0.001809 0.003447 -0.000958 0.025518 0.001097 0.002842
# 5 0.003321 0.002041 0.001953 0.001097 0.036448 -0.000278
# 6 0.003076 -0.001247 -0.000124 0.002842 -0.000278 0.032756
#
#
# Mechanical properties :
#
#
# Convention : Reuss Voigt Hill
#
# Bulk Modulus (GPa) = 53.14936 74.19835 63.67385
# Shear Modulus (GPa) = 29.66408 33.38464 31.52436
#
# Velocity S-wave (km/s) = 3.73976 3.96736 3.85524
# Velocity P-wave (km/s) = 6.61106 7.48125 7.05958
#
# Compressibility (1/GPa) = 0.01881490
#
# Stress axis : x y z
#
# Youngs Moduli (GPa) = 86.81611 46.43279 98.69195
#
# Poissons Ratio (x) = 0.20138 0.38031
# Poissons Ratio (y) = 0.37653 0.39436
# Poissons Ratio (z) = 0.33455 0.18554
#
# Static dielectric constant tensor:
#      x y z
#    x 1.816040 0.040550 0.037010 
#    y 0.040550 1.809780 0.008570 
#    z 0.037010 0.008570 1.754790 
# 
# From -- ./inp_files/480214.got.cif
#   From: 2010.05.17/outbox.cif.g08.bks.cpg/sg2_241_cif.got.tgz:480214.got - 2010.06.03 11:33:40.
