data_PCOD9016274
_publ_section_title
;
Structure prediction by ZEFSAII (Michael W. Deem and Ramdas Pophale) SiO2 
 PCOD9016274
Probable space group: P -1
;
_chemical_formula_sum "Si O2"
_cell_formula_units_Z 16
_cell_length_a 15.205609
_cell_length_b 14.284655
_cell_length_c 11.437349
_cell_angle_alpha 57.102361
_cell_angle_beta 77.675429
_cell_angle_gamma 28.569563
_cell_volume 752.578570
_symmetry_space_group_name_H-M "P -1"
_symmetry_group_IT_number 2
_symmetry_cell_setting 'triclinic'
loop_
_space_group_symop_operation_xyz
x,y,z
-x,-y,-z
loop_
_atom_site_type_symbol
_atom_site_label
_atom_site_fract_x
_atom_site_fract_y
_atom_site_fract_z
Si Si1 0.966487 0.634095 0.230449
Si Si2 0.641935 0.116207 0.378715
Si Si3 0.733674 0.251888 0.912139
Si Si4 0.978220 0.803088 0.309052
Si Si5 0.306523 0.348592 0.158861
Si Si6 0.225698 0.965108 0.146972
Si Si7 0.570913 0.920628 0.169606
Si Si8 0.504315 0.234258 0.588547
O O1 0.023287 0.644778 0.319446
O O2 0.842562 0.660568 0.276748
O O3 0.199186 0.373159 0.255658
O O4 0.766416 0.935669 0.008415
O O5 0.512367 0.176191 0.289511
O O6 0.656757 0.054495 0.547834
O O7 0.889349 0.869487 0.415778
O O8 0.466597 0.425954 0.223211
O O9 0.769355 0.116856 0.093572
O O10 0.686625 0.240238 0.812907
O O11 0.000000 0.000000 0.000000
O O12 0.229015 0.581801 0.395192
O O13 0.405767 0.190227 0.115937
O O14 0.066881 0.702698 0.972309
O O15 0.372466 0.823800 0.316700
O O16 0.529188 0.847033 0.285912
O O17 0.500000 0.000000 0.000000
#
# Coordination Sequence:
#
# PCOD9016274 Si02
#       8
#     2   2   2   2   2   2   2   2
#     4   9  19  42  63  86 124 169 219 253 300 380
#     4  12  23  42  66  99 125 168 215 264 314 382
#     4  11  19  44  75  90 123 169 214 257 321 382
#     4  11  23  42  65  97 127 166 214 262 314 381
#     4  10  21  42  67  90 127 165 225 257 309 376
#     4   9  21  40  67  93 127 168 205 265 317 374
#     4  12  24  40  68  92 125 179 214 261 318 373
#     4  12  25  41  59  96 140 161 207 274 319 364
#
# _framework density 21.260238999999999
#
# number of rings (size 3 to 8) (size 9 to 14) (size 15 to 20)
#    0.750    0.500    6.250    0.375    0.000    5.500 
#    0.000    0.625    0.000    0.000    0.000    0.000 
#    0.000    0.000    0.000    0.000    0.000    0.000 
#
# Total GULP energy -89360.829715 kJ/mol
# GULP energy per Si atom -5585.051857 kJ/mol
# Density = 2.121185 g / cm^3
# Si number density = 21.260239 Si / 1000 Ang^3
#
#
#
# Elastic Constant Matrix: (Units=GPa)
#
#
# Indices 1 2 3 4 5 6 
#
# 1 73.8839 25.7930 21.0686 20.5128 10.9732 9.1755
# 2 25.7930 124.9994 15.4369 35.2297 2.4807 4.0657
# 3 21.0686 15.4369 66.5569 29.1507 10.6641 15.8333
# 4 20.5128 35.2297 29.1507 32.3384 2.9362 0.4458
# 5 10.9732 2.4807 10.6641 2.9362 40.5636 0.5812
# 6 9.1755 4.0657 15.8333 0.4458 0.5812 36.9013
#
#
#
# Elastic Compliance Matrix: (Units=1/GPa)
#
#
# Indices 1 2 3 4 5 6 
#
# 1 0.017714 -0.000273 0.001428 -0.011776 -0.004230 -0.004778
# 2 -0.000273 0.013059 0.007115 -0.020313 -0.001065 -0.004162
# 3 0.001428 0.007115 0.034959 -0.039325 -0.006943 -0.015554
# 4 -0.011776 -0.020313 -0.039325 0.094996 0.007593 0.020772
# 5 -0.004230 -0.001065 -0.006943 0.007593 0.027086 0.003630
# 6 -0.004778 -0.004162 -0.015554 0.020772 0.003630 0.035112
#
#
# Mechanical properties :
#
#
# Convention : Reuss Voigt Hill
#
# Bulk Modulus (GPa) = 12.15476 43.33747 27.74611
# Shear Modulus (GPa) = 21.38498 35.50344 28.44421
#
# Velocity S-wave (km/s) = 3.17498 4.09093 3.66171
# Velocity P-wave (km/s) = 4.37838 6.53780 5.56386
#
# Compressibility (1/GPa) = 0.08227232
#
# Stress axis : x y z
#
# Youngs Moduli (GPa) = 56.45253 76.57375 28.60511
#
# Poissons Ratio (x) = 0.02092 -0.04085
# Poissons Ratio (y) = 0.01542 -0.20353
# Poissons Ratio (z) = -0.08063 -0.54483
#
# Static dielectric constant tensor:
#      x y z
#    x 1.767130 -0.015520 -0.049190 
#    y -0.015520 1.749900 -0.001230 
#    z -0.049190 -0.001230 1.810880 
# 
# From -- ./inp_files/453711.got.cif
#   From: 2010.05.17/outbox.cif.g08.bks.cpg/sg2_227_cif.got.tgz:453711.got - 2010.06.03 11:33:40.
