data_PCOD9016968
_publ_section_title
;
Structure prediction by ZEFSAII (Michael W. Deem and Ramdas Pophale) SiO2 
 PCOD9016968
Probable space group: P -1
;
_chemical_formula_sum "Si O2"
_cell_formula_units_Z 16
_cell_length_a 21.790364
_cell_length_b 8.408331
_cell_length_c 5.316870
_cell_angle_alpha 71.198697
_cell_angle_beta 96.201789
_cell_angle_gamma 135.706339
_cell_volume 632.810780
_symmetry_space_group_name_H-M "P -1"
_symmetry_group_IT_number 2
_symmetry_cell_setting 'triclinic'
loop_
_space_group_symop_operation_xyz
x,y,z
-x,-y,-z
loop_
_atom_site_type_symbol
_atom_site_label
_atom_site_fract_x
_atom_site_fract_y
_atom_site_fract_z
Si Si1 0.458223 0.792017 0.291038
Si Si2 0.107946 0.700349 0.240371
Si Si3 0.050515 0.401367 0.867258
Si Si4 0.358380 0.973019 0.603900
Si Si5 0.588515 0.608260 0.862802
Si Si6 0.745733 0.636712 0.573812
Si Si7 0.708446 0.877760 0.166104
Si Si8 0.810832 0.606433 0.131620
O O1 0.545719 0.932022 0.432297
O O2 0.439895 0.572298 0.275284
O O3 0.354669 0.639413 0.369645
O O4 0.500000 0.000000 0.000000
O O5 0.099774 0.610607 0.563666
O O6 0.052257 0.764509 0.165033
O O7 0.063478 0.490820 0.114429
O O8 0.205894 0.911204 0.066405
O O9 0.097709 0.315191 0.908955
O O10 0.358848 0.120797 0.325620
O O11 0.346675 0.067756 0.799104
O O12 0.271498 0.687405 0.719900
O O13 0.500000 0.500000 0.000000
O O14 0.645901 0.633872 0.092705
O O15 0.737977 0.822012 0.442974
O O16 0.808872 0.702278 0.342162
O O17 0.783990 0.657941 0.846956
#
# Coordination Sequence:
#
# PCOD9016968 Si02
#       8
#     2   2   2   2   2   2   2   2
#     4  12  25  45  62  98 138 180 229 281 346 401
#     4  10  22  40  73 107 133 178 217 289 333 405
#     4  10  21  42  70 107 140 164 232 277 340 402
#     4  12  25  41  69  94 133 179 235 282 338 401
#     4  12  25  42  67  97 132 181 231 289 332 403
#     4  12  28  45  64  98 142 182 226 280 340 410
#     4  12  25  45  67  97 136 179 230 280 346 401
#     4  12  26  45  69 100 136 184 222 281 343 404
#
# _framework density 25.284020999999999
#
# number of rings (size 3 to 8) (size 9 to 14) (size 15 to 20)
#    0.000    0.500    5.000    3.375    3.500    0.500 
#    0.000    1.250    0.000    0.000    0.000    0.000 
#    0.000    0.000    0.000    0.000    0.000    0.000 
#
# Total GULP energy -89494.411053 kJ/mol
# GULP energy per Si atom -5593.400691 kJ/mol
# Density = 2.522647 g / cm^3
# Si number density = 25.284021 Si / 1000 Ang^3
#
#
#
# Elastic Constant Matrix: (Units=GPa)
#
#
# Indices 1 2 3 4 5 6 
#
# 1 149.4897 -8.9760 13.4702 14.1636 -9.8438 19.7878
# 2 -8.9760 36.2467 7.1618 2.7238 2.2210 8.6965
# 3 13.4702 7.1618 121.2398 3.3871 3.4978 4.4156
# 4 14.1636 2.7238 3.3871 29.5858 -0.5474 -5.0362
# 5 -9.8438 2.2210 3.4978 -0.5474 45.8622 1.7115
# 6 19.7878 8.6965 4.4156 -5.0362 1.7115 33.7964
#
#
#
# Elastic Compliance Matrix: (Units=1/GPa)
#
#
# Indices 1 2 3 4 5 6 
#
# 1 0.008592 0.004262 -0.000853 -0.005554 0.001895 -0.006940
# 2 0.004262 0.032290 -0.001765 -0.006785 -0.000163 -0.011577
# 3 -0.000853 -0.001765 0.008488 -0.000446 -0.000743 -0.000184
# 4 -0.005554 -0.006785 -0.000446 0.038976 -0.000771 0.010903
# 5 0.001895 -0.000163 -0.000743 -0.000771 0.022349 -0.002217
# 6 -0.006940 -0.011577 -0.000184 0.010903 -0.002217 0.038392
#
#
# Mechanical properties :
#
#
# Convention : Reuss Voigt Hill
#
# Bulk Modulus (GPa) = 18.99033 36.69869 27.84451
# Shear Modulus (GPa) = 30.60867 41.53689 36.07278
#
# Velocity S-wave (km/s) = 3.48313 4.05756 3.78127
# Velocity P-wave (km/s) = 4.86861 6.04134 5.48640
#
# Compressibility (1/GPa) = 0.05265837
#
# Stress axis : x y z
#
# Youngs Moduli (GPa) = 116.38922 30.96891 117.81642
#
# Poissons Ratio (x) = -0.13200 0.10052
# Poissons Ratio (y) = -0.49610 0.20796
# Poissons Ratio (z) = 0.09930 0.05466
#
# Static dielectric constant tensor:
#      x y z
#    x 2.018040 0.013250 0.015010 
#    y 0.013250 2.032410 0.053180 
#    z 0.015010 0.053180 2.031810 
# 
# From -- ./inp_files/39024.got.cif
#   From: 2010.05.17/outbox.cif.g08.bks.cpg/sg2_20_cif.got.tgz:39024.got - 2010.06.03 11:33:40.
