data_PCOD9016712
_publ_section_title
;
Structure prediction by ZEFSAII (Michael W. Deem and Ramdas Pophale) SiO2 
 PCOD9016712
Probable space group: P -1
;
_chemical_formula_sum "Si O2"
_cell_formula_units_Z 16
_cell_length_a 6.233268
_cell_length_b 17.945992
_cell_length_c 6.162549
_cell_angle_alpha 87.355805
_cell_angle_beta 100.112441
_cell_angle_gamma 85.049131
_cell_volume 674.793808
_symmetry_space_group_name_H-M "P -1"
_symmetry_group_IT_number 2
_symmetry_cell_setting 'triclinic'
loop_
_space_group_symop_operation_xyz
x,y,z
-x,-y,-z
loop_
_atom_site_type_symbol
_atom_site_label
_atom_site_fract_x
_atom_site_fract_y
_atom_site_fract_z
Si Si1 0.206579 0.531427 0.648475
Si Si2 0.088666 0.648947 0.969883
Si Si3 0.096287 0.782337 0.634089
Si Si4 0.231790 0.080061 0.374790
Si Si5 0.410681 0.948566 0.179032
Si Si6 0.521990 0.386913 0.656433
Si Si7 0.809381 0.708001 0.268321
Si Si8 0.497175 0.177878 0.086720
O O1 0.115309 0.576172 0.835553
O O2 0.395405 0.463482 0.715141
O O3 0.324537 0.590863 0.514222
O O4 0.000000 0.500000 0.500000
O O5 0.028893 0.725007 0.815137
O O6 0.322035 0.651640 0.126850
O O7 0.911414 0.645934 0.126971
O O8 0.351996 0.783811 0.720816
O O9 0.986818 0.867516 0.619375
O O10 0.004361 0.748053 0.405460
O O11 0.390719 0.071140 0.613336
O O12 0.352638 0.126996 0.211252
O O13 0.224370 0.998087 0.276364
O O14 0.355739 0.874724 0.051456
O O15 0.500000 0.000000 0.000000
O O16 0.336626 0.332113 0.579205
O O17 0.656131 0.767216 0.096626
#
# Coordination Sequence:
#
# PCOD9016712 Si02
#       8
#     2   2   2   2   2   2   2   2
#     4  11  26  49  72 105 141 188 238 291 355 425
#     4  12  25  45  70 105 141 186 232 289 360 422
#     4  12  25  41  70 105 139 188 238 283 360 426
#     4  10  21  42  69 100 140 185 237 300 346 421
#     4   9  20  42  70  98 140 185 237 295 353 407
#     4  11  25  46  73 101 141 188 235 292 358 421
#     4  12  26  45  70 105 147 185 236 296 352 426
#     4  11  23  44  68 100 141 188 233 294 355 419
#
# _framework density 23.710947000000001
#
# number of rings (size 3 to 8) (size 9 to 14) (size 15 to 20)
#    0.000    1.000    3.750    2.625    0.000    8.500 
#    2.250    5.625    0.000    0.000    0.000    0.000 
#    0.000    0.000    0.000    0.000    0.000    0.000 
#
# Total GULP energy -89507.388869 kJ/mol
# GULP energy per Si atom -5594.211804 kJ/mol
# Density = 2.365698 g / cm^3
# Si number density = 23.710947 Si / 1000 Ang^3
#
#
#
# Elastic Constant Matrix: (Units=GPa)
#
#
# Indices 1 2 3 4 5 6 
#
# 1 60.3593 40.7468 36.1980 15.4930 2.6757 0.9214
# 2 40.7468 86.2637 54.8043 2.5937 6.8958 -24.8126
# 3 36.1980 54.8043 91.5342 3.6783 11.4779 -12.5409
# 4 15.4930 2.5937 3.6783 52.3812 -3.5818 3.3809
# 5 2.6757 6.8958 11.4779 -3.5818 33.7845 -0.0135
# 6 0.9214 -24.8126 -12.5409 3.3809 -0.0135 37.3765
#
#
#
# Elastic Compliance Matrix: (Units=1/GPa)
#
#
# Indices 1 2 3 4 5 6 
#
# 1 0.031836 -0.015144 -0.005034 -0.007446 0.001486 -0.011853
# 2 -0.015144 0.029464 -0.009308 0.002509 -0.001380 0.016582
# 3 -0.005034 -0.009308 0.019036 0.000311 -0.004136 0.000303
# 4 -0.007446 0.002509 0.000311 0.021298 0.002230 0.000028
# 5 0.001486 -0.001380 -0.004136 0.002230 0.031404 -0.002530
# 6 -0.011853 0.016582 0.000303 0.000028 -0.002530 0.038153
#
#
# Mechanical properties :
#
#
# Convention : Reuss Voigt Hill
#
# Bulk Modulus (GPa) = 46.80693 55.73951 51.27322
# Shear Modulus (GPa) = 21.07188 31.80233 26.43711
#
# Velocity S-wave (km/s) = 2.98434 3.66628 3.34275
# Velocity P-wave (km/s) = 5.62659 6.44058 6.04730
#
# Compressibility (1/GPa) = 0.02136436
#
# Stress axis : x y z
#
# Youngs Moduli (GPa) = 31.41103 33.94010 52.53238
#
# Poissons Ratio (x) = 0.51399 0.26443
# Poissons Ratio (y) = 0.47569 0.48896
# Poissons Ratio (z) = 0.15811 0.31591
#
# Static dielectric constant tensor:
#      x y z
#    x 1.895410 -0.016430 -0.014910 
#    y -0.016430 1.929870 0.014180 
#    z -0.014910 0.014180 1.874710 
# 
# From -- ./inp_files/11131.got.cif
#   From: 2010.05.17/outbox.cif.g08.bks.cpg/sg2_6_cif.got.tgz:11131.got - 2010.06.03 11:33:40.
