data_PCOD9016926
_publ_section_title
;
Structure prediction by ZEFSAII (Michael W. Deem and Ramdas Pophale) SiO2 
 PCOD9016926
Probable space group: P -1
;
_chemical_formula_sum "Si O2"
_cell_formula_units_Z 13
_cell_length_a 9.346885
_cell_length_b 8.223797
_cell_length_c 10.380232
_cell_angle_alpha 52.224265
_cell_angle_beta 114.880563
_cell_angle_gamma 111.265943
_cell_volume 565.970469
_symmetry_space_group_name_H-M "P -1"
_symmetry_group_IT_number 2
_symmetry_cell_setting 'triclinic'
loop_
_space_group_symop_operation_xyz
x,y,z
-x,-y,-z
loop_
_atom_site_type_symbol
_atom_site_label
_atom_site_fract_x
_atom_site_fract_y
_atom_site_fract_z
Si Si1 0.288453 0.402876 0.105175
Si Si2 0.703454 0.249308 0.493847
Si Si3 0.391519 0.332533 0.452853
Si Si4 0.949921 0.991025 0.837394
Si Si5 0.500000 0.000000 0.000000
Si Si6 0.589873 0.207759 0.197575
Si Si7 0.247299 0.258428 0.691547
O O1 0.317371 0.432747 0.253816
O O2 0.435213 0.296672 0.153517
O O3 0.126863 0.244653 0.105274
O O4 0.299840 0.616132 0.929503
O O5 0.524703 0.208304 0.503658
O O6 0.815035 0.130805 0.680976
O O7 0.693008 0.171779 0.380416
O O8 0.761209 0.499159 0.397198
O O9 0.500000 0.500000 0.500000
O O10 0.261455 0.239011 0.551992
O O11 0.102165 0.092054 0.765540
O O12 0.000000 0.000000 0.000000
O O13 0.469580 0.961720 0.850693
O O14 0.398511 0.197400 0.856362
#
# Coordination Sequence:
#
# PCOD9016926 Si02
#       7
#     2   2   2   2   1   2   2
#     4  10  22  43  69  99 139 181 234 277 344 418
#     4  10  23  45  73  98 134 188 233 278 344 416
#     4   9  20  40  69 101 130 176 227 284 334 402
#     4  12  26  43  70 102 137 185 235 284 344 413
#     4  12  24  40  72 104 130 178 232 284 342 406
#     4  10  21  42  70 100 135 180 229 289 338 409
#     4  11  25  43  69 101 145 180 225 292 342 406
#
# _framework density 22.969394999999999
#
# number of rings (size 3 to 8) (size 9 to 14) (size 15 to 20)
#    0.000    1.538    0.000    6.000    6.462    1.846 
#    0.000    0.769    0.000    0.000    0.000    0.000 
#    0.000    0.000    0.000    0.000    0.000    0.000 
#
# Total GULP energy -72439.104594 kJ/mol
# GULP energy per Si atom -5572.238815 kJ/mol
# Density = 2.291712 g / cm^3
# Si number density = 22.969395 Si / 1000 Ang^3
#
#
#
# Elastic Constant Matrix: (Units=GPa)
#
#
# Indices 1 2 3 4 5 6 
#
# 1 58.2666 30.1103 62.1411 2.2746 -43.0580 25.1253
# 2 30.1103 80.5445 49.7308 25.6555 -25.6983 12.2803
# 3 62.1411 49.7308 199.9325 34.2951 -23.6338 5.7195
# 4 2.2746 25.6555 34.2951 45.2229 -2.6759 -11.2698
# 5 -43.0580 -25.6983 -23.6338 -2.6759 50.1390 -12.2431
# 6 25.1253 12.2803 5.7195 -11.2698 -12.2431 41.1066
#
#
#
# Elastic Compliance Matrix: (Units=1/GPa)
#
#
# Indices 1 2 3 4 5 6 
#
# 1 0.162212 0.003628 -0.038557 0.010654 0.109035 -0.059471
# 2 0.003628 0.020850 -0.003002 -0.011193 0.009792 -0.008181
# 3 -0.038557 -0.003002 0.015542 -0.006270 -0.024408 0.013312
# 4 0.010654 -0.011193 -0.006270 0.035101 0.004442 0.008651
# 5 0.109035 0.009792 -0.024408 0.004442 0.098644 -0.035576
# 6 -0.059471 -0.008181 0.013312 0.008651 -0.035576 0.053045
#
#
# Mechanical properties :
#
#
# Convention : Reuss Voigt Hill
#
# Bulk Modulus (GPa) = 8.14719 69.18976 38.66848
# Shear Modulus (GPa) = 9.95679 40.41114 25.18397
#
# Velocity S-wave (km/s) = 2.08428 4.19901 3.31481
# Velocity P-wave (km/s) = 3.05728 7.32781 5.61444
#
# Compressibility (1/GPa) = 0.12274169
#
# Stress axis : x y z
#
# Youngs Moduli (GPa) = 6.16476 47.96225 64.34257
#
# Poissons Ratio (x) = -0.17401 2.48085
# Poissons Ratio (y) = -0.02237 0.19317
# Poissons Ratio (z) = 0.23769 0.14399
#
# Static dielectric constant tensor:
#      x y z
#    x 1.893910 0.012370 -0.000180 
#    y 0.012370 1.907590 -0.067520 
#    z -0.000180 -0.067520 1.884540 
# 
# From -- ./inp_files/153188.got.cif
#   From: 2010.05.17/outbox.cif.g08.bks.cpg/sg2_77_cif.got.tgz:153188.got - 2010.06.03 11:33:40.
