data_PCOD9016102
_publ_section_title
;
Structure prediction by ZEFSAII (Michael W. Deem and Ramdas Pophale) SiO2 
 PCOD9016102
Probable space group: P -1
;
_chemical_formula_sum "Si O2"
_cell_formula_units_Z 14
_cell_length_a 14.366381
_cell_length_b 9.928846
_cell_length_c 13.628987
_cell_angle_alpha 52.526582
_cell_angle_beta 142.290982
_cell_angle_gamma 152.628656
_cell_volume 515.129870
_symmetry_space_group_name_H-M "P -1"
_symmetry_group_IT_number 2
_symmetry_cell_setting 'triclinic'
loop_
_space_group_symop_operation_xyz
x,y,z
-x,-y,-z
loop_
_atom_site_type_symbol
_atom_site_label
_atom_site_fract_x
_atom_site_fract_y
_atom_site_fract_z
Si Si1 0.355695 0.726655 0.130119
Si Si2 0.063383 0.694554 0.737629
Si Si3 0.531988 0.730734 0.925156
Si Si4 0.078691 0.824859 0.359156
Si Si5 0.860505 0.903995 0.286153
Si Si6 0.270541 0.279823 0.170950
Si Si7 0.413233 0.919432 0.307355
O O1 0.259408 0.447548 0.146289
O O2 0.308563 0.733891 0.200157
O O3 0.688259 0.054417 0.244089
O O4 0.211290 0.714861 0.935728
O O5 0.773943 0.322437 0.652607
O O6 0.981747 0.816804 0.635704
O O7 0.220695 0.499774 0.794344
O O8 0.607660 0.902233 0.814666
O O9 0.500000 0.500000 0.000000
O O10 0.768362 0.957015 0.102900
O O11 0.008434 0.881625 0.369141
O O12 0.250938 0.108612 0.306220
O O13 0.268884 0.841503 0.527442
O O14 0.566346 0.571222 0.233959
O O15 0.000000 0.000000 0.000000
#
# Coordination Sequence:
#
# PCOD9016102 Si02
#       7
#     2   2   2   2   2   2   2
#     4  10  23  39  65 100 127 173 224 271 321 389
#     4  10  22  39  65  98 129 171 223 270 325 384
#     4  10  22  41  67  95 126 172 224 267 320 392
#     4  11  25  40  64 100 132 176 213 269 344 378
#     4  10  21  42  66  95 129 169 228 271 308 394
#     4  11  23  40  68  96 130 174 225 269 320 391
#     4  12  24  42  66  96 141 168 213 278 334 394
#
# _framework density 27.177612
#
# number of rings (size 3 to 8) (size 9 to 14) (size 15 to 20)
#    0.000    1.429    2.857    1.714    4.000    3.429 
#    0.000    2.857    0.000    6.857    0.000    0.000 
#    0.000    0.000    0.000    0.000    0.000    0.000 
#
# Total GULP energy -78359.561381 kJ/mol
# GULP energy per Si atom -5597.111527 kJ/mol
# Density = 2.711575 g / cm^3
# Si number density = 27.177612 Si / 1000 Ang^3
#
#
#
# Elastic Constant Matrix: (Units=GPa)
#
#
# Indices 1 2 3 4 5 6 
#
# 1 80.2508 42.0749 29.1554 -1.8701 4.3899 4.5461
# 2 42.0749 168.0193 25.8041 1.7100 15.2194 15.1357
# 3 29.1554 25.8041 123.1292 9.5363 25.3914 9.5854
# 4 -1.8701 1.7100 9.5363 39.3345 4.5584 14.4001
# 5 4.3899 15.2194 25.3914 4.5584 24.3124 7.7687
# 6 4.5461 15.1357 9.5854 14.4001 7.7687 64.0122
#
#
#
# Elastic Compliance Matrix: (Units=1/GPa)
#
#
# Indices 1 2 3 4 5 6 
#
# 1 0.015568 -0.003594 -0.003662 0.001586 0.003107 -0.000441
# 2 -0.003594 0.007264 0.000170 0.000313 -0.003784 -0.001099
# 3 -0.003662 0.000170 0.011347 -0.001745 -0.011050 0.000254
# 4 0.001586 0.000313 -0.001745 0.028362 -0.002042 -0.006058
# 5 0.003107 -0.003784 -0.011050 -0.002042 0.056149 -0.004026
# 6 -0.000441 -0.001099 0.000254 -0.006058 -0.004026 0.017727
#
#
# Mechanical properties :
#
#
# Convention : Reuss Voigt Hill
#
# Bulk Modulus (GPa) = 49.98237 62.82978 56.40608
# Shear Modulus (GPa) = 31.79506 43.82281 37.80893
#
# Velocity S-wave (km/s) = 3.42409 4.01990 3.73390
# Velocity P-wave (km/s) = 5.83639 6.68689 6.27607
#
# Compressibility (1/GPa) = 0.02000705
#
# Stress axis : x y z
#
# Youngs Moduli (GPa) = 64.23580 137.66435 88.12780
#
# Poissons Ratio (x) = 0.49474 0.32275
# Poissons Ratio (y) = 0.23085 -0.01500
# Poissons Ratio (z) = 0.23525 -0.02343
#
# Static dielectric constant tensor:
#      x y z
#    x 2.295480 -0.097770 -0.138330 
#    y -0.097770 2.112040 0.099380 
#    z -0.138330 0.099380 2.195230 
# 
# From -- ./inp_files/575951.got.cif
#   From: 2010.05.17/outbox.cif.g08.bks.cpg/sg2_288_cif.got.tgz:575951.got - 2010.06.03 11:33:40.
