data_PCOD9016341
_publ_section_title
;
Structure prediction by ZEFSAII (Michael W. Deem and Ramdas Pophale) SiO2 
 PCOD9016341
Probable space group: P -1
;
_chemical_formula_sum "Si O2"
_cell_formula_units_Z 16
_cell_length_a 9.330458
_cell_length_b 9.450161
_cell_length_c 16.426079
_cell_angle_alpha 123.659199
_cell_angle_beta 50.456220
_cell_angle_gamma 133.083039
_cell_volume 797.200467
_symmetry_space_group_name_H-M "P -1"
_symmetry_group_IT_number 2
_symmetry_cell_setting 'triclinic'
loop_
_space_group_symop_operation_xyz
x,y,z
-x,-y,-z
loop_
_atom_site_type_symbol
_atom_site_label
_atom_site_fract_x
_atom_site_fract_y
_atom_site_fract_z
Si Si1 0.110567 0.604490 0.702137
Si Si2 0.817393 0.531976 0.535539
Si Si3 0.242343 0.876757 0.038563
Si Si4 0.203242 0.758123 0.187283
Si Si5 0.936302 0.050266 0.195779
Si Si6 0.689668 0.065497 0.148220
Si Si7 0.988299 0.984110 0.595899
Si Si8 0.597128 0.859114 0.400475
O O1 0.184873 0.519133 0.575618
O O2 0.000136 0.722483 0.742053
O O3 0.308871 0.776152 0.738042
O O4 0.941384 0.435837 0.769190
O O5 0.879394 0.757179 0.591290
O O6 0.592279 0.367610 0.603225
O O7 0.000000 0.500000 0.500000
O O8 0.123759 0.003755 0.128808
O O9 0.159764 0.724620 0.095393
O O10 0.500000 0.000000 0.000000
O O11 0.216707 0.822522 0.935343
O O12 0.458869 0.871184 0.151743
O O13 0.135463 0.915085 0.289407
O O14 0.844363 0.008658 0.123478
O O15 0.734607 0.924367 0.288695
O O16 0.000000 0.000000 0.500000
O O17 0.231403 0.100979 0.578930
O O18 0.500000 0.000000 0.500000
#
# Coordination Sequence:
#
# PCOD9016341 Si02
#       8
#     2   2   2   2   2   2   2   2
#     4  10  23  39  66  93 133 168 227 253 324 401
#     4  12  25  40  65  97 135 181 222 261 323 400
#     4  10  21  44  71  94 129 168 217 284 334 377
#     4  11  23  43  64  98 131 171 213 277 328 388
#     4  10  21  42  67  94 130 173 217 264 324 391
#     4   9  23  41  70  89 129 169 217 272 330 384
#     4  12  26  40  65  95 140 172 219 270 331 383
#     4  12  23  42  65  96 136 176 220 269 318 394
#
# _framework density 20.070233000000002
#
# number of rings (size 3 to 8) (size 9 to 14) (size 15 to 20)
#    0.750    0.500    5.000    0.375    5.250    2.000 
#    0.000    2.500    2.750    0.000    0.000    0.000 
#    0.000    0.000    0.000    0.000    0.000    0.000 
#
# Total GULP energy -89245.149562 kJ/mol
# GULP energy per Si atom -5577.821848 kJ/mol
# Density = 2.002455 g / cm^3
# Si number density = 20.070233 Si / 1000 Ang^3
#
#
#
# Elastic Constant Matrix: (Units=GPa)
#
#
# Indices 1 2 3 4 5 6 
#
# 1 99.9717 35.7344 40.0215 -15.2810 10.2195 -1.0641
# 2 35.7344 109.0241 8.2435 -30.0693 -8.6157 -9.2421
# 3 40.0215 8.2435 80.7757 -21.1559 8.5669 -3.8621
# 4 -15.2810 -30.0693 -21.1559 28.0642 -8.4152 9.3539
# 5 10.2195 -8.6157 8.5669 -8.4152 45.1070 0.7059
# 6 -1.0641 -9.2421 -3.8621 9.3539 0.7059 19.3320
#
#
#
# Elastic Compliance Matrix: (Units=1/GPa)
#
#
# Indices 1 2 3 4 5 6 
#
# 1 0.014897 -0.006118 -0.007723 -0.005130 -0.004018 -0.001018
# 2 -0.006118 0.017625 0.006452 0.023578 0.007962 -0.002321
# 3 -0.007723 0.006452 0.020306 0.019883 0.002882 -0.003009
# 4 -0.005130 0.023578 0.019883 0.088187 0.018786 -0.028394
# 5 -0.004018 0.007962 0.002882 0.018786 0.027651 -0.005938
# 6 -0.001018 -0.002321 -0.003009 -0.028394 -0.005938 0.063916
#
#
# Mechanical properties :
#
#
# Convention : Reuss Voigt Hill
#
# Bulk Modulus (GPa) = 26.28023 50.86337 38.57180
# Shear Modulus (GPa) = 19.22764 32.21877 25.72320
#
# Velocity S-wave (km/s) = 3.09854 4.01097 3.58391
# Velocity P-wave (km/s) = 5.09155 6.84457 6.03208
#
# Compressibility (1/GPa) = 0.03805141
#
# Stress axis : x y z
#
# Youngs Moduli (GPa) = 67.12813 56.73759 49.24707
#
# Poissons Ratio (x) = 0.34710 0.38033
# Poissons Ratio (y) = 0.41066 -0.31776
# Poissons Ratio (z) = 0.51842 -0.36609
#
# Static dielectric constant tensor:
#      x y z
#    x 1.813190 0.047820 0.019670 
#    y 0.047820 1.751160 0.021240 
#    z 0.019670 0.021240 1.754740 
# 
# From -- ./inp_files/556319.got.cif
#   From: 2010.05.17/outbox.cif.g08.bks.cpg/sg2_279_cif.got.tgz:556319.got - 2010.06.03 11:33:40.
