data_PCOD9016288
_publ_section_title
;
Structure prediction by ZEFSAII (Michael W. Deem and Ramdas Pophale) SiO2 
 PCOD9016288
Probable space group: P -1
;
_chemical_formula_sum "Si O2"
_cell_formula_units_Z 15
_cell_length_a 8.924082
_cell_length_b 22.555891
_cell_length_c 9.524881
_cell_angle_alpha 27.313323
_cell_angle_beta 134.237456
_cell_angle_gamma 130.318112
_cell_volume 628.144339
_symmetry_space_group_name_H-M "P -1"
_symmetry_group_IT_number 2
_symmetry_cell_setting 'triclinic'
loop_
_space_group_symop_operation_xyz
x,y,z
-x,-y,-z
loop_
_atom_site_type_symbol
_atom_site_label
_atom_site_fract_x
_atom_site_fract_y
_atom_site_fract_z
Si Si1 0.116523 0.037573 0.141957
Si Si2 0.029725 0.137013 0.153301
Si Si3 0.033672 0.640718 0.157886
Si Si4 0.308447 0.276441 0.645332
Si Si5 0.856116 0.240625 0.280662
Si Si6 0.563079 0.652639 0.716453
Si Si7 0.500000 0.500000 0.500000
Si Si8 0.493265 0.271541 0.188363
O O1 0.983282 0.109827 0.016401
O O2 0.148138 0.894846 0.519956
O O3 0.311289 0.136355 0.015697
O O4 0.000000 0.000000 0.000000
O O5 0.277608 0.183177 0.219918
O O6 0.000000 0.000000 0.500000
O O7 0.919326 0.250767 0.920626
O O8 0.000000 0.500000 0.500000
O O9 0.177633 0.651025 0.088864
O O10 0.808078 0.671659 0.882077
O O11 0.449551 0.294345 0.560511
O O12 0.357102 0.386590 0.559057
O O13 0.070197 0.278239 0.426112
O O14 0.674102 0.224995 0.307195
O O15 0.447762 0.717146 0.633023
O O16 0.500000 0.500000 0.000000
O O17 0.466468 0.413551 0.808212
#
# Coordination Sequence:
#
# PCOD9016288 Si02
#       8
#     2   2   2   2   2   2   1   2
#     4  10  21  42  67  91 128 182 230 272 339 400
#     4  11  22  44  68  94 133 185 223 275 341 412
#     4  10  23  41  67  99 134 172 226 279 339 402
#     4  10  22  42  69  90 135 181 222 278 335 415
#     4  10  23  43  65 100 134 174 227 286 336 400
#     4  10  21  43  60  90 133 177 209 271 345 403
#     4  12  22  40  66 102 126 182 220 268 344 412
#     4  11  25  39  68  97 133 171 229 276 345 401
#
# _framework density 23.879860000000001
#
# number of rings (size 3 to 8) (size 9 to 14) (size 15 to 20)
#    0.000    1.600    4.000    0.000    5.600    1.067 
#    4.800    0.667    0.000    0.000    0.000    0.000 
#    0.000    0.000    0.000    0.000    0.000    0.000 
#
# Total GULP energy -83605.063285 kJ/mol
# GULP energy per Si atom -5573.670886 kJ/mol
# Density = 2.382551 g / cm^3
# Si number density = 23.879860 Si / 1000 Ang^3
#
#
#
# Elastic Constant Matrix: (Units=GPa)
#
#
# Indices 1 2 3 4 5 6 
#
# 1 93.4563 42.0336 1.8847 6.0867 -16.1743 -4.1809
# 2 42.0336 158.6673 38.6815 -12.4008 -12.1805 -20.0942
# 3 1.8847 38.6815 90.9566 -17.9359 -31.6746 4.0079
# 4 6.0867 -12.4008 -17.9359 44.5653 4.8883 -15.0809
# 5 -16.1743 -12.1805 -31.6746 4.8883 46.0553 4.1247
# 6 -4.1809 -20.0942 4.0079 -15.0809 4.1247 43.7242
#
#
#
# Elastic Compliance Matrix: (Units=1/GPa)
#
#
# Indices 1 2 3 4 5 6 
#
# 1 0.014005 -0.004702 0.003475 -0.003577 0.006714 -0.003008
# 2 -0.004702 0.009461 -0.004559 0.003800 -0.003219 0.005930
# 3 0.003475 -0.004559 0.017881 0.002895 0.012324 -0.003566
# 4 -0.003577 0.003800 0.002895 0.029294 -0.002397 0.011469
# 5 0.006714 -0.003219 0.012324 -0.002397 0.032474 -0.005857
# 6 -0.003008 0.005930 -0.003566 0.011469 -0.005857 0.030144
#
#
# Mechanical properties :
#
#
# Convention : Reuss Voigt Hill
#
# Bulk Modulus (GPa) = 33.58689 56.47554 45.03122
# Shear Modulus (GPa) = 32.30882 44.23432 38.27157
#
# Velocity S-wave (km/s) = 3.68227 4.30859 4.00768
# Velocity P-wave (km/s) = 5.67224 6.96082 6.34931
#
# Compressibility (1/GPa) = 0.02977352
#
# Stress axis : x y z
#
# Youngs Moduli (GPa) = 71.40053 105.70174 55.92595
#
# Poissons Ratio (x) = 0.49706 -0.19433
# Poissons Ratio (y) = 0.33576 0.25497
# Poissons Ratio (z) = -0.24810 0.48189
#
# Static dielectric constant tensor:
#      x y z
#    x 2.047410 -0.048500 0.078440 
#    y -0.048500 1.933020 -0.008260 
#    z 0.078440 -0.008260 2.016440 
# 
# From -- ./inp_files/222880.got.cif
#   From: 2010.05.17/outbox.cif.g08.bks.cpg/sg2_112_cif.got.tgz:222880.got - 2010.06.03 11:33:40.
