data_PCOD9016874
_publ_section_title
;
Structure prediction by ZEFSAII (Michael W. Deem and Ramdas Pophale) SiO2 
 PCOD9016874
Probable space group: P -1
;
_chemical_formula_sum "Si O2"
_cell_formula_units_Z 10
_cell_length_a 8.070935
_cell_length_b 9.012293
_cell_length_c 10.334385
_cell_angle_alpha 33.703731
_cell_angle_beta 108.694281
_cell_angle_gamma 99.336538
_cell_volume 387.236553
_symmetry_space_group_name_H-M "P -1"
_symmetry_group_IT_number 2
_symmetry_cell_setting 'triclinic'
loop_
_space_group_symop_operation_xyz
x,y,z
-x,-y,-z
loop_
_atom_site_type_symbol
_atom_site_label
_atom_site_fract_x
_atom_site_fract_y
_atom_site_fract_z
Si Si1 0.492794 0.733834 0.432724
Si Si2 0.836444 0.840623 0.067611
Si Si3 0.191220 0.051175 0.728567
Si Si4 0.890870 0.749299 0.870410
Si Si5 0.421518 0.454169 0.152798
O O1 0.500000 0.500000 0.500000
O O2 0.347942 0.979651 0.161483
O O3 0.442067 0.644430 0.626122
O O4 0.691953 0.797335 0.444592
O O5 0.892858 0.655630 0.089925
O O6 0.806190 0.793489 0.245425
O O7 0.000000 0.000000 0.000000
O O8 0.990831 0.002400 0.694267
O O9 0.304340 0.737563 0.976335
O O10 0.695897 0.770716 0.747389
O O11 0.000000 0.500000 0.000000
O O12 0.500000 0.500000 0.000000
#
# Coordination Sequence:
#
# PCOD9016874 Si02
#       5
#     2   2   2   2   2
#     4  12  25  41  72 105 133 182 235 274 342 409
#     4  10  21  42  69  97 139 180 223 281 339 407
#     4  10  22  43  67  96 140 180 225 281 335 412
#     4   9  21  41  66  97 134 181 219 274 349 393
#     4  11  24  42  69 101 140 178 223 288 342 399
#
# _framework density 25.824009
#
# number of rings (size 3 to 8) (size 9 to 14) (size 15 to 20)
#    0.000    1.600    2.000    1.800    2.800    4.000 
#    0.000   14.000    0.000    0.000    0.000    0.000 
#    0.000    0.000    0.000    0.000    0.000    0.000 
#
# Total GULP energy -55841.785050 kJ/mol
# GULP energy per Si atom -5584.178505 kJ/mol
# Density = 2.576523 g / cm^3
# Si number density = 25.824009 Si / 1000 Ang^3
#
#
#
# Elastic Constant Matrix: (Units=GPa)
#
#
# Indices 1 2 3 4 5 6 
#
# 1 141.1317 44.8785 39.1952 26.5144 6.3595 -1.9467
# 2 44.8785 188.2695 28.8839 22.9208 -7.5706 -26.1080
# 3 39.1952 28.8839 26.8265 19.7552 5.5151 1.0353
# 4 26.5144 22.9208 19.7552 51.9842 -6.1894 0.9571
# 5 6.3595 -7.5706 5.5151 -6.1894 30.3184 10.6543
# 6 -1.9467 -26.1080 1.0353 0.9571 10.6543 58.9478
#
#
#
# Elastic Compliance Matrix: (Units=1/GPa)
#
#
# Indices 1 2 3 4 5 6 
#
# 1 0.011992 -0.000052 -0.018377 0.000979 0.000828 0.000530
# 2 -0.000052 0.007054 -0.008348 0.000317 0.002358 0.002838
# 3 -0.018377 -0.008348 0.096572 -0.026047 -0.020453 -0.001880
# 4 0.000979 0.000317 -0.026047 0.029887 0.011385 -0.001913
# 5 0.000828 0.002358 -0.020453 0.011385 0.041651 -0.006282
# 6 0.000530 0.002838 -0.001880 -0.001913 -0.006282 0.019438
#
#
# Mechanical properties :
#
#
# Convention : Reuss Voigt Hill
#
# Bulk Modulus (GPa) = 16.11169 64.68255 40.39712
# Shear Modulus (GPa) = 17.80412 44.46808 31.13610
#
# Velocity S-wave (km/s) = 2.62857 4.15416 3.47609
# Velocity P-wave (km/s) = 3.93257 6.93623 5.63810
#
# Compressibility (1/GPa) = 0.06206674
#
# Stress axis : x y z
#
# Youngs Moduli (GPa) = 83.39144 141.75770 10.35496
#
# Poissons Ratio (x) = 0.00730 0.19029
# Poissons Ratio (y) = 0.00430 0.08644
# Poissons Ratio (z) = 1.53245 1.18333
#
# Static dielectric constant tensor:
#      x y z
#    x 2.171880 0.012730 0.024600 
#    y 0.012730 2.011180 -0.033500 
#    z 0.024600 -0.033500 2.045110 
# 
# From -- ./inp_files/378089.got.cif
#   From: 2010.05.17/outbox.cif.g08.bks.cpg/sg2_190_cif.got.tgz:378089.got - 2010.06.03 11:33:40.
