data_PCOD9016939
_publ_section_title
;
Structure prediction by ZEFSAII (Michael W. Deem and Ramdas Pophale) SiO2 
 PCOD9016939
Probable space group: P -1
;
_chemical_formula_sum "Si O2"
_cell_formula_units_Z 14
_cell_length_a 5.052720
_cell_length_b 19.371881
_cell_length_c 9.039419
_cell_angle_alpha 136.702619
_cell_angle_beta 109.311435
_cell_angle_gamma 72.531219
_cell_volume 570.207006
_symmetry_space_group_name_H-M "P -1"
_symmetry_group_IT_number 2
_symmetry_cell_setting 'triclinic'
loop_
_space_group_symop_operation_xyz
x,y,z
-x,-y,-z
loop_
_atom_site_type_symbol
_atom_site_label
_atom_site_fract_x
_atom_site_fract_y
_atom_site_fract_z
Si Si1 0.111769 0.221585 0.406954
Si Si2 0.916934 0.926015 0.562662
Si Si3 0.473399 0.275276 0.310337
Si Si4 0.630606 0.494503 0.351226
Si Si5 0.827357 0.603911 0.080638
Si Si6 0.683517 0.127003 0.716168
Si Si7 0.007325 0.313857 0.060445
O O1 0.807743 0.257065 0.336077
O O2 0.066865 0.128694 0.362530
O O3 0.341759 0.203219 0.292626
O O4 0.209724 0.313751 0.668691
O O5 0.647236 0.882759 0.365310
O O6 0.185573 0.903695 0.470528
O O7 0.831213 0.045884 0.731521
O O8 0.391514 0.390753 0.529042
O O9 0.301725 0.270799 0.119744
O O10 0.500000 0.500000 0.500000
O O11 0.917227 0.421826 0.286130
O O12 0.441640 0.434094 0.109842
O O13 0.000000 0.500000 0.000000
O O14 0.981700 0.662820 0.073726
O O15 0.782264 0.235946 0.931169
#
# Coordination Sequence:
#
# PCOD9016939 Si02
#       7
#     2   2   2   2   2   2   2
#     4  12  25  44  66 102 134 174 225 282 334 385
#     4  10  21  42  70 102 135 167 217 289 334 391
#     4  12  27  43  65  94 142 181 220 270 341 398
#     4  12  25  44  65  95 138 181 224 276 332 401
#     4  12  25  39  67  96 131 170 229 276 322 392
#     4  10  22  41  71 103 130 172 224 273 342 394
#     4  12  26  43  67  96 133 183 224 274 331 412
#
# _framework density 24.552485999999998
#
# number of rings (size 3 to 8) (size 9 to 14) (size 15 to 20)
#    0.000    0.571    4.286    3.857    2.000    1.143 
#    0.000    1.429    0.000    0.000    0.000    0.000 
#    0.000    0.000    0.000    0.000    0.000    0.000 
#
# Total GULP energy -78455.972276 kJ/mol
# GULP energy per Si atom -5603.998020 kJ/mol
# Density = 2.449660 g / cm^3
# Si number density = 24.552486 Si / 1000 Ang^3
#
#
#
# Elastic Constant Matrix: (Units=GPa)
#
#
# Indices 1 2 3 4 5 6 
#
# 1 72.5739 0.4638 12.8940 -15.7826 2.1823 12.9635
# 2 0.4638 143.9567 21.0757 3.5256 -3.6611 21.6358
# 3 12.8940 21.0757 48.2905 -5.0735 7.6568 3.7313
# 4 -15.7826 3.5256 -5.0735 40.9350 6.8290 3.2991
# 5 2.1823 -3.6611 7.6568 6.8290 32.4313 -4.4780
# 6 12.9635 21.6358 3.7313 3.2991 -4.4780 42.9866
#
#
#
# Elastic Compliance Matrix: (Units=1/GPa)
#
#
# Indices 1 2 3 4 5 6 
#
# 1 0.017095 0.001151 -0.003448 0.006991 -0.002540 -0.006237
# 2 0.001151 0.008144 -0.003839 -0.000641 0.001341 -0.003924
# 3 -0.003448 -0.003839 0.024715 0.003196 -0.006726 -0.000119
# 4 0.006991 -0.000641 0.003196 0.029359 -0.008193 -0.005170
# 5 -0.002540 0.001341 -0.006726 -0.008193 0.035156 0.004966
# 6 -0.006237 -0.003924 -0.000119 -0.005170 0.004966 0.028043
#
#
# Mechanical properties :
#
#
# Convention : Reuss Voigt Hill
#
# Bulk Modulus (GPa) = 26.53645 37.07647 31.80646
# Shear Modulus (GPa) = 29.87839 38.62975 34.25407
#
# Velocity S-wave (km/s) = 3.49222 3.97086 3.73920
# Velocity P-wave (km/s) = 5.20503 6.01309 5.62359
#
# Compressibility (1/GPa) = 0.03768401
#
# Stress axis : x y z
#
# Youngs Moduli (GPa) = 58.49683 122.78335 40.46053
#
# Poissons Ratio (x) = -0.14135 0.13951
# Poissons Ratio (y) = -0.06734 0.15532
# Poissons Ratio (z) = 0.20169 0.47133
#
# Static dielectric constant tensor:
#      x y z
#    x 1.991600 0.007710 0.027090 
#    y 0.007710 1.970520 0.015640 
#    z 0.027090 0.015640 1.988940 
# 
# From -- ./inp_files/35265.got.cif
#   From: 2010.05.17/outbox.cif.g08.bks.cpg/sg2_18_cif.got.tgz:35265.got - 2010.06.03 11:33:40.
