data_PCOD9016698
_publ_section_title
;
Structure prediction by ZEFSAII (Michael W. Deem and Ramdas Pophale) SiO2 
 PCOD9016698
Probable space group: P -1
;
_chemical_formula_sum "Si O2"
_cell_formula_units_Z 16
_cell_length_a 12.080551
_cell_length_b 19.365210
_cell_length_c 8.475427
_cell_angle_alpha 48.314780
_cell_angle_beta 103.037639
_cell_angle_gamma 140.335956
_cell_volume 755.591073
_symmetry_space_group_name_H-M "P -1"
_symmetry_group_IT_number 2
_symmetry_cell_setting 'triclinic'
loop_
_space_group_symop_operation_xyz
x,y,z
-x,-y,-z
loop_
_atom_site_type_symbol
_atom_site_label
_atom_site_fract_x
_atom_site_fract_y
_atom_site_fract_z
Si Si1 0.796738 0.471016 0.114597
Si Si2 0.606991 0.519397 0.150013
Si Si3 0.593013 0.919671 0.503327
Si Si4 0.767983 0.851190 0.234128
Si Si5 0.480309 0.186200 0.997781
Si Si6 0.983237 0.081980 0.263012
Si Si7 0.068543 0.484832 0.258567
Si Si8 0.380123 0.925777 0.237029
O O1 0.744145 0.528001 0.105424
O O2 0.574020 0.258731 0.379630
O O3 0.991662 0.538029 0.128689
O O4 0.846611 0.507422 0.886628
O O5 0.402793 0.342858 0.457182
O O6 0.500000 0.500000 0.000000
O O7 0.779648 0.708073 0.002163
O O8 0.548743 0.862109 0.756539
O O9 0.518721 0.970262 0.351330
O O10 0.836154 0.057666 0.337783
O O11 0.846492 0.962280 0.245264
O O12 0.633270 0.803769 0.121674
O O13 0.000000 0.000000 0.000000
O O14 0.370338 0.026163 0.115705
O O15 0.736732 0.376628 0.766548
O O16 0.000000 0.000000 0.500000
O O17 0.854204 0.281393 0.541053
O O18 0.500000 0.000000 0.000000
#
# Coordination Sequence:
#
# PCOD9016698 Si02
#       8
#     2   2   2   2   2   2   2   2
#     4   9  19  42  70 103 138 178 240 287 347 422
#     4  12  26  44  77 107 135 190 240 297 367 427
#     4  10  21  42  68  99 141 185 234 286 346 423
#     4  12  28  49  69 105 147 182 238 302 356 428
#     4  11  25  42  68  99 140 187 232 287 360 418
#     4  12  24  45  74 103 138 184 237 298 358 422
#     4   9  22  41  67 100 143 183 225 291 344 419
#     4  11  24  39  64 103 143 184 234 281 349 421
#
# _framework density 21.175474000000001
#
# number of rings (size 3 to 8) (size 9 to 14) (size 15 to 20)
#    0.000    1.250    2.500    2.625    5.250    4.000 
#    0.000    0.000    0.000    0.000    0.000    0.000 
#    0.000    0.000    0.000    0.000    0.000    0.000 
#
# Total GULP energy -89205.547673 kJ/mol
# GULP energy per Si atom -5575.346730 kJ/mol
# Density = 2.112728 g / cm^3
# Si number density = 21.175474 Si / 1000 Ang^3
#
#
#
# Elastic Constant Matrix: (Units=GPa)
#
#
# Indices 1 2 3 4 5 6 
#
# 1 26.8958 -40.8890 20.9461 14.2312 15.2048 5.8830
# 2 -40.8890 5.5213 7.5956 13.3536 31.4180 7.3868
# 3 20.9461 7.5956 135.5749 -8.5724 -2.0331 8.3923
# 4 14.2312 13.3536 -8.5724 26.2247 -15.2562 9.2368
# 5 15.2048 31.4180 -2.0331 -15.2562 5.5442 5.8631
# 6 5.8830 7.3868 8.3923 9.2368 5.8631 32.5702
#
#
#
# Elastic Compliance Matrix: (Units=1/GPa)
#
#
# Indices 1 2 3 4 5 6 
#
# 1 0.015412 -0.005696 -0.000819 0.008097 0.019481 -0.007084
# 2 -0.005696 0.007834 0.002117 0.013692 0.018718 -0.008546
# 3 -0.000819 0.002117 0.007499 0.000687 -0.003096 -0.001902
# 4 0.008097 0.013692 0.000687 0.030467 -0.001918 -0.013040
# 5 0.019481 0.018718 -0.003096 -0.001918 0.026249 -0.011147
# 6 -0.007084 -0.008546 -0.001902 -0.013040 -0.011147 0.040115
#
#
# Mechanical properties :
#
#
# Convention : Reuss Voigt Hill
#
# Bulk Modulus (GPa) = 45.56253 15.92191 30.74222
# Shear Modulus (GPa) = 34.79725 24.89044 29.84385
#
# Velocity S-wave (km/s) = 4.05814 3.43218 3.75822
# Velocity P-wave (km/s) = 6.59707 4.82098 5.77768
#
# Compressibility (1/GPa) = 0.02194786
#
# Stress axis : x y z
#
# Youngs Moduli (GPa) = 64.88461 127.64830 133.35600
#
# Poissons Ratio (x) = 0.72703 0.10927
# Poissons Ratio (y) = 0.36956 -0.28225
# Poissons Ratio (z) = 0.05317 -0.27017
#
# Static dielectric constant tensor:
#      x y z
#    x 1.809010 -0.015350 -0.032190 
#    y -0.015350 1.728140 -0.007520 
#    z -0.032190 -0.007520 1.807650 
# 
# From -- ./inp_files/282772.got.cif
#   From: 2010.05.17/outbox.cif.g08.bks.cpg/sg2_142_cif.got.tgz:282772.got - 2010.06.03 11:33:40.
