data_PCOD9016704
_publ_section_title
;
Structure prediction by ZEFSAII (Michael W. Deem and Ramdas Pophale) SiO2 
 PCOD9016704
Probable space group: P -1
;
_chemical_formula_sum "Si O2"
_cell_formula_units_Z 15
_cell_length_a 8.770556
_cell_length_b 13.064782
_cell_length_c 15.302654
_cell_angle_alpha 37.685762
_cell_angle_beta 37.750867
_cell_angle_gamma 45.905296
_cell_volume 644.654495
_symmetry_space_group_name_H-M "P -1"
_symmetry_group_IT_number 2
_symmetry_cell_setting 'triclinic'
loop_
_space_group_symop_operation_xyz
x,y,z
-x,-y,-z
loop_
_atom_site_type_symbol
_atom_site_label
_atom_site_fract_x
_atom_site_fract_y
_atom_site_fract_z
Si Si1 0.238286 0.660745 0.175987
Si Si2 0.688069 0.844306 0.256658
Si Si3 0.511087 0.112617 0.002194
Si Si4 0.922001 0.613327 0.652454
Si Si5 0.219478 0.472608 0.047602
Si Si6 0.060487 0.733301 0.800806
Si Si7 0.500000 0.500000 0.500000
Si Si8 0.612994 0.988970 0.553821
O O1 0.167950 0.473046 0.335036
O O2 0.990329 0.782523 0.169075
O O3 0.312379 0.744756 0.175556
O O4 0.504953 0.643524 0.013839
O O5 0.574835 0.676183 0.395115
O O6 0.586771 0.935277 0.332224
O O7 0.607784 0.985224 0.123374
O O8 0.224440 0.207557 0.078799
O O9 0.500000 0.000000 0.000000
O O10 0.845438 0.492386 0.846537
O O11 0.218793 0.606160 0.528333
O O12 0.757390 0.795154 0.628455
O O13 0.981889 0.391333 0.174791
O O14 0.216137 0.632225 0.877728
O O15 0.179431 0.891151 0.613572
O O16 0.500000 0.000000 0.500000
#
# Coordination Sequence:
#
# PCOD9016704 Si02
#       8
#     2   2   2   2   2   2   1   2
#     4  10  23  43  67 104 134 180 232 292 350 417
#     4  11  25  47  70 103 146 187 235 290 357 422
#     4  11  25  42  71 103 139 180 232 297 354 416
#     4  11  23  43  71  99 141 186 234 285 360 420
#     4  10  21  42  69 100 134 185 231 294 346 417
#     4  10  23  40  65 102 136 176 237 285 344 416
#     4  10  24  44  70 104 136 194 226 290 352 430
#     4  12  26  45  70 103 143 190 234 291 354 426
#
# _framework density 23.268277999999999
#
# number of rings (size 3 to 8) (size 9 to 14) (size 15 to 20)
#    0.000    1.333    0.000    4.800    5.600    2.667 
#    4.800    3.333    0.000    0.000    0.000    0.000 
#    0.000    0.000    0.000    0.000    0.000    0.000 
#
# Total GULP energy -83563.089890 kJ/mol
# GULP energy per Si atom -5570.872659 kJ/mol
# Density = 2.321532 g / cm^3
# Si number density = 23.268278 Si / 1000 Ang^3
#
#
#
# Elastic Constant Matrix: (Units=GPa)
#
#
# Indices 1 2 3 4 5 6 
#
# 1 -3.8026 45.4898 62.7914 70.9017 45.2148 -44.6007
# 2 45.4898 150.6456 41.5684 -3.4517 10.6153 -24.7942
# 3 62.7914 41.5684 51.0058 -15.6824 -22.3853 8.9661
# 4 70.9017 -3.4517 -15.6824 -6.7788 -31.0505 13.3472
# 5 45.2148 10.6153 -22.3853 -31.0505 3.6310 23.3144
# 6 -44.6007 -24.7942 8.9661 13.3472 23.3144 27.9706
#
#
#
# Elastic Compliance Matrix: (Units=1/GPa)
#
#
# Indices 1 2 3 4 5 6 
#
# 1 0.006958 -0.004431 0.002482 0.004100 0.011876 -0.005483
# 2 -0.004431 0.011484 -0.006063 0.006626 -0.006600 0.007397
# 3 0.002482 -0.006063 0.017769 -0.012068 -0.000428 -0.000998
# 4 0.004100 0.006626 -0.012068 0.027582 -0.016320 0.016721
# 5 0.011876 -0.006600 -0.000428 -0.016320 0.029936 -0.003942
# 6 -0.005483 0.007397 -0.000998 0.016721 -0.003942 0.029191
#
#
# Mechanical properties :
#
#
# Convention : Reuss Voigt Hill
#
# Bulk Modulus (GPa) = 49.54094 55.28312 52.41203
# Shear Modulus (GPa) = 34.32343 8.16452 21.24397
#
# Velocity S-wave (km/s) = 3.84489 1.87523 3.02487
# Velocity P-wave (km/s) = 6.40690 5.33847 5.89693
#
# Compressibility (1/GPa) = 0.02018532
#
# Stress axis : x y z
#
# Youngs Moduli (GPa) = 143.71350 87.08132 56.27821
#
# Poissons Ratio (x) = 0.38589 -0.13967
# Poissons Ratio (y) = 0.63685 0.34122
# Poissons Ratio (z) = -0.35667 0.52798
#
# Static dielectric constant tensor:
#      x y z
#    x 2.066390 0.190910 -0.042530 
#    y 0.190910 1.968930 -0.050010 
#    z -0.042530 -0.050010 1.905700 
# 
# From -- ./inp_files/561327.got.cif
#   From: 2010.05.17/outbox.cif.g08.bks.cpg/sg2_281_cif.got.tgz:561327.got - 2010.06.03 11:33:40.
