data_PCOD9016207
_publ_section_title
;
Structure prediction by ZEFSAII (Michael W. Deem and Ramdas Pophale) SiO2 
 PCOD9016207
Probable space group: P -1
;
_chemical_formula_sum "Si O2"
_cell_formula_units_Z 14
_cell_length_a 20.894669
_cell_length_b 13.426807
_cell_length_c 13.473375
_cell_angle_alpha 36.722380
_cell_angle_beta 155.720755
_cell_angle_gamma 155.341607
_cell_volume 640.430719
_symmetry_space_group_name_H-M "P -1"
_symmetry_group_IT_number 2
_symmetry_cell_setting 'triclinic'
loop_
_space_group_symop_operation_xyz
x,y,z
-x,-y,-z
loop_
_atom_site_type_symbol
_atom_site_label
_atom_site_fract_x
_atom_site_fract_y
_atom_site_fract_z
Si Si1 0.911930 0.549663 0.428992
Si Si2 0.007272 0.146369 0.310657
Si Si3 0.469328 0.047938 0.204486
Si Si4 0.348346 0.770213 0.903376
Si Si5 0.512036 0.302101 0.412045
Si Si6 0.100373 0.068236 0.890014
Si Si7 0.668106 0.611687 0.742702
O O1 0.660543 0.324240 0.292382
O O2 0.939857 0.766910 0.275839
O O3 0.000000 0.500000 0.500000
O O4 0.100112 0.628397 0.705431
O O5 0.238511 0.426207 0.436291
O O6 0.000000 0.000000 0.500000
O O7 0.977067 0.036270 0.247872
O O8 0.784383 0.085865 0.052322
O O9 0.478861 0.887522 0.408339
O O10 0.567531 0.108942 0.183265
O O11 0.379340 0.597954 0.100199
O O12 0.500000 0.000000 0.000000
O O13 0.375854 0.274514 0.334009
O O14 0.359190 0.229425 0.158071
O O15 0.926977 0.825102 0.904432
O O16 0.500000 0.500000 0.500000
#
# Coordination Sequence:
#
# PCOD9016207 Si02
#       7
#     2   2   2   2   2   2   2
#     4  10  21  42  67 100 136 173 231 286 346 413
#     4  12  28  48  70 102 144 189 243 289 348 429
#     4  11  25  46  68 100 142 185 233 290 350 419
#     4  11  23  39  69 104 137 177 228 291 354 412
#     4  12  25  47  73 101 144 185 238 297 348 422
#     4  12  26  45  75 104 141 191 234 291 362 413
#     4  12  22  42  71 105 140 177 233 295 354 413
#
# _framework density 21.860288000000001
#
# number of rings (size 3 to 8) (size 9 to 14) (size 15 to 20)
#    0.000    0.571    1.429    8.571    2.000    2.857 
#    0.000    0.000    0.000    0.000    0.000    0.000 
#    0.000    0.000    0.000    0.000    0.000    0.000 
#
# Total GULP energy -78112.090468 kJ/mol
# GULP energy per Si atom -5579.435033 kJ/mol
# Density = 2.181053 g / cm^3
# Si number density = 21.860288 Si / 1000 Ang^3
#
#
#
# Elastic Constant Matrix: (Units=GPa)
#
#
# Indices 1 2 3 4 5 6 
#
# 1 33.9791 24.2754 5.9092 19.0327 0.2844 11.9758
# 2 24.2754 127.2049 41.8594 13.8345 -3.6379 -1.2305
# 3 5.9092 41.8594 119.2841 16.4959 6.2278 2.2320
# 4 19.0327 13.8345 16.4959 56.8978 -0.9508 -0.0243
# 5 0.2844 -3.6379 6.2278 -0.9508 25.5673 2.6058
# 6 11.9758 -1.2305 2.2320 -0.0243 2.6058 20.2591
#
#
#
# Elastic Compliance Matrix: (Units=1/GPa)
#
#
# Indices 1 2 3 4 5 6 
#
# 1 0.059999 -0.011177 0.004219 -0.018596 -0.000247 -0.036602
# 2 -0.011177 0.011173 -0.003914 0.002193 0.001988 0.007464
# 3 0.004219 -0.003914 0.010244 -0.003479 -0.002872 -0.003495
# 4 -0.018596 0.002193 -0.003479 0.024294 0.001108 0.011396
# 5 -0.000247 0.001988 -0.002872 0.001108 0.040612 -0.004639
# 6 -0.036602 0.007464 -0.003495 0.011396 -0.004639 0.072446
#
#
# Mechanical properties :
#
#
# Convention : Reuss Voigt Hill
#
# Bulk Modulus (GPa) = 16.75799 47.17289 31.96544
# Shear Modulus (GPa) = 19.20099 34.43978 26.82038
#
# Velocity S-wave (km/s) = 2.96691 3.97350 3.50651
# Velocity P-wave (km/s) = 4.40674 6.53282 5.57212
#
# Compressibility (1/GPa) = 0.05967304
#
# Stress axis : x y z
#
# Youngs Moduli (GPa) = 16.66682 89.50280 97.61519
#
# Poissons Ratio (x) = 1.00040 -0.41188
# Poissons Ratio (y) = 0.18629 0.38205
# Poissons Ratio (z) = -0.07032 0.35030
#
# Static dielectric constant tensor:
#      x y z
#    x 1.805320 0.033790 -0.052380 
#    y 0.033790 1.626470 0.066810 
#    z -0.052380 0.066810 1.916770 
# 
# From -- ./inp_files/426982.got.cif
#   From: 2010.05.17/outbox.cif.g08.bks.cpg/sg2_214_cif.got.tgz:426982.got - 2010.06.03 11:33:40.
