data_PCOD9016429
_publ_section_title
;
Structure prediction by ZEFSAII (Michael W. Deem and Ramdas Pophale) SiO2 
 PCOD9016429
Probable space group: P -1
;
_chemical_formula_sum "Si O2"
_cell_formula_units_Z 16
_cell_length_a 9.081663
_cell_length_b 8.867491
_cell_length_c 14.723377
_cell_angle_alpha 139.903934
_cell_angle_beta 103.073039
_cell_angle_gamma 82.231418
_cell_volume 742.524884
_symmetry_space_group_name_H-M "P -1"
_symmetry_group_IT_number 2
_symmetry_cell_setting 'triclinic'
loop_
_space_group_symop_operation_xyz
x,y,z
-x,-y,-z
loop_
_atom_site_type_symbol
_atom_site_label
_atom_site_fract_x
_atom_site_fract_y
_atom_site_fract_z
Si Si1 0.998075 0.268565 0.157284
Si Si2 0.428862 0.721944 0.637255
Si Si3 0.348058 0.905209 0.242865
Si Si4 0.408132 0.418618 0.860705
Si Si5 0.313664 0.606089 0.764569
Si Si6 0.181002 0.091425 0.476490
Si Si7 0.117279 0.529597 0.947385
Si Si8 0.150488 0.724103 0.463952
O O1 0.844649 0.274125 0.196780
O O2 0.974637 0.411599 0.127317
O O3 0.120707 0.443514 0.307816
O O4 0.000000 0.000000 0.000000
O O5 0.500000 0.500000 0.500000
O O6 0.397441 0.679907 0.719197
O O7 0.276084 0.757877 0.575145
O O8 0.553930 0.929273 0.734169
O O9 0.479385 0.767713 0.248221
O O10 0.250677 0.030161 0.361637
O O11 0.230295 0.742412 0.094174
O O12 0.397286 0.627960 0.882859
O O13 0.238647 0.347029 0.842828
O O14 0.500000 0.500000 0.000000
O O15 0.272113 0.326592 0.631098
O O16 0.008545 0.168907 0.480546
O O17 0.193683 0.876837 0.449860
O O18 0.000000 0.500000 0.000000
#
# Coordination Sequence:
#
# PCOD9016429 Si02
#       8
#     2   2   2   2   2   2   2   2
#     4  10  23  41  65  93 128 180 220 271 326 399
#     4  12  26  41  62 102 137 181 211 274 349 404
#     4  11  23  39  68  96 133 169 224 275 338 397
#     4   9  21  42  65  95 130 175 224 278 322 393
#     4  10  22  42  64  94 137 173 224 273 336 403
#     4  10  21  42  67  98 123 178 225 290 327 387
#     4  10  22  43  66  95 128 170 226 275 324 390
#     4  10  24  42  66  95 135 169 232 276 339 394
#
# _framework density 21.548100999999999
#
# number of rings (size 3 to 8) (size 9 to 14) (size 15 to 20)
#    0.000    1.750    1.250    1.500    3.500    8.000 
#    0.000    6.875    0.000    0.000    0.000    0.000 
#    0.000    0.000    0.000    0.000    0.000    0.000 
#
# Total GULP energy -89235.125333 kJ/mol
# GULP energy per Si atom -5577.195333 kJ/mol
# Density = 2.149906 g / cm^3
# Si number density = 21.548101 Si / 1000 Ang^3
#
#
#
# Elastic Constant Matrix: (Units=GPa)
#
#
# Indices 1 2 3 4 5 6 
#
# 1 91.8730 66.2251 43.8783 -14.8881 4.3038 34.1669
# 2 66.2251 95.7945 30.0781 -15.0367 11.1109 25.5625
# 3 43.8783 30.0781 97.0370 3.4445 -1.2978 11.1406
# 4 -14.8881 -15.0367 3.4445 37.5605 4.2542 -6.1676
# 5 4.3038 11.1109 -1.2978 4.2542 38.6037 -6.4302
# 6 34.1669 25.5625 11.1406 -6.1676 -6.4302 37.5736
#
#
#
# Elastic Compliance Matrix: (Units=1/GPa)
#
#
# Indices 1 2 3 4 5 6 
#
# 1 0.032498 -0.013866 -0.008670 0.005688 -0.003415 -0.017198
# 2 -0.013866 0.022114 -0.000481 0.003605 -0.005678 -0.002673
# 3 -0.008670 -0.000481 0.014148 -0.004623 0.002710 0.003722
# 4 0.005688 0.003605 -0.004623 0.031032 -0.005600 -0.002119
# 5 -0.003415 -0.005678 0.002710 -0.005600 0.030367 0.010442
# 6 -0.017198 -0.002673 0.003722 -0.002119 0.010442 0.044407
#
#
# Mechanical properties :
#
#
# Convention : Reuss Voigt Hill
#
# Bulk Modulus (GPa) = 44.00543 62.78526 53.39534
# Shear Modulus (GPa) = 21.91277 32.38243 27.14760
#
# Velocity S-wave (km/s) = 3.19238 3.88080 3.55330
# Velocity P-wave (km/s) = 5.83564 7.02006 6.45508
#
# Compressibility (1/GPa) = 0.02272447
#
# Stress axis : x y z
#
# Youngs Moduli (GPa) = 30.77068 45.22030 70.68059
#
# Poissons Ratio (x) = 0.62704 0.61282
# Poissons Ratio (y) = 0.42668 0.03403
# Poissons Ratio (z) = 0.26679 0.02177
#
# Static dielectric constant tensor:
#      x y z
#    x 1.782450 -0.079700 -0.025170 
#    y -0.079700 1.736890 -0.013530 
#    z -0.025170 -0.013530 1.994900 
# 
# From -- ./inp_files/261844.got.cif
#   From: 2010.05.17/outbox.cif.g08.bks.cpg/sg2_131_cif.got.tgz:261844.got - 2010.06.03 11:33:40.
