data_PCOD9016270
_publ_section_title
;
Structure prediction by ZEFSAII (Michael W. Deem and Ramdas Pophale) SiO2 
 PCOD9016270
Probable space group: P -1
;
_chemical_formula_sum "Si O2"
_cell_formula_units_Z 16
_cell_length_a 10.107518
_cell_length_b 9.177516
_cell_length_c 17.315356
_cell_angle_alpha 66.330169
_cell_angle_beta 148.861850
_cell_angle_gamma 120.124867
_cell_volume 716.971351
_symmetry_space_group_name_H-M "P -1"
_symmetry_group_IT_number 2
_symmetry_cell_setting 'triclinic'
loop_
_space_group_symop_operation_xyz
x,y,z
-x,-y,-z
loop_
_atom_site_type_symbol
_atom_site_label
_atom_site_fract_x
_atom_site_fract_y
_atom_site_fract_z
Si Si1 0.899212 0.157073 0.910383
Si Si2 0.930129 0.495944 0.623568
Si Si3 0.554482 0.007864 0.397413
Si Si4 0.604722 0.592668 0.223689
Si Si5 0.058062 0.183337 0.529060
Si Si6 0.645651 0.796909 0.616959
Si Si7 0.253352 0.500148 0.931298
Si Si8 0.886236 0.645575 0.887208
O O1 0.625977 0.106889 0.735355
O O2 0.107116 0.318128 0.936413
O O3 0.906614 0.204611 0.993275
O O4 0.000000 0.000000 0.000000
O O5 0.150831 0.448972 0.689566
O O6 0.883679 0.663608 0.533881
O O7 0.042078 0.529655 0.759488
O O8 0.652340 0.339112 0.515668
O O9 0.706681 0.907038 0.546502
O O10 0.775042 0.163541 0.434314
O O11 0.373663 0.075005 0.351336
O O12 0.421230 0.428930 0.215545
O O13 0.718531 0.747407 0.306831
O O14 0.403376 0.619730 0.051430
O O15 0.000000 0.000000 0.500000
O O16 0.842438 0.700667 0.767765
O O17 0.500000 0.500000 0.000000
O O18 0.000000 0.500000 0.000000
#
# Coordination Sequence:
#
# PCOD9016270 Si02
#       8
#     2   2   2   2   2   2   2   2
#     4  11  22  38  61  94 131 158 207 259 320 378
#     4  11  20  42  71  93 122 171 225 267 316 388
#     4  11  24  40  65 103 128 162 217 284 320 374
#     4  10  21  42  67  90 122 169 221 259 314 394
#     4  12  26  41  62  95 132 168 210 267 331 385
#     4  11  21  41  70  98 128 165 223 271 324 380
#     4   9  21  37  64  96 119 161 214 263 312 378
#     4  11  24  41  62  93 128 176 209 256 324 397
#
# _framework density 22.316094
#
# number of rings (size 3 to 8) (size 9 to 14) (size 15 to 20)
#    0.000    1.250    5.000    1.125    5.250    0.000 
#    4.500    1.875    0.000    0.000    0.000    0.000 
#    0.000    0.000    0.000    0.000    0.000    0.000 
#
# Total GULP energy -89298.747213 kJ/mol
# GULP energy per Si atom -5581.171701 kJ/mol
# Density = 2.226530 g / cm^3
# Si number density = 22.316094 Si / 1000 Ang^3
#
#
#
# Elastic Constant Matrix: (Units=GPa)
#
#
# Indices 1 2 3 4 5 6 
#
# 1 43.6776 7.8695 25.4289 2.8527 -15.2316 -3.0046
# 2 7.8695 85.3123 50.6354 2.6665 -18.6079 -10.7318
# 3 25.4289 50.6354 171.0890 13.0692 -40.4762 -15.8869
# 4 2.8527 2.6665 13.0692 46.2397 -4.1857 -1.8336
# 5 -15.2316 -18.6079 -40.4762 -4.1857 36.3183 6.5430
# 6 -3.0046 -10.7318 -15.8869 -1.8336 6.5430 38.2236
#
#
#
# Elastic Compliance Matrix: (Units=1/GPa)
#
#
# Indices 1 2 3 4 5 6 
#
# 1 0.027277 0.000754 -0.001998 -0.000299 0.009588 -0.000130
# 2 0.000754 0.014760 -0.003439 0.000496 0.003713 0.002162
# 3 -0.001998 -0.003439 0.009084 -0.001549 0.007100 0.001363
# 4 -0.000299 0.000496 -0.001549 0.022150 0.000886 0.000383
# 5 0.009588 0.003713 0.007100 0.000886 0.041903 -0.002383
# 6 -0.000130 0.002162 0.001363 0.000383 -0.002383 0.027752
#
#
# Mechanical properties :
#
#
# Convention : Reuss Voigt Hill
#
# Bulk Modulus (GPa) = 23.94943 51.99406 37.97175
# Shear Modulus (GPa) = 30.08263 38.56598 34.32431
#
# Velocity S-wave (km/s) = 3.67553 4.16164 3.92611
# Velocity P-wave (km/s) = 5.36357 6.81482 6.13228
#
# Compressibility (1/GPa) = 0.04175465
#
# Stress axis : x y z
#
# Youngs Moduli (GPa) = 36.66131 67.75242 110.07846
#
# Poissons Ratio (x) = -0.05110 0.21997
# Poissons Ratio (y) = -0.02765 0.37855
# Poissons Ratio (z) = 0.07326 0.23300
#
# Static dielectric constant tensor:
#      x y z
#    x 1.907490 -0.043330 0.023380 
#    y -0.043330 1.758790 -0.010830 
#    z 0.023380 -0.010830 1.819660 
# 
# From -- ./inp_files/216439.got.cif
#   From: 2010.05.17/outbox.cif.g08.bks.cpg/sg2_109_cif.got.tgz:216439.got - 2010.06.03 11:33:40.
