data_PCOD9016224
_publ_section_title
;
Structure prediction by ZEFSAII (Michael W. Deem and Ramdas Pophale) SiO2 
 PCOD9016224
Probable space group: P -1
;
_chemical_formula_sum "Si O2"
_cell_formula_units_Z 15
_cell_length_a 6.034681
_cell_length_b 5.714905
_cell_length_c 18.794215
_cell_angle_alpha 85.644178
_cell_angle_beta 114.473259
_cell_angle_gamma 79.828028
_cell_volume 572.560595
_symmetry_space_group_name_H-M "P -1"
_symmetry_group_IT_number 2
_symmetry_cell_setting 'triclinic'
loop_
_space_group_symop_operation_xyz
x,y,z
-x,-y,-z
loop_
_atom_site_type_symbol
_atom_site_label
_atom_site_fract_x
_atom_site_fract_y
_atom_site_fract_z
Si Si1 0.783535 0.423698 0.186103
Si Si2 0.902237 0.340346 0.051419
Si Si3 0.506634 0.789239 0.562617
Si Si4 0.500000 0.000000 0.000000
Si Si5 0.100450 0.682689 0.429881
Si Si6 0.199187 0.979463 0.303195
Si Si7 0.629382 0.736761 0.294431
Si Si8 0.440876 0.115674 0.147475
O O1 0.846688 0.497027 0.113300
O O2 0.773695 0.569588 0.254338
O O3 0.505723 0.375260 0.147566
O O4 0.981857 0.168724 0.231226
O O5 0.148732 0.133078 0.104172
O O6 0.678396 0.208052 0.010980
O O7 0.000000 0.500000 0.000000
O O8 0.229746 0.741660 0.517975
O O9 0.716231 0.560153 0.569202
O O10 0.500000 0.000000 0.500000
O O11 0.593286 0.876950 0.646389
O O12 0.451104 0.007698 0.908053
O O13 0.104691 0.884018 0.365440
O O14 0.810037 0.683686 0.387830
O O15 0.348626 0.745152 0.284843
O O16 0.562538 0.987827 0.236893
#
# Coordination Sequence:
#
# PCOD9016224 Si02
#       8
#     2   2   2   1   2   2   2   2
#     4  11  25  45  68 107 152 187 250 318 368 455
#     4  11  26  49  78 110 152 206 254 310 397 455
#     4   9  20  41  69  94 145 188 239 310 365 443
#     4  10  26  48  74 106 154 190 254 322 366 464
#     4  10  21  42  67 101 140 191 243 307 373 442
#     4  11  22  43  66 103 142 190 245 305 376 449
#     4  12  25  40  73 104 140 194 244 303 385 444
#     4  11  25  46  70 107 146 195 245 310 384 452
#
# _framework density 26.198101000000001
#
# number of rings (size 3 to 8) (size 9 to 14) (size 15 to 20)
#    0.000    1.333    4.000    0.400    3.733    3.733 
#    0.000    6.000    0.000    0.000    0.000    0.000 
#    0.000    0.000    0.000    0.000    0.000    0.000 
#
# Total GULP energy -83516.253441 kJ/mol
# GULP energy per Si atom -5567.750229 kJ/mol
# Density = 2.613847 g / cm^3
# Si number density = 26.198101 Si / 1000 Ang^3
#
#
#
# Elastic Constant Matrix: (Units=GPa)
#
#
# Indices 1 2 3 4 5 6 
#
# 1 86.0197 34.7889 53.8978 -19.6869 -2.5818 5.2058
# 2 34.7889 66.3313 28.5566 -6.5213 10.6939 -3.2738
# 3 53.8978 28.5566 116.7940 4.4424 17.2406 15.0767
# 4 -19.6869 -6.5213 4.4424 31.8484 -1.5566 3.3236
# 5 -2.5818 10.6939 17.2406 -1.5566 43.6784 -15.0596
# 6 5.2058 -3.2738 15.0767 3.3236 -15.0596 37.0970
#
#
#
# Elastic Compliance Matrix: (Units=1/GPa)
#
#
# Indices 1 2 3 4 5 6 
#
# 1 0.027482 -0.008552 -0.013323 0.017243 0.010855 0.003665
# 2 -0.008552 0.020476 -0.000446 -0.001410 -0.004942 0.001308
# 3 -0.013323 -0.000446 0.018079 -0.010444 -0.011356 -0.009192
# 4 0.017243 -0.001410 -0.010444 0.043502 0.007302 0.000767
# 5 0.010855 -0.004942 -0.011356 0.007302 0.035090 0.016247
# 6 0.003665 0.001308 -0.009192 0.000767 0.016247 0.036820
#
#
# Mechanical properties :
#
#
# Convention : Reuss Voigt Hill
#
# Bulk Modulus (GPa) = 46.73675 55.95907 51.34791
# Shear Modulus (GPa) = 21.43884 32.65152 27.04518
#
# Velocity S-wave (km/s) = 2.86376 3.53417 3.21648
# Velocity P-wave (km/s) = 5.36780 6.16929 5.78245
#
# Compressibility (1/GPa) = 0.02139644
#
# Stress axis : x y z
#
# Youngs Moduli (GPa) = 36.38770 48.83862 55.31202
#
# Poissons Ratio (x) = 0.41766 0.73690
# Poissons Ratio (y) = 0.31118 0.02465
# Poissons Ratio (z) = 0.48478 0.02177
#
# Static dielectric constant tensor:
#      x y z
#    x 2.156040 0.007290 0.033170 
#    y 0.007290 2.179000 0.062860 
#    z 0.033170 0.062860 2.080430 
# 
# From -- ./inp_files/581113.got.cif
#   From: 2010.05.17/outbox.cif.g08.bks.cpg/sg2_291_cif.got.tgz:581113.got - 2010.06.03 11:33:40.
