data_PCOD9016052
_publ_section_title
;
Structure prediction by ZEFSAII (Michael W. Deem and Ramdas Pophale) SiO2 
 PCOD9016052
Probable space group: P -1
;
_chemical_formula_sum "Si O2"
_cell_formula_units_Z 14
_cell_length_a 9.959296
_cell_length_b 5.367848
_cell_length_c 14.658603
_cell_angle_alpha 55.201452
_cell_angle_beta 112.503399
_cell_angle_gamma 96.124567
_cell_volume 588.021870
_symmetry_space_group_name_H-M "P -1"
_symmetry_group_IT_number 2
_symmetry_cell_setting 'triclinic'
loop_
_space_group_symop_operation_xyz
x,y,z
-x,-y,-z
loop_
_atom_site_type_symbol
_atom_site_label
_atom_site_fract_x
_atom_site_fract_y
_atom_site_fract_z
Si Si1 0.953909 0.694202 0.738650
Si Si2 0.426693 0.148711 0.149261
Si Si3 0.857129 0.876089 0.029591
Si Si4 0.598047 0.393822 0.461936
Si Si5 0.634006 0.128592 0.059830
Si Si6 0.634376 0.747536 0.684877
Si Si7 0.917672 0.425951 0.584570
O O1 0.803275 0.598913 0.761280
O O2 0.952841 0.598842 0.650714
O O3 0.089410 0.485983 0.866025
O O4 0.947672 0.055071 0.681005
O O5 0.588584 0.061274 0.165676
O O6 0.416277 0.109229 0.261902
O O7 0.285061 0.036370 0.089657
O O8 0.390779 0.512761 0.043113
O O9 0.789540 0.989990 0.086566
O O10 0.000000 0.000000 0.000000
O O11 0.500000 0.500000 0.500000
O O12 0.488788 0.454437 0.335458
O O13 0.747787 0.520124 0.491824
O O14 0.639254 0.023133 0.556091
O O15 0.500000 0.000000 0.000000
O O16 0.000000 0.500000 0.500000
#
# Coordination Sequence:
#
# PCOD9016052 Si02
#       7
#     2   2   2   2   2   2   2
#     4  11  25  44  72 104 142 182 236 289 350 425
#     4  10  22  43  67  92 140 176 233 282 348 410
#     4  11  25  40  69 102 141 187 231 280 355 423
#     4  10  21  42  66  93 128 166 237 279 341 409
#     4   9  21  43  61  93 137 174 227 285 332 422
#     4  10  22  40  68  96 125 180 227 289 339 406
#     4  11  25  49  71 100 143 181 232 296 357 413
#
# _framework density 23.808638999999999
#
# number of rings (size 3 to 8) (size 9 to 14) (size 15 to 20)
#    0.000    1.714    1.429    1.286    6.000    3.429 
#   10.286    0.000    0.000    0.000    0.000    0.000 
#    0.000    0.000    0.000    0.000    0.000    0.000 
#
# Total GULP energy -78181.210116 kJ/mol
# GULP energy per Si atom -5584.372151 kJ/mol
# Density = 2.375445 g / cm^3
# Si number density = 23.808639 Si / 1000 Ang^3
#
#
#
# Elastic Constant Matrix: (Units=GPa)
#
#
# Indices 1 2 3 4 5 6 
#
# 1 165.7059 21.9546 27.6392 7.7691 -6.1641 -25.1452
# 2 21.9546 78.8343 12.9087 9.5659 -1.0425 -10.6132
# 3 27.6392 12.9087 72.1188 12.4536 9.3950 -3.5378
# 4 7.7691 9.5659 12.4536 49.5751 -2.2247 -2.7058
# 5 -6.1641 -1.0425 9.3950 -2.2247 33.9347 0.4150
# 6 -25.1452 -10.6132 -3.5378 -2.7058 0.4150 42.6505
#
#
#
# Elastic Compliance Matrix: (Units=1/GPa)
#
#
# Indices 1 2 3 4 5 6 
#
# 1 0.007267 -0.001054 -0.002675 0.000032 0.001984 0.003783
# 2 -0.001054 0.013839 -0.001687 -0.001917 0.000544 0.002555
# 3 -0.002675 -0.001687 0.016483 -0.003680 -0.005333 -0.000811
# 4 0.000032 -0.001917 -0.003680 0.021599 0.002375 0.000584
# 5 0.001984 0.000544 -0.005333 0.002375 0.031469 0.000707
# 6 0.003783 0.002555 -0.000811 0.000584 0.000707 0.026275
#
#
# Mechanical properties :
#
#
# Convention : Reuss Voigt Hill
#
# Bulk Modulus (GPa) = 37.37442 49.07378 43.22410
# Shear Modulus (GPa) = 36.58086 42.17584 39.37835
#
# Velocity S-wave (km/s) = 3.92401 4.21343 4.07129
# Velocity P-wave (km/s) = 6.02183 6.65786 6.34782
#
# Compressibility (1/GPa) = 0.02675627
#
# Stress axis : x y z
#
# Youngs Moduli (GPa) = 137.60965 72.26187 60.66704
#
# Poissons Ratio (x) = 0.07618 0.16227
# Poissons Ratio (y) = 0.14506 0.10237
# Poissons Ratio (z) = 0.36807 0.12193
#
# Static dielectric constant tensor:
#      x y z
#    x 1.887740 0.014710 0.007420 
#    y 0.014710 1.983320 -0.018690 
#    z 0.007420 -0.018690 1.991400 
# 
# From -- ./inp_files/67906.got.cif
#   From: 2010.05.17/outbox.cif.g08.bks.cpg/sg2_34_cif.got.tgz:67906.got - 2010.06.03 11:33:40.
