data_PCOD9016004
_publ_section_title
;
Structure prediction by ZEFSAII (Michael W. Deem and Ramdas Pophale) SiO2 
 PCOD9016004
Probable space group: P -1
;
_chemical_formula_sum "Si O2"
_cell_formula_units_Z 16
_cell_length_a 11.202498
_cell_length_b 21.310562
_cell_length_c 9.378418
_cell_angle_alpha 132.577960
_cell_angle_beta 83.558544
_cell_angle_gamma 134.792874
_cell_volume 838.353712
_symmetry_space_group_name_H-M "P -1"
_symmetry_group_IT_number 2
_symmetry_cell_setting 'triclinic'
loop_
_space_group_symop_operation_xyz
x,y,z
-x,-y,-z
loop_
_atom_site_type_symbol
_atom_site_label
_atom_site_fract_x
_atom_site_fract_y
_atom_site_fract_z
Si Si1 0.715749 0.989746 0.728704
Si Si2 0.995030 0.525198 0.288954
Si Si3 0.340739 0.861901 0.929293
Si Si4 0.490967 0.800981 0.986076
Si Si5 0.266437 0.140632 0.221152
Si Si6 0.713503 0.384407 0.830108
Si Si7 0.611558 0.658725 0.258842
Si Si8 0.080975 0.960367 0.493643
O O1 0.746855 0.943374 0.786890
O O2 0.450638 0.800668 0.425019
O O3 0.883975 0.073774 0.703591
O O4 0.758312 0.113627 0.948816
O O5 0.771075 0.369652 0.178949
O O6 0.160257 0.688755 0.608100
O O7 0.149802 0.541883 0.226496
O O8 0.889952 0.498344 0.113903
O O9 0.491049 0.897137 0.073317
O O10 0.500000 0.000000 0.000000
O O11 0.574365 0.794232 0.830859
O O12 0.677044 0.894372 0.228365
O O13 0.369975 0.289624 0.506849
O O14 0.000000 0.000000 0.000000
O O15 0.540378 0.359388 0.823978
O O16 0.500000 0.500000 0.000000
O O17 0.874223 0.811061 0.398826
O O18 0.000000 0.000000 0.500000
#
# Coordination Sequence:
#
# PCOD9016004 Si02
#       8
#     2   2   2   2   2   2   2   2
#     4  11  22  41  64  94 128 170 217 262 323 385
#     4  11  23  41  67  94 129 171 215 267 319 390
#     4  12  24  40  63  97 136 167 212 273 328 380
#     4  12  24  41  70  98 127 174 221 264 328 387
#     4  11  21  40  67  92 127 174 214 261 325 389
#     4  10  21  42  66  89 131 177 211 255 334 388
#     4  11  24  40  64  96 129 165 214 272 320 375
#     4  12  22  44  69  93 128 175 221 264 316 394
#
# _framework density 19.085021999999999
#
# number of rings (size 3 to 8) (size 9 to 14) (size 15 to 20)
#    0.000    0.750    7.500    1.125    0.000    4.500 
#    0.000    0.000    0.000    4.500    0.000    0.000 
#    0.000    0.000    0.000    0.000    0.000    0.000 
#
# Total GULP energy -89199.392486 kJ/mol
# GULP energy per Si atom -5574.962030 kJ/mol
# Density = 1.904158 g / cm^3
# Si number density = 19.085022 Si / 1000 Ang^3
#
#
#
# Elastic Constant Matrix: (Units=GPa)
#
#
# Indices 1 2 3 4 5 6 
#
# 1 95.5527 41.5493 53.0048 -13.2530 -7.7878 11.5621
# 2 41.5493 117.2577 19.0402 -10.3597 -14.4592 30.6439
# 3 53.0048 19.0402 74.8089 -12.4821 -5.4097 -7.3919
# 4 -13.2530 -10.3597 -12.4821 39.1292 9.2205 -2.3972
# 5 -7.7878 -14.4592 -5.4097 9.2205 39.1448 -9.6341
# 6 11.5621 30.6439 -7.3919 -2.3972 -9.6341 41.6308
#
#
#
# Elastic Compliance Matrix: (Units=1/GPa)
#
#
# Indices 1 2 3 4 5 6 
#
# 1 0.020660 -0.003490 -0.014152 0.001414 -0.000897 -0.005808
# 2 -0.003490 0.012278 -0.001177 0.000848 0.001541 -0.007872
# 3 -0.014152 -0.001177 0.025339 0.003125 0.001959 0.009929
# 4 0.001414 0.000848 0.003125 0.028602 -0.005746 -0.000145
# 5 -0.000897 0.001541 0.001959 -0.005746 0.028999 0.005843
# 6 -0.005808 -0.007872 0.009929 -0.000145 0.005843 0.034535
#
#
# Mechanical properties :
#
#
# Convention : Reuss Voigt Hill
#
# Bulk Modulus (GPa) = 48.45684 57.20089 52.82887
# Shear Modulus (GPa) = 25.65013 35.58262 30.61638
#
# Velocity S-wave (km/s) = 3.67003 4.32259 4.00960
# Velocity P-wave (km/s) = 6.58816 7.41280 7.01262
#
# Compressibility (1/GPa) = 0.02063692
#
# Stress axis : x y z
#
# Youngs Moduli (GPa) = 48.40382 81.44424 39.46554
#
# Poissons Ratio (x) = 0.28428 0.55853
# Poissons Ratio (y) = 0.16895 0.04645
# Poissons Ratio (z) = 0.68503 0.09585
#
# Static dielectric constant tensor:
#      x y z
#    x 1.624110 -0.051530 0.053750 
#    y -0.051530 1.641800 0.001370 
#    z 0.053750 0.001370 1.653750 
# 
# From -- ./inp_files/282286.got.cif
#   From: 2010.05.17/outbox.cif.g08.bks.cpg/sg2_142_cif.got.tgz:282286.got - 2010.06.03 11:33:40.
