data_PCOD9016732
_publ_section_title
;
Structure prediction by ZEFSAII (Michael W. Deem and Ramdas Pophale) SiO2 
 PCOD9016732
Probable space group: P -1
;
_chemical_formula_sum "Si O2"
_cell_formula_units_Z 16
_cell_length_a 9.287632
_cell_length_b 13.603368
_cell_length_c 9.016525
_cell_angle_alpha 115.802496
_cell_angle_beta 134.199462
_cell_angle_gamma 73.473035
_cell_volume 734.951699
_symmetry_space_group_name_H-M "P -1"
_symmetry_group_IT_number 2
_symmetry_cell_setting 'triclinic'
loop_
_space_group_symop_operation_xyz
x,y,z
-x,-y,-z
loop_
_atom_site_type_symbol
_atom_site_label
_atom_site_fract_x
_atom_site_fract_y
_atom_site_fract_z
Si Si1 0.158347 0.227503 0.926049
Si Si2 0.592525 0.683278 0.585827
Si Si3 0.955180 0.057500 0.851133
Si Si4 0.456581 0.867764 0.387629
Si Si5 0.832904 0.402985 0.838551
Si Si6 0.057421 0.341981 0.427342
Si Si7 0.811866 0.851867 0.437075
Si Si8 0.270035 0.530647 0.865847
O O1 0.324556 0.302085 0.178459
O O2 0.187577 0.179054 0.753209
O O3 0.135943 0.127145 0.958655
O O4 0.955968 0.295883 0.818844
O O5 0.521611 0.796596 0.529617
O O6 0.390337 0.606708 0.399058
O O7 0.781779 0.649018 0.590845
O O8 0.778877 0.141001 0.810442
O O9 0.877164 0.974328 0.612048
O O10 0.000000 0.000000 0.000000
O O11 0.589244 0.824946 0.321377
O O12 0.500000 0.000000 0.500000
O O13 0.772831 0.415608 0.973857
O O14 0.000000 0.500000 0.000000
O O15 0.049828 0.221346 0.407406
O O16 0.149724 0.417387 0.674006
O O17 0.838457 0.386941 0.268411
O O18 0.500000 0.500000 0.000000
#
# Coordination Sequence:
#
# PCOD9016732 Si02
#       8
#     2   2   2   2   2   2   2   2
#     4  12  24  45  66 102 146 177 226 286 348 408
#     4  11  22  43  71  97 139 185 227 281 348 413
#     4  11  22  42  73 102 134 185 228 280 341 415
#     4   9  19  40  68  99 131 174 230 275 332 411
#     4  12  26  44  68  99 141 184 227 290 351 407
#     4  10  21  42  69 102 132 177 236 282 336 414
#     4  10  23  42  66 101 143 176 226 284 342 408
#     4  11  22  41  72  98 129 178 236 288 337 402
#
# _framework density 21.770139
#
# number of rings (size 3 to 8) (size 9 to 14) (size 15 to 20)
#    0.000    1.250    3.750    3.375    0.000    0.500 
#    2.250    5.625    0.000    0.000    0.000    0.000 
#    0.000    0.000    0.000    0.000    0.000    0.000 
#
# Total GULP energy -89228.893709 kJ/mol
# GULP energy per Si atom -5576.805857 kJ/mol
# Density = 2.172059 g / cm^3
# Si number density = 21.770139 Si / 1000 Ang^3
#
#
#
# Elastic Constant Matrix: (Units=GPa)
#
#
# Indices 1 2 3 4 5 6 
#
# 1 88.7508 28.4818 56.4615 -8.1645 -2.2406 -8.7289
# 2 28.4818 67.3949 3.9732 -8.1784 13.7998 -10.2589
# 3 56.4615 3.9732 133.2535 -1.3129 4.1607 -8.6418
# 4 -8.1645 -8.1784 -1.3129 30.4038 -11.7443 8.6303
# 5 -2.2406 13.7998 4.1607 -11.7443 34.3706 5.6212
# 6 -8.7289 -10.2589 -8.6418 8.6303 5.6212 31.8354
#
#
#
# Elastic Compliance Matrix: (Units=1/GPa)
#
#
# Indices 1 2 3 4 5 6 
#
# 1 0.020601 -0.009762 -0.008886 0.007122 0.009342 -0.003490
# 2 -0.009762 0.022251 0.004427 -0.004031 -0.012968 0.009078
# 3 -0.008886 0.004427 0.011559 -0.004195 -0.005894 0.004306
# 4 0.007122 -0.004031 -0.004195 0.046526 0.021244 -0.016849
# 5 0.009342 -0.012968 -0.005894 0.021244 0.045669 -0.017040
# 6 -0.003490 0.009078 0.004306 -0.016849 -0.017040 0.042125
#
#
# Mechanical properties :
#
#
# Convention : Reuss Voigt Hill
#
# Bulk Modulus (GPa) = 38.50776 51.91469 45.21122
# Shear Modulus (GPa) = 22.14046 32.68748 27.41397
#
# Velocity S-wave (km/s) = 3.19252 3.87910 3.55244
# Velocity P-wave (km/s) = 5.59610 6.63037 6.13507
#
# Compressibility (1/GPa) = 0.02596879
#
# Stress axis : x y z
#
# Youngs Moduli (GPa) = 48.54090 44.94269 86.50907
#
# Poissons Ratio (x) = 0.43875 0.76870
# Poissons Ratio (y) = 0.47387 -0.38297
# Poissons Ratio (z) = 0.43132 -0.19896
#
# Static dielectric constant tensor:
#      x y z
#    x 1.801570 0.011290 0.020690 
#    y 0.011290 1.884530 -0.012100 
#    z 0.020690 -0.012100 1.721620 
# 
# From -- ./inp_files/208506.got.cif
#   From: 2010.05.17/outbox.cif.g08.bks.cpg/sg2_105_cif.got.tgz:208506.got - 2010.06.03 11:33:40.
