data_PCOD9016758
_publ_section_title
;
Structure prediction by ZEFSAII (Michael W. Deem and Ramdas Pophale) SiO2 
 PCOD9016758
Probable space group: P -1
;
_chemical_formula_sum "Si O2"
_cell_formula_units_Z 16
_cell_length_a 5.437796
_cell_length_b 23.330420
_cell_length_c 10.624042
_cell_angle_alpha 144.196125
_cell_angle_beta 74.927210
_cell_angle_gamma 120.376281
_cell_volume 649.487724
_symmetry_space_group_name_H-M "P -1"
_symmetry_group_IT_number 2
_symmetry_cell_setting 'triclinic'
loop_
_space_group_symop_operation_xyz
x,y,z
-x,-y,-z
loop_
_atom_site_type_symbol
_atom_site_label
_atom_site_fract_x
_atom_site_fract_y
_atom_site_fract_z
Si Si1 0.360235 0.384455 0.392651
Si Si2 0.273137 0.357721 0.632230
Si Si3 0.802264 0.603684 0.032067
Si Si4 0.852310 0.885649 0.731912
Si Si5 0.139059 0.839721 0.092184
Si Si6 0.261504 0.674629 0.879329
Si Si7 0.648966 0.760474 0.203438
Si Si8 0.463633 0.913131 0.628742
O O1 0.500000 0.500000 0.500000
O O2 0.231707 0.389041 0.552776
O O3 0.656629 0.373934 0.338194
O O4 0.092020 0.270051 0.157631
O O5 0.066104 0.357622 0.774134
O O6 0.261157 0.237611 0.408560
O O7 0.591774 0.467294 0.822435
O O8 0.661199 0.684438 0.177588
O O9 0.960975 0.625928 0.913215
O O10 0.585174 0.884398 0.688375
O O11 0.141765 0.900156 0.645184
O O12 0.000000 0.000000 0.000000
O O13 0.964930 0.845442 0.247472
O O14 0.297265 0.955284 0.200368
O O15 0.361272 0.802830 0.052432
O O16 0.460354 0.672939 0.962547
O O17 0.492137 0.830651 0.379909
#
# Coordination Sequence:
#
# PCOD9016758 Si02
#       8
#     2   2   2   2   2   2   2   2
#     4  11  24  45  67 105 140 185 239 301 367 442
#     4  11  23  45  73  99 145 187 241 302 372 432
#     4  10  22  45  68 108 137 183 244 299 367 440
#     4  12  28  49  69 104 149 199 249 303 363 440
#     4  10  24  40  69 102 141 189 241 296 371 435
#     4  10  22  42  69 100 142 185 236 304 360 439
#     4  10  21  42  69 105 144 181 245 301 368 434
#     4  12  26  46  73 103 147 194 251 307 361 433
#
# _framework density 24.634799999999998
#
# number of rings (size 3 to 8) (size 9 to 14) (size 15 to 20)
#    0.000    1.250    1.250    4.500    7.000    2.500 
#    4.500    3.750    0.000    0.000    0.000    0.000 
#    0.000    0.000    0.000    0.000    0.000    0.000 
#
# Total GULP energy -89174.762172 kJ/mol
# GULP energy per Si atom -5573.422636 kJ/mol
# Density = 2.457873 g / cm^3
# Si number density = 24.634800 Si / 1000 Ang^3
#
#
#
# Elastic Constant Matrix: (Units=GPa)
#
#
# Indices 1 2 3 4 5 6 
#
# 1 48.0754 14.0754 6.8100 -4.9640 -9.1896 -2.8988
# 2 14.0754 99.8495 40.9322 27.2050 1.5312 -17.4194
# 3 6.8100 40.9322 129.7413 3.6890 -2.1983 -3.1843
# 4 -4.9640 27.2050 3.6890 54.8125 -6.4895 -1.1716
# 5 -9.1896 1.5312 -2.1983 -6.4895 37.7485 -10.3317
# 6 -2.8988 -17.4194 -3.1843 -1.1716 -10.3317 24.6219
#
#
#
# Elastic Compliance Matrix: (Units=1/GPa)
#
#
# Indices 1 2 3 4 5 6 
#
# 1 0.024396 -0.004574 0.000222 0.005479 0.007975 0.003272
# 2 -0.004574 0.016444 -0.004488 -0.008154 -0.000759 0.009808
# 3 0.000222 -0.004488 0.009034 0.001675 0.000599 -0.001650
# 4 0.005479 -0.008154 0.001675 0.023273 0.005336 -0.001561
# 5 0.007975 -0.000759 0.000599 0.005336 0.033459 0.014773
# 6 0.003272 0.009808 -0.001650 -0.001561 0.014773 0.053850
#
#
# Mechanical properties :
#
#
# Convention : Reuss Voigt Hill
#
# Bulk Modulus (GPa) = 31.06224 44.58907 37.82565
# Shear Modulus (GPa) = 26.47362 37.82649 32.15005
#
# Velocity S-wave (km/s) = 3.28173 3.92278 3.61649
# Velocity P-wave (km/s) = 5.19578 6.21747 5.72945
#
# Compressibility (1/GPa) = 0.03219343
#
# Stress axis : x y z
#
# Youngs Moduli (GPa) = 40.99059 60.81155 110.69319
#
# Poissons Ratio (x) = 0.27818 -0.02461
# Poissons Ratio (y) = 0.18751 0.49681
# Poissons Ratio (z) = -0.00911 0.27293
#
# Static dielectric constant tensor:
#      x y z
#    x 2.091350 0.067810 0.036620 
#    y 0.067810 2.023220 -0.088140 
#    z 0.036620 -0.088140 2.029730 
# 
# From -- ./inp_files/371462.got.cif
#   From: 2010.05.17/outbox.cif.g08.bks.cpg/sg2_186_cif.got.tgz:371462.got - 2010.06.03 11:33:40.
