data_PCOD9016294
_publ_section_title
;
Structure prediction by ZEFSAII (Michael W. Deem and Ramdas Pophale) SiO2 
 PCOD9016294
Probable space group: P -1
;
_chemical_formula_sum "Si O2"
_cell_formula_units_Z 16
_cell_length_a 5.137877
_cell_length_b 8.834576
_cell_length_c 22.518861
_cell_angle_alpha 128.657398
_cell_angle_beta 69.297413
_cell_angle_gamma 124.823796
_cell_volume 655.239062
_symmetry_space_group_name_H-M "P -1"
_symmetry_group_IT_number 2
_symmetry_cell_setting 'triclinic'
loop_
_space_group_symop_operation_xyz
x,y,z
-x,-y,-z
loop_
_atom_site_type_symbol
_atom_site_label
_atom_site_fract_x
_atom_site_fract_y
_atom_site_fract_z
Si Si1 0.292305 0.108888 0.327957
Si Si2 0.811685 0.766456 0.067907
Si Si3 0.822377 0.330109 0.748006
Si Si4 0.662824 0.346767 0.459852
Si Si5 0.642545 0.348823 0.036082
Si Si6 0.212347 0.263159 0.154550
Si Si7 0.502320 0.513477 0.688652
Si Si8 0.394137 0.077258 0.613993
O O1 0.618978 0.240047 0.371220
O O2 0.328962 0.284228 0.319241
O O3 0.215665 0.864863 0.252663
O O4 0.988696 0.048341 0.380410
O O5 0.547124 0.720801 0.028175
O O6 0.070054 0.705738 0.003164
O O7 0.725070 0.606937 0.092985
O O8 0.946784 0.021618 0.134068
O O9 0.876614 0.561491 0.825765
O O10 0.520435 0.193137 0.696573
O O11 0.123044 0.408448 0.698903
O O12 0.500000 0.500000 0.500000
O O13 0.000000 0.500000 0.500000
O O14 0.508789 0.112377 0.450628
O O15 0.433173 0.233080 0.081486
O O16 0.377962 0.386626 0.231427
O O17 0.539411 0.298933 0.617465
#
# Coordination Sequence:
#
# PCOD9016294 Si02
#       8
#     2   2   2   2   2   2   2   2
#     4  10  21  42  67  91 135 170 210 267 324 373
#     4  10  23  41  64  90 125 164 211 261 318 381
#     4   9  22  38  60  92 128 169 209 268 317 377
#     4  11  21  39  70  98 128 173 217 259 320 378
#     4  10  23  42  62  91 126 166 204 266 322 372
#     4  11  23  37  64  89 124 163 217 258 320 385
#     4  10  23  40  63  98 126 172 214 266 322 381
#     4   9  20  41  64  89 135 166 209 267 315 373
#
# _framework density 24.418569000000002
#
# number of rings (size 3 to 8) (size 9 to 14) (size 15 to 20)
#    0.000    2.000    1.250    0.750    3.500    8.000 
#    2.250    1.250    0.000    0.000    0.000    0.000 
#    0.000    0.000    0.000    0.000    0.000    0.000 
#
# Total GULP energy -89168.348364 kJ/mol
# GULP energy per Si atom -5573.021773 kJ/mol
# Density = 2.436299 g / cm^3
# Si number density = 24.418569 Si / 1000 Ang^3
#
#
#
# Elastic Constant Matrix: (Units=GPa)
#
#
# Indices 1 2 3 4 5 6 
#
# 1 104.1604 28.1849 30.6794 27.3051 3.3123 -1.2397
# 2 28.1849 135.8728 31.8281 47.7483 -9.9102 -18.8132
# 3 30.6794 31.8281 53.3142 32.8421 1.5700 -6.0564
# 4 27.3051 47.7483 32.8421 53.8358 -9.8307 -4.5911
# 5 3.3123 -9.9102 1.5700 -9.8307 31.6614 13.3220
# 6 -1.2397 -18.8132 -6.0564 -4.5911 13.3220 21.9114
#
#
#
# Elastic Compliance Matrix: (Units=1/GPa)
#
#
# Indices 1 2 3 4 5 6 
#
# 1 0.011998 -0.000477 -0.004613 -0.003251 -0.001983 -0.000482
# 2 -0.000477 0.012396 0.001302 -0.011392 -0.004415 0.011274
# 3 -0.004613 0.001302 0.036555 -0.022430 -0.014138 0.014857
# 4 -0.003251 -0.011392 -0.022430 0.046080 0.020067 -0.018710
# 5 -0.001983 -0.004415 -0.014138 0.020067 0.052217 -0.035354
# 6 -0.000482 0.011274 0.014857 -0.018710 -0.035354 0.076972
#
#
# Mechanical properties :
#
#
# Convention : Reuss Voigt Hill
#
# Bulk Modulus (GPa) = 18.73584 52.74803 35.74194
# Shear Modulus (GPa) = 19.11427 34.99204 27.05316
#
# Velocity S-wave (km/s) = 2.80085 3.78962 3.33211
# Velocity P-wave (km/s) = 4.26018 6.38724 5.42890
#
# Compressibility (1/GPa) = 0.05337364
#
# Stress axis : x y z
#
# Youngs Moduli (GPa) = 83.34759 80.67199 27.35595
#
# Poissons Ratio (x) = 0.03848 0.12619
# Poissons Ratio (y) = 0.03975 -0.03562
# Poissons Ratio (z) = 0.38448 -0.10505
#
# Static dielectric constant tensor:
#      x y z
#    x 2.077930 -0.053170 -0.055460 
#    y -0.053170 2.014700 0.017820 
#    z -0.055460 0.017820 1.965410 
# 
# From -- ./inp_files/615186.got.cif
#   From: 2010.05.17/outbox.cif.g08.bks.cpg/sg2_308_cif.got.tgz:615186.got - 2010.06.03 11:33:40.
