data_PCOD9016185
_publ_section_title
;
Structure prediction by ZEFSAII (Michael W. Deem and Ramdas Pophale) SiO2 
 PCOD9016185
Probable space group: P -1
;
_chemical_formula_sum "Si O2"
_cell_formula_units_Z 16
_cell_length_a 11.223553
_cell_length_b 9.706293
_cell_length_c 12.032477
_cell_angle_alpha 95.691179
_cell_angle_beta 37.544700
_cell_angle_gamma 74.676626
_cell_volume 655.556194
_symmetry_space_group_name_H-M "P -1"
_symmetry_group_IT_number 2
_symmetry_cell_setting 'triclinic'
loop_
_space_group_symop_operation_xyz
x,y,z
-x,-y,-z
loop_
_atom_site_type_symbol
_atom_site_label
_atom_site_fract_x
_atom_site_fract_y
_atom_site_fract_z
Si Si1 0.356334 0.748309 0.002246
Si Si2 0.440914 0.306742 0.916701
Si Si3 0.996814 0.224778 0.088693
Si Si4 0.073679 0.446771 0.767742
Si Si5 0.536470 0.401363 0.317433
Si Si6 0.541033 0.014369 0.176538
Si Si7 0.178209 0.111283 0.634179
Si Si8 0.327624 0.761709 0.497256
O O1 0.444897 0.685035 0.054592
O O2 0.458979 0.608021 0.819349
O O3 0.436344 0.867843 0.912878
O O4 0.075076 0.850682 0.206306
O O5 0.418947 0.148285 0.925344
O O6 0.613831 0.255278 0.677815
O O7 0.174220 0.471711 0.109936
O O8 0.998395 0.390763 0.092548
O O9 0.789537 0.249961 0.165250
O O10 0.908696 0.214703 0.277614
O O11 0.258050 0.059720 0.880919
O O12 0.307867 0.407422 0.526782
O O13 0.138292 0.266516 0.747095
O O14 0.513626 0.571127 0.385419
O O15 0.297312 0.111273 0.431338
O O16 0.327776 0.919596 0.551891
#
# Coordination Sequence:
#
# PCOD9016185 Si02
#       8
#     2   2   2   2   2   2   2   2
#     4  12  24  45  69 100 143 177 225 280 340 403
#     4  10  24  42  70 101 137 180 223 282 339 404
#     4  10  22  47  71  93 138 187 221 278 343 399
#     4  10  21  43  66  99 136 171 236 270 329 415
#     4  11  24  44  71  96 138 188 222 274 343 403
#     4  10  22  46  68 101 139 175 230 278 341 403
#     4  11  23  42  67 103 135 173 227 279 334 399
#     4  10  21  42  66  98 135 171 224 274 338 393
#
# _framework density 24.406759000000001
#
# number of rings (size 3 to 8) (size 9 to 14) (size 15 to 20)
#    0.000    1.500    2.500    2.625    0.000    5.000 
#    6.750   21.250    0.000    0.000    0.000    0.000 
#    0.000    0.000    0.000    0.000    0.000    0.000 
#
# Total GULP energy -89398.806482 kJ/mol
# GULP energy per Si atom -5587.425405 kJ/mol
# Density = 2.435121 g / cm^3
# Si number density = 24.406759 Si / 1000 Ang^3
#
#
#
# Elastic Constant Matrix: (Units=GPa)
#
#
# Indices 1 2 3 4 5 6 
#
# 1 112.9997 27.0033 52.0578 1.1984 10.6645 4.7986
# 2 27.0033 174.6530 14.3188 3.4334 10.4236 0.1427
# 3 52.0578 14.3188 106.0401 -21.5651 8.8167 1.9239
# 4 1.1984 3.4334 -21.5651 42.1888 -1.9362 5.8649
# 5 10.6645 10.4236 8.8167 -1.9362 21.4365 -1.7627
# 6 4.7986 0.1427 1.9239 5.8649 -1.7627 15.0757
#
#
#
# Elastic Compliance Matrix: (Units=1/GPa)
#
#
# Indices 1 2 3 4 5 6 
#
# 1 0.012504 -0.001135 -0.006329 -0.003344 -0.003555 -0.002276
# 2 -0.001135 0.006073 -0.000224 -0.000731 -0.002334 0.000344
# 3 -0.006329 -0.000224 0.014417 0.007904 -0.002218 -0.003158
# 4 -0.003344 -0.000731 0.007904 0.029499 0.000499 -0.011355
# 5 -0.003555 -0.002334 -0.002218 0.000499 0.051104 0.007218
# 6 -0.002276 0.000344 -0.003158 -0.011355 0.007218 0.072717
#
#
# Mechanical properties :
#
#
# Convention : Reuss Voigt Hill
#
# Bulk Modulus (GPa) = 56.75614 64.49474 60.62544
# Shear Modulus (GPa) = 24.08931 35.76105 29.92518
#
# Velocity S-wave (km/s) = 3.14505 3.83196 3.50537
# Velocity P-wave (km/s) = 6.04096 6.78682 6.42472
#
# Compressibility (1/GPa) = 0.01761924
#
# Stress axis : x y z
#
# Youngs Moduli (GPa) = 79.97538 164.66797 69.36439
#
# Poissons Ratio (x) = 0.18683 0.43897
# Poissons Ratio (y) = 0.09074 0.01553
# Poissons Ratio (z) = 0.50612 0.03687
#
# Static dielectric constant tensor:
#      x y z
#    x 1.902060 0.011760 0.027920 
#    y 0.011760 1.998590 0.024900 
#    z 0.027920 0.024900 1.959550 
# 
# From -- ./inp_files/599240.got.cif
#   From: 2010.05.17/outbox.cif.g08.bks.cpg/sg2_300_cif.got.tgz:599240.got - 2010.06.03 11:33:40.
