data_PCOD9016718
_publ_section_title
;
Structure prediction by ZEFSAII (Michael W. Deem and Ramdas Pophale) SiO2 
 PCOD9016718
Probable space group: P -1
;
_chemical_formula_sum "Si O2"
_cell_formula_units_Z 14
_cell_length_a 5.209379
_cell_length_b 22.985578
_cell_length_c 8.170704
_cell_angle_alpha 136.279057
_cell_angle_beta 59.468225
_cell_angle_gamma 110.745368
_cell_volume 582.300199
_symmetry_space_group_name_H-M "P -1"
_symmetry_group_IT_number 2
_symmetry_cell_setting 'triclinic'
loop_
_space_group_symop_operation_xyz
x,y,z
-x,-y,-z
loop_
_atom_site_type_symbol
_atom_site_label
_atom_site_fract_x
_atom_site_fract_y
_atom_site_fract_z
Si Si1 0.768571 0.440399 0.360323
Si Si2 0.146380 0.502915 0.131974
Si Si3 0.234014 0.333176 0.397899
Si Si4 0.696105 0.967698 0.607834
Si Si5 0.964809 0.745727 0.364617
Si Si6 0.228168 0.070969 0.112831
Si Si7 0.353245 0.223810 0.825259
O O1 0.500000 0.500000 0.500000
O O2 0.572449 0.368435 0.353341
O O3 0.000000 0.500000 0.500000
O O4 0.000206 0.421791 0.102201
O O5 0.010867 0.593498 0.418458
O O6 0.500000 0.500000 0.000000
O O7 0.000000 0.500000 0.000000
O O8 0.175604 0.308942 0.555117
O O9 0.214476 0.264755 0.118986
O O10 0.695751 0.943142 0.749754
O O11 0.614928 0.878029 0.371897
O O12 0.000000 0.000000 0.500000
O O13 0.481755 0.050569 0.854982
O O14 0.913056 0.837316 0.654889
O O15 0.821269 0.754800 0.245880
O O16 0.321336 0.736187 0.216040
O O17 0.000000 0.000000 0.000000
#
# Coordination Sequence:
#
# PCOD9016718 Si02
#       7
#     2   2   2   2   2   2   2
#     4  10  23  47  73 107 140 181 244 295 364 459
#     4  11  25  48  78 109 139 192 245 299 381 455
#     4  11  28  51  81 110 158 200 245 328 384 452
#     4  10  23  41  71 104 143 203 259 309 368 445
#     4  11  27  48  75 112 156 204 255 313 388 440
#     4  10  21  42  69 100 149 196 257 311 354 448
#     4  11  27  48  73 115 155 199 259 314 382 454
#
# _framework density 24.042581999999999
#
# number of rings (size 3 to 8) (size 9 to 14) (size 15 to 20)
#    0.000    1.429    1.429    1.714    4.000   10.857 
#    0.000    0.000    0.000    0.000    0.000    0.000 
#    0.000    0.000    0.000    0.000    0.000    0.000 
#
# Total GULP energy -78047.323432 kJ/mol
# GULP energy per Si atom -5574.808817 kJ/mol
# Density = 2.398786 g / cm^3
# Si number density = 24.042582 Si / 1000 Ang^3
#
#
#
# Elastic Constant Matrix: (Units=GPa)
#
#
# Indices 1 2 3 4 5 6 
#
# 1 131.6091 18.3212 35.1063 -12.7006 9.3022 22.2171
# 2 18.3212 106.4230 23.8069 -29.3782 4.2497 16.8615
# 3 35.1063 23.8069 170.2151 -20.2024 12.0859 7.4827
# 4 -12.7006 -29.3782 -20.2024 38.8929 9.4173 -10.0261
# 5 9.3022 4.2497 12.0859 9.4173 49.4212 -9.2542
# 6 22.2171 16.8615 7.4827 -10.0261 -9.2542 43.4491
#
#
#
# Elastic Compliance Matrix: (Units=1/GPa)
#
#
# Indices 1 2 3 4 5 6 
#
# 1 0.009059 0.000045 -0.001279 0.001777 -0.002591 -0.004571
# 2 0.000045 0.012750 -0.000269 0.009453 -0.003493 -0.003487
# 3 -0.001279 -0.000269 0.006720 0.003345 -0.002028 -0.000059
# 4 0.001777 0.009453 0.003345 0.037742 -0.008844 0.001673
# 5 -0.002591 -0.003493 -0.002028 -0.008844 0.024360 0.006177
# 6 -0.004571 -0.003487 -0.000059 0.001673 0.006177 0.028418
#
#
# Mechanical properties :
#
#
# Convention : Reuss Voigt Hill
#
# Bulk Modulus (GPa) = 39.18062 62.52402 50.85232
# Shear Modulus (GPa) = 38.29500 48.42016 43.35758
#
# Velocity S-wave (km/s) = 3.99532 4.49256 4.25121
# Velocity P-wave (km/s) = 6.13312 7.27824 6.73008
#
# Compressibility (1/GPa) = 0.02552282
#
# Stress axis : x y z
#
# Youngs Moduli (GPa) = 110.38173 78.42845 148.80943
#
# Poissons Ratio (x) = -0.00350 0.19032
# Poissons Ratio (y) = -0.00493 0.04007
# Poissons Ratio (z) = 0.14117 0.02112
#
# Static dielectric constant tensor:
#      x y z
#    x 1.788890 -0.157020 0.153970 
#    y -0.157020 1.913040 0.110610 
#    z 0.153970 0.110610 2.023990 
# 
# From -- ./inp_files/142721.got.cif
#   From: 2010.05.17/outbox.cif.g08.bks.cpg/sg2_72_cif.got.tgz:142721.got - 2010.06.03 11:33:40.
