data_PCOD9016008
_publ_section_title
;
Structure prediction by ZEFSAII (Michael W. Deem and Ramdas Pophale) SiO2 
 PCOD9016008
Probable space group: P -1
;
_chemical_formula_sum "Si O2"
_cell_formula_units_Z 16
_cell_length_a 8.963978
_cell_length_b 19.000232
_cell_length_c 5.369776
_cell_angle_alpha 99.168869
_cell_angle_beta 49.249081
_cell_angle_gamma 102.901748
_cell_volume 675.229391
_symmetry_space_group_name_H-M "P -1"
_symmetry_group_IT_number 2
_symmetry_cell_setting 'triclinic'
loop_
_space_group_symop_operation_xyz
x,y,z
-x,-y,-z
loop_
_atom_site_type_symbol
_atom_site_label
_atom_site_fract_x
_atom_site_fract_y
_atom_site_fract_z
Si Si1 0.566168 0.913665 0.647211
Si Si2 0.314706 0.924439 0.428929
Si Si3 0.783564 0.347678 0.583196
Si Si4 0.979053 0.215827 0.421414
Si Si5 0.143308 0.573435 0.951007
Si Si6 0.393061 0.418410 0.065927
Si Si7 0.394002 0.383818 0.546835
Si Si8 0.768009 0.772216 0.342776
O O1 0.411820 0.908577 0.579878
O O2 0.678797 0.845723 0.482750
O O3 0.706174 0.991197 0.502720
O O4 0.459399 0.915271 0.032381
O O5 0.119573 0.866950 0.558349
O O6 0.862756 0.368346 0.231372
O O7 0.556599 0.364148 0.843111
O O8 0.815041 0.268263 0.586241
O O9 0.880893 0.400578 0.726283
O O10 0.081226 0.226936 0.586926
O O11 0.132477 0.234899 0.038067
O O12 0.384239 0.569753 0.675251
O O13 0.000000 0.500000 0.000000
O O14 0.281843 0.404304 0.922908
O O15 0.500000 0.500000 0.000000
O O16 0.282111 0.401240 0.432299
O O17 0.398061 0.298765 0.487946
#
# Coordination Sequence:
#
# PCOD9016008 Si02
#       8
#     2   2   2   2   2   2   2   2
#     4  10  23  43  73 106 138 181 232 282 334 398
#     4  10  23  43  73 106 138 181 232 282 334 398
#     4  10  23  41  63  93 126 168 219 282 335 404
#     4  12  26  44  66 102 143 186 225 277 341 412
#     4  10  21  42  66  90 117 166 225 279 346 396
#     4  10  21  42  66  90 117 166 225 279 346 396
#     4  10  23  41  63  93 126 168 219 282 335 404
#     4  12  26  44  66 102 143 186 225 277 341 412
#
# _framework density 23.695651000000002
#
# number of rings (size 3 to 8) (size 9 to 14) (size 15 to 20)
#    0.000    1.500    0.000    3.750    7.000    1.000 
#   27.000    0.000    0.000    0.000    0.000    0.000 
#    0.000    0.000    0.000    0.000    0.000    0.000 
#
# Total GULP energy -89520.771942 kJ/mol
# GULP energy per Si atom -5595.048246 kJ/mol
# Density = 2.364172 g / cm^3
# Si number density = 23.695651 Si / 1000 Ang^3
#
#
#
# Elastic Constant Matrix: (Units=GPa)
#
#
# Indices 1 2 3 4 5 6 
#
# 1 104.1673 27.5048 24.6561 -4.3029 18.7539 -0.0276
# 2 27.5048 119.1652 17.9984 -2.2215 1.4411 2.0640
# 3 24.6561 17.9984 59.9173 5.9648 28.8976 -10.5406
# 4 -4.3029 -2.2215 5.9648 34.3765 0.7940 -4.4153
# 5 18.7539 1.4411 28.8976 0.7940 56.6400 -5.6352
# 6 -0.0276 2.0640 -10.5406 -4.4153 -5.6352 46.7703
#
#
#
# Elastic Compliance Matrix: (Units=1/GPa)
#
#
# Indices 1 2 3 4 5 6 
#
# 1 0.011392 -0.002047 -0.003374 0.001832 -0.002098 -0.000743
# 2 -0.002047 0.009339 -0.003114 0.000738 0.001938 -0.000812
# 3 -0.003374 -0.003114 0.025684 -0.004284 -0.011435 0.004142
# 4 0.001832 0.000738 -0.004284 0.030340 0.001337 0.002028
# 5 -0.002098 0.001938 -0.011435 0.001337 0.024153 0.000372
# 6 -0.000743 -0.000812 0.004142 0.002028 0.000372 0.022586
#
#
# Mechanical properties :
#
#
# Convention : Reuss Voigt Hill
#
# Bulk Modulus (GPa) = 34.07815 47.06314 40.57064
# Shear Modulus (GPa) = 33.25653 41.76339 37.50996
#
# Velocity S-wave (km/s) = 3.75038 4.20276 3.98300
# Velocity P-wave (km/s) = 5.75905 6.59208 6.18959
#
# Compressibility (1/GPa) = 0.02934432
#
# Stress axis : x y z
#
# Youngs Moduli (GPa) = 87.77733 107.07811 38.93529
#
# Poissons Ratio (x) = 0.21924 0.13138
# Poissons Ratio (y) = 0.17972 0.12123
# Poissons Ratio (z) = 0.29618 0.33341
#
# Static dielectric constant tensor:
#      x y z
#    x 1.931580 -0.011530 0.039650 
#    y -0.011530 1.863550 -0.010410 
#    z 0.039650 -0.010410 1.954880 
# 
# From -- ./inp_files/48088.got.cif
#   From: 2010.05.17/outbox.cif.g08.bks.cpg/sg2_25_cif.got.tgz:48088.got - 2010.06.03 11:33:40.
