data_PCOD9016023
_publ_section_title
;
Structure prediction by ZEFSAII (Michael W. Deem and Ramdas Pophale) SiO2 
 PCOD9016023
Probable space group: P -1
;
_chemical_formula_sum "Si O2"
_cell_formula_units_Z 12
_cell_length_a 12.558457
_cell_length_b 9.228243
_cell_length_c 15.241103
_cell_angle_alpha 29.674076
_cell_angle_beta 129.364538
_cell_angle_gamma 110.767220
_cell_volume 580.161612
_symmetry_space_group_name_H-M "P -1"
_symmetry_group_IT_number 2
_symmetry_cell_setting 'triclinic'
loop_
_space_group_symop_operation_xyz
x,y,z
-x,-y,-z
loop_
_atom_site_type_symbol
_atom_site_label
_atom_site_fract_x
_atom_site_fract_y
_atom_site_fract_z
Si Si1 0.562918 0.785302 0.055911
Si Si2 0.073319 0.758465 0.754282
Si Si3 0.569791 0.748270 0.422747
Si Si4 0.552669 0.742650 0.745431
Si Si5 0.060567 0.615545 0.211841
Si Si6 0.061741 0.580198 0.577552
O O1 0.541570 0.459498 0.210964
O O2 0.746906 0.663074 0.193777
O O3 0.500000 0.000000 0.000000
O O4 0.458204 0.037888 0.791864
O O5 0.032152 0.466930 0.867181
O O6 0.261905 0.558174 0.981852
O O7 0.000000 0.000000 0.500000
O O8 0.981821 0.029903 0.640530
O O9 0.500000 0.500000 0.500000
O O10 0.759146 0.543121 0.642822
O O11 0.490756 0.013742 0.320940
O O12 0.500000 0.000000 0.500000
O O13 0.030557 0.473507 0.361747
O O14 0.000000 0.000000 0.000000
O O15 0.000000 0.500000 0.500000
#
# Coordination Sequence:
#
# PCOD9016023 Si02
#       6
#     2   2   2   2   2   2
#     4  12  24  43  68  98 134 178 225 279 337 401
#     4  10  21  42  66  91 126 173 218 266 327 394
#     4  12  24  43  68  98 134 178 225 279 337 401
#     4  12  26  44  67 101 137 177 225 280 338 400
#     4  11  23  41  64  93 127 170 218 270 328 393
#     4  11  23  41  64  93 127 170 218 270 328 393
#
# _framework density 20.683890999999999
#
# number of rings (size 3 to 8) (size 9 to 14) (size 15 to 20)
#    0.000    0.667    0.000   10.500    0.000    2.667 
#    0.000    2.500    0.000    0.000    0.000    0.000 
#    0.000    0.000    0.000    0.000    0.000    0.000 
#
# Total GULP energy -66994.068839 kJ/mol
# GULP energy per Si atom -5582.839070 kJ/mol
# Density = 2.063681 g / cm^3
# Si number density = 20.683891 Si / 1000 Ang^3
#
#
#
# Elastic Constant Matrix: (Units=GPa)
#
#
# Indices 1 2 3 4 5 6 
#
# 1 48.8364 17.1186 0.1859 -5.7806 0.8522 2.6151
# 2 17.1186 156.5182 8.3957 -24.6659 -10.8705 -9.7507
# 3 0.1859 8.3957 73.9696 -6.1579 8.1402 -3.7323
# 4 -5.7806 -24.6659 -6.1579 45.8191 4.6133 6.2114
# 5 0.8522 -10.8705 8.1402 4.6133 56.8469 -3.0376
# 6 2.6151 -9.7507 -3.7323 6.2114 -3.0376 51.5853
#
#
#
# Elastic Compliance Matrix: (Units=1/GPa)
#
#
# Indices 1 2 3 4 5 6 
#
# 1 0.021611 -0.002269 0.000389 0.001907 -0.001064 -0.001789
# 2 -0.002269 0.007355 -0.000643 0.003299 0.001326 0.001140
# 3 0.000389 -0.000643 0.014010 0.001740 -0.002248 0.000531
# 4 0.001907 0.003299 0.001740 0.024580 -0.001771 -0.002411
# 5 -0.001064 0.001326 -0.002248 -0.001771 0.018403 0.001439
# 6 -0.001789 0.001140 0.000531 -0.002411 0.001439 0.020105
#
#
# Mechanical properties :
#
#
# Convention : Reuss Voigt Hill
#
# Bulk Modulus (GPa) = 26.36534 36.74719 31.55627
# Shear Modulus (GPa) = 40.40312 47.75853 44.08082
#
# Velocity S-wave (km/s) = 4.42448 4.81039 4.62146
# Velocity P-wave (km/s) = 6.23505 6.97551 6.61565
#
# Compressibility (1/GPa) = 0.03792858
#
# Stress axis : x y z
#
# Youngs Moduli (GPa) = 46.27370 135.96945 71.37728
#
# Poissons Ratio (x) = 0.30855 -0.02775
# Poissons Ratio (y) = 0.10501 0.04588
# Poissons Ratio (z) = -0.01799 0.08741
#
# Static dielectric constant tensor:
#      x y z
#    x 1.669720 0.068100 -0.082960 
#    y 0.068100 1.672440 -0.046280 
#    z -0.082960 -0.046280 1.723770 
# 
# From -- ./inp_files/160760.got.cif
#   From: 2010.05.17/outbox.cif.g08.bks.cpg/sg2_81_cif.got.tgz:160760.got - 2010.06.03 11:33:40.
