data_PCOD9016493
_publ_section_title
;
Structure prediction by ZEFSAII (Michael W. Deem and Ramdas Pophale) SiO2 
 PCOD9016493
Probable space group: P -1
;
_chemical_formula_sum "Si O2"
_cell_formula_units_Z 14
_cell_length_a 7.477871
_cell_length_b 9.226952
_cell_length_c 7.999248
_cell_angle_alpha 69.449854
_cell_angle_beta 93.856974
_cell_angle_gamma 86.312634
_cell_volume 513.350584
_symmetry_space_group_name_H-M "P -1"
_symmetry_group_IT_number 2
_symmetry_cell_setting 'triclinic'
loop_
_space_group_symop_operation_xyz
x,y,z
-x,-y,-z
loop_
_atom_site_type_symbol
_atom_site_label
_atom_site_fract_x
_atom_site_fract_y
_atom_site_fract_z
Si Si1 0.108473 0.136293 0.110896
Si Si2 0.266562 0.426237 0.165180
Si Si3 0.500000 0.000000 0.000000
Si Si4 0.000000 0.000000 0.500000
Si Si5 0.658925 0.996719 0.377425
Si Si6 0.248001 0.837419 0.134173
Si Si7 0.697564 0.352778 0.220616
Si Si8 0.288467 0.553459 0.466302
O O1 0.171065 0.289850 0.128744
O O2 0.271581 0.027030 0.075573
O O3 0.054328 0.017869 0.296340
O O4 0.942726 0.166501 0.962683
O O5 0.480855 0.375485 0.206221
O O6 0.209162 0.472601 0.332032
O O7 0.239887 0.571791 0.976440
O O8 0.573143 0.185737 0.954592
O O9 0.411207 0.047858 0.785172
O O10 0.164715 0.108912 0.514618
O O11 0.747970 0.165833 0.324265
O O12 0.500000 0.000000 0.500000
O O13 0.267075 0.733255 0.337458
O O14 0.771355 0.445548 0.345673
O O15 0.500000 0.500000 0.500000
#
# Coordination Sequence:
#
# PCOD9016493 Si02
#       8
#     2   2   1   1   2   2   2   2
#     4  11  25  46  68 105 147 189 238 316 374 440
#     4  10  22  42  71 100 141 186 242 295 368 447
#     4  12  22  42  72 104 134 198 236 306 376 430
#     4  12  24  46  68 110 146 190 250 304 374 452
#     4  12  25  43  74 108 151 195 249 310 373 444
#     4  11  24  45  70 102 145 185 247 306 370 450
#     4  10  21  42  68 102 138 192 238 298 364 444
#     4  10  22  42  67 101 135 183 240 294 359 452
#
# _framework density 27.271809999999999
#
# number of rings (size 3 to 8) (size 9 to 14) (size 15 to 20)
#    0.000    1.143    1.429    5.143    0.000    4.000 
#    5.143    2.857    0.000    0.000    0.000    0.000 
#    0.000    0.000    0.000    0.000    0.000    0.000 
#
# Total GULP energy -78041.345173 kJ/mol
# GULP energy per Si atom -5574.381798 kJ/mol
# Density = 2.720974 g / cm^3
# Si number density = 27.271810 Si / 1000 Ang^3
#
#
#
# Elastic Constant Matrix: (Units=GPa)
#
#
# Indices 1 2 3 4 5 6 
#
# 1 147.3006 42.7647 40.4852 22.1324 1.7836 18.9535
# 2 42.7647 184.1495 51.7347 16.6364 4.9384 10.3638
# 3 40.4852 51.7347 144.8442 31.7390 8.5676 7.6146
# 4 22.1324 16.6364 31.7390 54.8692 9.3734 8.8473
# 5 1.7836 4.9384 8.5676 9.3734 32.5462 11.4803
# 6 18.9535 10.3638 7.6146 8.8473 11.4803 45.8535
#
#
#
# Elastic Compliance Matrix: (Units=1/GPa)
#
#
# Indices 1 2 3 4 5 6 
#
# 1 0.008166 -0.001217 -0.001366 -0.001952 0.001689 -0.002920
# 2 -0.001217 0.006278 -0.001810 -0.000255 -0.000150 -0.000529
# 3 -0.001366 -0.001810 0.008823 -0.003912 -0.001030 0.000521
# 4 -0.001952 -0.000255 -0.003912 0.022420 -0.004705 -0.001634
# 5 0.001689 -0.000150 -0.001030 -0.004705 0.035249 -0.008411
# 6 -0.002920 -0.000529 0.000521 -0.001634 -0.008411 0.025469
#
#
# Mechanical properties :
#
#
# Convention : Reuss Voigt Hill
#
# Bulk Modulus (GPa) = 69.05608 82.91816 75.98712
# Shear Modulus (GPa) = 41.65997 49.40777 45.53387
#
# Velocity S-wave (km/s) = 3.91267 4.26100 4.09055
# Velocity P-wave (km/s) = 6.76671 7.39449 7.08756
#
# Compressibility (1/GPa) = 0.01448098
#
# Stress axis : x y z
#
# Youngs Moduli (GPa) = 122.45369 159.28001 113.34014
#
# Poissons Ratio (x) = 0.19387 0.15487
# Poissons Ratio (y) = 0.14905 0.20511
# Poissons Ratio (z) = 0.16732 0.28825
#
# Static dielectric constant tensor:
#      x y z
#    x 2.263990 -0.034830 -0.152540 
#    y -0.034830 2.315860 0.163320 
#    z -0.152540 0.163320 2.197490 
# 
# From -- ./inp_files/156996.got.cif
#   From: 2010.05.17/outbox.cif.g08.bks.cpg/sg2_79_cif.got.tgz:156996.got - 2010.06.03 11:33:40.
