data_PCOD9016377
_publ_section_title
;
Structure prediction by ZEFSAII (Michael W. Deem and Ramdas Pophale) SiO2 
 PCOD9016377
Probable space group: P -1
;
_chemical_formula_sum "Si O2"
_cell_formula_units_Z 14
_cell_length_a 5.412209
_cell_length_b 17.658338
_cell_length_c 6.755923
_cell_angle_alpha 109.892406
_cell_angle_beta 76.776748
_cell_angle_gamma 86.828044
_cell_volume 584.757855
_symmetry_space_group_name_H-M "P -1"
_symmetry_group_IT_number 2
_symmetry_cell_setting 'triclinic'
loop_
_space_group_symop_operation_xyz
x,y,z
-x,-y,-z
loop_
_atom_site_type_symbol
_atom_site_label
_atom_site_fract_x
_atom_site_fract_y
_atom_site_fract_z
Si Si1 0.355250 0.280470 0.660373
Si Si2 0.697217 0.832518 0.063748
Si Si3 0.850345 0.989583 0.317973
Si Si4 0.946761 0.257865 0.381059
Si Si5 0.153046 0.568453 0.613390
Si Si6 0.376595 0.465001 0.801473
Si Si7 0.659064 0.074624 0.081169
O O1 0.341424 0.236917 0.835380
O O2 0.650877 0.262069 0.508912
O O3 0.283072 0.378669 0.781128
O O4 0.144325 0.251030 0.524179
O O5 0.683450 0.915802 0.269416
O O6 0.486173 0.849399 0.943891
O O7 0.953821 0.808627 0.862723
O O8 0.706833 0.069593 0.304068
O O9 0.000000 0.000000 0.500000
O O10 0.079401 0.954342 0.101755
O O11 0.977737 0.342107 0.337786
O O12 0.195017 0.541625 0.808414
O O13 0.414369 0.559070 0.430985
O O14 0.000000 0.500000 0.500000
O O15 0.500000 0.500000 0.000000
O O16 0.500000 0.000000 0.000000
#
# Coordination Sequence:
#
# PCOD9016377 Si02
#       7
#     2   2   2   2   2   2   2
#     4  11  27  46  71 112 146 196 247 302 374 427
#     4  11  27  45  75 104 148 191 238 302 372 433
#     4  10  23  46  76 105 138 183 240 291 362 442
#     4  11  27  47  71 105 155 190 250 307 362 436
#     4  10  21  42  67  95 136 194 242 300 359 415
#     4  10  23  41  69  99 138 190 252 300 355 434
#     4   9  22  45  68 103 134 182 233 281 364 436
#
# _framework density 23.941534000000001
#
# number of rings (size 3 to 8) (size 9 to 14) (size 15 to 20)
#    0.000    1.714    1.429    0.000    6.000    9.714 
#    0.000    0.000    0.000    0.000    0.000    0.000 
#    0.000    0.000    0.000    0.000    0.000    0.000 
#
# Total GULP energy -78186.156946 kJ/mol
# GULP energy per Si atom -5584.725496 kJ/mol
# Density = 2.388704 g / cm^3
# Si number density = 23.941534 Si / 1000 Ang^3
#
#
#
# Elastic Constant Matrix: (Units=GPa)
#
#
# Indices 1 2 3 4 5 6 
#
# 1 106.2525 31.7532 54.5703 -20.5643 13.5529 -15.8185
# 2 31.7532 114.5160 69.2964 -34.9965 12.1440 -14.8019
# 3 54.5703 69.2964 148.1195 -23.7181 23.5036 -16.1556
# 4 -20.5643 -34.9965 -23.7181 42.2471 -6.3788 11.5792
# 5 13.5529 12.1440 23.5036 -6.3788 55.6890 -6.1769
# 6 -15.8185 -14.8019 -16.1556 11.5792 -6.1769 38.8716
#
#
#
# Elastic Compliance Matrix: (Units=1/GPa)
#
#
# Indices 1 2 3 4 5 6 
#
# 1 0.012376 0.000262 -0.003748 0.003339 -0.000833 0.002451
# 2 0.000262 0.014897 -0.005539 0.009171 0.000161 0.000771
# 3 -0.003748 -0.005539 0.011091 -0.000793 -0.002563 0.000804
# 4 0.003339 0.009171 -0.000793 0.034078 0.000816 -0.005500
# 5 -0.000833 0.000161 -0.002563 0.000816 0.019467 0.001508
# 6 0.002451 0.000771 0.000804 -0.005500 0.001508 0.029229
#
#
# Mechanical properties :
#
#
# Convention : Reuss Voigt Hill
#
# Bulk Modulus (GPa) = 49.22765 75.56976 62.39870
# Shear Modulus (GPa) = 34.25671 41.57940 37.91805
#
# Velocity S-wave (km/s) = 3.78676 4.17190 3.98399
# Velocity P-wave (km/s) = 6.30283 7.40535 6.87622
#
# Compressibility (1/GPa) = 0.02031379
#
# Stress axis : x y z
#
# Youngs Moduli (GPa) = 80.80476 67.12922 90.16626
#
# Poissons Ratio (x) = -0.01759 0.33792
# Poissons Ratio (y) = -0.02117 0.49941
# Poissons Ratio (z) = 0.30283 0.37181
#
# Static dielectric constant tensor:
#      x y z
#    x -0.260870 0.933670 -1.097470 
#    y 0.933670 1.662660 0.501650 
#    z -1.097470 0.501650 1.314620 
# 
# From -- ./inp_files/7883.got.cif
#   From: 2010.05.17/outbox.cif.g08.bks.cpg/sg2_4_cif.got.tgz:7883.got - 2010.06.03 11:33:40.
