data_PCOD9016458
_publ_section_title
;
Structure prediction by ZEFSAII (Michael W. Deem and Ramdas Pophale) SiO2 
 PCOD9016458
Probable space group: P -1
;
_chemical_formula_sum "Si O2"
_cell_formula_units_Z 14
_cell_length_a 16.217063
_cell_length_b 12.321696
_cell_length_c 13.673503
_cell_angle_alpha 141.139296
_cell_angle_beta 21.656153
_cell_angle_gamma 140.908021
_cell_volume 616.210150
_symmetry_space_group_name_H-M "P -1"
_symmetry_group_IT_number 2
_symmetry_cell_setting 'triclinic'
loop_
_space_group_symop_operation_xyz
x,y,z
-x,-y,-z
loop_
_atom_site_type_symbol
_atom_site_label
_atom_site_fract_x
_atom_site_fract_y
_atom_site_fract_z
Si Si1 0.634335 0.481021 0.557072
Si Si2 0.022296 0.233788 0.538587
Si Si3 0.934895 0.205380 0.387712
Si Si4 0.140307 0.345505 0.747801
Si Si5 0.378400 0.160735 0.506916
Si Si6 0.262823 0.936984 0.102990
Si Si7 0.336994 0.487795 0.077401
O O1 0.882163 0.562327 0.391392
O O2 0.652291 0.589525 0.511595
O O3 0.561532 0.276415 0.460316
O O4 0.459844 0.507678 0.851740
O O5 0.009396 0.202670 0.416677
O O6 0.786444 0.147538 0.794145
O O7 0.217032 0.132761 0.290380
O O8 0.780122 0.348868 0.661122
O O9 0.155254 0.298878 0.148268
O O10 0.792358 0.010918 0.380597
O O11 0.236338 0.292797 0.706759
O O12 0.958860 0.173768 0.789365
O O13 0.000000 0.500000 0.000000
O O14 0.517032 0.090622 0.216733
O O15 0.500000 0.500000 0.000000
#
# Coordination Sequence:
#
# PCOD9016458 Si02
#       7
#     2   2   2   2   2   2   2
#     4  11  24  41  70  96 135 182 213 276 343 393
#     4  10  21  42  67  99 135 180 221 272 333 405
#     4  11  25  44  72  97 129 178 231 283 326 398
#     4  11  23  42  64 103 143 173 213 270 340 411
#     4  12  25  41  70 104 135 178 216 277 344 408
#     4  10  22  40  64 100 142 175 218 270 333 411
#     4  11  25  49  70  93 131 177 235 285 332 387
#
# _framework density 22.719522000000001
#
# number of rings (size 3 to 8) (size 9 to 14) (size 15 to 20)
#    0.000    1.143    4.286    1.286    2.000    2.286 
#    0.000    0.714    0.000    0.000    0.000    0.000 
#    0.000    0.000    0.000    0.000    0.000    0.000 
#
# Total GULP energy -78212.918191 kJ/mol
# GULP energy per Si atom -5586.637014 kJ/mol
# Density = 2.266781 g / cm^3
# Si number density = 22.719522 Si / 1000 Ang^3
#
#
#
# Elastic Constant Matrix: (Units=GPa)
#
#
# Indices 1 2 3 4 5 6 
#
# 1 31.7948 34.9072 7.0092 2.1900 3.4971 4.9083
# 2 34.9072 166.7231 36.7822 -22.0781 -3.3471 14.4480
# 3 7.0092 36.7822 91.0892 -7.2086 5.2855 -14.7629
# 4 2.1900 -22.0781 -7.2086 37.8746 -8.0419 7.8854
# 5 3.4971 -3.3471 5.2855 -8.0419 17.5472 3.2921
# 6 4.9083 14.4480 -14.7629 7.8854 3.2921 39.2672
#
#
#
# Elastic Compliance Matrix: (Units=1/GPa)
#
#
# Indices 1 2 3 4 5 6 
#
# 1 0.048576 -0.013677 0.002555 -0.015817 -0.021223 0.004877
# 2 -0.013677 0.012585 -0.005254 0.011784 0.013687 -0.008410
# 3 0.002555 -0.005254 0.014530 -0.004277 -0.009486 0.008731
# 4 -0.015817 0.011784 -0.004277 0.042656 0.029046 -0.014968
# 5 -0.021223 0.013687 -0.009486 0.029046 0.083523 -0.018785
# 6 0.004877 -0.008410 0.008731 -0.014968 -0.018785 0.035814
#
#
# Mechanical properties :
#
#
# Convention : Reuss Voigt Hill
#
# Bulk Modulus (GPa) = 23.28915 49.66713 36.47814
# Shear Modulus (GPa) = 17.55933 32.99837 25.27885
#
# Velocity S-wave (km/s) = 2.78308 3.81520 3.33926
# Velocity P-wave (km/s) = 4.53876 6.42776 5.56401
#
# Compressibility (1/GPa) = 0.04293845
#
# Stress axis : x y z
#
# Youngs Moduli (GPa) = 20.58648 79.46071 68.82228
#
# Poissons Ratio (x) = 1.08681 -0.17586
# Poissons Ratio (y) = 0.28157 0.36159
# Poissons Ratio (z) = -0.05261 0.41749
#
# Static dielectric constant tensor:
#      x y z
#    x 1.940220 -0.006120 -0.033020 
#    y -0.006120 1.903860 0.002760 
#    z -0.033020 0.002760 1.884320 
# 
# From -- ./inp_files/67725.got.cif
#   From: 2010.05.17/outbox.cif.g08.bks.cpg/sg2_34_cif.got.tgz:67725.got - 2010.06.03 11:33:40.
