data_PCOD9016867
_publ_section_title
;
Structure prediction by ZEFSAII (Michael W. Deem and Ramdas Pophale) SiO2 
 PCOD9016867
Probable space group: P -1
;
_chemical_formula_sum "Si O2"
_cell_formula_units_Z 14
_cell_length_a 8.750224
_cell_length_b 26.208590
_cell_length_c 9.930703
_cell_angle_alpha 27.444343
_cell_angle_beta 45.611276
_cell_angle_gamma 36.362781
_cell_volume 621.367902
_symmetry_space_group_name_H-M "P -1"
_symmetry_group_IT_number 2
_symmetry_cell_setting 'triclinic'
loop_
_space_group_symop_operation_xyz
x,y,z
-x,-y,-z
loop_
_atom_site_type_symbol
_atom_site_label
_atom_site_fract_x
_atom_site_fract_y
_atom_site_fract_z
Si Si1 0.279540 0.469755 0.859999
Si Si2 0.892472 0.892662 0.085845
Si Si3 0.595523 0.825659 0.221463
Si Si4 0.485343 0.151896 0.074667
Si Si5 0.587432 0.316668 0.776307
Si Si6 0.895200 0.860664 0.472576
Si Si7 0.439244 0.634156 0.794755
O O1 0.378798 0.383873 0.863830
O O2 0.293457 0.597092 0.523977
O O3 0.495602 0.394246 0.020541
O O4 0.000000 0.500000 0.000000
O O5 0.763460 0.836583 0.203724
O O6 0.927482 0.839379 0.342468
O O7 0.168825 0.831148 0.991175
O O8 0.694322 0.051671 0.847156
O O9 0.618422 0.687516 0.524534
O O10 0.641247 0.850590 0.981463
O O11 0.331380 0.148892 0.302959
O O12 0.774511 0.018073 0.200631
O O13 0.483223 0.284602 0.783505
O O14 0.154415 0.753167 0.642905
O O15 0.500000 0.500000 0.000000
#
# Coordination Sequence:
#
# PCOD9016867 Si02
#       7
#     2   2   2   2   2   2   2
#     4  11  27  47  65  99 139 177 228 284 338 404
#     4  10  21  42  69  97 134 178 225 281 337 398
#     4  10  22  40  67 101 135 175 225 281 336 393
#     4  10  22  42  68 101 135 180 227 280 329 405
#     4  11  24  43  72  95 129 188 224 274 346 401
#     4  10  23  42  67 100 142 177 224 278 340 392
#     4  12  25  40  66  96 132 183 223 272 341 409
#
# _framework density 22.530937000000002
#
# number of rings (size 3 to 8) (size 9 to 14) (size 15 to 20)
#    0.000    1.429    0.000    4.286    8.000    2.286 
#    0.000    2.857    0.000    0.000    0.000    0.000 
#    0.000    0.000    0.000    0.000    0.000    0.000 
#
# Total GULP energy -78138.792612 kJ/mol
# GULP energy per Si atom -5581.342329 kJ/mol
# Density = 2.247966 g / cm^3
# Si number density = 22.530937 Si / 1000 Ang^3
#
#
#
# Elastic Constant Matrix: (Units=GPa)
#
#
# Indices 1 2 3 4 5 6 
#
# 1 133.6363 70.3275 40.9090 -15.1830 6.6170 18.7943
# 2 70.3275 146.8119 46.1891 0.0128 -8.9901 17.3594
# 3 40.9090 46.1891 69.9594 -8.3549 -4.9269 17.4788
# 4 -15.1830 0.0128 -8.3549 23.2506 -4.0197 -11.5400
# 5 6.6170 -8.9901 -4.9269 -4.0197 43.0720 -9.5421
# 6 18.7943 17.3594 17.4788 -11.5400 -9.5421 35.4081
#
#
#
# Elastic Compliance Matrix: (Units=1/GPa)
#
#
# Indices 1 2 3 4 5 6 
#
# 1 0.011877 -0.004750 -0.002989 0.005398 -0.002997 -0.001549
# 2 -0.004750 0.010795 -0.004400 -0.005382 0.001548 -0.001936
# 3 -0.002989 -0.004400 0.020683 0.003096 0.001049 -0.005175
# 4 0.005398 -0.005382 0.003096 0.058821 0.008241 0.019637
# 5 -0.002997 0.001548 0.001049 0.008241 0.027177 0.010324
# 6 -0.001549 -0.001936 -0.005175 0.019637 0.010324 0.041750
#
#
# Mechanical properties :
#
#
# Convention : Reuss Voigt Hill
#
# Bulk Modulus (GPa) = 52.41477 73.91766 63.16621
# Shear Modulus (GPa) = 24.78445 33.21161 28.99803
#
# Velocity S-wave (km/s) = 3.32025 3.84349 3.59141
# Velocity P-wave (km/s) = 6.16545 7.25086 6.73007
#
# Compressibility (1/GPa) = 0.01907859
#
# Stress axis : x y z
#
# Youngs Moduli (GPa) = 84.19508 92.63250 48.34924
#
# Poissons Ratio (x) = 0.44002 0.14449
# Poissons Ratio (y) = 0.39994 0.21272
# Poissons Ratio (z) = 0.25162 0.40755
#
# Static dielectric constant tensor:
#      x y z
#    x 1.905820 -0.019720 -0.009910 
#    y -0.019720 1.806640 -0.026740 
#    z -0.009910 -0.026740 1.895520 
# 
# From -- ./inp_files/225792.got.cif
#   From: 2010.05.17/outbox.cif.g08.bks.cpg/sg2_113_cif.got.tgz:225792.got - 2010.06.03 11:33:40.
