data_PCOD9016462
_publ_section_title
;
Structure prediction by ZEFSAII (Michael W. Deem and Ramdas Pophale) SiO2 
 PCOD9016462
Probable space group: P -1
;
_chemical_formula_sum "Si O2"
_cell_formula_units_Z 16
_cell_length_a 15.740023
_cell_length_b 26.212014
_cell_length_c 19.478833
_cell_angle_alpha 162.141641
_cell_angle_beta 153.170789
_cell_angle_gamma 17.525210
_cell_volume 731.896760
_symmetry_space_group_name_H-M "P -1"
_symmetry_group_IT_number 2
_symmetry_cell_setting 'triclinic'
loop_
_space_group_symop_operation_xyz
x,y,z
-x,-y,-z
loop_
_atom_site_type_symbol
_atom_site_label
_atom_site_fract_x
_atom_site_fract_y
_atom_site_fract_z
Si Si1 0.235897 0.436482 0.134089
Si Si2 0.330693 0.159115 0.510761
Si Si3 0.659931 0.224819 0.749587
Si Si4 0.712593 0.209638 0.378581
Si Si5 0.797834 0.865682 0.761697
Si Si6 0.777502 0.019758 0.331091
Si Si7 0.660553 0.611180 0.402511
Si Si8 0.143654 0.419167 0.190378
O O1 0.314335 0.574864 0.351863
O O2 0.068109 0.553122 0.235192
O O3 0.000000 0.500000 0.000000
O O4 0.532626 0.134706 0.952319
O O5 0.512725 0.179776 0.630345
O O6 0.249257 0.090694 0.299464
O O7 0.036083 0.419966 0.665747
O O8 0.500000 0.000000 0.500000
O O9 0.611713 0.244653 0.658003
O O10 0.500000 0.500000 0.000000
O O11 0.992334 0.011494 0.731766
O O12 0.731845 0.106784 0.332865
O O13 0.456507 0.288799 0.257837
O O14 0.786641 0.676597 0.530643
O O15 0.114307 0.683490 0.790495
O O16 0.477498 0.228682 0.422594
O O17 0.000000 0.000000 0.500000
O O18 0.873643 0.764862 0.073093
#
# Coordination Sequence:
#
# PCOD9016462 Si02
#       8
#     2   2   2   2   2   2   2   2
#     4  12  24  46  71 103 140 190 232 286 356 423
#     4  11  24  45  68 100 140 184 231 288 356 419
#     4  11  24  43  69 100 138 184 234 285 354 421
#     4  12  26  43  70 108 142 178 235 295 355 420
#     4  10  22  42  71  98 136 183 233 284 348 417
#     4  12  23  43  70 103 135 180 238 287 347 413
#     4  10  21  42  68 100 134 181 237 285 339 423
#     4  12  26  45  70 102 142 184 232 295 348 418
#
# _framework density 21.861007000000001
#
# number of rings (size 3 to 8) (size 9 to 14) (size 15 to 20)
#    0.000    0.750    2.500    6.000    1.750    1.000 
#    0.000    1.250    0.000    0.000    0.000    0.000 
#    0.000    0.000    0.000    0.000    0.000    0.000 
#
# Total GULP energy -89165.023700 kJ/mol
# GULP energy per Si atom -5572.813981 kJ/mol
# Density = 2.181125 g / cm^3
# Si number density = 21.861007 Si / 1000 Ang^3
#
#
#
# Elastic Constant Matrix: (Units=GPa)
#
#
# Indices 1 2 3 4 5 6 
#
# 1 147.5950 23.0013 44.5276 -2.3691 -8.1664 20.8780
# 2 23.0013 101.4648 26.4789 -0.1952 2.9006 -12.9929
# 3 44.5276 26.4789 114.5684 -0.6917 9.3570 20.3912
# 4 -2.3691 -0.1952 -0.6917 40.2090 -6.1773 -8.0601
# 5 -8.1664 2.9006 9.3570 -6.1773 36.4163 12.6559
# 6 20.8780 -12.9929 20.3912 -8.0601 12.6559 50.9126
#
#
#
# Elastic Compliance Matrix: (Units=1/GPa)
#
#
# Indices 1 2 3 4 5 6 
#
# 1 0.008647 -0.001931 -0.002540 0.000295 0.004192 -0.004017
# 2 -0.001931 0.011814 -0.002775 0.000641 -0.002514 0.005645
# 3 -0.002540 -0.002775 0.011197 -0.001052 -0.002084 -0.003800
# 4 0.000295 0.000641 -0.001052 0.026150 0.003417 0.003755
# 5 0.004192 -0.002514 -0.002084 0.003417 0.032900 -0.009163
# 6 -0.004017 0.005645 -0.003800 0.003755 -0.009163 0.027123
#
#
# Mechanical properties :
#
#
# Convention : Reuss Voigt Hill
#
# Bulk Modulus (GPa) = 58.25762 61.29376 59.77569
# Shear Modulus (GPa) = 36.21972 43.48226 39.85099
#
# Velocity S-wave (km/s) = 4.07482 4.46470 4.27421
# Velocity P-wave (km/s) = 6.98898 7.39438 7.19453
#
# Compressibility (1/GPa) = 0.01716514
#
# Stress axis : x y z
#
# Youngs Moduli (GPa) = 115.64112 84.64853 89.30765
#
# Poissons Ratio (x) = 0.16346 0.22686
# Poissons Ratio (y) = 0.22330 0.24786
# Poissons Ratio (z) = 0.29376 0.23493
#
# Static dielectric constant tensor:
#      x y z
#    x 23.836910 8.932470 -9.752180 
#    y 8.932470 5.568260 -3.938270 
#    z -9.752180 -3.938270 6.064170 
# 
# From -- ./inp_files/574437.got.cif
#   From: 2010.05.17/outbox.cif.g08.bks.cpg/sg2_288_cif.got.tgz:574437.got - 2010.06.03 11:33:40.
