data_PCOD9016031
_publ_section_title
;
Structure prediction by ZEFSAII (Michael W. Deem and Ramdas Pophale) SiO2 
 PCOD9016031
Probable space group: P -1
;
_chemical_formula_sum "Si O2"
_cell_formula_units_Z 16
_cell_length_a 8.312185
_cell_length_b 9.155594
_cell_length_c 19.870727
_cell_angle_alpha 35.305943
_cell_angle_beta 57.156011
_cell_angle_gamma 50.522868
_cell_volume 673.665958
_symmetry_space_group_name_H-M "P -1"
_symmetry_group_IT_number 2
_symmetry_cell_setting 'triclinic'
loop_
_space_group_symop_operation_xyz
x,y,z
-x,-y,-z
loop_
_atom_site_type_symbol
_atom_site_label
_atom_site_fract_x
_atom_site_fract_y
_atom_site_fract_z
Si Si1 0.504662 0.052853 0.397984
Si Si2 0.881820 0.601992 0.419759
Si Si3 0.220923 0.751360 0.527229
Si Si4 0.940205 0.150984 0.118692
Si Si5 0.828298 0.631001 0.206576
Si Si6 0.815533 0.384819 0.775066
Si Si7 0.908069 0.693445 0.846690
Si Si8 0.549121 0.178086 0.121503
O O1 0.721331 0.893271 0.373226
O O2 0.371941 0.904260 0.447203
O O3 0.500000 0.000000 0.500000
O O4 0.404763 0.373330 0.279201
O O5 0.781824 0.398463 0.486421
O O6 0.000000 0.500000 0.500000
O O7 0.045327 0.593192 0.328201
O O8 0.262603 0.516939 0.662613
O O9 0.000000 0.000000 0.500000
O O10 0.734297 0.095144 0.166523
O O11 0.024381 0.128699 0.183364
O O12 0.889799 0.450672 0.987428
O O13 0.141983 0.933896 0.115241
O O14 0.057801 0.589696 0.198272
O O15 0.896058 0.451870 0.192000
O O16 0.672123 0.951945 0.121196
O O17 0.676951 0.836974 0.811717
O O18 0.500000 0.500000 0.000000
#
# Coordination Sequence:
#
# PCOD9016031 Si02
#       8
#     2   2   2   2   2   2   2   2
#     4  12  23  41  64  91 126 171 210 258 324 375
#     4  11  22  41  63  86 123 165 206 261 316 368
#     4  11  22  43  60  90 129 160 213 266 301 380
#     4   9  21  41  64  93 131 160 212 268 310 389
#     4  10  22  40  65  92 125 162 215 258 312 382
#     4  10  22  41  58  92 129 158 212 260 308 381
#     4  10  21  42  66  92 126 170 206 262 331 367
#     4   9  20  40  62  91 126 163 207 260 315 380
#
# _framework density 23.750644999999999
#
# number of rings (size 3 to 8) (size 9 to 14) (size 15 to 20)
#    0.000    1.750    3.750    0.375    0.000   10.500 
#    2.250    9.375    0.000    0.000    0.000    0.000 
#    0.000    0.000    0.000    0.000    0.000    0.000 
#
# Total GULP energy -89219.131150 kJ/mol
# GULP energy per Si atom -5576.195697 kJ/mol
# Density = 2.369659 g / cm^3
# Si number density = 23.750645 Si / 1000 Ang^3
#
#
#
# Elastic Constant Matrix: (Units=GPa)
#
#
# Indices 1 2 3 4 5 6 
#
# 1 98.7462 41.5639 26.8120 -12.8341 -2.4730 -2.1012
# 2 41.5639 143.2384 9.9026 -25.7396 15.3733 -10.8916
# 3 26.8120 9.9026 17.8106 -11.6212 2.1703 -4.0826
# 4 -12.8341 -25.7396 -11.6212 36.9693 -4.7214 11.3494
# 5 -2.4730 15.3733 2.1703 -4.7214 24.3710 -7.4187
# 6 -2.1012 -10.8916 -4.0826 11.3494 -7.4187 46.6502
#
#
#
# Elastic Compliance Matrix: (Units=1/GPa)
#
#
# Indices 1 2 3 4 5 6 
#
# 1 0.020981 -0.005702 -0.033406 -0.006045 0.007325 -0.000674
# 2 -0.005702 0.009952 0.008210 0.006681 -0.006242 0.000167
# 3 -0.033406 0.008210 0.124025 0.030922 -0.013118 0.001657
# 4 -0.006045 0.006681 0.030922 0.041042 -0.001528 -0.006234
# 5 0.007325 -0.006242 -0.013118 -0.001528 0.048346 0.005785
# 6 -0.000674 0.000167 0.001657 -0.006234 0.005785 0.024026
#
#
# Mechanical properties :
#
#
# Convention : Reuss Voigt Hill
#
# Bulk Modulus (GPa) = 10.73411 46.26136 28.49774
# Shear Modulus (GPa) = 13.84187 33.69920 23.77053
#
# Velocity S-wave (km/s) = 2.41674 3.77088 3.16703
# Velocity P-wave (km/s) = 3.50954 6.20320 5.03967
#
# Compressibility (1/GPa) = 0.09316098
#
# Stress axis : x y z
#
# Youngs Moduli (GPa) = 47.66201 100.48482 8.06288
#
# Poissons Ratio (x) = 0.57300 0.26935
# Poissons Ratio (y) = 0.27179 -0.06619
# Poissons Ratio (z) = 1.59219 -0.82494
#
# Static dielectric constant tensor:
#      x y z
#    x 1.852530 0.011470 -0.046990 
#    y 0.011470 1.917790 0.005010 
#    z -0.046990 0.005010 1.984930 
# 
# From -- ./inp_files/213202.got.cif
#   From: 2010.05.17/outbox.cif.g08.bks.cpg/sg2_107_cif.got.tgz:213202.got - 2010.06.03 11:33:40.
