data_PCOD9016014
_publ_section_title
;
Structure prediction by ZEFSAII (Michael W. Deem and Ramdas Pophale) SiO2 
 PCOD9016014
Probable space group: P -1
;
_chemical_formula_sum "Si O2"
_cell_formula_units_Z 14
_cell_length_a 8.485363
_cell_length_b 13.546837
_cell_length_c 11.873877
_cell_angle_alpha 111.798139
_cell_angle_beta 113.462462
_cell_angle_gamma 27.089132
_cell_volume 569.689398
_symmetry_space_group_name_H-M "P -1"
_symmetry_group_IT_number 2
_symmetry_cell_setting 'triclinic'
loop_
_space_group_symop_operation_xyz
x,y,z
-x,-y,-z
loop_
_atom_site_type_symbol
_atom_site_label
_atom_site_fract_x
_atom_site_fract_y
_atom_site_fract_z
Si Si1 0.398748 0.940429 0.894321
Si Si2 0.618644 0.068691 0.736058
Si Si3 0.634151 0.665361 0.023014
Si Si4 0.870482 0.715926 0.742484
Si Si5 0.613348 0.390070 0.201860
Si Si6 0.479633 0.823377 0.491953
Si Si7 0.870755 0.213242 0.652836
O O1 0.357624 0.884096 0.962887
O O2 0.735717 0.734070 0.824088
O O3 0.080725 0.101746 0.784525
O O4 0.500000 0.000000 0.000000
O O5 0.608481 0.959278 0.747944
O O6 0.039913 0.857034 0.759788
O O7 0.475609 0.145926 0.602652
O O8 0.432533 0.257134 0.838397
O O9 0.563466 0.582342 0.934715
O O10 0.000000 0.500000 0.000000
O O11 0.803922 0.673551 0.602471
O O12 0.236616 0.579345 0.790167
O O13 0.359869 0.555942 0.303234
O O14 0.377010 0.756203 0.416092
O O15 0.144567 0.053533 0.561436
#
# Coordination Sequence:
#
# PCOD9016014 Si02
#       7
#     2   2   2   2   2   2   2
#     4  11  20  42  65  88 129 164 209 263 310 375
#     4  10  22  42  62  94 130 165 207 265 314 373
#     4  12  25  42  67  96 127 166 213 263 323 378
#     4   9  22  39  66  90 127 166 210 256 316 368
#     4  10  23  40  63  98 128 161 216 259 318 378
#     4  10  21  42  66  90 129 175 209 263 310 374
#     4  10  23  40  67  96 126 169 216 255 321 375
#
# _framework density 24.574797
#
# number of rings (size 3 to 8) (size 9 to 14) (size 15 to 20)
#    0.857    0.857    1.429    2.571    2.000    3.429 
#    0.000    7.143    0.000    0.000    0.000    0.000 
#    0.000    0.000    0.000    0.000    0.000    0.000 
#
# Total GULP energy -78247.862052 kJ/mol
# GULP energy per Si atom -5589.133004 kJ/mol
# Density = 2.451886 g / cm^3
# Si number density = 24.574797 Si / 1000 Ang^3
#
#
#
# Elastic Constant Matrix: (Units=GPa)
#
#
# Indices 1 2 3 4 5 6 
#
# 1 71.6847 6.4370 50.0968 -7.1831 17.5648 -2.5396
# 2 6.4370 85.5830 40.6662 24.9420 7.9185 -10.3564
# 3 50.0968 40.6662 191.4975 15.0438 13.2253 -2.8266
# 4 -7.1831 24.9420 15.0438 42.1209 3.0744 3.7254
# 5 17.5648 7.9185 13.2253 3.0744 55.1042 -9.7902
# 6 -2.5396 -10.3564 -2.8266 3.7254 -9.7902 25.7395
#
#
#
# Elastic Compliance Matrix: (Units=1/GPa)
#
#
# Indices 1 2 3 4 5 6 
#
# 1 0.019459 -0.000495 -0.005099 0.006001 -0.005567 -0.001825
# 2 -0.000495 0.016724 -0.002557 -0.009800 0.000326 0.007942
# 3 -0.005099 -0.002557 0.007224 -0.001927 0.000306 -0.000344
# 4 0.006001 -0.009800 -0.001927 0.032364 -0.003553 -0.009598
# 5 -0.005567 0.000326 0.000306 -0.003553 0.021474 0.008298
# 6 -0.001825 0.007942 -0.000344 -0.009598 0.008298 0.046374
#
#
# Mechanical properties :
#
#
# Convention : Reuss Voigt Hill
#
# Bulk Modulus (GPa) = 36.89559 60.35169 48.62364
# Shear Modulus (GPa) = 29.59332 41.36395 35.47864
#
# Velocity S-wave (km/s) = 3.47394 4.10712 3.80373
# Velocity P-wave (km/s) = 5.58007 6.86315 6.25460
#
# Compressibility (1/GPa) = 0.02710351
#
# Stress axis : x y z
#
# Youngs Moduli (GPa) = 51.39105 59.79422 138.42165
#
# Poissons Ratio (x) = 0.02961 0.70584
# Poissons Ratio (y) = 0.02545 0.35399
# Poissons Ratio (z) = 0.26205 0.15291
#
# Static dielectric constant tensor:
#      x y z
#    x 1.954590 -0.009070 0.012860 
#    y -0.009070 2.056340 -0.022980 
#    z 0.012860 -0.022980 1.912640 
# 
# From -- ./inp_files/397671.got.cif
#   From: 2010.05.17/outbox.cif.g08.bks.cpg/sg2_199_cif.got.tgz:397671.got - 2010.06.03 11:33:40.
