data_PCOD9016658
_publ_section_title
;
Structure prediction by ZEFSAII (Michael W. Deem and Ramdas Pophale) SiO2 
 PCOD9016658
Probable space group: P -1
;
_chemical_formula_sum "Si O2"
_cell_formula_units_Z 16
_cell_length_a 8.758599
_cell_length_b 17.540521
_cell_length_c 12.232038
_cell_angle_alpha 127.166071
_cell_angle_beta 85.748447
_cell_angle_gamma 137.362209
_cell_volume 738.050055
_symmetry_space_group_name_H-M "P -1"
_symmetry_group_IT_number 2
_symmetry_cell_setting 'triclinic'
loop_
_space_group_symop_operation_xyz
x,y,z
-x,-y,-z
loop_
_atom_site_type_symbol
_atom_site_label
_atom_site_fract_x
_atom_site_fract_y
_atom_site_fract_z
Si Si1 0.358217 0.184883 0.605229
Si Si2 0.421633 0.316817 0.510018
Si Si3 0.601154 0.931176 0.012104
Si Si4 0.246683 0.783433 0.342350
Si Si5 0.974755 0.241779 0.448559
Si Si6 0.276396 0.588144 0.624324
Si Si7 0.771799 0.584601 0.006706
Si Si8 0.963670 0.232285 0.078989
O O1 0.371572 0.197010 0.484224
O O2 0.556708 0.206663 0.662318
O O3 0.569056 0.390253 0.798454
O O4 0.000000 0.000000 0.500000
O O5 0.175894 0.264828 0.507069
O O6 0.442330 0.285634 0.361701
O O7 0.734574 0.548398 0.705713
O O8 0.848520 0.081247 0.029468
O O9 0.751177 0.056429 0.222877
O O10 0.436364 0.738100 0.841579
O O11 0.306317 0.840064 0.942287
O O12 0.128732 0.745904 0.436582
O O13 0.991983 0.660922 0.155530
O O14 0.500000 0.000000 0.500000
O O15 0.143731 0.413014 0.514075
O O16 0.000000 0.500000 0.500000
O O17 0.500000 0.500000 0.000000
O O18 0.969816 0.741597 0.033088
#
# Coordination Sequence:
#
# PCOD9016658 Si02
#       8
#     2   2   2   2   2   2   2   2
#     4  11  25  45  72 103 139 187 246 295 356 435
#     4  11  23  45  67  97 147 180 227 305 355 418
#     4  11  23  41  71 105 134 187 232 286 355 433
#     4  12  25  46  71 101 143 191 236 296 363 430
#     4  12  26  45  68 102 146 181 234 300 355 425
#     4  12  23  42  70 100 137 184 235 281 362 425
#     4  11  24  44  72 104 142 190 236 296 365 424
#     4  10  21  42  68  97 141 176 231 288 350 422
#
# _framework density 21.678747999999999
#
# number of rings (size 3 to 8) (size 9 to 14) (size 15 to 20)
#    0.000    0.750    2.500    6.000    1.750    2.500 
#    4.500    0.000    0.000    0.000    0.000    0.000 
#    0.000    0.000    0.000    0.000    0.000    0.000 
#
# Total GULP energy -89100.329209 kJ/mol
# GULP energy per Si atom -5568.770576 kJ/mol
# Density = 2.162941 g / cm^3
# Si number density = 21.678748 Si / 1000 Ang^3
#
#
#
# Elastic Constant Matrix: (Units=GPa)
#
#
# Indices 1 2 3 4 5 6 
#
# 1 40.4655 -37.6407 -17.1152 -0.2187 19.1012 9.9908
# 2 -37.6407 86.4604 -15.0809 -14.3749 48.1572 26.9120
# 3 -17.1152 -15.0809 94.6323 1.8052 15.1951 2.9378
# 4 -0.2187 -14.3749 1.8052 31.6823 5.1578 -2.9555
# 5 19.1012 48.1572 15.1951 5.1578 38.4564 -0.3584
# 6 9.9908 26.9120 2.9378 -2.9555 -0.3584 28.3913
#
#
#
# Elastic Compliance Matrix: (Units=1/GPa)
#
#
# Indices 1 2 3 4 5 6 
#
# 1 0.003540 -0.011182 -0.003657 -0.006359 0.014628 0.009255
# 2 -0.011182 -0.002651 -0.004374 -0.002179 0.010958 0.006812
# 3 -0.003657 -0.004374 0.008425 -0.002800 0.004381 0.004325
# 4 -0.006359 -0.002179 -0.002800 0.030948 0.002916 0.007851
# 5 0.014628 0.010958 0.004381 0.002916 0.002748 -0.015649
# 6 0.009255 0.006812 0.004325 0.007851 -0.015649 0.025681
#
#
# Mechanical properties :
#
#
# Convention : Reuss Voigt Hill
#
# Bulk Modulus (GPa) = -34.35102 9.09829 -12.62636
# Shear Modulus (GPa) = 51.32816 39.13232 45.23024
#
# Velocity S-wave (km/s) = 4.87115 4.25326 4.57265
# Velocity P-wave (km/s) = 3.96959 5.32224 4.69488
#
# Compressibility (1/GPa) = -0.02911122
#
# Stress axis : x y z
#
# Youngs Moduli (GPa) = 282.46246 -377.23503 118.70104
#
# Poissons Ratio (x) = -4.21821 0.43403
# Poissons Ratio (y) = 3.15847 0.51922
# Poissons Ratio (z) = 1.03283 -1.65009
#
# Static dielectric constant tensor:
#      x y z
#    x 1.766200 -0.078210 -0.027640 
#    y -0.078210 1.756410 -0.054300 
#    z -0.027640 -0.054300 1.691640 
# 
# From -- ./inp_files/403239.got.cif
#   From: 2010.05.17/outbox.cif.g08.bks.cpg/sg2_202_cif.got.tgz:403239.got - 2010.06.03 11:33:40.
