data_PCOD9016578
_publ_section_title
;
Structure prediction by ZEFSAII (Michael W. Deem and Ramdas Pophale) SiO2 
 PCOD9016578
Probable space group: P -1
;
_chemical_formula_sum "Si O2"
_cell_formula_units_Z 14
_cell_length_a 13.418966
_cell_length_b 8.089448
_cell_length_c 7.292390
_cell_angle_alpha 126.518493
_cell_angle_beta 63.526724
_cell_angle_gamma 110.861541
_cell_volume 564.917500
_symmetry_space_group_name_H-M "P -1"
_symmetry_group_IT_number 2
_symmetry_cell_setting 'triclinic'
loop_
_space_group_symop_operation_xyz
x,y,z
-x,-y,-z
loop_
_atom_site_type_symbol
_atom_site_label
_atom_site_fract_x
_atom_site_fract_y
_atom_site_fract_z
Si Si1 0.233104 0.819137 0.447433
Si Si2 0.001630 0.021973 0.287701
Si Si3 0.559017 0.235418 0.608297
Si Si4 0.513342 0.680988 0.866986
Si Si5 0.322482 0.922384 0.066171
Si Si6 0.099744 0.645661 0.911195
Si Si7 0.122432 0.432242 0.389080
O O1 0.313017 0.812454 0.551719
O O2 0.298634 0.948133 0.319047
O O3 0.201367 0.570301 0.273997
O O4 0.116939 0.908530 0.621783
O O5 0.105219 0.189178 0.254858
O O6 0.000000 0.000000 0.500000
O O7 0.023388 0.819420 0.028495
O O8 0.530227 0.440489 0.659946
O O9 0.500000 0.000000 0.500000
O O10 0.542264 0.308910 0.879943
O O11 0.627328 0.846868 0.890032
O O12 0.425771 0.783289 0.875256
O O13 0.205684 0.783312 0.011838
O O14 0.146760 0.510448 0.627311
O O15 0.000000 0.500000 0.000000
O O16 0.000000 0.500000 0.500000
#
# Coordination Sequence:
#
# PCOD9016578 Si02
#       7
#     2   2   2   2   2   2   2
#     4  10  22  39  62  93 127 165 211 264 320 379
#     4  11  21  41  62  90 129 167 210 266 318 381
#     4  10  22  41  65  96 128 165 216 269 327 386
#     4   9  22  44  65  91 131 171 214 272 322 380
#     4  10  21  42  68  94 128 174 219 265 327 384
#     4  12  23  38  67  96 127 171 215 259 327 389
#     4  10  23  41  59  91 132 163 212 264 315 389
#
# _framework density 24.78238
#
# number of rings (size 3 to 8) (size 9 to 14) (size 15 to 20)
#    0.000    1.714    2.857    0.857    4.000    3.429 
#    0.000    9.286    0.000    0.000    0.000    0.000 
#    0.000    0.000    0.000    0.000    0.000    0.000 
#
# Total GULP energy -77981.714860 kJ/mol
# GULP energy per Si atom -5570.122490 kJ/mol
# Density = 2.472597 g / cm^3
# Si number density = 24.782380 Si / 1000 Ang^3
#
#
#
# Elastic Constant Matrix: (Units=GPa)
#
#
# Indices 1 2 3 4 5 6 
#
# 1 127.3766 40.9252 7.0158 28.6925 -13.8555 17.2924
# 2 40.9252 170.8189 22.6689 25.8777 -14.4843 14.8666
# 3 7.0158 22.6689 74.6225 18.7791 -13.0225 -10.8460
# 4 28.6925 25.8777 18.7791 56.5975 -5.6238 -7.6098
# 5 -13.8555 -14.4843 -13.0225 -5.6238 21.6650 6.1211
# 6 17.2924 14.8666 -10.8460 -7.6098 6.1211 40.4545
#
#
#
# Elastic Compliance Matrix: (Units=1/GPa)
#
#
# Indices 1 2 3 4 5 6 
#
# 1 0.010982 -0.000715 0.000993 -0.005684 0.007465 -0.006364
# 2 -0.000715 0.007275 -0.001337 -0.002637 0.003999 -0.003828
# 3 0.000993 -0.001337 0.016520 -0.004255 0.007858 0.002507
# 4 -0.005684 -0.002637 -0.004255 0.023768 -0.003852 0.007312
# 5 0.007465 0.003999 0.007858 -0.003852 0.060856 -0.012487
# 6 -0.006364 -0.003828 0.002507 0.007312 -0.012487 0.032783
#
#
# Mechanical properties :
#
#
# Convention : Reuss Voigt Hill
#
# Bulk Modulus (GPa) = 30.62059 57.11534 43.86797
# Shear Modulus (GPa) = 30.26824 43.89060 37.07942
#
# Velocity S-wave (km/s) = 3.49859 4.21294 3.87227
# Velocity P-wave (km/s) = 5.35750 6.83827 6.14267
#
# Compressibility (1/GPa) = 0.03265776
#
# Stress axis : x y z
#
# Youngs Moduli (GPa) = 91.05747 137.46344 60.53169
#
# Poissons Ratio (x) = 0.09828 -0.06009
# Poissons Ratio (y) = 0.06510 0.08096
# Poissons Ratio (z) = -0.09040 0.18385
#
# Static dielectric constant tensor:
#      x y z
#    x 2.084540 -0.016650 0.064240 
#    y -0.016650 2.193270 -0.045330 
#    z 0.064240 -0.045330 2.004380 
# 
# From -- ./inp_files/293414.got.cif
#   From: 2010.05.17/outbox.cif.g08.bks.cpg/sg2_147_cif.got.tgz:293414.got - 2010.06.03 11:33:40.
