data_PCOD9016706
_publ_section_title
;
Structure prediction by ZEFSAII (Michael W. Deem and Ramdas Pophale) SiO2 
 PCOD9016706
Probable space group: P -1
;
_chemical_formula_sum "Si O2"
_cell_formula_units_Z 13
_cell_length_a 7.463098
_cell_length_b 9.433843
_cell_length_c 7.662799
_cell_angle_alpha 84.632571
_cell_angle_beta 112.015071
_cell_angle_gamma 84.103350
_cell_volume 492.393124
_symmetry_space_group_name_H-M "P -1"
_symmetry_group_IT_number 2
_symmetry_cell_setting 'triclinic'
loop_
_space_group_symop_operation_xyz
x,y,z
-x,-y,-z
loop_
_atom_site_type_symbol
_atom_site_label
_atom_site_fract_x
_atom_site_fract_y
_atom_site_fract_z
Si Si1 0.958548 0.440040 0.238536
Si Si2 0.664961 0.593042 0.833421
Si Si3 0.410612 0.864343 0.896679
Si Si4 0.675364 0.922937 0.455719
Si Si5 0.112151 0.704134 0.434419
Si Si6 0.566044 0.304538 0.738719
Si Si7 0.000000 0.000000 0.500000
O O1 0.858226 0.347289 0.350022
O O2 0.177563 0.377755 0.258878
O O3 0.991214 0.589316 0.322343
O O4 0.807623 0.492387 0.026532
O O5 0.560610 0.739458 0.867662
O O6 0.525719 0.476326 0.737211
O O7 0.278239 0.945378 0.679952
O O8 0.338521 0.781993 0.046217
O O9 0.500000 0.000000 0.000000
O O10 0.609432 0.784418 0.359916
O O11 0.500000 0.000000 0.500000
O O12 0.881394 0.913837 0.621254
O O13 0.297883 0.709275 0.379807
O O14 0.994348 0.860269 0.382732
#
# Coordination Sequence:
#
# PCOD9016706 Si02
#       7
#     2   2   2   2   2   2   1
#     4   9  22  41  67 101 142 177 236 275 339 411
#     4  10  21  42  69 100 136 186 226 287 340 404
#     4  10  24  42  66  98 139 177 221 285 343 404
#     4  11  25  47  66 101 138 176 236 282 347 415
#     4  10  22  42  66 101 139 182 227 282 337 404
#     4  10  22  44  66  99 137 175 229 278 340 409
#     4  12  26  42  74  96 138 186 222 292 348 404
#
# _framework density 26.401668000000001
#
# number of rings (size 3 to 8) (size 9 to 14) (size 15 to 20)
#    0.000    1.846    1.538    0.462    8.615    0.000 
#    0.000    2.308    0.000    0.000    0.000    0.000 
#    0.000    0.000    0.000    0.000    0.000    0.000 
#
# Total GULP energy -72515.416997 kJ/mol
# GULP energy per Si atom -5578.109000 kJ/mol
# Density = 2.634158 g / cm^3
# Si number density = 26.401668 Si / 1000 Ang^3
#
#
#
# Elastic Constant Matrix: (Units=GPa)
#
#
# Indices 1 2 3 4 5 6 
#
# 1 154.0739 98.3108 36.9066 1.8426 -31.2276 16.1789
# 2 98.3108 221.6532 49.3035 8.4063 -27.3873 20.5967
# 3 36.9066 49.3035 119.0710 -29.2944 -22.7052 11.4285
# 4 1.8426 8.4063 -29.2944 53.8466 4.7465 -8.9005
# 5 -31.2276 -27.3873 -22.7052 4.7465 41.5444 2.6260
# 6 16.1789 20.5967 11.4285 -8.9005 2.6260 39.9034
#
#
#
# Elastic Compliance Matrix: (Units=1/GPa)
#
#
# Indices 1 2 3 4 5 6 
#
# 1 0.010236 -0.003408 -0.000763 -0.001164 0.005340 -0.002784
# 2 -0.003408 0.006937 -0.001956 -0.002531 0.001377 -0.002294
# 3 -0.000763 -0.001956 0.011827 0.006265 0.003944 -0.000931
# 4 -0.001164 -0.002531 0.006265 0.023490 -0.002143 0.005365
# 5 0.005340 0.001377 0.003944 -0.002143 0.031808 -0.006577
# 6 -0.002784 -0.002294 -0.000931 0.005365 -0.006577 0.029269
#
#
# Mechanical properties :
#
#
# Convention : Reuss Voigt Hill
#
# Bulk Modulus (GPa) = 59.71058 95.98219 77.84639
# Shear Modulus (GPa) = 38.05045 47.74403 42.89724
#
# Velocity S-wave (km/s) = 3.80045 4.25711 4.03524
# Velocity P-wave (km/s) = 6.47481 7.78444 7.15963
#
# Compressibility (1/GPa) = 0.01674745
#
# Stress axis : x y z
#
# Youngs Moduli (GPa) = 97.69452 144.14435 84.54896
#
# Poissons Ratio (x) = 0.49121 0.06448
# Poissons Ratio (y) = 0.33292 0.16541
# Poissons Ratio (z) = 0.07450 0.28200
#
# Static dielectric constant tensor:
#      x y z
#    x 4.373090 -0.452510 0.830810 
#    y -0.452510 2.128320 -0.209560 
#    z 0.830810 -0.209560 2.530420 
# 
# From -- ./inp_files/154803.got.cif
#   From: 2010.05.17/outbox.cif.g08.bks.cpg/sg2_78_cif.got.tgz:154803.got - 2010.06.03 11:33:40.
