data_PCOD9016330
_publ_section_title
;
Structure prediction by ZEFSAII (Michael W. Deem and Ramdas Pophale) SiO2 
 PCOD9016330
Probable space group: P -1
;
_chemical_formula_sum "Si O2"
_cell_formula_units_Z 16
_cell_length_a 12.409337
_cell_length_b 12.224884
_cell_length_c 13.360074
_cell_angle_alpha 31.931324
_cell_angle_beta 121.929227
_cell_angle_gamma 140.112020
_cell_volume 641.172779
_symmetry_space_group_name_H-M "P -1"
_symmetry_group_IT_number 2
_symmetry_cell_setting 'triclinic'
loop_
_space_group_symop_operation_xyz
x,y,z
-x,-y,-z
loop_
_atom_site_type_symbol
_atom_site_label
_atom_site_fract_x
_atom_site_fract_y
_atom_site_fract_z
Si Si1 0.668470 0.872945 0.068387
Si Si2 0.697333 0.814890 0.342102
Si Si3 0.880954 0.327838 0.174263
Si Si4 0.060466 0.772401 0.256758
Si Si5 0.669475 0.487405 0.934179
Si Si6 0.012307 0.898666 0.477884
Si Si7 0.403255 0.147098 0.237736
Si Si8 0.344931 0.600446 0.643097
O O1 0.716897 0.972737 0.128784
O O2 0.474166 0.741194 0.044774
O O3 0.639161 0.588764 0.267697
O O4 0.820575 0.107032 0.879679
O O5 0.500000 0.500000 0.500000
O O6 0.737239 0.996732 0.318652
O O7 0.840342 0.792307 0.420351
O O8 0.978654 0.330623 0.312443
O O9 0.788775 0.434872 0.070312
O O10 0.000000 0.500000 0.000000
O O11 0.000000 0.500000 0.500000
O O12 0.866924 0.652087 0.231337
O O13 0.209340 0.027735 0.211533
O O14 0.805705 0.815134 0.706268
O O15 0.541298 0.399417 0.029796
O O16 0.000000 0.000000 0.500000
O O17 0.503261 0.244956 0.316593
O O18 0.376688 0.869983 0.408362
#
# Coordination Sequence:
#
# PCOD9016330 Si02
#       8
#     2   2   2   2   2   2   2   2
#     4  11  24  41  66 100 133 177 222 282 345 402
#     4  11  25  43  67 101 141 173 228 283 345 406
#     4  11  23  44  70  92 135 183 225 283 333 402
#     4   9  20  41  63  92 138 171 226 283 334 411
#     4  11  23  41  69  96 133 172 233 272 337 408
#     4  10  21  43  66  95 132 173 229 275 332 402
#     4   9  22  40  66  99 126 180 221 275 344 412
#     4  10  21  42  67  93 139 169 224 281 342 404
#
# _framework density 24.954273000000001
#
# number of rings (size 3 to 8) (size 9 to 14) (size 15 to 20)
#    0.000    1.750    2.500    1.875    5.250    2.500 
#    2.250    2.500    0.000    0.000    0.000    0.000 
#    0.000    0.000    0.000    0.000    0.000    0.000 
#
# Total GULP energy -89436.454599 kJ/mol
# GULP energy per Si atom -5589.778412 kJ/mol
# Density = 2.489748 g / cm^3
# Si number density = 24.954273 Si / 1000 Ang^3
#
#
#
# Elastic Constant Matrix: (Units=GPa)
#
#
# Indices 1 2 3 4 5 6 
#
# 1 62.2119 17.8545 28.6822 0.5018 -7.6520 20.1719
# 2 17.8545 130.6625 37.0290 1.2246 -14.2939 21.0105
# 3 28.6822 37.0290 138.4503 -3.0610 -15.5473 18.9929
# 4 0.5018 1.2246 -3.0610 53.6985 11.9848 0.0343
# 5 -7.6520 -14.2939 -15.5473 11.9848 44.3283 -2.8649
# 6 20.1719 21.0105 18.9929 0.0343 -2.8649 50.4338
#
#
#
# Elastic Compliance Matrix: (Units=1/GPa)
#
#
# Indices 1 2 3 4 5 6 
#
# 1 0.019944 -0.000639 -0.002856 -0.000782 0.002025 -0.006520
# 2 -0.000639 0.008891 -0.001643 -0.000784 0.002218 -0.002703
# 3 -0.002856 -0.001643 0.008651 0.000137 0.001889 -0.001324
# 4 -0.000782 -0.000784 0.000137 0.019930 -0.005712 0.000250
# 5 0.002025 0.002218 0.001889 -0.005712 0.025767 -0.000978
# 6 -0.006520 -0.002703 -0.001324 0.000250 -0.000978 0.024004
#
#
# Mechanical properties :
#
#
# Convention : Reuss Voigt Hill
#
# Bulk Modulus (GPa) = 36.75234 55.38401 46.06817
# Shear Modulus (GPa) = 39.51552 46.20939 42.86246
#
# Velocity S-wave (km/s) = 3.98366 4.30788 4.14894
# Velocity P-wave (km/s) = 5.99327 6.85464 6.43838
#
# Compressibility (1/GPa) = 0.02720915
#
# Stress axis : x y z
#
# Youngs Moduli (GPa) = 50.14148 112.47573 115.59779
#
# Poissons Ratio (x) = 0.07182 0.33019
# Poissons Ratio (y) = 0.03202 0.18993
# Poissons Ratio (z) = 0.14322 0.18481
#
# Static dielectric constant tensor:
#      x y z
#    x 2.117860 0.016550 0.116900 
#    y 0.016550 2.093710 -0.007860 
#    z 0.116900 -0.007860 2.029920 
# 
# From -- ./inp_files/534139.got.cif
#   From: 2010.05.17/outbox.cif.g08.bks.cpg/sg2_268_cif.got.tgz:534139.got - 2010.06.03 11:33:40.
