data_PCOD9016157
_publ_section_title
;
Structure prediction by ZEFSAII (Michael W. Deem and Ramdas Pophale) SiO2 
 PCOD9016157
Probable space group: P -1
;
_chemical_formula_sum "Si O2"
_cell_formula_units_Z 12
_cell_length_a 8.058249
_cell_length_b 5.548157
_cell_length_c 19.279760
_cell_angle_alpha 131.109190
_cell_angle_beta 44.766607
_cell_angle_gamma 121.248664
_cell_volume 455.163764
_symmetry_space_group_name_H-M "P -1"
_symmetry_group_IT_number 2
_symmetry_cell_setting 'triclinic'
loop_
_space_group_symop_operation_xyz
x,y,z
-x,-y,-z
loop_
_atom_site_type_symbol
_atom_site_label
_atom_site_fract_x
_atom_site_fract_y
_atom_site_fract_z
Si Si1 0.433300 0.197839 0.221094
Si Si2 0.882181 0.706523 0.799169
Si Si3 0.308941 0.497617 0.455364
Si Si4 0.813389 0.818902 0.423514
Si Si5 0.096003 0.353320 0.872674
Si Si6 0.776082 0.769342 0.991124
O O1 0.248232 0.250286 0.225769
O O2 0.349042 0.273010 0.336153
O O3 0.658297 0.459174 0.186360
O O4 0.550962 0.861756 0.116825
O O5 0.735492 0.805669 0.928463
O O6 0.978661 0.360687 0.706832
O O7 0.108472 0.974513 0.791860
O O8 0.565206 0.656908 0.435409
O O9 0.192987 0.292156 0.515058
O O10 0.179902 0.804372 0.524738
O O11 0.877217 0.429457 0.903763
O O12 0.000000 0.500000 0.000000
O O13 0.000000 0.000000 0.000000
#
# Coordination Sequence:
#
# PCOD9016157 Si02
#       6
#     2   2   2   2   2   2
#     4  11  25  44  68 104 138 176 237 290 348 421
#     4  12  25  44  68 102 139 178 232 293 349 419
#     4  10  24  46  72 103 138 191 236 291 352 423
#     4  10  24  44  75 100 140 189 239 287 355 421
#     4  11  24  42  69  97 138 187 223 284 358 419
#     4  10  21  42  66  97 134 178 227 280 345 420
#
# _framework density 26.364134
#
# number of rings (size 3 to 8) (size 9 to 14) (size 15 to 20)
#    0.000    1.333    3.333    2.500    9.333    2.000 
#    3.000    0.000    0.000    0.000    0.000    0.000 
#    0.000    0.000    0.000    0.000    0.000    0.000 
#
# Total GULP energy -67225.687826 kJ/mol
# GULP energy per Si atom -5602.140652 kJ/mol
# Density = 2.630413 g / cm^3
# Si number density = 26.364134 Si / 1000 Ang^3
#
#
#
# Elastic Constant Matrix: (Units=GPa)
#
#
# Indices 1 2 3 4 5 6 
#
# 1 117.8992 49.8961 74.7468 -6.9433 15.3205 -15.4621
# 2 49.8961 115.8465 57.6189 23.1279 10.0524 -2.1520
# 3 74.7468 57.6189 202.9066 -7.3750 21.6175 -24.6722
# 4 -6.9433 23.1279 -7.3750 39.4791 -12.9897 2.3139
# 5 15.3205 10.0524 21.6175 -12.9897 45.7750 -8.7269
# 6 -15.4621 -2.1520 -24.6722 2.3139 -8.7269 53.2886
#
#
#
# Elastic Compliance Matrix: (Units=1/GPa)
#
#
# Indices 1 2 3 4 5 6 
#
# 1 0.013008 -0.004965 -0.002956 0.004454 -0.000227 0.001975
# 2 -0.004965 0.014532 -0.002552 -0.011007 -0.003865 -0.002191
# 3 -0.002956 -0.002552 0.007164 0.001896 -0.000890 0.002128
# 4 0.004454 -0.011007 0.001896 0.036325 0.010701 0.001901
# 5 -0.000227 -0.003865 -0.000890 0.010701 0.026857 0.003300
# 6 0.001975 -0.002191 0.002128 0.001901 0.003300 0.020694
#
#
# Mechanical properties :
#
#
# Convention : Reuss Voigt Hill
#
# Bulk Modulus (GPa) = 72.68401 89.01955 80.85178
# Shear Modulus (GPa) = 34.69514 44.66791 39.68153
#
# Velocity S-wave (km/s) = 3.63160 4.12061 3.88381
# Velocity P-wave (km/s) = 6.72412 7.51518 7.13063
#
# Compressibility (1/GPa) = 0.01375818
#
# Stress axis : x y z
#
# Youngs Moduli (GPa) = 76.87680 68.81244 139.57844
#
# Poissons Ratio (x) = 0.34168 0.41254
# Poissons Ratio (y) = 0.38172 0.35623
# Poissons Ratio (z) = 0.22722 0.17562
#
# Static dielectric constant tensor:
#      x y z
#    x 2.105350 -0.112410 -0.011260 
#    y -0.112410 2.327460 0.003380 
#    z -0.011260 0.003380 1.984010 
# 
# From -- ./inp_files/38538.got.cif
#   From: 2010.05.17/outbox.cif.g08.bks.cpg/sg2_20_cif.got.tgz:38538.got - 2010.06.03 11:33:40.
