data_PCOD9016899
_publ_section_title
;
Structure prediction by ZEFSAII (Michael W. Deem and Ramdas Pophale) SiO2 
 PCOD9016899
Probable space group: P -1
;
_chemical_formula_sum "Si O2"
_cell_formula_units_Z 12
_cell_length_a 11.558225
_cell_length_b 7.102539
_cell_length_c 8.722539
_cell_angle_alpha 106.273516
_cell_angle_beta 140.953444
_cell_angle_gamma 81.980141
_cell_volume 429.380885
_symmetry_space_group_name_H-M "P -1"
_symmetry_group_IT_number 2
_symmetry_cell_setting 'triclinic'
loop_
_space_group_symop_operation_xyz
x,y,z
-x,-y,-z
loop_
_atom_site_type_symbol
_atom_site_label
_atom_site_fract_x
_atom_site_fract_y
_atom_site_fract_z
Si Si1 0.101634 0.223509 0.926171
Si Si2 0.192720 0.648855 0.761286
Si Si3 0.496628 0.263337 0.433319
Si Si4 0.740570 0.084094 0.403031
Si Si5 0.964451 0.639181 0.780382
Si Si6 0.431801 0.303277 0.720565
O O1 0.954795 0.072365 0.653905
O O2 0.050373 0.437851 0.863767
O O3 0.314641 0.195779 0.129372
O O4 0.062533 0.236344 0.068898
O O5 0.119330 0.753982 0.858823
O O6 0.000000 0.500000 0.500000
O O7 0.254887 0.797911 0.722806
O O8 0.379133 0.569646 0.998287
O O9 0.500000 0.500000 0.500000
O O10 0.243572 0.399365 0.515434
O O11 0.477514 0.207346 0.580525
O O12 0.628159 0.869461 0.258275
O O13 0.667209 0.206341 0.498356
#
# Coordination Sequence:
#
# PCOD9016899 Si02
#       6
#     2   2   2   2   2   2
#     4  10  21  42  69  99 130 178 228 279 336 399
#     4  12  26  44  68  99 140 187 229 276 334 417
#     4  11  24  43  75 102 135 179 231 284 332 412
#     4  12  25  43  69 106 139 177 225 286 346 401
#     4  10  22  44  69  97 136 177 230 277 334 408
#     4  11  26  45  70 101 140 179 225 287 343 398
#
# _framework density 27.947219
#
# number of rings (size 3 to 8) (size 9 to 14) (size 15 to 20)
#    0.000    1.000    1.667    6.000    0.000    6.667 
#    0.000    0.000    0.000    0.000    0.000    0.000 
#    0.000    0.000    0.000    0.000    0.000    0.000 
#
# Total GULP energy -67221.457487 kJ/mol
# GULP energy per Si atom -5601.788124 kJ/mol
# Density = 2.788361 g / cm^3
# Si number density = 27.947219 Si / 1000 Ang^3
#
#
#
# Elastic Constant Matrix: (Units=GPa)
#
#
# Indices 1 2 3 4 5 6 
#
# 1 122.2502 42.5171 39.5856 -32.7615 1.6919 30.2910
# 2 42.5171 121.6809 29.4520 -7.3145 -4.3137 31.4580
# 3 39.5856 29.4520 213.4396 -5.4996 52.2260 22.1699
# 4 -32.7615 -7.3145 -5.4996 40.8029 5.1690 -3.3456
# 5 1.6919 -4.3137 52.2260 5.1690 40.9971 -9.8653
# 6 30.2910 31.4580 22.1699 -3.3456 -9.8653 49.1913
#
#
#
# Elastic Compliance Matrix: (Units=1/GPa)
#
#
# Indices 1 2 3 4 5 6 
#
# 1 0.013592 -0.002439 -0.000503 0.010260 -0.003032 -0.006493
# 2 -0.002439 0.010466 -0.000838 -0.000732 0.001252 -0.004612
# 3 -0.000503 -0.000838 0.008553 0.001737 -0.012479 -0.005393
# 4 0.010260 -0.000732 0.001737 0.033415 -0.008380 -0.006040
# 5 -0.003032 0.001252 -0.012479 -0.008380 0.045260 0.015198
# 6 -0.006493 -0.004612 -0.005393 -0.006040 0.015198 0.032344
#
#
# Mechanical properties :
#
#
# Convention : Reuss Voigt Hill
#
# Bulk Modulus (GPa) = 39.92198 75.60891 57.76545
# Shear Modulus (GPa) = 31.34001 49.25265 40.29633
#
# Velocity S-wave (km/s) = 3.35236 4.20258 3.80132
# Velocity P-wave (km/s) = 5.41297 7.11771 6.32306
#
# Compressibility (1/GPa) = 0.02504886
#
# Stress axis : x y z
#
# Youngs Moduli (GPa) = 73.57528 95.54649 116.92250
#
# Poissons Ratio (x) = 0.23308 0.05887
# Poissons Ratio (y) = 0.17948 0.09796
# Poissons Ratio (z) = 0.03704 0.08005
#
# Static dielectric constant tensor:
#      x y z
#    x 2.166610 -0.050340 -0.117620 
#    y -0.050340 2.259000 0.025730 
#    z -0.117620 0.025730 2.245370 
# 
# From -- ./inp_files/213591.got.cif
#   From: 2010.05.17/outbox.cif.g08.bks.cpg/sg2_107_cif.got.tgz:213591.got - 2010.06.03 11:33:40.
