data_PCOD9016376
_publ_section_title
;
Structure prediction by ZEFSAII (Michael W. Deem and Ramdas Pophale) SiO2 
 PCOD9016376
Probable space group: P -1
;
_chemical_formula_sum "Si O2"
_cell_formula_units_Z 16
_cell_length_a 9.588232
_cell_length_b 5.380824
_cell_length_c 21.932225
_cell_angle_alpha 68.677333
_cell_angle_beta 53.390520
_cell_angle_gamma 53.968669
_cell_volume 734.401703
_symmetry_space_group_name_H-M "P -1"
_symmetry_group_IT_number 2
_symmetry_cell_setting 'triclinic'
loop_
_space_group_symop_operation_xyz
x,y,z
-x,-y,-z
loop_
_atom_site_type_symbol
_atom_site_label
_atom_site_fract_x
_atom_site_fract_y
_atom_site_fract_z
Si Si1 0.635925 0.529932 0.373238
Si Si2 0.216183 0.889874 0.426489
Si Si3 0.378560 0.322293 0.777762
Si Si4 0.145985 0.543185 0.368206
Si Si5 0.424611 0.408732 0.207350
Si Si6 0.640436 0.374707 0.034171
Si Si7 0.048035 0.327991 0.939525
Si Si8 0.283714 0.124945 0.574866
O O1 0.634229 0.615792 0.295864
O O2 0.745407 0.166641 0.381141
O O3 0.402036 0.654034 0.439859
O O4 0.720376 0.692691 0.379989
O O5 0.250571 0.180059 0.385270
O O6 0.217640 0.722273 0.378233
O O7 0.000000 0.000000 0.500000
O O8 0.454691 0.520898 0.778001
O O9 0.162298 0.419050 0.853057
O O10 0.510644 0.950991 0.785266
O O11 0.202872 0.574221 0.280655
O O12 0.913502 0.656140 0.431282
O O13 0.487315 0.513547 0.119396
O O14 0.786843 0.021914 0.052284
O O15 0.500000 0.500000 0.000000
O O16 0.825523 0.428633 0.965919
O O17 0.000000 0.500000 0.000000
O O18 0.500000 0.000000 0.500000
#
# Coordination Sequence:
#
# PCOD9016376 Si02
#       8
#     2   2   2   2   2   2   2   2
#     4  12  23  42  65  94 123 172 217 261 328 393
#     4  12  23  40  67  93 117 165 224 263 310 396
#     4  11  22  41  69  94 132 169 222 273 326 394
#     4  12  23  42  63  91 131 168 209 267 337 381
#     4  11  21  42  65  95 132 172 211 283 329 381
#     4  10  23  41  66  99 136 176 230 273 333 407
#     4  10  21  42  67  95 134 182 217 280 338 388
#     4  12  26  43  62  94 137 168 208 275 335 390
#
# _framework density 21.786441
#
# number of rings (size 3 to 8) (size 9 to 14) (size 15 to 20)
#    0.000    0.750    3.750    4.500    0.000    1.500 
#    2.250    0.000    0.000    0.000    0.000    0.000 
#    0.000    0.000    0.000    0.000    0.000    0.000 
#
# Total GULP energy -89227.925582 kJ/mol
# GULP energy per Si atom -5576.745349 kJ/mol
# Density = 2.173685 g / cm^3
# Si number density = 21.786441 Si / 1000 Ang^3
#
#
#
# Elastic Constant Matrix: (Units=GPa)
#
#
# Indices 1 2 3 4 5 6 
#
# 1 104.0829 29.0917 9.7566 12.3961 14.3994 -3.4152
# 2 29.0917 74.7648 9.3401 8.0126 5.2475 5.9592
# 3 9.7566 9.3401 98.5855 15.6990 -0.8271 4.1265
# 4 12.3961 8.0126 15.6990 22.6184 -5.4252 3.7154
# 5 14.3994 5.2475 -0.8271 -5.4252 39.0034 9.8984
# 6 -3.4152 5.9592 4.1265 3.7154 9.8984 34.5861
#
#
#
# Elastic Compliance Matrix: (Units=1/GPa)
#
#
# Indices 1 2 3 4 5 6 
#
# 1 0.012706 -0.004029 0.000140 -0.007933 -0.006422 0.004622
# 2 -0.004029 0.015516 -0.000559 -0.002536 -0.000293 -0.002648
# 3 0.000140 -0.000559 0.011456 -0.007995 -0.000803 -0.000168
# 4 -0.007933 -0.002536 -0.007995 0.059963 0.013934 -0.009822
# 5 -0.006422 -0.000293 -0.000803 0.013934 0.032861 -0.011389
# 6 0.004622 -0.002648 -0.000168 -0.009822 -0.011389 0.034161
#
#
# Mechanical properties :
#
#
# Convention : Reuss Voigt Hill
#
# Bulk Modulus (GPa) = 32.48616 41.53442 37.01029
# Shear Modulus (GPa) = 26.90802 34.52457 30.71630
#
# Velocity S-wave (km/s) = 3.51818 3.98512 3.75891
# Velocity P-wave (km/s) = 5.60777 6.34671 5.98865
#
# Compressibility (1/GPa) = 0.03078234
#
# Stress axis : x y z
#
# Youngs Moduli (GPa) = 78.70502 64.44885 87.29017
#
# Poissons Ratio (x) = 0.25966 -0.01224
# Poissons Ratio (y) = 0.31709 0.04881
# Poissons Ratio (z) = -0.01104 0.03603
#
# Static dielectric constant tensor:
#      x y z
#    x 1.800390 0.004210 -0.083750 
#    y 0.004210 1.577190 -0.059000 
#    z -0.083750 -0.059000 1.859600 
# 
# From -- ./inp_files/107805.got.cif
#   From: 2010.05.17/outbox.cif.g08.bks.cpg/sg2_54_cif.got.tgz:107805.got - 2010.06.03 11:33:40.
