data_PCOD9016791
_publ_section_title
;
Structure prediction by ZEFSAII (Michael W. Deem and Ramdas Pophale) SiO2 
 PCOD9016791
Probable space group: P -1
;
_chemical_formula_sum "Si O2"
_cell_formula_units_Z 16
_cell_length_a 12.519178
_cell_length_b 13.924458
_cell_length_c 10.644523
_cell_angle_alpha 35.144822
_cell_angle_beta 119.435937
_cell_angle_gamma 131.643376
_cell_volume 792.396845
_symmetry_space_group_name_H-M "P -1"
_symmetry_group_IT_number 2
_symmetry_cell_setting 'triclinic'
loop_
_space_group_symop_operation_xyz
x,y,z
-x,-y,-z
loop_
_atom_site_type_symbol
_atom_site_label
_atom_site_fract_x
_atom_site_fract_y
_atom_site_fract_z
Si Si1 0.402811 0.902122 0.244293
Si Si2 0.694143 0.284684 0.251327
Si Si3 0.915888 0.895141 0.434767
Si Si4 0.855145 0.471048 0.388894
Si Si5 0.302564 0.958600 0.864055
Si Si6 0.386326 0.105640 0.270104
Si Si7 0.097907 0.107620 0.063496
Si Si8 0.849899 0.461857 0.900241
O O1 0.280792 0.679615 0.444097
O O2 0.555958 0.939270 0.250805
O O3 0.410730 0.022297 0.243392
O O4 0.350531 0.973428 0.019807
O O5 0.819153 0.383618 0.321257
O O6 0.547940 0.277402 0.215414
O O7 0.658378 0.062279 0.471760
O O8 0.743766 0.387380 0.037725
O O9 0.870924 0.667485 0.647557
O O10 0.786335 0.935754 0.315136
O O11 0.000000 0.000000 0.500000
O O12 0.012221 0.001432 0.254296
O O13 0.000000 0.500000 0.500000
O O14 0.872564 0.677595 0.162025
O O15 0.212369 0.725691 0.027368
O O16 0.253018 0.129393 0.140927
O O17 0.000000 0.000000 0.000000
O O18 0.000000 0.500000 0.000000
#
# Coordination Sequence:
#
# PCOD9016791 Si02
#       8
#     2   2   2   2   2   2   2   2
#     4  10  23  45  67  96 132 181 214 280 338 403
#     4  10  22  41  64  97 127 172 221 269 337 404
#     4  12  26  43  67 104 137 176 229 281 333 405
#     4  11  24  41  68  93 132 174 221 278 339 402
#     4  11  24  45  68  97 142 174 226 274 339 405
#     4  10  21  42  69  92 136 170 220 275 337 400
#     4  12  26  43  66 101 136 175 226 286 334 402
#     4  12  24  40  70  99 134 182 221 275 341 399
#
# _framework density 20.191903
#
# number of rings (size 3 to 8) (size 9 to 14) (size 15 to 20)
#    0.000    1.000    2.500    4.500    3.500    1.500 
#    0.000    1.250    0.000    0.000    0.000    0.000 
#    0.000    0.000    0.000    0.000    0.000    0.000 
#
# Total GULP energy -89371.726514 kJ/mol
# GULP energy per Si atom -5585.732907 kJ/mol
# Density = 2.014595 g / cm^3
# Si number density = 20.191903 Si / 1000 Ang^3
#
#
#
# Elastic Constant Matrix: (Units=GPa)
#
#
# Indices 1 2 3 4 5 6 
#
# 1 106.3521 37.4254 88.3487 9.6482 11.9224 24.9427
# 2 37.4254 99.1124 35.7967 14.7276 9.3065 13.4059
# 3 88.3487 35.7967 146.5160 1.8583 11.0501 10.2128
# 4 9.6482 14.7276 1.8583 38.3226 5.2440 0.3465
# 5 11.9224 9.3065 11.0501 5.2440 43.8672 12.8107
# 6 24.9427 13.4059 10.2128 0.3465 12.8107 33.2010
#
#
#
# Elastic Compliance Matrix: (Units=1/GPa)
#
#
# Indices 1 2 3 4 5 6 
#
# 1 0.025219 -0.002003 -0.013781 -0.005040 0.001902 -0.014580
# 2 -0.002003 0.012441 -0.001552 -0.004124 -0.000378 -0.002852
# 3 -0.013781 -0.001552 0.015140 0.003576 -0.002256 0.007156
# 4 -0.005040 -0.004124 0.003576 0.029239 -0.003756 0.005496
# 5 0.001902 -0.000378 -0.002256 -0.003756 0.026524 -0.010778
# 6 -0.014580 -0.002852 0.007156 0.005496 -0.010778 0.044125
#
#
# Mechanical properties :
#
#
# Convention : Reuss Voigt Hill
#
# Bulk Modulus (GPa) = 55.16420 75.01356 65.08888
# Shear Modulus (GPa) = 25.85294 35.77214 30.81254
#
# Velocity S-wave (km/s) = 3.58210 4.21361 3.91062
# Velocity P-wave (km/s) = 6.66992 7.80408 7.25918
#
# Compressibility (1/GPa) = 0.01812770
#
# Stress axis : x y z
#
# Youngs Moduli (GPa) = 39.65268 80.38237 66.04951
#
# Poissons Ratio (x) = 0.16103 0.91022
# Poissons Ratio (y) = 0.07944 0.10250
# Poissons Ratio (z) = 0.54645 0.12474
#
# Static dielectric constant tensor:
#      x y z
#    x 1.762950 0.103610 -0.023430 
#    y 0.103610 1.777060 0.018750 
#    z -0.023430 0.018750 1.672830 
# 
# From -- ./inp_files/428685.got.cif
#   From: 2010.05.17/outbox.cif.g08.bks.cpg/sg2_215_cif.got.tgz:428685.got - 2010.06.03 11:33:40.
