data_PCOD9016064
_publ_section_title
;
Structure prediction by ZEFSAII (Michael W. Deem and Ramdas Pophale) SiO2 
 PCOD9016064
Probable space group: P -1
;
_chemical_formula_sum "Si O2"
_cell_formula_units_Z 16
_cell_length_a 11.514660
_cell_length_b 7.285650
_cell_length_c 11.245433
_cell_angle_alpha 68.472837
_cell_angle_beta 123.406668
_cell_angle_gamma 82.070095
_cell_volume 658.651688
_symmetry_space_group_name_H-M "P -1"
_symmetry_group_IT_number 2
_symmetry_cell_setting 'triclinic'
loop_
_space_group_symop_operation_xyz
x,y,z
-x,-y,-z
loop_
_atom_site_type_symbol
_atom_site_label
_atom_site_fract_x
_atom_site_fract_y
_atom_site_fract_z
Si Si1 0.618103 0.426050 0.891978
Si Si2 0.366189 0.411556 0.890713
Si Si3 0.613212 0.179283 0.455880
Si Si4 0.178652 0.925370 0.596948
Si Si5 0.936908 0.866818 0.085766
Si Si6 0.854033 0.482354 0.864007
Si Si7 0.869759 0.736382 0.322953
Si Si8 0.644255 0.931158 0.746310
O O1 0.534128 0.304239 0.946689
O O2 0.487450 0.566024 0.690555
O O3 0.780285 0.346462 0.933319
O O4 0.626339 0.587741 0.962458
O O5 0.258376 0.313338 0.802626
O O6 0.280949 0.673836 0.753501
O O7 0.525844 0.062205 0.356335
O O8 0.781507 0.079121 0.517300
O O9 0.622707 0.142319 0.608944
O O10 0.206024 0.100600 0.649396
O O11 0.000000 0.000000 0.500000
O O12 0.921058 0.864533 0.220142
O O13 0.077240 0.623861 0.197025
O O14 0.769905 0.899832 0.927303
O O15 0.000000 0.000000 0.000000
O O16 0.725029 0.728786 0.745975
O O17 0.000000 0.500000 0.000000
O O18 0.000000 0.500000 0.500000
#
# Coordination Sequence:
#
# PCOD9016064 Si02
#       8
#     2   2   2   2   2   2   2   2
#     4   9  19  37  64  97 126 175 218 274 330 394
#     4  10  21  42  66  93 137 171 222 273 333 402
#     4   9  19  37  64  93 121 163 219 268 324 387
#     4  11  24  39  66  97 130 176 221 274 334 395
#     4  11  26  41  62  98 133 167 216 276 329 394
#     4   9  18  35  62  88 121 169 213 260 324 389
#     4  12  26  44  66  99 137 175 223 277 334 396
#     4   9  19  39  66  89 123 165 215 265 322 398
#
# _framework density 24.29205
#
# number of rings (size 3 to 8) (size 9 to 14) (size 15 to 20)
#    0.000    2.000    1.250    2.250    5.250    1.000 
#    2.250    6.250    0.000    3.000    0.000    0.000 
#    0.000    0.000    0.000    0.000    0.000    0.000 
#
# Total GULP energy -89078.664185 kJ/mol
# GULP energy per Si atom -5567.416512 kJ/mol
# Density = 2.423676 g / cm^3
# Si number density = 24.292050 Si / 1000 Ang^3
#
#
#
# Elastic Constant Matrix: (Units=GPa)
#
#
# Indices 1 2 3 4 5 6 
#
# 1 122.4812 -8.7208 24.1367 3.6969 26.2488 -7.9652
# 2 -8.7208 39.8969 -0.5809 -0.2592 3.0850 4.8188
# 3 24.1367 -0.5809 80.5430 1.3045 -0.0590 10.2772
# 4 3.6969 -0.2592 1.3045 27.1475 8.2926 3.4606
# 5 26.2488 3.0850 -0.0590 8.2926 37.7218 3.6983
# 6 -7.9652 4.8188 10.2772 3.4606 3.6983 36.4503
#
#
#
# Elastic Compliance Matrix: (Units=1/GPa)
#
#
# Indices 1 2 3 4 5 6 
#
# 1 0.011178 0.002573 -0.003858 0.000795 -0.008560 0.003983
# 2 0.002573 0.026252 -0.000282 0.001465 -0.004009 -0.002561
# 3 -0.003858 -0.000282 0.014233 -0.000533 0.003348 -0.005108
# 4 0.000795 0.001465 -0.000533 0.039920 -0.009182 -0.002728
# 5 -0.008560 -0.004009 0.003348 -0.009182 0.035307 -0.004995
# 6 0.003983 -0.002561 -0.005108 -0.002728 -0.004995 0.030850
#
#
# Mechanical properties :
#
#
# Convention : Reuss Voigt Hill
#
# Bulk Modulus (GPa) = 20.60665 30.28789 25.44727
# Shear Modulus (GPa) = 28.24076 35.46967 31.85522
#
# Velocity S-wave (km/s) = 3.41332 3.82532 3.62518
# Velocity P-wave (km/s) = 4.90261 5.65739 5.29347
#
# Compressibility (1/GPa) = 0.04852802
#
# Stress axis : x y z
#
# Youngs Moduli (GPa) = 89.46509 38.09268 70.26006
#
# Poissons Ratio (x) = -0.09801 0.27110
# Poissons Ratio (y) = -0.23019 0.01978
# Poissons Ratio (z) = 0.34520 0.01073
#
# Static dielectric constant tensor:
#      x y z
#    x 2.090730 0.063570 -0.023650 
#    y 0.063570 2.095960 -0.044520 
#    z -0.023650 -0.044520 1.968860 
# 
# From -- ./inp_files/414541.got.cif
#   From: 2010.05.17/outbox.cif.g08.bks.cpg/sg2_208_cif.got.tgz:414541.got - 2010.06.03 11:33:40.
