data_PCOD9016610
_publ_section_title
;
Structure prediction by ZEFSAII (Michael W. Deem and Ramdas Pophale) SiO2 
 PCOD9016610
Probable space group: P -1
;
_chemical_formula_sum "Si O2"
_cell_formula_units_Z 15
_cell_length_a 12.436239
_cell_length_b 9.617440
_cell_length_c 19.168345
_cell_angle_alpha 32.632936
_cell_angle_beta 33.744542
_cell_angle_gamma 34.961026
_cell_volume 629.962913
_symmetry_space_group_name_H-M "P -1"
_symmetry_group_IT_number 2
_symmetry_cell_setting 'triclinic'
loop_
_space_group_symop_operation_xyz
x,y,z
-x,-y,-z
loop_
_atom_site_type_symbol
_atom_site_label
_atom_site_fract_x
_atom_site_fract_y
_atom_site_fract_z
Si Si1 0.713797 0.271266 0.396207
Si Si2 0.201390 0.075653 0.375789
Si Si3 0.364786 0.573942 0.885157
Si Si4 0.128540 0.220069 0.592512
Si Si5 0.580975 0.497598 0.656163
Si Si6 0.809848 0.855230 0.801384
Si Si7 0.000000 0.000000 0.000000
Si Si8 0.191528 0.652896 0.180014
O O1 0.540069 0.516871 0.343122
O O2 0.935656 0.302049 0.272757
O O3 0.658779 0.163913 0.544409
O O4 0.764332 0.018215 0.420987
O O5 0.277951 0.126613 0.237612
O O6 0.137964 0.375366 0.320207
O O7 0.000000 0.000000 0.500000
O O8 0.434839 0.622848 0.749424
O O9 0.574188 0.457328 0.869161
O O10 0.280856 0.325714 0.027865
O O11 0.184790 0.831582 0.912331
O O12 0.295238 0.305000 0.508586
O O13 0.000000 0.500000 0.500000
O O14 0.970152 0.155637 0.755746
O O15 0.737643 0.178891 0.725024
O O16 0.847875 0.196055 0.936578
#
# Coordination Sequence:
#
# PCOD9016610 Si02
#       8
#     2   2   2   2   2   2   1   2
#     4  11  23  41  67 104 139 180 236 287 343 415
#     4  10  21  42  68  95 143 179 220 287 344 404
#     4  12  26  47  71 100 143 187 233 286 350 418
#     4  12  20  43  75  98 139 182 226 292 351 403
#     4  12  25  43  73 108 133 186 236 286 352 418
#     4  11  24  44  65  98 145 186 228 287 350 410
#     4  12  28  44  70 104 136 186 238 282 336 420
#     4  12  24  47  71 101 142 183 233 289 347 413
#
# _framework density 23.810927
#
# number of rings (size 3 to 8) (size 9 to 14) (size 15 to 20)
#    0.000    0.533    5.333    2.800    0.000    3.200 
#    0.000    0.000    0.000    0.000    0.000    0.000 
#    0.000    0.000    0.000    0.000    0.000    0.000 
#
# Total GULP energy -83644.335690 kJ/mol
# GULP energy per Si atom -5576.289046 kJ/mol
# Density = 2.375673 g / cm^3
# Si number density = 23.810927 Si / 1000 Ang^3
#
#
#
# Elastic Constant Matrix: (Units=GPa)
#
#
# Indices 1 2 3 4 5 6 
#
# 1 134.2304 12.9680 34.2927 0.0160 26.7870 -22.6646
# 2 12.9680 56.6767 -3.7183 18.6937 0.6401 -2.9107
# 3 34.2927 -3.7183 61.7540 11.5947 8.4215 -4.3230
# 4 0.0160 18.6937 11.5947 28.6053 9.0723 7.8319
# 5 26.7870 0.6401 8.4215 9.0723 49.7700 -2.0469
# 6 -22.6646 -2.9107 -4.3230 7.8319 -2.0469 37.6104
#
#
#
# Elastic Compliance Matrix: (Units=1/GPa)
#
#
# Indices 1 2 3 4 5 6 
#
# 1 0.011631 -0.005168 -0.006976 0.007047 -0.006133 0.004006
# 2 -0.005168 0.027964 0.008906 -0.025250 0.005750 0.005644
# 3 -0.006976 0.008906 0.023627 -0.017106 0.002881 0.002920
# 4 0.007047 -0.025250 -0.017106 0.066502 -0.013282 -0.014245
# 5 -0.006133 0.005750 0.002881 -0.013282 0.025303 0.001223
# 6 0.004006 0.005644 0.002920 -0.014245 0.001223 0.032808
#
#
# Mechanical properties :
#
#
# Convention : Reuss Voigt Hill
#
# Bulk Modulus (GPa) = 17.62300 37.74955 27.68627
# Shear Modulus (GPa) = 23.44923 37.13839 30.29381
#
# Velocity S-wave (km/s) = 3.14157 3.95361 3.57075
# Velocity P-wave (km/s) = 4.53614 6.06050 5.35286
#
# Compressibility (1/GPa) = 0.05674402
#
# Stress axis : x y z
#
# Youngs Moduli (GPa) = 85.97826 35.76020 42.32488
#
# Poissons Ratio (x) = 0.18482 0.29527
# Poissons Ratio (y) = 0.44435 -0.37693
# Poissons Ratio (z) = 0.59981 -0.31847
#
# Static dielectric constant tensor:
#      x y z
#    x 1.942350 -0.031460 -0.011460 
#    y -0.031460 1.953700 -0.012830 
#    z -0.011460 -0.012830 1.912170 
# 
# From -- ./inp_files/565678.got.cif
#   From: 2010.05.17/outbox.cif.g08.bks.cpg/sg2_283_cif.got.tgz:565678.got - 2010.06.03 11:33:40.
