data_PCOD9016912
_publ_section_title
;
Structure prediction by ZEFSAII (Michael W. Deem and Ramdas Pophale) SiO2 
 PCOD9016912
Probable space group: P -1
;
_chemical_formula_sum "Si O2"
_cell_formula_units_Z 14
_cell_length_a 7.932022
_cell_length_b 9.540913
_cell_length_c 15.895864
_cell_angle_alpha 35.620463
_cell_angle_beta 119.441506
_cell_angle_gamma 103.995246
_cell_volume 579.898635
_symmetry_space_group_name_H-M "P -1"
_symmetry_group_IT_number 2
_symmetry_cell_setting 'triclinic'
loop_
_space_group_symop_operation_xyz
x,y,z
-x,-y,-z
loop_
_atom_site_type_symbol
_atom_site_label
_atom_site_fract_x
_atom_site_fract_y
_atom_site_fract_z
Si Si1 0.495252 0.241020 0.439735
Si Si2 0.825466 0.961297 0.303582
Si Si3 0.739418 0.933851 0.108961
Si Si4 0.618826 0.043139 0.748130
Si Si5 0.736040 0.474028 0.082607
Si Si6 0.189011 0.595127 0.672267
Si Si7 0.187848 0.738354 0.160797
O O1 0.618442 0.142936 0.604611
O O2 0.617329 0.392935 0.340680
O O3 0.271359 0.430499 0.320640
O O4 0.500000 0.000000 0.500000
O O5 0.815128 0.864379 0.254826
O O6 0.609479 0.964668 0.287524
O O7 0.000724 0.795164 0.485820
O O8 0.849809 0.240057 0.166476
O O9 0.842822 0.679125 0.207087
O O10 0.500000 0.000000 0.000000
O O11 0.775632 0.185103 0.963007
O O12 0.672106 0.215915 0.749427
O O13 0.757334 0.749387 0.937944
O O14 0.785609 0.373560 0.238501
O O15 0.500000 0.500000 0.000000
O O16 0.000000 0.000000 0.000000
#
# Coordination Sequence:
#
# PCOD9016912 Si02
#       7
#     2   2   2   2   2   2   2
#     4  12  28  46  70 106 146 180 230 297 354 409
#     4  11  24  39  73 102 137 179 238 294 344 415
#     4  12  22  45  72 100 134 185 242 286 340 417
#     4  11  24  46  68 101 143 187 230 287 357 419
#     4  10  21  42  69  99 138 184 229 282 351 415
#     4  12  24  44  70 104 136 182 237 290 345 420
#     4  12  28  46  73 100 146 189 233 285 358 423
#
# _framework density 24.142150999999998
#
# number of rings (size 3 to 8) (size 9 to 14) (size 15 to 20)
#    0.000    0.571    4.286    3.857    6.000    1.143 
#    0.000    1.429    0.000    0.000    0.000    0.000 
#    0.000    0.000    0.000    0.000    0.000    0.000 
#
# Total GULP energy -78087.987155 kJ/mol
# GULP energy per Si atom -5577.713368 kJ/mol
# Density = 2.408720 g / cm^3
# Si number density = 24.142151 Si / 1000 Ang^3
#
#
#
# Elastic Constant Matrix: (Units=GPa)
#
#
# Indices 1 2 3 4 5 6 
#
# 1 23.4591 11.6795 15.8157 8.0685 6.1717 -5.2921
# 2 11.6795 133.5190 48.6779 -3.1689 13.2566 -2.8299
# 3 15.8157 48.6779 127.2316 7.0233 25.9583 1.3078
# 4 8.0685 -3.1689 7.0233 54.1098 -6.8063 -1.1809
# 5 6.1717 13.2566 25.9583 -6.8063 50.2656 -5.3191
# 6 -5.2921 -2.8299 1.3078 -1.1809 -5.3191 15.9237
#
#
#
# Elastic Compliance Matrix: (Units=1/GPa)
#
#
# Indices 1 2 3 4 5 6 
#
# 1 0.054281 -0.002487 -0.004997 -0.007570 -0.002703 0.016544
# 2 -0.002487 0.008927 -0.003165 0.001312 -0.000123 0.001076
# 3 -0.004997 -0.003165 0.010820 -0.001563 -0.004865 -0.004853
# 4 -0.007570 0.001312 -0.001563 0.020440 0.004240 0.000778
# 5 -0.002703 -0.000123 -0.004865 0.004240 0.024178 0.007870
# 6 0.016544 0.001076 -0.004853 0.000778 0.007870 0.071574
#
#
# Mechanical properties :
#
#
# Convention : Reuss Voigt Hill
#
# Bulk Modulus (GPa) = 18.96406 48.50623 33.73514
# Shear Modulus (GPa) = 21.82508 37.92893 29.87701
#
# Velocity S-wave (km/s) = 3.00996 3.96797 3.52169
# Velocity P-wave (km/s) = 4.46677 6.41316 5.52633
#
# Compressibility (1/GPa) = 0.05273132
#
# Stress axis : x y z
#
# Youngs Moduli (GPa) = 18.42263 112.01880 92.41937
#
# Poissons Ratio (x) = 0.27861 0.46179
# Poissons Ratio (y) = 0.04582 0.29248
# Poissons Ratio (z) = 0.09205 0.35450
#
# Static dielectric constant tensor:
#      x y z
#    x 2.157960 -0.023260 0.021230 
#    y -0.023260 1.903540 -0.076980 
#    z 0.021230 -0.076980 1.866590 
# 
# From -- ./inp_files/245159.got.cif
#   From: 2010.05.17/outbox.cif.g08.bks.cpg/sg2_123_cif.got.tgz:245159.got - 2010.06.03 11:33:40.
