data_PCOD9016331
_publ_section_title
;
Structure prediction by ZEFSAII (Michael W. Deem and Ramdas Pophale) SiO2 
 PCOD9016331
Probable space group: P -1
;
_chemical_formula_sum "Si O2"
_cell_formula_units_Z 14
_cell_length_a 13.014509
_cell_length_b 8.030640
_cell_length_c 13.166721
_cell_angle_alpha 128.110487
_cell_angle_beta 33.944470
_cell_angle_gamma 132.988215
_cell_volume 557.595213
_symmetry_space_group_name_H-M "P -1"
_symmetry_group_IT_number 2
_symmetry_cell_setting 'triclinic'
loop_
_space_group_symop_operation_xyz
x,y,z
-x,-y,-z
loop_
_atom_site_type_symbol
_atom_site_label
_atom_site_fract_x
_atom_site_fract_y
_atom_site_fract_z
Si Si1 0.411568 0.801956 0.335152
Si Si2 0.719400 0.847097 0.942141
Si Si3 0.012624 0.766412 0.263870
Si Si4 0.884676 0.052218 0.262895
Si Si5 0.512024 0.612853 0.827896
Si Si6 0.943141 0.660030 0.964823
Si Si7 0.231015 0.956244 0.357930
O O1 0.326531 0.954822 0.529557
O O2 0.386456 0.575200 0.335087
O O3 0.296681 0.804137 0.324456
O O4 0.631111 0.875393 0.133608
O O5 0.799761 0.080219 0.899789
O O6 0.561599 0.677963 0.930051
O O7 0.916980 0.793611 0.778054
O O8 0.946696 0.514253 0.178379
O O9 0.863741 0.898414 0.441314
O O10 0.083009 0.791308 0.333630
O O11 0.928801 0.167014 0.160316
O O12 0.902928 0.807514 0.143309
O O13 0.608673 0.838859 0.763720
O O14 0.278578 0.493681 0.952356
#
# Coordination Sequence:
#
# PCOD9016331 Si02
#       7
#     2   2   2   2   2   2   2
#     4  12  23  42  70  97 137 173 222 280 323 398
#     4  11  23  44  67 102 130 171 226 276 328 401
#     4  10  21  42  67  93 143 171 217 279 335 387
#     4  11  26  44  65  98 133 179 228 261 338 401
#     4  11  24  42  70 103 134 172 225 275 340 384
#     4  11  24  46  65  94 139 179 216 280 331 396
#     4  10  22  40  66 109 129 172 224 277 332 398
#
# _framework density 25.107821000000001
#
# number of rings (size 3 to 8) (size 9 to 14) (size 15 to 20)
#    0.000    1.143    2.857    3.000    2.000    4.000 
#    2.571    1.429    0.000    0.000    0.000    0.000 
#    0.000    0.000    0.000    0.000    0.000    0.000 
#
# Total GULP energy -78158.735955 kJ/mol
# GULP energy per Si atom -5582.766854 kJ/mol
# Density = 2.505067 g / cm^3
# Si number density = 25.107821 Si / 1000 Ang^3
#
#
#
# Elastic Constant Matrix: (Units=GPa)
#
#
# Indices 1 2 3 4 5 6 
#
# 1 68.7039 6.1313 -0.6385 -6.8372 -13.6759 4.9624
# 2 6.1313 44.7002 32.0257 6.4542 6.4444 2.3336
# 3 -0.6385 32.0257 166.8455 11.5505 6.6030 0.7512
# 4 -6.8372 6.4542 11.5505 43.9901 -10.4949 -1.8677
# 5 -13.6759 6.4444 6.6030 -10.4949 35.9733 5.7626
# 6 4.9624 2.3336 0.7512 -1.8677 5.7626 36.8259
#
#
#
# Elastic Compliance Matrix: (Units=1/GPa)
#
#
# Indices 1 2 3 4 5 6 
#
# 1 0.017678 -0.004582 0.000197 0.005529 0.009651 -0.003326
# 2 -0.004582 0.028290 -0.004777 -0.005401 -0.007480 -0.000181
# 3 0.000197 -0.004777 0.007030 -0.001289 -0.000766 0.000187
# 4 0.005529 -0.005401 -0.001289 0.027416 0.011429 -0.000774
# 5 0.009651 -0.007480 -0.000766 0.011429 0.037253 -0.006061
# 6 -0.003326 -0.000181 0.000187 -0.000774 -0.006061 0.028520
#
#
# Mechanical properties :
#
#
# Convention : Reuss Voigt Hill
#
# Bulk Modulus (GPa) = 28.84034 39.47628 34.15831
# Shear Modulus (GPa) = 28.39808 39.53993 33.96900
#
# Velocity S-wave (km/s) = 3.36675 3.97269 3.68220
# Velocity P-wave (km/s) = 5.15993 6.06629 5.63137
#
# Compressibility (1/GPa) = 0.03467365
#
# Stress axis : x y z
#
# Youngs Moduli (GPa) = 56.56898 35.34823 142.24846
#
# Poissons Ratio (x) = 0.16198 -0.02809
# Poissons Ratio (y) = 0.25922 0.67952
# Poissons Ratio (z) = -0.01117 0.16886
#
# Static dielectric constant tensor:
#      x y z
#    x 2.038560 -0.012080 -0.001920 
#    y -0.012080 2.030340 0.053870 
#    z -0.001920 0.053870 2.042620 
# 
# From -- ./inp_files/278936.got.cif
#   From: 2010.05.17/outbox.cif.g08.bks.cpg/sg2_140_cif.got.tgz:278936.got - 2010.06.03 11:33:40.
