data_PCOD9016624
_publ_section_title
;
Structure prediction by ZEFSAII (Michael W. Deem and Ramdas Pophale) SiO2 
 PCOD9016624
Probable space group: P -1
;
_chemical_formula_sum "Si O2"
_cell_formula_units_Z 14
_cell_length_a 12.225026
_cell_length_b 12.581843
_cell_length_c 8.396263
_cell_angle_alpha 95.054815
_cell_angle_beta 128.529824
_cell_angle_gamma 44.726891
_cell_volume 543.988149
_symmetry_space_group_name_H-M "P -1"
_symmetry_group_IT_number 2
_symmetry_cell_setting 'triclinic'
loop_
_space_group_symop_operation_xyz
x,y,z
-x,-y,-z
loop_
_atom_site_type_symbol
_atom_site_label
_atom_site_fract_x
_atom_site_fract_y
_atom_site_fract_z
Si Si1 0.194233 0.169959 0.242687
Si Si2 0.676423 0.003848 0.987213
Si Si3 0.508723 0.392405 0.609068
Si Si4 0.692523 0.606987 0.853988
Si Si5 0.840435 0.118090 0.124082
Si Si6 0.695768 0.304420 0.344481
Si Si7 0.673175 0.969924 0.331966
O O1 0.500000 0.000000 0.500000
O O2 0.154569 0.141279 0.030816
O O3 0.161028 0.124349 0.369626
O O4 0.999440 0.394053 0.106413
O O5 0.428495 0.086081 0.775167
O O6 0.627741 0.159064 0.939050
O O7 0.785895 0.924064 0.255472
O O8 0.500000 0.500000 0.500000
O O9 0.407574 0.358218 0.410457
O O10 0.340758 0.549660 0.621147
O O11 0.790052 0.196976 0.915561
O O12 0.566622 0.594739 0.847967
O O13 0.573097 0.793970 0.831417
O O14 0.779128 0.233870 0.230317
O O15 0.103218 0.888917 0.382798
#
# Coordination Sequence:
#
# PCOD9016624 Si02
#       7
#     2   2   2   2   2   2   2
#     4  10  23  42  64  94 133 177 224 280 338 394
#     4  10  21  42  68  96 132 177 227 271 343 402
#     4  10  23  39  63  98 132 175 224 277 333 405
#     4  11  22  42  65  99 132 172 229 276 338 403
#     4  11  21  42  65  96 139 176 223 276 341 407
#     4  10  23  40  65  99 131 177 221 278 340 402
#     4  10  22  43  67  97 134 176 225 285 335 402
#
# _framework density 25.735855000000001
#
# number of rings (size 3 to 8) (size 9 to 14) (size 15 to 20)
#    0.000    1.714    1.429    2.143    0.000    6.857 
#    5.143    9.286    0.000    0.000    0.000    0.000 
#    0.000    0.000    0.000    0.000    0.000    0.000 
#
# Total GULP energy -78267.123277 kJ/mol
# GULP energy per Si atom -5590.508806 kJ/mol
# Density = 2.567728 g / cm^3
# Si number density = 25.735855 Si / 1000 Ang^3
#
#
#
# Elastic Constant Matrix: (Units=GPa)
#
#
# Indices 1 2 3 4 5 6 
#
# 1 80.9959 21.8541 41.0446 9.2329 -17.5804 -9.8564
# 2 21.8541 161.4618 55.6853 6.3922 -4.8000 -13.2715
# 3 41.0446 55.6853 152.1950 -5.6060 -24.1284 -15.9939
# 4 9.2329 6.3922 -5.6060 44.7417 -4.2061 -0.2311
# 5 -17.5804 -4.8000 -24.1284 -4.2061 55.6905 13.8972
# 6 -9.8564 -13.2715 -15.9939 -0.2311 13.8972 30.5418
#
#
#
# Elastic Compliance Matrix: (Units=1/GPa)
#
#
# Indices 1 2 3 4 5 6 
#
# 1 0.015409 -0.000537 -0.003484 -0.003283 0.002639 0.001689
# 2 -0.000537 0.007353 -0.002567 -0.001373 -0.001317 0.002267
# 3 -0.003484 -0.002567 0.009076 0.002460 0.002443 0.001420
# 4 -0.003283 -0.001373 0.002460 0.023712 0.001973 -0.001086
# 5 0.002639 -0.001317 0.002443 0.001973 0.021987 -0.008431
# 6 0.001689 0.002267 0.001420 -0.001086 -0.008431 0.038844
#
#
# Mechanical properties :
#
#
# Convention : Reuss Voigt Hill
#
# Bulk Modulus (GPa) = 53.58149 70.20230 61.89189
# Shear Modulus (GPa) = 36.82458 44.59939 40.71199
#
# Velocity S-wave (km/s) = 3.78678 4.16741 3.98165
# Velocity P-wave (km/s) = 6.32334 7.10589 6.72600
#
# Compressibility (1/GPa) = 0.01866316
#
# Stress axis : x y z
#
# Youngs Moduli (GPa) = 64.89540 136.00258 110.17559
#
# Poissons Ratio (x) = 0.07300 0.38389
# Poissons Ratio (y) = 0.03483 0.28279
# Poissons Ratio (z) = 0.22612 0.34908
#
# Static dielectric constant tensor:
#      x y z
#    x 2.090550 -0.021310 -0.006970 
#    y -0.021310 2.018110 0.028320 
#    z -0.006970 0.028320 2.101600 
# 
# From -- ./inp_files/315500.got.cif
#   From: 2010.05.17/outbox.cif.g08.bks.cpg/sg2_158_cif.got.tgz:315500.got - 2010.06.03 11:33:40.
