data_PCOD9016518
_publ_section_title
;
Structure prediction by ZEFSAII (Michael W. Deem and Ramdas Pophale) SiO2 
 PCOD9016518
Probable space group: P -1
;
_chemical_formula_sum "Si O2"
_cell_formula_units_Z 12
_cell_length_a 7.350217
_cell_length_b 6.778312
_cell_length_c 15.910135
_cell_angle_alpha 65.797038
_cell_angle_beta 60.457450
_cell_angle_gamma 113.031005
_cell_volume 417.625916
_symmetry_space_group_name_H-M "P -1"
_symmetry_group_IT_number 2
_symmetry_cell_setting 'triclinic'
loop_
_space_group_symop_operation_xyz
x,y,z
-x,-y,-z
loop_
_atom_site_type_symbol
_atom_site_label
_atom_site_fract_x
_atom_site_fract_y
_atom_site_fract_z
Si Si1 0.500000 0.500000 0.500000
Si Si2 0.702977 0.209865 0.062094
Si Si3 0.770649 0.632890 0.555256
Si Si4 0.500000 0.500000 0.000000
Si Si5 0.555197 0.039493 0.660286
Si Si6 0.432658 0.599755 0.177638
Si Si7 0.204103 0.625769 0.664444
O O1 0.795014 0.818188 0.441691
O O2 0.241983 0.425338 0.644398
O O3 0.454533 0.973077 0.235643
O O4 0.720272 0.991787 0.051419
O O5 0.598346 0.320232 0.006719
O O6 0.000000 0.500000 0.000000
O O7 0.896935 0.216727 0.527756
O O8 0.614796 0.552906 0.693614
O O9 0.554840 0.304335 0.599215
O O10 0.505908 0.511953 0.892946
O O11 0.280549 0.708391 0.731997
O O12 0.126766 0.517242 0.251433
O O13 0.500000 0.000000 0.500000
#
# Coordination Sequence:
#
# PCOD9016518 Si02
#       7
#     1   2   2   1   2   2   2
#     4  12  24  36  68 112 152 196 234 286 394 466
#     4  11  26  51  75 107 151 204 259 320 368 454
#     4  10  21  42  68 110 145 187 237 308 378 456
#     4  12  28  50  80 108 142 222 260 306 384 446
#     4  10  21  44  71 100 152 185 234 316 381 435
#     4  11  26  50  75 109 156 191 259 319 370 460
#     4  12  23  43  71 111 155 188 234 310 384 463
#
# _framework density 28.733851000000001
#
# number of rings (size 3 to 8) (size 9 to 14) (size 15 to 20)
#    0.000    1.000    3.333    3.500    2.333    4.000 
#   12.000    0.000    0.000    0.000    0.000    0.000 
#    0.000    0.000    0.000    0.000    0.000    0.000 
#
# Total GULP energy -66808.882160 kJ/mol
# GULP energy per Si atom -5567.406847 kJ/mol
# Density = 2.866845 g / cm^3
# Si number density = 28.733851 Si / 1000 Ang^3
#
#
#
# Elastic Constant Matrix: (Units=GPa)
#
#
# Indices 1 2 3 4 5 6 
#
# 1 138.5064 71.1054 18.2175 9.2441 15.2391 13.9313
# 2 71.1054 197.4441 63.2301 32.8719 1.5022 11.6919
# 3 18.2175 63.2301 77.7052 26.0577 10.4759 19.6808
# 4 9.2441 32.8719 26.0577 57.9128 18.7845 18.5207
# 5 15.2391 1.5022 10.4759 18.7845 39.2075 7.9432
# 6 13.9313 11.6919 19.6808 18.5207 7.9432 70.5051
#
#
#
# Elastic Compliance Matrix: (Units=1/GPa)
#
#
# Indices 1 2 3 4 5 6 
#
# 1 0.009732 -0.004212 0.001455 0.002265 -0.004753 -0.001690
# 2 -0.004212 0.009012 -0.006109 -0.003579 0.004336 0.001495
# 3 0.001455 -0.006109 0.020043 -0.003592 -0.003244 -0.003560
# 4 0.002265 -0.003579 -0.003592 0.025547 -0.011151 -0.004306
# 5 -0.004753 0.004336 -0.003244 -0.011151 0.033335 0.000299
# 6 -0.001690 0.001495 -0.003560 -0.004306 0.000299 0.016361
#
#
# Mechanical properties :
#
#
# Convention : Reuss Voigt Hill
#
# Bulk Modulus (GPa) = 47.49314 79.86239 63.67777
# Shear Modulus (GPa) = 36.02822 50.93191 43.48006
#
# Velocity S-wave (km/s) = 3.54483 4.21472 3.89421
# Velocity P-wave (km/s) = 5.77226 7.17909 6.51377
#
# Compressibility (1/GPa) = 0.02105567
#
# Stress axis : x y z
#
# Youngs Moduli (GPa) = 102.74940 110.96231 49.89374
#
# Poissons Ratio (x) = 0.46733 -0.07258
# Poissons Ratio (y) = 0.43274 0.30479
# Poissons Ratio (z) = -0.14947 0.67785
#
# Static dielectric constant tensor:
#      x y z
#    x 2.590310 -0.088820 0.163620 
#    y -0.088820 2.403400 -0.032570 
#    z 0.163620 -0.032570 2.435320 
# 
# From -- ./inp_files/322405.got.cif
#   From: 2010.05.17/outbox.cif.g08.bks.cpg/sg2_162_cif.got.tgz:322405.got - 2010.06.03 11:33:40.
