data_PCOD9016648
_publ_section_title
;
Structure prediction by ZEFSAII (Michael W. Deem and Ramdas Pophale) SiO2 
 PCOD9016648
Probable space group: P -1
;
_chemical_formula_sum "Si O2"
_cell_formula_units_Z 16
_cell_length_a 7.460180
_cell_length_b 14.867579
_cell_length_c 11.375197
_cell_angle_alpha 107.537188
_cell_angle_beta 35.697690
_cell_angle_gamma 91.451048
_cell_volume 645.108239
_symmetry_space_group_name_H-M "P -1"
_symmetry_group_IT_number 2
_symmetry_cell_setting 'triclinic'
loop_
_space_group_symop_operation_xyz
x,y,z
-x,-y,-z
loop_
_atom_site_type_symbol
_atom_site_label
_atom_site_fract_x
_atom_site_fract_y
_atom_site_fract_z
Si Si1 0.910794 0.674678 0.048695
Si Si2 0.092271 0.298055 0.565468
Si Si3 0.681559 0.348564 0.573499
Si Si4 0.176971 0.150183 0.669181
Si Si5 0.360138 0.460985 0.446719
Si Si6 0.374295 0.000415 0.301758
Si Si7 0.835945 0.778845 0.895939
Si Si8 0.446214 0.855162 0.897809
O O1 0.711812 0.611610 0.183619
O O2 0.743226 0.785820 0.245335
O O3 0.834738 0.697403 0.960497
O O4 0.308712 0.619144 0.826853
O O5 0.013047 0.243760 0.698308
O O6 0.119682 0.407222 0.599110
O O7 0.458736 0.222222 0.292992
O O8 0.847820 0.300986 0.589684
O O9 0.795962 0.439438 0.513121
O O10 0.794281 0.266444 0.374579
O O11 0.406526 0.059222 0.425916
O O12 0.932862 0.105373 0.845193
O O13 0.500000 0.500000 0.500000
O O14 0.416133 0.062205 0.189430
O O15 0.000000 0.000000 0.500000
O O16 0.668725 0.889455 0.088044
O O17 0.627185 0.793419 0.893058
#
# Coordination Sequence:
#
# PCOD9016648 Si02
#       8
#     2   2   2   2   2   2   2   2
#     4  12  26  44  68  98 142 180 223 277 351 406
#     4  10  23  43  69 101 132 176 234 276 332 402
#     4  11  25  44  70  99 137 181 231 284 331 400
#     4  11  23  42  69  97 136 180 222 275 341 402
#     4  12  23  46  69 100 139 179 223 283 349 402
#     4  11  24  40  72 104 134 179 231 276 337 400
#     4  11  24  41  67  99 136 174 228 277 330 399
#     4  10  21  42  68  97 132 176 225 280 325 397
#
# _framework density 24.802039000000001
#
# number of rings (size 3 to 8) (size 9 to 14) (size 15 to 20)
#    0.000    1.000    3.750    2.625    3.500    0.500 
#    0.000    2.500    0.000    0.000    0.000    0.000 
#    0.000    0.000    0.000    0.000    0.000    0.000 
#
# Total GULP energy -89328.536650 kJ/mol
# GULP energy per Si atom -5583.033541 kJ/mol
# Density = 2.474559 g / cm^3
# Si number density = 24.802039 Si / 1000 Ang^3
#
#
#
# Elastic Constant Matrix: (Units=GPa)
#
#
# Indices 1 2 3 4 5 6 
#
# 1 60.6482 14.3337 28.5017 -7.9270 27.9917 -9.7393
# 2 14.3337 109.0081 55.4184 -17.8356 -2.2252 -9.3397
# 3 28.5017 55.4184 135.3152 -21.0139 7.5523 3.7153
# 4 -7.9270 -17.8356 -21.0139 42.3006 -4.9054 6.6705
# 5 27.9917 -2.2252 7.5523 -4.9054 28.0476 2.0738
# 6 -9.7393 -9.3397 3.7153 6.6705 2.0738 35.2910
#
#
#
# Elastic Compliance Matrix: (Units=1/GPa)
#
#
# Indices 1 2 3 4 5 6 
#
# 1 0.040595 -0.002329 -0.006255 -0.003452 -0.040674 0.014288
# 2 -0.002329 0.012550 -0.004552 0.002788 0.004860 0.002346
# 3 -0.006255 -0.004552 0.011058 0.003646 0.003912 -0.005014
# 4 -0.003452 0.002788 0.003646 0.027913 0.008035 -0.006347
# 5 -0.040674 0.004860 0.003912 0.008035 0.078202 -0.016465
# 6 0.014288 0.002346 -0.005014 -0.006347 -0.016465 0.035595
#
#
# Mechanical properties :
#
#
# Convention : Reuss Voigt Hill
#
# Bulk Modulus (GPa) = 26.36395 55.71989 41.04192
# Shear Modulus (GPa) = 20.42258 34.90904 27.66581
#
# Velocity S-wave (km/s) = 2.87265 3.75575 3.34348
# Velocity P-wave (km/s) = 4.65356 6.42823 5.61150
#
# Compressibility (1/GPa) = 0.03793059
#
# Stress axis : x y z
#
# Youngs Moduli (GPa) = 24.63379 79.67862 90.43619
#
# Poissons Ratio (x) = 0.18556 0.56567
# Poissons Ratio (y) = 0.05737 0.41169
# Poissons Ratio (z) = 0.15408 0.36272
#
# Static dielectric constant tensor:
#      x y z
#    x 1.980190 0.018480 -0.025590 
#    y 0.018480 1.999190 0.046280 
#    z -0.025590 0.046280 2.007840 
# 
# From -- ./inp_files/49357.got.cif
#   From: 2010.05.17/outbox.cif.g08.bks.cpg/sg2_25_cif.got.tgz:49357.got - 2010.06.03 11:33:40.
