data_PCOD9016329
_publ_section_title
;
Structure prediction by ZEFSAII (Michael W. Deem and Ramdas Pophale) SiO2 
 PCOD9016329
Probable space group: P -1
;
_chemical_formula_sum "Si O2"
_cell_formula_units_Z 16
_cell_length_a 9.228071
_cell_length_b 7.684844
_cell_length_c 18.959240
_cell_angle_alpha 34.490392
_cell_angle_beta 74.460984
_cell_angle_gamma 75.135556
_cell_volume 731.954430
_symmetry_space_group_name_H-M "P -1"
_symmetry_group_IT_number 2
_symmetry_cell_setting 'triclinic'
loop_
_space_group_symop_operation_xyz
x,y,z
-x,-y,-z
loop_
_atom_site_type_symbol
_atom_site_label
_atom_site_fract_x
_atom_site_fract_y
_atom_site_fract_z
Si Si1 0.135134 0.784131 0.518419
Si Si2 0.050613 0.609295 0.808296
Si Si3 0.644373 0.291952 0.770443
Si Si4 0.336327 0.386980 0.049302
Si Si5 0.902245 0.115484 0.086095
Si Si6 0.045120 0.753111 0.318487
Si Si7 0.236122 0.338996 0.241555
Si Si8 0.705074 0.577672 0.252762
O O1 0.057345 0.533606 0.564082
O O2 0.234350 0.604383 0.625129
O O3 0.238078 0.002391 0.387767
O O4 0.000000 0.000000 0.500000
O O5 0.221837 0.599236 0.765047
O O6 0.941058 0.549770 0.776073
O O7 0.994199 0.953016 0.725072
O O8 0.010688 0.330027 0.957504
O O9 0.677492 0.444089 0.790346
O O10 0.474358 0.385612 0.737567
O O11 0.780157 0.365422 0.674353
O O12 0.657448 0.923443 0.891794
O O13 0.285035 0.339253 0.153474
O O14 0.500000 0.500000 0.000000
O O15 0.217448 0.633567 0.947262
O O16 0.996275 0.908531 0.198029
O O17 0.788380 0.900566 0.131965
#
# Coordination Sequence:
#
# PCOD9016329 Si02
#       8
#     2   2   2   2   2   2   2   2
#     4  11  22  46  71  92 134 180 234 282 325 411
#     4  11  22  42  66 102 133 178 238 275 330 420
#     4  12  24  43  68 105 138 177 219 280 352 393
#     4  11  24  46  70 101 143 175 219 289 338 412
#     4  10  21  42  67  93 137 178 228 274 335 404
#     4  11  23  42  70  98 135 185 225 281 341 395
#     4  11  24  45  70  99 129 184 230 271 337 402
#     4  11  24  41  66 100 136 176 225 282 344 396
#
# _framework density 21.859286000000001
#
# number of rings (size 3 to 8) (size 9 to 14) (size 15 to 20)
#    0.000    1.000    6.250    1.500    0.000    3.500 
#    2.250    0.625    0.000    0.000    0.000    0.000 
#    0.000    0.000    0.000    0.000    0.000    0.000 
#
# Total GULP energy -89378.499372 kJ/mol
# GULP energy per Si atom -5586.156211 kJ/mol
# Density = 2.180953 g / cm^3
# Si number density = 21.859286 Si / 1000 Ang^3
#
#
#
# Elastic Constant Matrix: (Units=GPa)
#
#
# Indices 1 2 3 4 5 6 
#
# 1 135.2473 60.6305 17.4798 -13.3459 -4.2466 -14.1719
# 2 60.6305 108.8530 39.0132 -24.3879 -7.1390 7.7076
# 3 17.4798 39.0132 78.7908 -13.3885 -13.1820 1.0436
# 4 -13.3459 -24.3879 -13.3885 22.2546 2.5225 -10.0976
# 5 -4.2466 -7.1390 -13.1820 2.5225 29.6190 -6.9369
# 6 -14.1719 7.7076 1.0436 -10.0976 -6.9369 41.4642
#
#
#
# Elastic Compliance Matrix: (Units=1/GPa)
#
#
# Indices 1 2 3 4 5 6 
#
# 1 0.010991 -0.006232 0.001399 0.003091 0.001824 0.005938
# 2 -0.006232 0.017109 -0.005361 0.010640 -0.000694 -0.002700
# 3 0.001399 -0.005361 0.017197 0.006210 0.006902 0.003709
# 4 0.003091 0.010640 0.006210 0.069202 0.003718 0.016397
# 5 0.001824 -0.000694 0.006902 0.003718 0.038466 0.007920
# 6 0.005938 -0.002700 0.003709 0.016397 0.007920 0.031873
#
#
# Mechanical properties :
#
#
# Convention : Reuss Voigt Hill
#
# Bulk Modulus (GPa) = 40.14650 61.90424 51.02537
# Shear Modulus (GPa) = 23.41602 32.38540 27.90071
#
# Velocity S-wave (km/s) = 3.27649 3.85325 3.57652
# Velocity P-wave (km/s) = 5.72011 6.94101 6.35992
#
# Compressibility (1/GPa) = 0.02490877
#
# Stress axis : x y z
#
# Youngs Moduli (GPa) = 90.98231 58.45015 58.15006
#
# Poissons Ratio (x) = 0.36424 -0.08135
# Poissons Ratio (y) = 0.56697 0.31176
# Poissons Ratio (z) = -0.12728 0.31337
#
# Static dielectric constant tensor:
#      x y z
#    x 1.808090 -0.001970 -0.009450 
#    y -0.001970 1.879530 0.003930 
#    z -0.009450 0.003930 1.824850 
# 
# From -- ./inp_files/587706.got.cif
#   From: 2010.05.17/outbox.cif.g08.bks.cpg/sg2_294_cif.got.tgz:587706.got - 2010.06.03 11:33:40.
