data_PCOD9016369
_publ_section_title
;
Structure prediction by ZEFSAII (Michael W. Deem and Ramdas Pophale) SiO2 
 PCOD9016369
Probable space group: P -1
;
_chemical_formula_sum "Si O2"
_cell_formula_units_Z 16
_cell_length_a 11.734506
_cell_length_b 12.284709
_cell_length_c 8.488735
_cell_angle_alpha 91.591095
_cell_angle_beta 139.820908
_cell_angle_gamma 84.154806
_cell_volume 783.005390
_symmetry_space_group_name_H-M "P -1"
_symmetry_group_IT_number 2
_symmetry_cell_setting 'triclinic'
loop_
_space_group_symop_operation_xyz
x,y,z
-x,-y,-z
loop_
_atom_site_type_symbol
_atom_site_label
_atom_site_fract_x
_atom_site_fract_y
_atom_site_fract_z
Si Si1 0.525842 0.525828 0.715751
Si Si2 0.569586 0.734705 0.645560
Si Si3 0.230461 0.386997 0.427017
Si Si4 0.146479 0.199389 0.839264
Si Si5 0.754908 0.848651 0.410151
Si Si6 0.431269 0.919179 0.292890
Si Si7 0.922220 0.538547 0.247229
Si Si8 0.028096 0.000737 0.842936
O O1 0.500000 0.500000 0.500000
O O2 0.479117 0.657811 0.667070
O O3 0.392956 0.452576 0.656181
O O4 0.723785 0.508738 0.997251
O O5 0.715700 0.658527 0.691477
O O6 0.439768 0.803080 0.390108
O O7 0.687779 0.811157 0.866489
O O8 0.212800 0.277813 0.502909
O O9 0.055248 0.472495 0.260834
O O10 0.224479 0.155282 0.754135
O O11 0.082355 0.329655 0.764132
O O12 0.004639 0.123420 0.751455
O O13 0.569677 0.899882 0.294975
O O14 0.900839 0.920751 0.632191
O O15 0.500000 0.000000 0.500000
O O16 0.233521 0.955751 0.028886
O O17 0.000000 0.500000 0.500000
O O18 0.000000 0.000000 0.000000
#
# Coordination Sequence:
#
# PCOD9016369 Si02
#       8
#     2   2   2   2   2   2   2   2
#     4   9  21  38  64  96 130 167 226 273 320 394
#     4   9  20  40  64  96 131 167 219 276 319 396
#     4  10  21  42  67  95 131 179 219 271 329 393
#     4  11  23  43  64 100 138 169 220 277 331 399
#     4  11  24  42  65  97 137 171 216 276 328 398
#     4  11  21  43  68  91 126 174 221 267 333 389
#     4  11  23  43  67  97 139 178 219 274 343 398
#     4  12  24  43  71  95 130 174 224 277 333 396
#
# _framework density 20.434085
#
# number of rings (size 3 to 8) (size 9 to 14) (size 15 to 20)
#    0.000    1.500    3.750    1.125    0.000    9.500 
#    0.000    0.000    0.000    0.000    0.000    0.000 
#    0.000    0.000    0.000    0.000    0.000    0.000 
#
# Total GULP energy -89258.984008 kJ/mol
# GULP energy per Si atom -5578.686501 kJ/mol
# Density = 2.038758 g / cm^3
# Si number density = 20.434085 Si / 1000 Ang^3
#
#
#
# Elastic Constant Matrix: (Units=GPa)
#
#
# Indices 1 2 3 4 5 6 
#
# 1 89.4303 63.0701 42.1203 14.3444 -2.1836 3.6741
# 2 63.0701 114.9642 47.1128 6.4993 16.3396 17.2420
# 3 42.1203 47.1128 103.5021 6.3010 14.7373 9.8429
# 4 14.3444 6.4993 6.3010 29.8568 5.9281 5.1552
# 5 -2.1836 16.3396 14.7373 5.9281 36.8000 5.8214
# 6 3.6741 17.2420 9.8429 5.1552 5.8214 46.1756
#
#
#
# Elastic Compliance Matrix: (Units=1/GPa)
#
#
# Indices 1 2 3 4 5 6 
#
# 1 0.024399 -0.012622 -0.005370 -0.010542 0.010300 0.003795
# 2 -0.012622 0.017917 -0.001713 0.004963 -0.008049 -0.004860
# 3 -0.005370 -0.001713 0.013371 0.001334 -0.004920 -0.001312
# 4 -0.010542 0.004963 0.001334 0.039786 -0.009045 -0.004600
# 5 0.010300 -0.008049 -0.004920 -0.009045 0.034809 -0.000144
# 6 0.003795 -0.004860 -0.001312 -0.004600 -0.000144 0.023981
#
#
# Mechanical properties :
#
#
# Convention : Reuss Voigt Hill
#
# Bulk Modulus (GPa) = 61.43405 68.05590 64.74498
# Shear Modulus (GPa) = 25.11333 32.93938 29.02636
#
# Velocity S-wave (km/s) = 3.50950 4.01931 3.77302
# Velocity P-wave (km/s) = 6.82290 7.41061 7.12282
#
# Compressibility (1/GPa) = 0.01627762
#
# Stress axis : x y z
#
# Youngs Moduli (GPa) = 40.98540 55.81226 74.79119
#
# Poissons Ratio (x) = 0.70447 0.40159
# Poissons Ratio (y) = 0.51732 0.12812
# Poissons Ratio (z) = 0.22007 0.09561
#
# Static dielectric constant tensor:
#      x y z
#    x 1.774360 0.049460 -0.033060 
#    y 0.049460 1.829560 -0.012740 
#    z -0.033060 -0.012740 1.748770 
# 
# From -- ./inp_files/259248.got.cif
#   From: 2010.05.17/outbox.cif.g08.bks.cpg/sg2_130_cif.got.tgz:259248.got - 2010.06.03 11:33:40.
