data_PCOD9016414
_publ_section_title
;
Structure prediction by ZEFSAII (Michael W. Deem and Ramdas Pophale) SiO2 
 PCOD9016414
Probable space group: P -1
;
_chemical_formula_sum "Si O2"
_cell_formula_units_Z 14
_cell_length_a 12.507980
_cell_length_b 12.760269
_cell_length_c 7.414396
_cell_angle_alpha 145.407188
_cell_angle_beta 57.652844
_cell_angle_gamma 120.682781
_cell_volume 561.546505
_symmetry_space_group_name_H-M "P -1"
_symmetry_group_IT_number 2
_symmetry_cell_setting 'triclinic'
loop_
_space_group_symop_operation_xyz
x,y,z
-x,-y,-z
loop_
_atom_site_type_symbol
_atom_site_label
_atom_site_fract_x
_atom_site_fract_y
_atom_site_fract_z
Si Si1 0.600970 0.682224 0.705567
Si Si2 0.051164 0.977248 0.123227
Si Si3 0.787113 0.424240 0.325422
Si Si4 0.521785 0.762970 0.266701
Si Si5 0.047148 0.305131 0.874934
Si Si6 0.330593 0.942702 0.943573
Si Si7 0.286944 0.444583 0.041319
O O1 0.500000 0.500000 0.500000
O O2 0.720555 0.585413 0.524828
O O3 0.557165 0.802760 0.083301
O O4 0.627229 0.837169 0.745695
O O5 0.041124 0.158822 0.511317
O O6 0.976433 0.810410 0.076983
O O7 0.199663 0.945426 0.950558
O O8 0.000000 0.000000 0.000000
O O9 0.710974 0.210765 0.079058
O O10 0.778524 0.466237 0.605310
O O11 0.930826 0.422008 0.131743
O O12 0.443237 0.869884 0.627532
O O13 0.418243 0.576518 0.065818
O O14 0.657694 0.735625 0.190237
O O15 0.185868 0.421163 0.940735
#
# Coordination Sequence:
#
# PCOD9016414 Si02
#       7
#     2   2   2   2   2   2   2
#     4  11  24  39  63  99 134 170 231 283 329 411
#     4  10  24  41  64  98 136 174 234 284 335 413
#     4   9  21  42  65  97 131 180 225 271 355 404
#     4   9  20  39  60  96 127 177 222 266 343 402
#     4  10  21  42  67  97 133 186 222 280 356 396
#     4  10  22  44  64  91 133 178 220 281 341 399
#     4   9  18  37  69  92 132 173 227 276 331 414
#
# _framework density 24.931149000000001
#
# number of rings (size 3 to 8) (size 9 to 14) (size 15 to 20)
#    0.000    2.286    0.000    1.714    6.000    1.714 
#    7.714    0.714    0.000    0.000    0.000    0.000 
#    0.000    0.000    0.000    0.000    0.000    0.000 
#
# Total GULP energy -78226.763216 kJ/mol
# GULP energy per Si atom -5587.625944 kJ/mol
# Density = 2.487440 g / cm^3
# Si number density = 24.931149 Si / 1000 Ang^3
#
#
#
# Elastic Constant Matrix: (Units=GPa)
#
#
# Indices 1 2 3 4 5 6 
#
# 1 104.4676 28.0880 40.2433 -24.8028 -7.8984 20.7108
# 2 28.0880 88.3776 31.9581 1.6353 4.3069 -6.8559
# 3 40.2433 31.9581 64.3617 -21.0868 -15.2837 4.7634
# 4 -24.8028 1.6353 -21.0868 49.8303 7.7539 5.0768
# 5 -7.8984 4.3069 -15.2837 7.7539 37.4564 -15.5082
# 6 20.7108 -6.8559 4.7634 5.0768 -15.5082 30.9631
#
#
#
# Elastic Compliance Matrix: (Units=1/GPa)
#
#
# Indices 1 2 3 4 5 6 
#
# 1 0.018675 -0.004722 -0.006662 0.009650 -0.007659 -0.017931
# 2 -0.004722 0.016880 -0.008800 -0.007303 -0.001393 0.008750
# 3 -0.006662 -0.008800 0.028853 0.007263 0.010830 0.002303
# 4 0.009650 -0.007303 0.007263 0.031362 -0.008311 -0.018494
# 5 -0.007659 -0.001393 0.010830 -0.008311 0.041949 0.025522
# 6 -0.017931 0.008750 0.002303 -0.018494 0.025522 0.061689
#
#
# Mechanical properties :
#
#
# Convention : Reuss Voigt Hill
#
# Bulk Modulus (GPa) = 41.59853 50.86507 46.23180
# Shear Modulus (GPa) = 20.17838 34.11113 27.14475
#
# Velocity S-wave (km/s) = 2.84802 3.70295 3.30326
# Velocity P-wave (km/s) = 5.24753 6.22326 5.75610
#
# Compressibility (1/GPa) = 0.02403931
#
# Stress axis : x y z
#
# Youngs Moduli (GPa) = 53.54655 59.24251 34.65830
#
# Poissons Ratio (x) = 0.27977 0.23090
# Poissons Ratio (y) = 0.25287 0.30498
# Poissons Ratio (z) = 0.35674 0.52131
#
# Static dielectric constant tensor:
#      x y z
#    x 1.955280 -0.014920 0.024140 
#    y -0.014920 2.070940 0.052170 
#    z 0.024140 0.052170 1.979630 
# 
# From -- ./inp_files/271287.got.cif
#   From: 2010.05.17/outbox.cif.g08.bks.cpg/sg2_136_cif.got.tgz:271287.got - 2010.06.03 11:33:40.
