data_PCOD9016062
_publ_section_title
;
Structure prediction by ZEFSAII (Michael W. Deem and Ramdas Pophale) SiO2 
 PCOD9016062
Probable space group: P -1
;
_chemical_formula_sum "Si O2"
_cell_formula_units_Z 16
_cell_length_a 16.297469
_cell_length_b 9.345383
_cell_length_c 7.252760
_cell_angle_alpha 49.349287
_cell_angle_beta 102.616665
_cell_angle_gamma 74.859601
_cell_volume 685.731283
_symmetry_space_group_name_H-M "P -1"
_symmetry_group_IT_number 2
_symmetry_cell_setting 'triclinic'
loop_
_space_group_symop_operation_xyz
x,y,z
-x,-y,-z
loop_
_atom_site_type_symbol
_atom_site_label
_atom_site_fract_x
_atom_site_fract_y
_atom_site_fract_z
Si Si1 0.847758 0.801862 0.886539
Si Si2 0.984392 0.644878 0.550749
Si Si3 0.632678 0.960157 0.606964
Si Si4 0.562954 0.082430 0.067049
Si Si5 0.269321 0.505309 0.745166
Si Si6 0.554082 0.429450 0.285929
Si Si7 0.217060 0.229907 0.714626
Si Si8 0.065346 0.915079 0.418933
O O1 0.741484 0.913121 0.639517
O O2 0.914292 0.902054 0.796764
O O3 0.808013 0.846305 0.041936
O O4 0.923822 0.533105 0.126083
O O5 0.874636 0.721650 0.500983
O O6 0.000000 0.500000 0.500000
O O7 0.001103 0.839851 0.338538
O O8 0.569992 0.016031 0.342598
O O9 0.578523 0.178438 0.530540
O O10 0.662858 0.729621 0.914925
O O11 0.675289 0.950160 0.158036
O O12 0.514403 0.350408 0.808244
O O13 0.500000 0.000000 0.000000
O O14 0.340387 0.588797 0.652733
O O15 0.222814 0.442371 0.604299
O O16 0.178283 0.693601 0.664944
O O17 0.500000 0.500000 0.000000
O O18 0.000000 0.000000 0.500000
#
# Coordination Sequence:
#
# PCOD9016062 Si02
#       8
#     2   2   2   2   2   2   2   2
#     4  10  22  43  67  97 133 180 214 261 344 391
#     4  10  21  42  66  93 135 177 211 264 334 394
#     4  10  22  41  74  91 129 181 213 270 332 388
#     4  11  23  41  69 105 130 170 226 283 324 386
#     4  11  21  45  66  94 135 176 219 268 341 393
#     4  10  22  40  70  94 133 170 222 272 334 383
#     4  10  22  42  68  93 139 179 214 272 330 392
#     4  12  25  38  67 102 133 166 230 274 316 405
#
# _framework density 23.332754999999999
#
# number of rings (size 3 to 8) (size 9 to 14) (size 15 to 20)
#    0.000    1.500    6.250    0.000    1.750    5.500 
#    0.000    2.500   22.000    0.000    0.000    0.000 
#    0.000    0.000    0.000    0.000    0.000    0.000 
#
# Total GULP energy -89335.703177 kJ/mol
# GULP energy per Si atom -5583.481449 kJ/mol
# Density = 2.327965 g / cm^3
# Si number density = 23.332755 Si / 1000 Ang^3
#
#
#
# Elastic Constant Matrix: (Units=GPa)
#
#
# Indices 1 2 3 4 5 6 
#
# 1 142.6355 39.5756 9.9676 -22.9339 19.0453 4.9162
# 2 39.5756 82.9927 12.2822 -18.2315 9.9209 -4.5989
# 3 9.9676 12.2822 65.1018 -19.2316 14.2416 -2.1657
# 4 -22.9339 -18.2315 -19.2316 36.5054 -1.3355 16.3795
# 5 19.0453 9.9209 14.2416 -1.3355 47.0659 -12.7062
# 6 4.9162 -4.5989 -2.1657 16.3795 -12.7062 51.9863
#
#
#
# Elastic Compliance Matrix: (Units=1/GPa)
#
#
# Indices 1 2 3 4 5 6 
#
# 1 0.009781 -0.002931 0.002350 0.007898 -0.005131 -0.004829
# 2 -0.002931 0.014930 -0.000296 0.005690 -0.001891 -0.000669
# 3 0.002350 -0.000296 0.021116 0.014898 -0.008514 -0.006144
# 4 0.007898 0.005690 0.014898 0.051001 -0.012519 -0.018752
# 5 -0.005131 -0.001891 -0.008514 -0.012519 0.028905 0.010972
# 6 -0.004829 -0.000669 -0.006144 -0.018752 0.010972 0.027967
#
#
# Mechanical properties :
#
#
# Convention : Reuss Voigt Hill
#
# Bulk Modulus (GPa) = 22.68933 46.04230 34.36582
# Shear Modulus (GPa) = 29.38683 42.37184 35.87934
#
# Velocity S-wave (km/s) = 3.55275 4.26606 3.92564
# Velocity P-wave (km/s) = 5.15507 6.63637 5.94206
#
# Compressibility (1/GPa) = 0.04407358
#
# Stress axis : x y z
#
# Youngs Moduli (GPa) = 102.23438 66.98061 47.35829
#
# Poissons Ratio (x) = 0.19634 -0.11131
# Poissons Ratio (y) = 0.29969 0.01400
# Poissons Ratio (z) = -0.24030 0.01980
#
# Static dielectric constant tensor:
#      x y z
#    x 1.915170 0.025620 0.041940 
#    y 0.025620 1.952450 0.045960 
#    z 0.041940 0.045960 1.968870 
# 
# From -- ./inp_files/328462.got.cif
#   From: 2010.05.17/outbox.cif.g08.bks.cpg/sg2_165_cif.got.tgz:328462.got - 2010.06.03 11:33:40.
