data_PCOD9016956
_publ_section_title
;
Structure prediction by ZEFSAII (Michael W. Deem and Ramdas Pophale) SiO2 
 PCOD9016956
Probable space group: P -1
;
_chemical_formula_sum "Si O2"
_cell_formula_units_Z 16
_cell_length_a 11.706197
_cell_length_b 18.393146
_cell_length_c 17.756037
_cell_angle_alpha 150.692563
_cell_angle_beta 153.316149
_cell_angle_gamma 27.706905
_cell_volume 735.792637
_symmetry_space_group_name_H-M "P -1"
_symmetry_group_IT_number 2
_symmetry_cell_setting 'triclinic'
loop_
_space_group_symop_operation_xyz
x,y,z
-x,-y,-z
loop_
_atom_site_type_symbol
_atom_site_label
_atom_site_fract_x
_atom_site_fract_y
_atom_site_fract_z
Si Si1 0.198168 0.686272 0.145171
Si Si2 0.413590 0.936363 0.139644
Si Si3 0.163691 0.209372 0.526599
Si Si4 0.555518 0.319282 0.958318
Si Si5 0.018852 0.667398 0.183770
Si Si6 0.893721 0.777381 0.896592
Si Si7 0.582385 0.546930 0.509917
Si Si8 0.506057 0.887024 0.515265
O O1 0.045722 0.736363 0.180844
O O2 0.463909 0.724707 0.341318
O O3 0.329553 0.490587 0.021638
O O4 0.986775 0.789282 0.046386
O O5 0.309897 0.826626 0.030148
O O6 0.739399 0.801862 0.185655
O O7 0.248323 0.040897 0.063647
O O8 0.411649 0.074909 0.321177
O O9 0.379815 0.267135 0.747510
O O10 0.271407 0.136114 0.440842
O O11 0.850253 0.369368 0.481023
O O12 0.207438 0.053715 0.464849
O O13 0.808455 0.333510 0.075659
O O14 0.305650 0.613186 0.352803
O O15 0.000000 0.500000 0.000000
O O16 0.697956 0.684366 0.701385
O O17 0.500000 0.500000 0.500000
#
# Coordination Sequence:
#
# PCOD9016956 Si02
#       8
#     2   2   2   2   2   2   2   2
#     4  12  23  42  74 102 145 185 233 287 348 424
#     4  11  26  47  71 100 147 186 235 298 349 416
#     4  10  21  42  70 104 145 183 229 286 354 418
#     4  11  21  46  74 103 150 184 227 296 354 414
#     4  12  27  49  69  98 139 192 235 284 358 422
#     4  12  25  42  75 110 136 187 239 289 352 419
#     4  12  25  44  73 104 144 189 240 290 354 419
#     4  10  22  40  68 106 140 183 227 290 355 402
#
# _framework density 21.745256000000001
#
# number of rings (size 3 to 8) (size 9 to 14) (size 15 to 20)
#    0.000    0.750    3.750    4.500    0.000    5.500 
#    0.000    2.500    0.000    0.000    0.000    0.000 
#    0.000    0.000    0.000    0.000    0.000    0.000 
#
# Total GULP energy -89487.995188 kJ/mol
# GULP energy per Si atom -5592.999699 kJ/mol
# Density = 2.169576 g / cm^3
# Si number density = 21.745256 Si / 1000 Ang^3
#
#
#
# Elastic Constant Matrix: (Units=GPa)
#
#
# Indices 1 2 3 4 5 6 
#
# 1 136.4415 34.5894 44.1231 -17.3914 -7.9627 21.6629
# 2 34.5894 86.7095 22.8793 -8.9211 -8.9229 11.1881
# 3 44.1231 22.8793 94.6921 -2.2282 -10.2231 3.4075
# 4 -17.3914 -8.9211 -2.2282 26.6189 -0.4898 -4.6972
# 5 -7.9627 -8.9229 -10.2231 -0.4898 30.4551 -2.8090
# 6 21.6629 11.1881 3.4075 -4.6972 -2.8090 42.7208
#
#
#
# Elastic Compliance Matrix: (Units=1/GPa)
#
#
# Indices 1 2 3 4 5 6 
#
# 1 0.010453 -0.002019 -0.004069 0.005142 0.000503 -0.003849
# 2 -0.002019 0.013662 -0.001934 0.002810 0.002694 -0.001914
# 3 -0.004069 -0.001934 0.013137 -0.001889 0.002888 0.001504
# 4 0.005142 0.002810 -0.001889 0.042033 0.002356 0.001584
# 5 0.000503 0.002694 0.002888 0.002356 0.034889 0.001362
# 6 -0.003849 -0.001914 0.001504 0.001584 0.001362 0.026004
#
#
# Mechanical properties :
#
#
# Convention : Reuss Voigt Hill
#
# Bulk Modulus (GPa) = 47.15340 57.89188 52.52264
# Shear Modulus (GPa) = 30.62013 34.37570 32.49791
#
# Velocity S-wave (km/s) = 3.75658 3.98029 3.87005
# Velocity P-wave (km/s) = 6.36768 6.91405 6.64648
#
# Compressibility (1/GPa) = 0.02120738
#
# Stress axis : x y z
#
# Youngs Moduli (GPa) = 95.67011 73.19734 76.12020
#
# Poissons Ratio (x) = 0.14775 0.30973
# Poissons Ratio (y) = 0.19312 0.14725
# Poissons Ratio (z) = 0.38928 0.14160
#
# Static dielectric constant tensor:
#      x y z
#    x 1.890050 0.041620 0.017820 
#    y 0.041620 1.809610 0.002260 
#    z 0.017820 0.002260 1.786410 
# 
# From -- ./inp_files/570282.got.cif
#   From: 2010.05.17/outbox.cif.g08.bks.cpg/sg2_286_cif.got.tgz:570282.got - 2010.06.03 11:33:40.
