data_PCOD9016040
_publ_section_title
;
Structure prediction by ZEFSAII (Michael W. Deem and Ramdas Pophale) SiO2 
 PCOD9016040
Probable space group: P -1
;
_chemical_formula_sum "Si O2"
_cell_formula_units_Z 16
_cell_length_a 20.465475
_cell_length_b 7.215585
_cell_length_c 5.325652
_cell_angle_alpha 116.939734
_cell_angle_beta 114.170660
_cell_angle_gamma 80.469734
_cell_volume 639.441614
_symmetry_space_group_name_H-M "P -1"
_symmetry_group_IT_number 2
_symmetry_cell_setting 'triclinic'
loop_
_space_group_symop_operation_xyz
x,y,z
-x,-y,-z
loop_
_atom_site_type_symbol
_atom_site_label
_atom_site_fract_x
_atom_site_fract_y
_atom_site_fract_z
Si Si1 0.562131 0.632301 0.415091
Si Si2 0.200681 0.441637 0.303127
Si Si3 0.803302 0.814342 0.366781
Si Si4 0.342002 0.621178 0.889814
Si Si5 0.943442 0.420306 0.661427
Si Si6 0.643378 0.944466 0.097184
Si Si7 0.427197 0.769679 0.508373
Si Si8 0.961041 0.846816 0.648344
O O1 0.605852 0.570693 0.199993
O O2 0.488338 0.753711 0.383326
O O3 0.546778 0.398118 0.352517
O O4 0.614234 0.759096 0.763557
O O5 0.191552 0.251216 0.371516
O O6 0.269779 0.554540 0.598298
O O7 0.133381 0.586250 0.333416
O O8 0.203266 0.363992 0.972508
O O9 0.881373 0.919808 0.496032
O O10 0.726086 0.919523 0.287833
O O11 0.360289 0.845703 0.941620
O O12 0.351699 0.671958 0.228492
O O13 0.941928 0.611036 0.576529
O O14 0.976649 0.209371 0.483689
O O15 0.000000 0.500000 0.000000
O O16 0.589693 0.005178 0.275694
O O17 0.000000 0.000000 0.000000
#
# Coordination Sequence:
#
# PCOD9016040 Si02
#       8
#     2   2   2   2   2   2   2   2
#     4  10  21  43  62  89 130 168 213 276 328 390
#     4  11  24  44  70  93 135 179 217 270 331 391
#     4  11  24  45  68  96 135 177 216 270 334 388
#     4  11  24  39  64  94 124 172 221 267 330 388
#     4  10  21  42  66  92 131 171 217 267 326 385
#     4  11  24  39  64  94 130 168 221 269 329 390
#     4  10  23  39  64  93 124 171 219 268 330 394
#     4  10  23  42  66  98 130 171 219 271 325 387
#
# _framework density 25.021832
#
# number of rings (size 3 to 8) (size 9 to 14) (size 15 to 20)
#    0.000    1.500    2.500    1.500    3.500    4.000 
#    2.250    0.000    0.000    0.000    0.000    0.000 
#    0.000    0.000    0.000    0.000    0.000    0.000 
#
# Total GULP energy -89309.859174 kJ/mol
# GULP energy per Si atom -5581.866198 kJ/mol
# Density = 2.496488 g / cm^3
# Si number density = 25.021832 Si / 1000 Ang^3
#
#
#
# Elastic Constant Matrix: (Units=GPa)
#
#
# Indices 1 2 3 4 5 6 
#
# 1 89.1918 32.3731 22.1421 6.4178 13.8479 -40.2617
# 2 32.3731 95.2883 6.1468 15.8474 2.7290 -31.8338
# 3 22.1421 6.1468 103.6240 10.9132 8.4181 -26.9199
# 4 6.4178 15.8474 10.9132 38.5007 -12.7983 0.2268
# 5 13.8479 2.7290 8.4181 -12.7983 45.6814 0.0365
# 6 -40.2617 -31.8338 -26.9199 0.2268 0.0365 47.0931
#
#
#
# Elastic Compliance Matrix: (Units=1/GPa)
#
#
# Indices 1 2 3 4 5 6 
#
# 1 0.021454 0.000865 0.002167 -0.007700 -0.009128 0.020209
# 2 0.000865 0.016397 0.003900 -0.009635 -0.004671 0.014103
# 3 0.002167 0.003900 0.013373 -0.007661 -0.005510 0.012175
# 4 -0.007700 -0.009635 -0.007661 0.038528 0.015129 -0.017672
# 5 -0.009128 -0.004671 -0.005510 0.015129 0.030202 -0.014207
# 6 0.020209 0.014103 0.012175 -0.017672 -0.014207 0.055101
#
#
# Mechanical properties :
#
#
# Convention : Reuss Voigt Hill
#
# Bulk Modulus (GPa) = 15.36391 45.49201 30.42796
# Shear Modulus (GPa) = 27.33959 41.41786 34.37873
#
# Velocity S-wave (km/s) = 3.30908 4.07291 3.71070
# Velocity P-wave (km/s) = 4.55561 6.35126 5.52685
#
# Compressibility (1/GPa) = 0.06508760
#
# Stress axis : x y z
#
# Youngs Moduli (GPa) = 46.61239 60.98860 74.77675
#
# Poissons Ratio (x) = -0.05275 -0.16204
# Poissons Ratio (y) = -0.04032 -0.29166
# Poissons Ratio (z) = -0.10101 -0.23788
#
# Static dielectric constant tensor:
#      x y z
#    x 2.051120 0.302700 0.108340 
#    y 0.302700 1.580570 -0.418970 
#    z 0.108340 -0.418970 1.721190 
# 
# From -- ./inp_files/10595.got.cif
#   From: 2010.05.17/outbox.cif.g08.bks.cpg/sg2_6_cif.got.tgz:10595.got - 2010.06.03 11:33:40.
