data_PCOD9016140
_publ_section_title
;
Structure prediction by ZEFSAII (Michael W. Deem and Ramdas Pophale) SiO2 
 PCOD9016140
Probable space group: P -1
;
_chemical_formula_sum "Si O2"
_cell_formula_units_Z 16
_cell_length_a 9.119051
_cell_length_b 8.931319
_cell_length_c 11.633314
_cell_angle_alpha 71.488207
_cell_angle_beta 94.891344
_cell_angle_gamma 131.203803
_cell_volume 665.701424
_symmetry_space_group_name_H-M "P -1"
_symmetry_group_IT_number 2
_symmetry_cell_setting 'triclinic'
loop_
_space_group_symop_operation_xyz
x,y,z
-x,-y,-z
loop_
_atom_site_type_symbol
_atom_site_label
_atom_site_fract_x
_atom_site_fract_y
_atom_site_fract_z
Si Si1 0.637448 0.838693 0.749319
Si Si2 0.300459 0.223257 0.657668
Si Si3 0.045507 0.519374 0.278878
Si Si4 0.692023 0.551585 0.042939
Si Si5 0.630722 0.094253 0.254222
Si Si6 0.220067 0.670217 0.022842
Si Si7 0.992156 0.826470 0.183220
Si Si8 0.259604 0.339366 0.388918
O O1 0.417880 0.619820 0.818704
O O2 0.566503 0.968415 0.688255
O O3 0.745414 0.800263 0.676231
O O4 0.784968 0.950966 0.841107
O O5 0.150928 0.154171 0.766678
O O6 0.206340 0.219999 0.534802
O O7 0.506468 0.457206 0.639043
O O8 0.356686 0.081865 0.683887
O O9 0.195992 0.691913 0.147695
O O10 0.147332 0.428863 0.350784
O O11 0.835764 0.308162 0.267797
O O12 0.990936 0.654718 0.292761
O O13 0.898671 0.746466 0.068510
O O14 0.500000 0.500000 0.000000
O O15 0.724610 0.471683 0.951256
O O16 0.647672 0.140263 0.105541
O O17 0.000000 0.500000 0.000000
#
# Coordination Sequence:
#
# PCOD9016140 Si02
#       8
#     2   2   2   2   2   2   2   2
#     4  11  23  44  66  98 132 178 222 275 335 395
#     4  11  25  44  65 101 132 178 226 276 342 392
#     4  11  21  42  70  96 134 177 222 277 331 397
#     4  11  22  42  64  95 137 174 220 279 326 394
#     4  10  21  42  66  96 140 170 222 277 330 401
#     4   9  18  38  67  92 129 176 210 266 335 383
#     4  12  24  43  67  97 137 175 225 269 338 401
#     4  11  24  44  70  94 136 175 225 285 332 396
#
# _framework density 24.034800000000001
#
# number of rings (size 3 to 8) (size 9 to 14) (size 15 to 20)
#    0.000    1.250    5.000    2.250    0.000    4.500 
#    2.250    1.875    0.000    0.000    0.000    0.000 
#    0.000    0.000    0.000    0.000    0.000    0.000 
#
# Total GULP energy -89090.475070 kJ/mol
# GULP energy per Si atom -5568.154692 kJ/mol
# Density = 2.398010 g / cm^3
# Si number density = 24.034800 Si / 1000 Ang^3
#
#
#
# Elastic Constant Matrix: (Units=GPa)
#
#
# Indices 1 2 3 4 5 6 
#
# 1 166.0345 17.9536 8.3906 8.5893 28.7798 -5.5455
# 2 17.9536 96.8251 12.9963 8.5179 2.4430 11.3169
# 3 8.3906 12.9963 32.8984 3.8047 23.5811 0.7016
# 4 8.5893 8.5179 3.8047 16.4435 4.1686 0.3694
# 5 28.7798 2.4430 23.5811 4.1686 33.1089 -6.5455
# 6 -5.5455 11.3169 0.7016 0.3694 -6.5455 36.3741
#
#
#
# Elastic Compliance Matrix: (Units=1/GPa)
#
#
# Indices 1 2 3 4 5 6 
#
# 1 0.008042 -0.001999 0.007698 -0.001846 -0.012187 -0.000475
# 2 -0.001999 0.012492 -0.009092 -0.005145 0.007420 -0.002628
# 3 0.007698 -0.009092 0.077211 -0.001110 -0.062600 -0.008740
# 4 -0.001846 -0.005145 -0.001110 0.066133 -0.005620 -0.000342
# 5 -0.012187 0.007420 -0.062600 -0.005620 0.088103 0.012952
# 6 -0.000475 -0.002628 -0.008740 -0.000342 0.012952 0.030740
#
#
# Mechanical properties :
#
#
# Convention : Reuss Voigt Hill
#
# Bulk Modulus (GPa) = 10.99417 41.60433 26.29925
# Shear Modulus (GPa) = 15.63344 34.27978 24.95661
#
# Velocity S-wave (km/s) = 2.55316 3.78068 3.22584
# Velocity P-wave (km/s) = 3.64358 6.03371 4.98404
#
# Compressibility (1/GPa) = 0.09095733
#
# Stress axis : x y z
#
# Youngs Moduli (GPa) = 124.34571 80.05406 12.95155
#
# Poissons Ratio (x) = 0.16003 -0.09970
# Poissons Ratio (y) = 0.24857 0.11776
# Poissons Ratio (z) = -0.95717 0.72787
#
# Static dielectric constant tensor:
#      x y z
#    x 2.031920 -0.176110 0.129810 
#    y -0.176110 2.015760 -0.047670 
#    z 0.129810 -0.047670 1.991030 
# 
# From -- ./inp_files/382009.got.cif
#   From: 2010.05.17/outbox.cif.g08.bks.cpg/sg2_192_cif.got.tgz:382009.got - 2010.06.03 11:33:40.
