data_PCOD9016546
_publ_section_title
;
Structure prediction by ZEFSAII (Michael W. Deem and Ramdas Pophale) SiO2 
 PCOD9016546
Probable space group: P -1
;
_chemical_formula_sum "Si O2"
_cell_formula_units_Z 14
_cell_length_a 16.550672
_cell_length_b 6.894018
_cell_length_c 12.464513
_cell_angle_alpha 84.735514
_cell_angle_beta 23.868198
_cell_angle_gamma 88.868740
_cell_volume 565.734178
_symmetry_space_group_name_H-M "P -1"
_symmetry_group_IT_number 2
_symmetry_cell_setting 'triclinic'
loop_
_space_group_symop_operation_xyz
x,y,z
-x,-y,-z
loop_
_atom_site_type_symbol
_atom_site_label
_atom_site_fract_x
_atom_site_fract_y
_atom_site_fract_z
Si Si1 0.953791 0.763405 0.365221
Si Si2 0.533961 0.730153 0.977560
Si Si3 0.455621 0.383178 0.797635
Si Si4 0.196534 0.643673 0.795396
Si Si5 0.931062 0.608656 0.841866
Si Si6 0.389051 0.819238 0.932428
Si Si7 0.180123 0.964314 0.656753
O O1 0.769177 0.804450 0.660666
O O2 0.944349 0.527944 0.371690
O O3 0.171418 0.837465 0.148516
O O4 0.912733 0.857314 0.294879
O O5 0.500000 0.500000 0.000000
O O6 0.493729 0.730594 0.151818
O O7 0.402466 0.827544 0.045469
O O8 0.616297 0.386390 0.506593
O O9 0.231597 0.298241 0.033156
O O10 0.435997 0.603932 0.849293
O O11 0.161000 0.867723 0.803973
O O12 0.072937 0.778088 0.725256
O O13 0.206524 0.556270 0.906460
O O14 0.000000 0.500000 0.000000
O O15 0.579936 0.964004 0.647075
#
# Coordination Sequence:
#
# PCOD9016546 Si02
#       7
#     2   2   2   2   2   2   2
#     4  10  22  44  64  98 130 160 217 253 320 377
#     4   9  20  37  69  96 123 170 207 259 314 379
#     4  10  21  42  68  92 127 169 215 254 323 372
#     4  10  23  40  63  94 126 169 213 260 314 375
#     4  10  23  42  68  93 126 172 208 267 310 375
#     4   9  21  41  65  97 129 164 206 266 310 381
#     4  10  23  40  66  94 130 168 208 261 315 373
#
# _framework density 24.746606
#
# number of rings (size 3 to 8) (size 9 to 14) (size 15 to 20)
#    0.000    2.286    0.000    0.429   14.000    5.714 
#    2.571    7.143    0.000    0.000    0.000    0.000 
#    0.000    0.000    0.000    0.000    0.000    0.000 
#
# Total GULP energy -78237.999400 kJ/mol
# GULP energy per Si atom -5588.428529 kJ/mol
# Density = 2.469028 g / cm^3
# Si number density = 24.746606 Si / 1000 Ang^3
#
#
#
# Elastic Constant Matrix: (Units=GPa)
#
#
# Indices 1 2 3 4 5 6 
#
# 1 80.1304 -15.6652 43.8296 -8.4238 -9.1962 -11.3831
# 2 -15.6652 69.2724 18.1460 -11.2528 -5.7562 -3.6576
# 3 43.8296 18.1460 132.2916 -1.8296 -11.7623 -1.4918
# 4 -8.4238 -11.2528 -1.8296 39.8624 2.7933 3.4845
# 5 -9.1962 -5.7562 -11.7623 2.7933 45.1272 0.0887
# 6 -11.3831 -3.6576 -1.4918 3.4845 0.0887 30.5195
#
#
#
# Elastic Compliance Matrix: (Units=1/GPa)
#
#
# Indices 1 2 3 4 5 6 
#
# 1 0.019938 0.007898 -0.007281 0.005262 0.002832 0.007418
# 2 0.007898 0.018934 -0.004869 0.006253 0.002360 0.004256
# 3 -0.007281 -0.004869 0.010652 -0.002261 0.000817 -0.002523
# 4 0.005262 0.006253 -0.002261 0.027942 -0.000448 -0.000588
# 5 0.002832 0.002360 0.000817 -0.000448 0.023276 0.001363
# 6 0.007418 0.004256 -0.002523 -0.000588 0.001363 0.035983
#
#
# Mechanical properties :
#
#
# Convention : Reuss Voigt Hill
#
# Bulk Modulus (GPa) = 24.37884 41.59058 32.98471
# Shear Modulus (GPa) = 31.46584 38.79408 35.12996
#
# Velocity S-wave (km/s) = 3.56971 3.96365 3.77183
# Velocity P-wave (km/s) = 5.18297 6.14740 5.68567
#
# Compressibility (1/GPa) = 0.04101918
#
# Stress axis : x y z
#
# Youngs Moduli (GPa) = 50.15535 52.81543 93.87867
#
# Poissons Ratio (x) = -0.41712 0.68351
# Poissons Ratio (y) = -0.39611 0.45713
# Poissons Ratio (z) = 0.36517 0.25718
#
# Static dielectric constant tensor:
#      x y z
#    x 1.993640 -0.013900 0.041560 
#    y -0.013900 2.056050 0.035090 
#    z 0.041560 0.035090 1.960420 
# 
# From -- ./inp_files/536602.got.cif
#   From: 2010.05.17/outbox.cif.g08.bks.cpg/sg2_269_cif.got.tgz:536602.got - 2010.06.03 11:33:40.
