data_PCOD9016773
_publ_section_title
;
Structure prediction by ZEFSAII (Michael W. Deem and Ramdas Pophale) SiO2 
 PCOD9016773
Probable space group: P -1
;
_chemical_formula_sum "Si O2"
_cell_formula_units_Z 16
_cell_length_a 8.923773
_cell_length_b 15.323708
_cell_length_c 19.036953
_cell_angle_alpha 160.948207
_cell_angle_beta 50.427792
_cell_angle_gamma 121.451925
_cell_volume 620.689895
_symmetry_space_group_name_H-M "P -1"
_symmetry_group_IT_number 2
_symmetry_cell_setting 'triclinic'
loop_
_space_group_symop_operation_xyz
x,y,z
-x,-y,-z
loop_
_atom_site_type_symbol
_atom_site_label
_atom_site_fract_x
_atom_site_fract_y
_atom_site_fract_z
Si Si1 0.899201 0.835648 0.852758
Si Si2 0.318169 0.610685 0.722140
Si Si3 0.047056 0.680006 0.994315
Si Si4 0.648291 0.695647 0.049891
Si Si5 0.647300 0.536514 0.783501
Si Si6 0.792783 0.929173 0.517178
Si Si7 0.241228 0.070871 0.305263
Si Si8 0.708971 0.242633 0.406238
O O1 0.831517 0.618726 0.754434
O O2 0.072534 0.737895 0.666833
O O3 0.703461 0.087548 0.074776
O O4 0.000000 0.000000 0.000000
O O5 0.538200 0.460930 0.576587
O O6 0.153250 0.687721 0.893215
O O7 0.267893 0.372993 0.507173
O O8 0.175165 0.377744 0.760180
O O9 0.825724 0.648989 0.018865
O O10 0.065370 0.954373 0.237637
O O11 0.419675 0.823916 0.246952
O O12 0.691028 0.934332 0.167328
O O13 0.663639 0.470660 0.811496
O O14 0.645480 0.291655 0.543995
O O15 0.443563 0.801111 0.029752
O O16 0.782890 0.891824 0.575615
O O17 0.000000 0.000000 0.500000
#
# Coordination Sequence:
#
# PCOD9016773 Si02
#       8
#     2   2   2   2   2   2   2   2
#     4  12  24  40  58  90 129 169 217 270 310 357
#     4  11  22  41  61  88 128 165 217 264 307 367
#     4  11  21  41  65  94 124 166 212 250 313 382
#     4  11  22  43  64  91 127 166 208 258 311 379
#     4  11  22  41  62  89 127 173 217 260 320 363
#     4  10  23  43  67  97 130 160 201 258 315 381
#     4  10  21  42  69  90 124 175 206 254 323 373
#     4  12  22  40  62  89 122 168 217 262 313 368
#
# _framework density 25.777767999999998
#
# number of rings (size 3 to 8) (size 9 to 14) (size 15 to 20)
#    0.000    1.000    7.500    0.375    0.000    6.500 
#    2.250    0.625    0.000    0.000    0.000    0.000 
#    0.000    0.000    0.000    0.000    0.000    0.000 
#
# Total GULP energy -89422.757198 kJ/mol
# GULP energy per Si atom -5588.922325 kJ/mol
# Density = 2.571910 g / cm^3
# Si number density = 25.777768 Si / 1000 Ang^3
#
#
#
# Elastic Constant Matrix: (Units=GPa)
#
#
# Indices 1 2 3 4 5 6 
#
# 1 95.6620 -3.9020 52.6439 7.5898 -10.1478 1.1111
# 2 -3.9020 58.9954 12.4683 -12.0454 -6.7194 18.5994
# 3 52.6439 12.4683 91.4936 -10.7035 -5.6516 6.0433
# 4 7.5898 -12.0454 -10.7035 24.9266 6.7051 -1.5479
# 5 -10.1478 -6.7194 -5.6516 6.7051 47.9637 -2.5989
# 6 1.1111 18.5994 6.0433 -1.5479 -2.5989 27.9915
#
#
#
# Elastic Compliance Matrix: (Units=1/GPa)
#
#
# Indices 1 2 3 4 5 6 
#
# 1 0.018377 0.001859 -0.011866 -0.010925 0.004299 0.000392
# 2 0.001859 0.024289 -0.002253 0.008870 0.001472 -0.015099
# 3 -0.011866 -0.002253 0.019371 0.011329 -0.002225 -0.001794
# 4 -0.010925 0.008870 0.011329 0.054299 -0.007629 -0.005612
# 5 0.004299 0.001472 -0.002225 -0.007629 0.022825 0.001029
# 6 0.000392 -0.015099 -0.001794 -0.005612 0.001029 0.045915
#
#
# Mechanical properties :
#
#
# Convention : Reuss Voigt Hill
#
# Bulk Modulus (GPa) = 26.65568 40.95236 33.80402
# Shear Modulus (GPa) = 22.51229 32.50576 27.50902
#
# Velocity S-wave (km/s) = 2.95841 3.55491 3.27029
# Velocity P-wave (km/s) = 4.69389 5.72460 5.23467
#
# Compressibility (1/GPa) = 0.03751545
#
# Stress axis : x y z
#
# Youngs Moduli (GPa) = 54.41485 41.17155 51.62489
#
# Poissons Ratio (x) = -0.07652 0.61257
# Poissons Ratio (y) = -0.10114 0.11633
# Poissons Ratio (z) = 0.64567 0.09278
#
# Static dielectric constant tensor:
#      x y z
#    x 2.096650 0.010760 -0.027500 
#    y 0.010760 2.042730 0.062510 
#    z -0.027500 0.062510 2.195820 
# 
# From -- ./inp_files/591058.got.cif
#   From: 2010.05.17/outbox.cif.g08.bks.cpg/sg2_296_cif.got.tgz:591058.got - 2010.06.03 11:33:40.
