data_PCOD9016777
_publ_section_title
;
Structure prediction by ZEFSAII (Michael W. Deem and Ramdas Pophale) SiO2 
 PCOD9016777
Probable space group: P -1
;
_chemical_formula_sum "Si O2"
_cell_formula_units_Z 12
_cell_length_a 8.841351
_cell_length_b 10.682851
_cell_length_c 7.664763
_cell_angle_alpha 63.270880
_cell_angle_beta 54.508242
_cell_angle_gamma 49.781982
_cell_volume 446.810342
_symmetry_space_group_name_H-M "P -1"
_symmetry_group_IT_number 2
_symmetry_cell_setting 'triclinic'
loop_
_space_group_symop_operation_xyz
x,y,z
-x,-y,-z
loop_
_atom_site_type_symbol
_atom_site_label
_atom_site_fract_x
_atom_site_fract_y
_atom_site_fract_z
Si Si1 0.850350 0.918304 0.282619
Si Si2 0.974984 0.461451 0.236724
Si Si3 0.137316 0.776900 0.457895
Si Si4 0.552802 0.776018 0.232070
Si Si5 0.242818 0.585484 0.162461
Si Si6 0.545731 0.876379 0.780311
O O1 0.717302 0.851626 0.525662
O O2 0.989116 0.934268 0.336371
O O3 0.038101 0.770983 0.128281
O O4 0.674590 0.082916 0.199331
O O5 0.996582 0.284040 0.308545
O O6 0.734457 0.623975 0.317858
O O7 0.145318 0.473344 0.242553
O O8 0.000000 0.500000 0.000000
O O9 0.331042 0.780137 0.411002
O O10 0.233259 0.626927 0.346485
O O11 0.526070 0.942986 0.212255
O O12 0.576324 0.775944 0.003081
O O13 0.500000 0.500000 0.000000
#
# Coordination Sequence:
#
# PCOD9016777 Si02
#       6
#     2   2   2   2   2   2
#     4   9  21  42  64  95 124 174 223 264 323 379
#     4  12  23  41  67  97 131 169 218 277 333 384
#     4  10  23  41  64  96 132 168 217 272 328 385
#     4  11  22  39  66 101 131 171 214 266 336 382
#     4  10  22  42  64  96 127 172 219 270 326 383
#     4  10  21  42  69  91 133 178 215 265 320 396
#
# _framework density 26.857030999999999
#
# number of rings (size 3 to 8) (size 9 to 14) (size 15 to 20)
#    1.000    0.667    1.667    3.000    0.000    1.333 
#    0.000    3.333    0.000    0.000    0.000    0.000 
#    0.000    0.000    0.000    0.000    0.000    0.000 
#
# Total GULP energy -66846.270394 kJ/mol
# GULP energy per Si atom -5570.522533 kJ/mol
# Density = 2.679590 g / cm^3
# Si number density = 26.857031 Si / 1000 Ang^3
#
#
#
# Elastic Constant Matrix: (Units=GPa)
#
#
# Indices 1 2 3 4 5 6 
#
# 1 124.5046 30.3294 28.4242 2.6716 -29.9992 -33.2726
# 2 30.3294 80.5247 26.9395 12.2236 -0.2423 -21.3931
# 3 28.4242 26.9395 99.2054 -1.7456 -1.7339 -19.5413
# 4 2.6716 12.2236 -1.7456 37.8473 -3.3571 -1.5642
# 5 -29.9992 -0.2423 -1.7339 -3.3571 45.8275 1.4610
# 6 -33.2726 -21.3931 -19.5413 -1.5642 1.4610 40.3392
#
#
#
# Elastic Compliance Matrix: (Units=1/GPa)
#
#
# Indices 1 2 3 4 5 6 
#
# 1 0.013246 -0.002333 -0.001265 0.000869 0.008394 0.008805
# 2 -0.002333 0.016457 -0.002890 -0.005252 -0.002103 0.005275
# 3 -0.001265 -0.002890 0.011893 0.001673 -0.000375 0.003263
# 4 0.000869 -0.005252 0.001673 0.028362 0.002690 -0.000256
# 5 0.008394 -0.002103 -0.000375 0.002690 0.027336 0.004741
# 6 0.008805 0.005275 0.003263 -0.000256 0.004741 0.036249
#
#
# Mechanical properties :
#
#
# Convention : Reuss Voigt Hill
#
# Bulk Modulus (GPa) = 34.94279 52.84675 43.89477
# Shear Modulus (GPa) = 32.03896 39.37227 35.70561
#
# Velocity S-wave (km/s) = 3.45765 3.83298 3.65015
# Velocity P-wave (km/s) = 5.38325 6.26967 5.84329
#
# Compressibility (1/GPa) = 0.02861821
#
# Stress axis : x y z
#
# Youngs Moduli (GPa) = 75.49558 60.76527 84.08164
#
# Poissons Ratio (x) = 0.14177 0.10639
# Poissons Ratio (y) = 0.17614 0.24303
# Poissons Ratio (z) = 0.09552 0.17564
#
# Static dielectric constant tensor:
#      x y z
#    x -4.044820 -4.856960 13.234720 
#    y -4.856960 -1.345820 10.266180 
#    z 13.234720 10.266180 -26.308480 
# 
# From -- ./inp_files/184611.got.cif
#   From: 2010.05.17/outbox.cif.g08.bks.cpg/sg2_93_cif.got.tgz:184611.got - 2010.06.03 11:33:40.
