data_PCOD9016486
_publ_section_title
;
Structure prediction by ZEFSAII (Michael W. Deem and Ramdas Pophale) SiO2 
 PCOD9016486
Probable space group: P -1
;
_chemical_formula_sum "Si O2"
_cell_formula_units_Z 16
_cell_length_a 12.987394
_cell_length_b 9.677638
_cell_length_c 12.232057
_cell_angle_alpha 89.973277
_cell_angle_beta 31.738269
_cell_angle_gamma 109.165790
_cell_volume 631.416094
_symmetry_space_group_name_H-M "P -1"
_symmetry_group_IT_number 2
_symmetry_cell_setting 'triclinic'
loop_
_space_group_symop_operation_xyz
x,y,z
-x,-y,-z
loop_
_atom_site_type_symbol
_atom_site_label
_atom_site_fract_x
_atom_site_fract_y
_atom_site_fract_z
Si Si1 0.130094 0.851874 0.424498
Si Si2 0.675587 0.755615 0.707935
Si Si3 0.646587 0.084665 0.255057
Si Si4 0.772392 0.351236 0.780600
Si Si5 0.001504 0.571262 0.183644
Si Si6 0.119921 0.793869 0.668092
Si Si7 0.570869 0.616536 0.559013
Si Si8 0.855926 0.783458 0.107351
O O1 0.316904 0.820379 0.208201
O O2 0.008800 0.748523 0.647853
O O3 0.915946 0.775318 0.526652
O O4 0.244325 0.050104 0.349256
O O5 0.589136 0.688917 0.662641
O O6 0.450138 0.640620 0.997152
O O7 0.500000 0.000000 0.500000
O O8 0.418118 0.952138 0.381129
O O9 0.791082 0.288765 0.092505
O O10 0.888199 0.091994 0.050789
O O11 0.000000 0.500000 0.500000
O O12 0.870286 0.358225 0.813397
O O13 0.906540 0.372603 0.260459
O O14 0.772812 0.578579 0.383316
O O15 0.981554 0.843180 0.872019
O O16 0.657324 0.750674 0.378732
O O17 0.306112 0.428801 0.771717
#
# Coordination Sequence:
#
# PCOD9016486 Si02
#       8
#     2   2   2   2   2   2   2   2
#     4  11  25  46  69 110 142 186 245 287 366 433
#     4  11  25  45  73  99 147 191 230 309 355 424
#     4   9  21  40  66  99 136 185 239 294 352 421
#     4  12  24  43  69 106 141 190 237 288 360 435
#     4  11  22  41  70 102 147 188 237 298 357 429
#     4  11  22  43  69 105 142 187 240 298 360 429
#     4  10  21  42  68 101 138 190 239 288 366 421
#     4   9  21  41  67  97 137 181 240 294 347 426
#
# _framework density 25.339867999999999
#
# number of rings (size 3 to 8) (size 9 to 14) (size 15 to 20)
#    0.000    1.500    2.500    1.875    0.000    6.000 
#    2.250    7.500    0.000    0.000    0.000    0.000 
#    0.000    0.000    0.000    0.000    0.000    0.000 
#
# Total GULP energy -89235.029661 kJ/mol
# GULP energy per Si atom -5577.189354 kJ/mol
# Density = 2.528219 g / cm^3
# Si number density = 25.339868 Si / 1000 Ang^3
#
#
#
# Elastic Constant Matrix: (Units=GPa)
#
#
# Indices 1 2 3 4 5 6 
#
# 1 61.6446 21.2589 10.4781 18.1750 18.4187 16.1903
# 2 21.2589 117.4415 52.5086 -0.6588 9.1971 11.7287
# 3 10.4781 52.5086 155.0470 0.5726 11.1789 7.8522
# 4 18.1750 -0.6588 0.5726 51.4056 2.1699 10.7048
# 5 18.4187 9.1971 11.1789 2.1699 31.8731 2.4211
# 6 16.1903 11.7287 7.8522 10.7048 2.4211 44.2622
#
#
#
# Elastic Compliance Matrix: (Units=1/GPa)
#
#
# Indices 1 2 3 4 5 6 
#
# 1 0.024581 -0.003210 0.000657 -0.006984 -0.012587 -0.005880
# 2 -0.003210 0.010756 -0.003352 0.001619 -0.000072 -0.001469
# 3 0.000657 -0.003352 0.007719 -0.000155 -0.002066 -0.000571
# 4 -0.006984 0.001619 -0.000155 0.022560 0.002348 -0.003432
# 5 -0.012587 -0.000072 -0.002066 0.002348 0.039060 0.002285
# 6 -0.005880 -0.001469 -0.000571 -0.003432 0.002285 0.025939
#
#
# Mechanical properties :
#
#
# Convention : Reuss Voigt Hill
#
# Bulk Modulus (GPa) = 32.00336 55.84715 43.92526
# Shear Modulus (GPa) = 32.71372 42.16734 37.44053
#
# Velocity S-wave (km/s) = 3.59694 4.08373 3.84804
# Velocity P-wave (km/s) = 5.46880 6.65754 6.09223
#
# Compressibility (1/GPa) = 0.03124672
#
# Stress axis : x y z
#
# Youngs Moduli (GPa) = 40.68103 92.97083 129.55149
#
# Poissons Ratio (x) = 0.29840 -0.08510
# Poissons Ratio (y) = 0.13057 0.43428
# Poissons Ratio (z) = -0.02672 0.31165
#
# Static dielectric constant tensor:
#      x y z
#    x 2.064380 -0.081250 -0.006690 
#    y -0.081250 2.140360 -0.055280 
#    z -0.006690 -0.055280 2.032080 
# 
# From -- ./inp_files/452448.got.cif
#   From: 2010.05.17/outbox.cif.g08.bks.cpg/sg2_227_cif.got.tgz:452448.got - 2010.06.03 11:33:40.
