data_PCOD9016653
_publ_section_title
;
Structure prediction by ZEFSAII (Michael W. Deem and Ramdas Pophale) SiO2 
 PCOD9016653
Probable space group: P -1
;
_chemical_formula_sum "Si O2"
_cell_formula_units_Z 14
_cell_length_a 9.092777
_cell_length_b 12.452787
_cell_length_c 11.847325
_cell_angle_alpha 44.890699
_cell_angle_beta 78.485800
_cell_angle_gamma 51.308459
_cell_volume 663.005567
_symmetry_space_group_name_H-M "P -1"
_symmetry_group_IT_number 2
_symmetry_cell_setting 'triclinic'
loop_
_space_group_symop_operation_xyz
x,y,z
-x,-y,-z
loop_
_atom_site_type_symbol
_atom_site_label
_atom_site_fract_x
_atom_site_fract_y
_atom_site_fract_z
Si Si1 0.391602 0.644303 0.580017
Si Si2 0.042861 0.604590 0.006061
Si Si3 0.034436 0.100984 0.825979
Si Si4 0.328668 0.438199 0.566730
Si Si5 0.748220 0.811441 0.121286
Si Si6 0.518098 0.619852 0.815093
Si Si7 0.930658 0.061539 0.303399
O O1 0.415563 0.474146 0.631236
O O2 0.477152 0.720299 0.430618
O O3 0.528039 0.542205 0.747235
O O4 0.142333 0.841327 0.486397
O O5 0.280554 0.422731 0.154979
O O6 0.881894 0.722359 0.050196
O O7 0.000000 0.500000 0.000000
O O8 0.046245 0.770833 0.823938
O O9 0.834005 0.343588 0.640145
O O10 0.193060 0.102336 0.861204
O O11 0.089059 0.974999 0.796712
O O12 0.000000 0.000000 0.000000
O O13 0.216507 0.372962 0.683413
O O14 0.500000 0.000000 0.000000
O O15 0.283617 0.854423 0.674967
O O16 0.500000 0.500000 0.000000
#
# Coordination Sequence:
#
# PCOD9016653 Si02
#       7
#     2   2   2   2   2   2   2
#     4  10  21  42  68  97 136 166 230 276 340 402
#     4  11  25  43  64  98 139 174 222 280 338 398
#     4  11  23  43  68  95 139 176 231 275 338 400
#     4  10  24  39  70 102 134 176 217 292 340 395
#     4  12  26  41  71 101 137 177 227 287 335 398
#     4  10  23  39  66  91 127 177 217 265 330 404
#     4  10  22  42  67  98 125 183 222 273 335 412
#
# _framework density 21.115963000000001
#
# number of rings (size 3 to 8) (size 9 to 14) (size 15 to 20)
#    0.000    1.429    1.429    2.571   12.000    0.000 
#    0.000    0.714    0.000    0.000    0.000    0.000 
#    0.000    0.000    0.000    0.000    0.000    0.000 
#
# Total GULP energy -78130.825939 kJ/mol
# GULP energy per Si atom -5580.773281 kJ/mol
# Density = 2.106790 g / cm^3
# Si number density = 21.115963 Si / 1000 Ang^3
#
#
#
# Elastic Constant Matrix: (Units=GPa)
#
#
# Indices 1 2 3 4 5 6 
#
# 1 171.2860 55.2617 47.6000 10.1048 26.9838 18.3743
# 2 55.2617 86.4629 25.3708 9.4178 22.2131 0.5199
# 3 47.6000 25.3708 79.9081 12.0785 10.4718 8.0458
# 4 10.1048 9.4178 12.0785 31.2341 3.6661 12.1125
# 5 26.9838 22.2131 10.4718 3.6661 44.6929 6.0363
# 6 18.3743 0.5199 8.0458 12.1125 6.0363 50.4261
#
#
#
# Elastic Compliance Matrix: (Units=1/GPa)
#
#
# Indices 1 2 3 4 5 6 
#
# 1 0.008669 -0.004062 -0.003490 0.001008 -0.002136 -0.002547
# 2 -0.004062 0.016469 -0.001883 -0.003488 -0.005424 0.003098
# 3 -0.003490 -0.001883 0.015906 -0.004355 -0.000304 -0.000164
# 4 0.001008 -0.003488 -0.004355 0.037789 0.000226 -0.008741
# 5 -0.002136 -0.005424 -0.000304 0.000226 0.026733 -0.002372
# 6 -0.002547 0.003098 -0.000164 -0.008741 -0.002372 0.023137
#
#
# Mechanical properties :
#
#
# Convention : Reuss Voigt Hill
#
# Bulk Modulus (GPa) = 45.09975 66.01354 55.55664
# Shear Modulus (GPa) = 32.26531 39.23226 35.74878
#
# Velocity S-wave (km/s) = 3.91321 4.31506 4.11904
# Velocity P-wave (km/s) = 6.46700 7.49377 6.99924
#
# Compressibility (1/GPa) = 0.02217307
#
# Stress axis : x y z
#
# Youngs Moduli (GPa) = 115.35500 60.71897 62.86942
#
# Poissons Ratio (x) = 0.24666 0.21943
# Poissons Ratio (y) = 0.46860 0.11839
# Poissons Ratio (z) = 0.40262 0.11434
#
# Static dielectric constant tensor:
#      x y z
#    x 1.116210 -0.486660 -0.119030 
#    y -0.486660 1.576100 -0.098220 
#    z -0.119030 -0.098220 1.772390 
# 
# From -- ./inp_files/199808.got.cif
#   From: 2010.05.17/outbox.cif.g08.bks.cpg/sg2_100_cif.got.tgz:199808.got - 2010.06.03 11:33:40.
