data_PCOD9016271
_publ_section_title
;
Structure prediction by ZEFSAII (Michael W. Deem and Ramdas Pophale) SiO2 
 PCOD9016271
Probable space group: P -1
;
_chemical_formula_sum "Si O2"
_cell_formula_units_Z 14
_cell_length_a 14.361086
_cell_length_b 8.308442
_cell_length_c 10.223182
_cell_angle_alpha 57.864819
_cell_angle_beta 40.890159
_cell_angle_gamma 59.598635
_cell_volume 664.174597
_symmetry_space_group_name_H-M "P -1"
_symmetry_group_IT_number 2
_symmetry_cell_setting 'triclinic'
loop_
_space_group_symop_operation_xyz
x,y,z
-x,-y,-z
loop_
_atom_site_type_symbol
_atom_site_label
_atom_site_fract_x
_atom_site_fract_y
_atom_site_fract_z
Si Si1 0.644019 0.729478 0.990486
Si Si2 0.571567 0.167966 0.294218
Si Si3 0.135449 0.957944 0.968979
Si Si4 0.069633 0.572818 0.266613
Si Si5 0.376135 0.871529 0.046515
Si Si6 0.885004 0.597965 0.185087
Si Si7 0.622567 0.429430 0.619412
O O1 0.515858 0.661709 0.243495
O O2 0.689809 0.913352 0.929445
O O3 0.777459 0.564575 0.878190
O O4 0.546851 0.816777 0.930620
O O5 0.626613 0.138415 0.100332
O O6 0.460982 0.366221 0.327535
O O7 0.500000 0.000000 0.500000
O O8 0.723825 0.150072 0.214300
O O9 0.095837 0.789530 0.175305
O O10 0.158408 0.171048 0.895645
O O11 0.000000 0.000000 0.000000
O O12 0.000000 0.500000 0.500000
O O13 0.960489 0.577842 0.257035
O O14 0.314550 0.713117 0.266428
O O15 0.749999 0.485479 0.374274
O O16 0.000000 0.500000 0.000000
#
# Coordination Sequence:
#
# PCOD9016271 Si02
#       7
#     2   2   2   2   2   2   2
#     4   9  21  43  65  93 123 162 216 264 311 373
#     4  12  22  37  69  97 123 165 215 262 315 382
#     4  10  23  44  58  91 135 165 211 258 326 380
#     4  11  25  41  69  93 128 175 216 259 324 389
#     4   9  22  39  68  93 128 156 219 265 313 369
#     4  11  26  44  62  96 135 168 211 272 331 377
#     4  10  21  42  67  90 122 170 215 261 311 382
#
# _framework density 21.078797000000002
#
# number of rings (size 3 to 8) (size 9 to 14) (size 15 to 20)
#    0.857    0.857    2.857    0.429    6.000    1.143 
#    5.143    2.857    0.000    0.000    0.000    0.000 
#    0.000    0.000    0.000    0.000    0.000    0.000 
#
# Total GULP energy -77966.770951 kJ/mol
# GULP energy per Si atom -5569.055068 kJ/mol
# Density = 2.103082 g / cm^3
# Si number density = 21.078797 Si / 1000 Ang^3
#
#
#
# Elastic Constant Matrix: (Units=GPa)
#
#
# Indices 1 2 3 4 5 6 
#
# 1 43.2928 11.6539 20.4847 1.7752 -3.4797 -10.4049
# 2 11.6539 151.9948 79.8622 -21.7416 4.4107 -9.2602
# 3 20.4847 79.8622 166.0632 -20.4903 -17.3495 -3.4061
# 4 1.7752 -21.7416 -20.4903 42.5236 -2.8444 -6.0732
# 5 -3.4797 4.4107 -17.3495 -2.8444 19.3071 1.9287
# 6 -10.4049 -9.2602 -3.4061 -6.0732 1.9287 15.5698
#
#
#
# Elastic Compliance Matrix: (Units=1/GPa)
#
#
# Indices 1 2 3 4 5 6 
#
# 1 0.029203 0.000869 -0.003599 0.000250 -0.000066 0.019350
# 2 0.000869 0.010497 -0.005341 0.003394 -0.007329 0.007887
# 3 -0.003599 -0.005341 0.010399 0.002629 0.010663 -0.003602
# 4 0.000250 0.003394 0.002629 0.028725 0.004525 0.013405
# 5 -0.000066 -0.007329 0.010663 0.004525 0.064534 -0.008299
# 6 0.019350 0.007887 -0.003602 0.013405 -0.008299 0.087318
#
#
# Mechanical properties :
#
#
# Convention : Reuss Voigt Hill
#
# Bulk Modulus (GPa) = 29.44950 65.03918 47.24434
# Shear Modulus (GPa) = 19.36955 32.10342 25.73649
#
# Velocity S-wave (km/s) = 3.03464 3.90682 3.49802
# Velocity P-wave (km/s) = 5.12642 7.16053 6.22710
#
# Compressibility (1/GPa) = 0.03395644
#
# Stress axis : x y z
#
# Youngs Moduli (GPa) = 34.24327 95.26286 96.16599
#
# Poissons Ratio (x) = -0.08274 0.34612
# Poissons Ratio (y) = -0.02974 0.51358
# Poissons Ratio (z) = 0.12325 0.50876
#
# Static dielectric constant tensor:
#      x y z
#    x 1.885970 -0.031340 -0.050800 
#    y -0.031340 1.789310 -0.018250 
#    z -0.050800 -0.018250 1.725510 
# 
# From -- ./inp_files/461864.got.cif
#   From: 2010.05.17/outbox.cif.g08.bks.cpg/sg2_231_cif.got.tgz:461864.got - 2010.06.03 11:33:40.
