data_PCOD9016805
_publ_section_title
;
Structure prediction by ZEFSAII (Michael W. Deem and Ramdas Pophale) SiO2 
 PCOD9016805
Probable space group: P -1
;
_chemical_formula_sum "Si O2"
_cell_formula_units_Z 16
_cell_length_a 8.860042
_cell_length_b 18.083372
_cell_length_c 18.068218
_cell_angle_alpha 158.114780
_cell_angle_beta 54.348641
_cell_angle_gamma 135.702699
_cell_volume 715.909112
_symmetry_space_group_name_H-M "P -1"
_symmetry_group_IT_number 2
_symmetry_cell_setting 'triclinic'
loop_
_space_group_symop_operation_xyz
x,y,z
-x,-y,-z
loop_
_atom_site_type_symbol
_atom_site_label
_atom_site_fract_x
_atom_site_fract_y
_atom_site_fract_z
Si Si1 0.977049 0.218574 0.943605
Si Si2 0.331604 0.216855 0.113789
Si Si3 0.252211 0.713271 0.097932
Si Si4 0.273621 0.127683 0.879553
Si Si5 0.541043 0.120061 0.179670
Si Si6 0.937036 0.631803 0.581339
Si Si7 0.936520 0.016721 0.618166
Si Si8 0.177970 0.467621 0.733386
O O1 0.128615 0.180763 0.918717
O O2 0.709573 0.991123 0.818538
O O3 0.055325 0.225028 0.842191
O O4 0.973548 0.450833 0.181695
O O5 0.145916 0.222397 0.216871
O O6 0.577315 0.429320 0.274899
O O7 0.304250 0.245844 0.061763
O O8 0.338780 0.984454 0.906119
O O9 0.472104 0.759582 0.117798
O O10 0.274790 0.964950 0.319559
O O11 0.253596 0.622510 0.931699
O O12 0.000000 0.500000 0.000000
O O13 0.137679 0.837543 0.662969
O O14 0.717895 0.408002 0.394131
O O15 0.500000 0.000000 0.000000
O O16 0.000000 0.500000 0.500000
O O17 0.928584 0.803850 0.464997
O O18 0.000000 0.000000 0.500000
#
# Coordination Sequence:
#
# PCOD9016805 Si02
#       8
#     2   2   2   2   2   2   2   2
#     4  10  24  41  62 100 139 172 230 283 348 416
#     4  10  22  41  64  93 136 185 229 277 343 407
#     4  10  21  42  69  94 125 173 226 281 352 410
#     4  11  24  43  66 100 143 180 229 299 347 412
#     4  11  24  43  67  98 143 190 230 283 340 414
#     4  12  25  39  67 103 138 187 237 281 338 415
#     4  11  21  40  72  94 124 174 230 286 345 420
#     4   9  20  39  66  91 122 174 222 274 343 407
#
# _framework density 22.349205000000001
#
# number of rings (size 3 to 8) (size 9 to 14) (size 15 to 20)
#    0.000    1.500    2.500    2.625    3.500    4.000 
#    0.000    3.125    0.000    0.000    0.000    0.000 
#    0.000    0.000    0.000    0.000    0.000    0.000 
#
# Total GULP energy -89146.810136 kJ/mol
# GULP energy per Si atom -5571.675634 kJ/mol
# Density = 2.229834 g / cm^3
# Si number density = 22.349205 Si / 1000 Ang^3
#
#
#
# Elastic Constant Matrix: (Units=GPa)
#
#
# Indices 1 2 3 4 5 6 
#
# 1 174.8770 49.7451 36.1585 4.6102 -20.2554 16.4111
# 2 49.7451 101.2761 26.7349 6.2286 2.8886 16.7705
# 3 36.1585 26.7349 88.5647 5.3505 -12.1039 9.6617
# 4 4.6102 6.2286 5.3505 37.7494 -8.3122 -0.7581
# 5 -20.2554 2.8886 -12.1039 -8.3122 34.7620 -7.5582
# 6 16.4111 16.7705 9.6617 -0.7581 -7.5582 35.5975
#
#
#
# Elastic Compliance Matrix: (Units=1/GPa)
#
#
# Indices 1 2 3 4 5 6 
#
# 1 0.007498 -0.003372 -0.001453 0.000761 0.004202 -0.000565
# 2 -0.003372 0.013484 -0.002742 -0.002827 -0.005882 -0.005363
# 3 -0.001453 -0.002742 0.013345 -0.000459 0.003727 -0.000879
# 4 0.000761 -0.002827 -0.000459 0.028794 0.008154 0.003450
# 5 0.004202 -0.005882 0.003727 0.008154 0.036642 0.007776
# 6 -0.000565 -0.005363 -0.000879 0.003450 0.007776 0.032842
#
#
# Mechanical properties :
#
#
# Convention : Reuss Voigt Hill
#
# Bulk Modulus (GPa) = 52.10354 65.55499 58.82926
# Shear Modulus (GPa) = 32.43887 38.42705 35.43296
#
# Velocity S-wave (km/s) = 3.81393 4.15105 3.98606
# Velocity P-wave (km/s) = 6.53902 7.23677 6.89672
#
# Compressibility (1/GPa) = 0.01919256
#
# Stress axis : x y z
#
# Youngs Moduli (GPa) = 133.37413 74.16326 74.93433
#
# Poissons Ratio (x) = 0.25009 0.10889
# Poissons Ratio (y) = 0.44976 0.20544
# Poissons Ratio (z) = 0.19381 0.20333
#
# Static dielectric constant tensor:
#      x y z
#    x 1.908180 0.002980 -0.018390 
#    y 0.002980 1.923730 0.055450 
#    z -0.018390 0.055450 1.892240 
# 
# From -- ./inp_files/591703.got.cif
#   From: 2010.05.17/outbox.cif.g08.bks.cpg/sg2_296_cif.got.tgz:591703.got - 2010.06.03 11:33:40.
