data_PCOD9016127
_publ_section_title
;
Structure prediction by ZEFSAII (Michael W. Deem and Ramdas Pophale) SiO2 
 PCOD9016127
Probable space group: P -1
;
_chemical_formula_sum "Si O2"
_cell_formula_units_Z 16
_cell_length_a 25.719272
_cell_length_b 11.687055
_cell_length_c 12.917409
_cell_angle_alpha 32.459598
_cell_angle_beta 21.738688
_cell_angle_gamma 31.219453
_cell_volume 720.274068
_symmetry_space_group_name_H-M "P -1"
_symmetry_group_IT_number 2
_symmetry_cell_setting 'triclinic'
loop_
_space_group_symop_operation_xyz
x,y,z
-x,-y,-z
loop_
_atom_site_type_symbol
_atom_site_label
_atom_site_fract_x
_atom_site_fract_y
_atom_site_fract_z
Si Si1 0.321497 0.597184 0.290188
Si Si2 0.132087 0.066925 0.839842
Si Si3 0.004320 0.265695 0.721629
Si Si4 0.295842 0.413943 0.927471
Si Si5 0.223375 0.116430 0.139679
Si Si6 0.589596 0.366638 0.289634
Si Si7 0.558285 0.774329 0.496029
Si Si8 0.043095 0.529146 0.777411
O O1 0.320422 0.420362 0.515713
O O2 0.197118 0.584633 0.448672
O O3 0.257551 0.850497 0.262784
O O4 0.500000 0.500000 0.000000
O O5 0.079866 0.282828 0.845602
O O6 0.128620 0.156029 0.660906
O O7 0.294271 0.883992 0.705603
O O8 0.020824 0.922447 0.161911
O O9 0.000000 0.500000 0.500000
O O10 0.847283 0.359742 0.005701
O O11 0.435845 0.417651 0.598390
O O12 0.339076 0.452484 0.936548
O O13 0.241004 0.207905 0.152476
O O14 0.079852 0.279963 0.213575
O O15 0.364586 0.150309 0.798039
O O16 0.554953 0.340339 0.253687
O O17 0.500000 0.000000 0.500000
O O18 0.000000 0.500000 0.000000
#
# Coordination Sequence:
#
# PCOD9016127 Si02
#       8
#     2   2   2   2   2   2   2   2
#     4  12  26  43  66  96 132 176 223 277 339 397
#     4  10  22  42  67  93 132 176 214 272 334 394
#     4  10  21  42  66  96 131 172 219 272 330 398
#     4   9  19  41  63  92 128 171 209 271 332 377
#     4  11  23  43  67  92 135 169 223 286 331 399
#     4   9  20  38  68  93 130 172 216 268 326 399
#     4  11  21  42  67  96 132 174 222 271 337 407
#     4  12  25  44  69  99 134 183 225 276 349 402
#
# _framework density 22.213767000000001
#
# number of rings (size 3 to 8) (size 9 to 14) (size 15 to 20)
#    0.000    1.500    3.750    1.125    1.750    1.000 
#    6.750    1.250    0.000    0.000    0.000    0.000 
#    0.000    0.000    0.000    0.000    0.000    0.000 
#
# Total GULP energy -89127.021926 kJ/mol
# GULP energy per Si atom -5570.438870 kJ/mol
# Density = 2.216321 g / cm^3
# Si number density = 22.213767 Si / 1000 Ang^3
#
#
#
# Elastic Constant Matrix: (Units=GPa)
#
#
# Indices 1 2 3 4 5 6 
#
# 1 112.8580 59.3388 25.0318 -10.6982 -41.2490 15.9470
# 2 59.3388 173.2642 39.6340 -23.3137 -24.0097 23.1099
# 3 25.0318 39.6340 64.0635 -10.5455 -20.5573 9.0511
# 4 -10.6982 -23.3137 -10.5455 42.3752 -0.8212 -11.2140
# 5 -41.2490 -24.0097 -20.5573 -0.8212 33.9796 -11.2785
# 6 15.9470 23.1099 9.0511 -11.2140 -11.2785 43.5366
#
#
#
# Elastic Compliance Matrix: (Units=1/GPa)
#
#
# Indices 1 2 3 4 5 6 
#
# 1 0.018292 -0.003428 0.002464 0.004117 0.021811 0.001318
# 2 -0.003428 0.008143 -0.003395 0.002198 -0.001098 -0.002079
# 3 0.002464 -0.003395 0.022000 0.004859 0.014458 0.001323
# 4 0.004117 0.002198 0.004859 0.029173 0.012545 0.007079
# 5 0.021811 -0.001098 0.014458 0.012545 0.067611 0.010335
# 6 0.001318 -0.002079 0.001323 0.007079 0.010335 0.027816
#
#
# Mechanical properties :
#
#
# Convention : Reuss Voigt Hill
#
# Bulk Modulus (GPa) = 25.17856 66.46609 45.82233
# Shear Modulus (GPa) = 25.64197 39.05700 32.34949
#
# Velocity S-wave (km/s) = 3.40123 4.19768 3.82026
# Velocity P-wave (km/s) = 5.17530 7.31301 6.33498
#
# Compressibility (1/GPa) = 0.03971633
#
# Stress axis : x y z
#
# Youngs Moduli (GPa) = 54.66753 122.80452 45.45509
#
# Poissons Ratio (x) = 0.42093 -0.11198
# Poissons Ratio (y) = 0.18738 0.15434
# Poissons Ratio (z) = -0.13468 0.41697
#
# Static dielectric constant tensor:
#      x y z
#    x 1.974980 0.117420 -0.018140 
#    y 0.117420 1.805730 0.080440 
#    z -0.018140 0.080440 1.947240 
# 
# From -- ./inp_files/544938.got.cif
#   From: 2010.05.17/outbox.cif.g08.bks.cpg/sg2_273_cif.got.tgz:544938.got - 2010.06.03 11:33:40.
