data_PCOD9016682
_publ_section_title
;
Structure prediction by ZEFSAII (Michael W. Deem and Ramdas Pophale) SiO2 
 PCOD9016682
Probable space group: P -1
;
_chemical_formula_sum "Si O2"
_cell_formula_units_Z 16
_cell_length_a 11.897645
_cell_length_b 19.697189
_cell_length_c 8.375912
_cell_angle_alpha 139.317263
_cell_angle_beta 70.503944
_cell_angle_gamma 137.795678
_cell_volume 733.882936
_symmetry_space_group_name_H-M "P -1"
_symmetry_group_IT_number 2
_symmetry_cell_setting 'triclinic'
loop_
_space_group_symop_operation_xyz
x,y,z
-x,-y,-z
loop_
_atom_site_type_symbol
_atom_site_label
_atom_site_fract_x
_atom_site_fract_y
_atom_site_fract_z
Si Si1 0.544905 0.758157 0.846763
Si Si2 0.629471 0.156441 0.344985
Si Si3 0.013917 0.208078 0.917700
Si Si4 0.168677 0.194223 0.327594
Si Si5 0.336887 0.306481 0.790160
Si Si6 0.610133 0.864073 0.366752
Si Si7 0.117567 0.859340 0.773619
Si Si8 0.168955 0.539930 0.430844
O O1 0.553950 0.795631 0.092985
O O2 0.697013 0.940302 0.006961
O O3 0.633489 0.704762 0.675053
O O4 0.329714 0.623458 0.637996
O O5 0.498167 0.109315 0.466196
O O6 0.805561 0.203820 0.399803
O O7 0.716955 0.317142 0.502273
O O8 0.500000 0.000000 0.000000
O O9 0.076548 0.366323 0.114816
O O10 0.933546 0.159856 0.050143
O O11 0.199769 0.261400 0.910020
O O12 0.840952 0.045569 0.599217
O O13 0.203767 0.199296 0.505767
O O14 0.075047 0.240577 0.412325
O O15 0.000000 0.000000 0.000000
O O16 0.426779 0.261537 0.727648
O O17 0.500000 0.500000 0.000000
O O18 0.000000 0.500000 0.500000
#
# Coordination Sequence:
#
# PCOD9016682 Si02
#       8
#     2   2   2   2   2   2   2   2
#     4  11  24  44  70 101 139 180 232 288 342 410
#     4  12  22  46  70  99 139 188 229 279 349 412
#     4  12  23  42  73 103 134 184 230 283 343 412
#     4  10  21  42  68  99 132 176 226 281 342 402
#     4  12  26  46  71 103 141 179 229 290 346 412
#     4  12  25  45  72 104 135 182 232 285 345 411
#     4  11  22  41  70  99 136 181 229 280 341 406
#     4  12  24  45  69 103 138 184 230 279 347 412
#
# _framework density 21.801842000000001
#
# number of rings (size 3 to 8) (size 9 to 14) (size 15 to 20)
#    0.000    0.500    3.750    6.375    0.000    1.500 
#    2.250    4.375    0.000    0.000    0.000    0.000 
#    0.000    0.000    0.000    0.000    0.000    0.000 
#
# Total GULP energy -89550.101468 kJ/mol
# GULP energy per Si atom -5596.881342 kJ/mol
# Density = 2.175222 g / cm^3
# Si number density = 21.801842 Si / 1000 Ang^3
#
#
#
# Elastic Constant Matrix: (Units=GPa)
#
#
# Indices 1 2 3 4 5 6 
#
# 1 159.4374 44.6701 33.6210 -9.8743 -1.1060 26.1665
# 2 44.6701 90.8009 32.5751 -8.1463 -0.3052 22.6344
# 3 33.6210 32.5751 55.7249 14.3709 -7.5640 -8.8720
# 4 -9.8743 -8.1463 14.3709 29.9724 3.7789 -12.5073
# 5 -1.1060 -0.3052 -7.5640 3.7789 32.7153 2.2446
# 6 26.1665 22.6344 -8.8720 -12.5073 2.2446 49.6887
#
#
#
# Elastic Compliance Matrix: (Units=1/GPa)
#
#
# Indices 1 2 3 4 5 6 
#
# 1 0.008957 -0.000079 -0.007578 0.004791 -0.001677 -0.004752
# 2 -0.000079 0.020097 -0.016284 0.009854 -0.004076 -0.009356
# 3 -0.007578 -0.016284 0.041437 -0.022940 0.010962 0.012537
# 4 0.004791 0.009854 -0.022940 0.050942 -0.011086 0.002216
# 5 -0.001677 -0.004076 0.010962 -0.011086 0.034262 0.000359
# 6 -0.004752 -0.009356 0.012537 0.002216 0.000359 0.029670
#
#
# Mechanical properties :
#
#
# Convention : Reuss Voigt Hill
#
# Bulk Modulus (GPa) = 44.23176 58.63283 51.43229
# Shear Modulus (GPa) = 20.76560 35.48174 28.12367
#
# Velocity S-wave (km/s) = 3.08956 4.03856 3.59551
# Velocity P-wave (km/s) = 5.74972 6.97843 6.39366
#
# Compressibility (1/GPa) = 0.02260819
#
# Stress axis : x y z
#
# Youngs Moduli (GPa) = 111.64203 49.75990 24.13330
#
# Poissons Ratio (x) = 0.00394 0.18288
# Poissons Ratio (y) = 0.00884 0.39299
# Poissons Ratio (z) = 0.84600 0.81029
#
# Static dielectric constant tensor:
#      x y z
#    x 1.833360 0.007420 -0.043840 
#    y 0.007420 1.797290 0.030290 
#    z -0.043840 0.030290 1.717440 
# 
# From -- ./inp_files/283362.got.cif
#   From: 2010.05.17/outbox.cif.g08.bks.cpg/sg2_142_cif.got.tgz:283362.got - 2010.06.03 11:33:40.
