data_PCOD9016580
_publ_section_title
;
Structure prediction by ZEFSAII (Michael W. Deem and Ramdas Pophale) SiO2 
 PCOD9016580
Probable space group: P -1
;
_chemical_formula_sum "Si O2"
_cell_formula_units_Z 16
_cell_length_a 19.757113
_cell_length_b 10.954558
_cell_length_c 13.183106
_cell_angle_alpha 61.754720
_cell_angle_beta 49.500479
_cell_angle_gamma 24.183804
_cell_volume 821.179412
_symmetry_space_group_name_H-M "P -1"
_symmetry_group_IT_number 2
_symmetry_cell_setting 'triclinic'
loop_
_space_group_symop_operation_xyz
x,y,z
-x,-y,-z
loop_
_atom_site_type_symbol
_atom_site_label
_atom_site_fract_x
_atom_site_fract_y
_atom_site_fract_z
Si Si1 0.712997 0.255650 0.930784
Si Si2 0.309164 0.090628 0.442900
Si Si3 0.638418 0.779308 0.107434
Si Si4 0.444202 0.909754 0.601418
Si Si5 0.921707 0.720990 0.066890
Si Si6 0.515340 0.765538 0.051227
Si Si7 0.785411 0.234650 0.640079
Si Si8 0.843643 0.859293 0.622581
O O1 0.803614 0.180426 0.765156
O O2 0.500000 0.500000 0.000000
O O3 0.656133 0.447603 0.995208
O O4 0.813877 0.989491 0.998438
O O5 0.243085 0.067428 0.432615
O O6 0.091625 0.478056 0.527940
O O7 0.492949 0.924364 0.280477
O O8 0.414121 0.895605 0.521910
O O9 0.628241 0.682856 0.065308
O O10 0.875116 0.489531 0.004708
O O11 0.519957 0.081325 0.066370
O O12 0.611196 0.589101 0.632170
O O13 0.500000 0.000000 0.500000
O O14 0.228160 0.160185 0.762750
O O15 0.000000 0.500000 0.000000
O O16 0.287882 0.047038 0.205574
O O17 0.782100 0.098608 0.628627
O O18 0.000000 0.000000 0.500000
#
# Coordination Sequence:
#
# PCOD9016580 Si02
#       8
#     2   2   2   2   2   2   2   2
#     4  12  24  45  68  95 129 174 222 266 324 384
#     4  10  23  40  67  97 131 171 214 267 322 393
#     4  10  23  40  66 101 128 170 216 265 328 380
#     4  12  26  44  65  97 133 169 218 268 325 393
#     4  12  26  42  68  96 131 172 216 272 323 386
#     4  10  21  42  68  94 132 169 218 269 316 391
#     4  12  28  43  66  98 131 174 216 272 326 386
#     4  10  21  44  66  93 132 174 216 262 327 383
#
# _framework density 19.484172000000001
#
# number of rings (size 3 to 8) (size 9 to 14) (size 15 to 20)
#    0.000    1.000    2.500    3.000    8.750    2.000 
#    0.000    0.000    0.000    0.000    0.000    0.000 
#    0.000    0.000    0.000    0.000    0.000    0.000 
#
# Total GULP energy -89069.859886 kJ/mol
# GULP energy per Si atom -5566.866243 kJ/mol
# Density = 1.943982 g / cm^3
# Si number density = 19.484172 Si / 1000 Ang^3
#
#
#
# Elastic Constant Matrix: (Units=GPa)
#
#
# Indices 1 2 3 4 5 6 
#
# 1 110.2358 33.5078 74.3496 7.1496 2.1914 19.6542
# 2 33.5078 85.8610 18.6255 -7.7258 -7.6202 9.5877
# 3 74.3496 18.6255 191.0251 0.2017 2.8205 1.3465
# 4 7.1496 -7.7258 0.2017 30.6456 -8.1995 -1.1627
# 5 2.1914 -7.6202 2.8205 -8.1995 41.8016 14.9059
# 6 19.6542 9.5877 1.3465 -1.1627 14.9059 37.8515
#
#
#
# Elastic Compliance Matrix: (Units=1/GPa)
#
#
# Indices 1 2 3 4 5 6 
#
# 1 0.015904 -0.004602 -0.005690 -0.005031 0.000275 -0.007153
# 2 -0.004602 0.014755 0.000291 0.006076 0.005259 -0.003243
# 3 -0.005690 0.000291 0.007413 0.001200 -0.001000 0.003048
# 4 -0.005031 0.006076 0.001200 0.037737 0.009204 -0.001435
# 5 0.000275 0.005259 -0.001000 0.009204 0.031588 -0.013596
# 6 -0.007153 -0.003243 0.003048 -0.001435 -0.013596 0.036156
#
#
# Mechanical properties :
#
#
# Convention : Reuss Voigt Hill
#
# Bulk Modulus (GPa) = 55.33623 71.12086 63.22855
# Shear Modulus (GPa) = 29.48514 39.43565 34.46040
#
# Velocity S-wave (km/s) = 3.89432 4.50375 4.21008
# Velocity P-wave (km/s) = 6.97734 7.97660 7.49364
#
# Compressibility (1/GPa) = 0.01807134
#
# Stress axis : x y z
#
# Youngs Moduli (GPa) = 62.87811 67.77346 134.89794
#
# Poissons Ratio (x) = 0.31189 0.76752
# Poissons Ratio (y) = 0.28936 -0.03929
# Poissons Ratio (z) = 0.35775 -0.01974
#
# Static dielectric constant tensor:
#      x y z
#    x 1.677180 0.055070 0.068700 
#    y 0.055070 1.721070 -0.006820 
#    z 0.068700 -0.006820 1.334490 
# 
# From -- ./inp_files/471178.got.cif
#   From: 2010.05.17/outbox.cif.g08.bks.cpg/sg2_236_cif.got.tgz:471178.got - 2010.06.03 11:33:40.
