data_PCOD9016019
_publ_section_title
;
Structure prediction by ZEFSAII (Michael W. Deem and Ramdas Pophale) SiO2 
 PCOD9016019
Probable space group: P -1
;
_chemical_formula_sum "Si O2"
_cell_formula_units_Z 16
_cell_length_a 9.119438
_cell_length_b 14.388644
_cell_length_c 12.036264
_cell_angle_alpha 151.552637
_cell_angle_beta 90.538587
_cell_angle_gamma 81.192857
_cell_volume 716.669653
_symmetry_space_group_name_H-M "P -1"
_symmetry_group_IT_number 2
_symmetry_cell_setting 'triclinic'
loop_
_space_group_symop_operation_xyz
x,y,z
-x,-y,-z
loop_
_atom_site_type_symbol
_atom_site_label
_atom_site_fract_x
_atom_site_fract_y
_atom_site_fract_z
Si Si1 0.947054 0.706732 0.892250
Si Si2 0.885214 0.508630 0.910193
Si Si3 0.277163 0.487199 0.602888
Si Si4 0.268780 0.514946 0.391355
Si Si5 0.978179 0.153868 0.394121
Si Si6 0.439333 0.242812 0.733509
Si Si7 0.661595 0.861316 0.608467
Si Si8 0.451639 0.672751 0.960386
O O1 0.092934 0.562158 0.676675
O O2 0.792705 0.683529 0.811704
O O3 0.941907 0.608422 0.909691
O O4 0.961648 0.931174 0.142401
O O5 0.720948 0.652457 0.096377
O O6 0.893123 0.278976 0.633078
O O7 0.000000 0.500000 0.000000
O O8 0.329755 0.540275 0.539678
O O9 0.349453 0.254487 0.399290
O O10 0.313958 0.617694 0.841435
O O11 0.120794 0.704870 0.556684
O O12 0.395692 0.475312 0.253646
O O13 0.156548 0.149534 0.405607
O O14 0.398153 0.255153 0.615142
O O15 0.500000 0.000000 0.500000
O O16 0.549423 0.328260 0.905700
O O17 0.565178 0.096963 0.839082
#
# Coordination Sequence:
#
# PCOD9016019 Si02
#       8
#     2   2   2   2   2   2   2   2
#     4  11  23  40  66  96 128 172 216 265 324 381
#     4  11  20  41  65  94 130 166 218 270 309 384
#     4  12  24  42  69  95 130 173 219 265 335 381
#     4  11  25  44  66  97 131 168 221 279 312 384
#     4  11  22  40  66  95 129 172 216 263 324 378
#     4  10  21  42  66  90 135 168 202 269 323 375
#     4  11  23  42  67  96 132 172 211 269 326 386
#     4  11  24  44  64  95 135 167 215 270 325 391
#
# _framework density 22.325486999999999
#
# number of rings (size 3 to 8) (size 9 to 14) (size 15 to 20)
#    0.000    1.000    7.500    0.750    0.000    4.000 
#    0.000    1.250    0.000    0.000    0.000    0.000 
#    0.000    0.000    0.000    0.000    0.000    0.000 
#
# Total GULP energy -89235.855491 kJ/mol
# GULP energy per Si atom -5577.240968 kJ/mol
# Density = 2.227467 g / cm^3
# Si number density = 22.325487 Si / 1000 Ang^3
#
#
#
# Elastic Constant Matrix: (Units=GPa)
#
#
# Indices 1 2 3 4 5 6 
#
# 1 53.6966 -10.2910 -1.7408 2.1945 -4.1315 -16.7114
# 2 -10.2910 97.0098 24.7140 -7.6762 0.2625 -23.0287
# 3 -1.7408 24.7140 56.9401 16.5329 1.7881 -8.1357
# 4 2.1945 -7.6762 16.5329 32.4383 2.1524 1.5341
# 5 -4.1315 0.2625 1.7881 2.1524 33.2009 4.4057
# 6 -16.7114 -23.0287 -8.1357 1.5341 4.4057 21.1961
#
#
#
# Elastic Compliance Matrix: (Units=1/GPa)
#
#
# Indices 1 2 3 4 5 6 
#
# 1 0.034440 0.013036 0.002193 -0.002283 -0.001444 0.042624
# 2 0.013036 0.021019 -0.005898 0.005813 -0.002716 0.030994
# 3 0.002193 -0.005898 0.025399 -0.014727 -0.000934 0.006330
# 4 -0.002283 0.005813 -0.014727 0.040148 -0.001649 -0.003700
# 5 -0.001444 -0.002716 -0.000934 -0.001649 0.031564 -0.010889
# 6 0.042624 0.030994 0.006330 -0.003700 -0.010889 0.119418
#
#
# Mechanical properties :
#
#
# Convention : Reuss Voigt Hill
#
# Bulk Modulus (GPa) = 10.04823 25.89011 17.96917
# Shear Modulus (GPa) = 17.45211 30.36467 23.90839
#
# Velocity S-wave (km/s) = 2.79895 3.69194 3.27601
# Velocity P-wave (km/s) = 3.86730 5.45855 4.73031
#
# Compressibility (1/GPa) = 0.09951999
#
# Stress axis : x y z
#
# Youngs Moduli (GPa) = 29.03583 47.57697 39.37156
#
# Poissons Ratio (x) = -0.62023 -0.08634
# Poissons Ratio (y) = -0.37852 0.23222
# Poissons Ratio (z) = -0.06367 0.28062
#
# Static dielectric constant tensor:
#      x y z
#    x 1.741570 0.011480 0.094080 
#    y 0.011480 1.826880 -0.026240 
#    z 0.094080 -0.026240 1.829310 
# 
# From -- ./inp_files/400039.got.cif
#   From: 2010.05.17/outbox.cif.g08.bks.cpg/sg2_201_cif.got.tgz:400039.got - 2010.06.03 11:33:40.
