data_PCOD9016320
_publ_section_title
;
Structure prediction by ZEFSAII (Michael W. Deem and Ramdas Pophale) SiO2 
 PCOD9016320
Probable space group: P -1
;
_chemical_formula_sum "Si O2"
_cell_formula_units_Z 14
_cell_length_a 23.760154
_cell_length_b 11.632445
_cell_length_c 6.648824
_cell_angle_alpha 134.823525
_cell_angle_beta 131.050468
_cell_angle_gamma 27.736864
_cell_volume 603.624198
_symmetry_space_group_name_H-M "P -1"
_symmetry_group_IT_number 2
_symmetry_cell_setting 'triclinic'
loop_
_space_group_symop_operation_xyz
x,y,z
-x,-y,-z
loop_
_atom_site_type_symbol
_atom_site_label
_atom_site_fract_x
_atom_site_fract_y
_atom_site_fract_z
Si Si1 0.381347 0.684070 0.586271
Si Si2 0.214087 0.994804 0.210184
Si Si3 0.768797 0.562218 0.895045
Si Si4 0.798129 0.605825 0.444424
Si Si5 0.345837 0.524124 0.659764
Si Si6 0.593649 0.016668 0.794497
Si Si7 0.971232 0.376880 0.890550
O O1 0.500000 0.500000 0.500000
O O2 0.262361 0.882137 0.409468
O O3 0.392409 0.509691 0.537997
O O4 0.376437 0.846898 0.921954
O O5 0.205865 0.201896 0.410560
O O6 0.308520 0.739526 0.974213
O O7 0.086570 0.143894 0.013244
O O8 0.767071 0.398616 0.564080
O O9 0.859645 0.539575 0.984371
O O10 0.633590 0.861753 0.903502
O O11 0.790506 0.505460 0.110277
O O12 0.919835 0.366420 0.564891
O O13 0.683370 0.798823 0.562383
O O14 0.454947 0.248241 0.689697
O O15 0.000000 0.500000 0.000000
#
# Coordination Sequence:
#
# PCOD9016320 Si02
#       7
#     2   2   2   2   2   2   2
#     4  12  23  40  68  98 129 173 219 260 319 392
#     4  11  22  41  68  94 129 171 216 267 321 381
#     4  11  25  43  66  97 133 170 214 269 327 375
#     4  10  21  42  67  93 132 168 219 264 314 389
#     4  12  26  40  64 101 135 167 212 272 327 375
#     4  11  22  42  66  95 132 173 217 257 320 400
#     4   9  23  43  69  96 125 170 223 266 314 388
#
# _framework density 23.193239999999999
#
# number of rings (size 3 to 8) (size 9 to 14) (size 15 to 20)
#    0.000    1.143    4.286    1.714    0.000    6.857 
#    0.000    1.429    0.000    0.000    0.000    0.000 
#    0.000    0.000    0.000    0.000    0.000    0.000 
#
# Total GULP energy -78137.280794 kJ/mol
# GULP energy per Si atom -5581.234342 kJ/mol
# Density = 2.314045 g / cm^3
# Si number density = 23.193240 Si / 1000 Ang^3
#
#
#
# Elastic Constant Matrix: (Units=GPa)
#
#
# Indices 1 2 3 4 5 6 
#
# 1 80.9686 10.5094 28.5012 -10.6103 -5.0443 -1.7941
# 2 10.5094 82.8569 27.6495 -49.3191 -2.2145 -5.8035
# 3 28.5012 27.6495 129.0352 -40.3400 -7.1944 -5.0325
# 4 -10.6103 -49.3191 -40.3400 46.0768 5.7684 2.0302
# 5 -5.0443 -2.2145 -7.1944 5.7684 22.5488 -0.3865
# 6 -1.7941 -5.8035 -5.0325 2.0302 -0.3865 19.8704
#
#
#
# Elastic Compliance Matrix: (Units=1/GPa)
#
#
# Indices 1 2 3 4 5 6 
#
# 1 0.013554 -0.001415 -0.002952 -0.001274 0.002281 0.000237
# 2 -0.001415 0.038518 0.006802 0.047302 -0.006329 0.007889
# 3 -0.002952 0.006802 0.012501 0.017460 -0.000418 0.003094
# 4 -0.001274 0.047302 0.017460 0.088509 -0.012559 0.008835
# 5 0.002281 -0.006329 -0.000418 -0.012559 0.047324 0.000456
# 6 0.000237 0.007889 0.003094 0.008835 0.000456 0.052541
#
#
# Mechanical properties :
#
#
# Convention : Reuss Voigt Hill
#
# Bulk Modulus (GPa) = 14.40074 47.35345 30.87710
# Shear Modulus (GPa) = 18.43491 32.77924 25.60707
#
# Velocity S-wave (km/s) = 2.82235 3.76348 3.32637
# Velocity P-wave (km/s) = 4.10407 6.27266 5.30046
#
# Compressibility (1/GPa) = 0.06944086
#
# Stress axis : x y z
#
# Youngs Moduli (GPa) = 73.78020 25.96217 79.99675
#
# Poissons Ratio (x) = 0.03673 0.23619
# Poissons Ratio (y) = 0.10437 -0.54410
# Poissons Ratio (z) = 0.21783 -0.17658
#
# Static dielectric constant tensor:
#      x y z
#    x 1.910000 0.022470 0.058150 
#    y 0.022470 1.891130 0.006210 
#    z 0.058150 0.006210 1.889740 
# 
# From -- ./inp_files/27895.got.cif
#   From: 2010.05.17/outbox.cif.g08.bks.cpg/sg2_14_cif.got.tgz:27895.got - 2010.06.03 11:33:40.
