data_PCOD9016115
_publ_section_title
;
Structure prediction by ZEFSAII (Michael W. Deem and Ramdas Pophale) SiO2 
 PCOD9016115
Probable space group: P -1
;
_chemical_formula_sum "Si O2"
_cell_formula_units_Z 16
_cell_length_a 12.756408
_cell_length_b 10.913628
_cell_length_c 11.689255
_cell_angle_alpha 139.075082
_cell_angle_beta 118.137036
_cell_angle_gamma 90.171432
_cell_volume 736.074161
_symmetry_space_group_name_H-M "P -1"
_symmetry_group_IT_number 2
_symmetry_cell_setting 'triclinic'
loop_
_space_group_symop_operation_xyz
x,y,z
-x,-y,-z
loop_
_atom_site_type_symbol
_atom_site_label
_atom_site_fract_x
_atom_site_fract_y
_atom_site_fract_z
Si Si1 0.822860 0.865581 0.138102
Si Si2 0.073281 0.607931 0.420430
Si Si3 0.599124 0.510712 0.957001
Si Si4 0.659816 0.760846 0.745968
Si Si5 0.731666 0.357208 0.074987
Si Si6 0.323227 0.075597 0.372393
Si Si7 0.647421 0.167612 0.117924
Si Si8 0.006493 0.686804 0.054095
O O1 0.891077 0.135747 0.391660
O O2 0.683417 0.712676 0.046419
O O3 0.772042 0.803151 0.934041
O O4 0.929037 0.787599 0.146832
O O5 0.202117 0.658677 0.607199
O O6 0.073139 0.474490 0.215308
O O7 0.898410 0.444183 0.254998
O O8 0.475243 0.272449 0.655677
O O9 0.500000 0.500000 0.000000
O O10 0.727624 0.519900 0.097881
O O11 0.500000 0.500000 0.500000
O O12 0.701747 0.806333 0.664847
O O13 0.651945 0.971911 0.920595
O O14 0.645020 0.315376 0.118865
O O15 0.654153 0.110117 0.795861
O O16 0.174523 0.916137 0.263100
O O17 0.500000 0.000000 0.000000
O O18 0.000000 0.500000 0.000000
#
# Coordination Sequence:
#
# PCOD9016115 Si02
#       8
#     2   2   2   2   2   2   2   2
#     4  11  25  45  70 101 135 181 224 282 340 403
#     4  10  24  45  67  98 139 172 229 274 339 407
#     4  12  27  41  65  99 137 177 226 281 343 403
#     4  10  21  42  66  95 135 170 224 285 335 393
#     4  10  23  43  66  92 134 180 217 285 336 400
#     4  10  23  45  66  98 133 173 237 276 337 409
#     4  10  23  38  68  98 128 175 226 279 335 398
#     4  11  26  44  72 100 137 185 223 278 344 409
#
# _framework density 21.736941000000002
#
# number of rings (size 3 to 8) (size 9 to 14) (size 15 to 20)
#    0.000    1.500    1.250    2.250    8.750    2.500 
#    0.000    0.000    0.000    0.000    0.000    0.000 
#    0.000    0.000    0.000    0.000    0.000    0.000 
#
# Total GULP energy -89252.957467 kJ/mol
# GULP energy per Si atom -5578.309842 kJ/mol
# Density = 2.168747 g / cm^3
# Si number density = 21.736941 Si / 1000 Ang^3
#
#
#
# Elastic Constant Matrix: (Units=GPa)
#
#
# Indices 1 2 3 4 5 6 
#
# 1 60.0156 21.9821 -1.1505 -1.3467 0.0208 19.2273
# 2 21.9821 104.6849 11.0023 11.4734 18.6230 20.1988
# 3 -1.1505 11.0023 96.3079 10.0064 6.9297 16.0874
# 4 -1.3467 11.4734 10.0064 26.8351 -5.6997 3.0080
# 5 0.0208 18.6230 6.9297 -5.6997 17.4823 7.0898
# 6 19.2273 20.1988 16.0874 3.0080 7.0898 32.0198
#
#
#
# Elastic Compliance Matrix: (Units=1/GPa)
#
#
# Indices 1 2 3 4 5 6 
#
# 1 0.023845 -0.005507 0.001711 0.007609 0.013928 -0.015502
# 2 -0.005507 0.015797 0.001064 -0.011575 -0.020370 -0.001595
# 3 0.001711 0.001064 0.012249 -0.005352 -0.005224 -0.006193
# 4 0.007609 -0.011575 -0.005352 0.052734 0.034548 -0.007182
# 5 0.013928 -0.020370 -0.005224 0.034548 0.099594 -0.018186
# 6 -0.015502 -0.001595 -0.006193 -0.007182 -0.018186 0.049359
#
#
# Mechanical properties :
#
#
# Convention : Reuss Voigt Hill
#
# Bulk Modulus (GPa) = 21.53942 36.07511 28.80727
# Shear Modulus (GPa) = 18.21379 30.54572 24.37976
#
# Velocity S-wave (km/s) = 2.89782 3.75273 3.35264
# Velocity P-wave (km/s) = 4.59643 5.95059 5.31680
#
# Compressibility (1/GPa) = 0.04642650
#
# Stress axis : x y z
#
# Youngs Moduli (GPa) = 41.93789 63.30200 81.64117
#
# Poissons Ratio (x) = 0.34862 -0.13967
# Poissons Ratio (y) = 0.23097 -0.08690
# Poissons Ratio (z) = -0.07175 -0.06738
#
# Static dielectric constant tensor:
#      x y z
#    x 1.559860 -0.342490 -0.255600 
#    y -0.342490 1.457950 -0.398940 
#    z -0.255600 -0.398940 1.505910 
# 
# From -- ./inp_files/282844.got.cif
#   From: 2010.05.17/outbox.cif.g08.bks.cpg/sg2_142_cif.got.tgz:282844.got - 2010.06.03 11:33:40.
