data_PCOD9016586
_publ_section_title
;
Structure prediction by ZEFSAII (Michael W. Deem and Ramdas Pophale) SiO2 
 PCOD9016586
Probable space group: P -1
;
_chemical_formula_sum "Si O2"
_cell_formula_units_Z 16
_cell_length_a 8.596971
_cell_length_b 9.516819
_cell_length_c 11.747834
_cell_angle_alpha 60.056105
_cell_angle_beta 108.240950
_cell_angle_gamma 117.000760
_cell_volume 737.415853
_symmetry_space_group_name_H-M "P -1"
_symmetry_group_IT_number 2
_symmetry_cell_setting 'triclinic'
loop_
_space_group_symop_operation_xyz
x,y,z
-x,-y,-z
loop_
_atom_site_type_symbol
_atom_site_label
_atom_site_fract_x
_atom_site_fract_y
_atom_site_fract_z
Si Si1 0.455365 0.064514 0.137203
Si Si2 0.541810 0.839944 0.412091
Si Si3 0.224682 0.977078 0.904228
Si Si4 0.445525 0.384433 0.145123
Si Si5 0.284807 0.586237 0.625676
Si Si6 0.183185 0.250494 0.603172
Si Si7 0.113226 0.810812 0.618822
Si Si8 0.950999 0.665808 0.886311
O O1 0.638657 0.098000 0.098111
O O2 0.455389 0.201328 0.179037
O O3 0.430276 0.885733 0.268741
O O4 0.312677 0.051115 0.014008
O O5 0.413297 0.753136 0.519383
O O6 0.637806 0.713516 0.440671
O O7 0.708109 0.018561 0.403014
O O8 0.044137 0.816012 0.938642
O O9 0.192148 0.119720 0.758093
O O10 0.585359 0.467116 0.241942
O O11 0.254865 0.373162 0.144636
O O12 0.500000 0.500000 0.000000
O O13 0.183014 0.428219 0.584304
O O14 0.161597 0.650765 0.648885
O O15 0.022001 0.165675 0.514300
O O16 0.027854 0.751877 0.746969
O O17 0.000000 0.500000 0.000000
#
# Coordination Sequence:
#
# PCOD9016586 Si02
#       8
#     2   2   2   2   2   2   2   2
#     4  10  21  42  68  94 136 175 225 277 333 402
#     4  11  23  43  70  99 137 185 227 272 341 408
#     4  10  22  42  68  99 135 181 220 285 338 401
#     4  12  25  43  68  96 135 176 229 282 337 408
#     4  12  25  42  69 105 135 181 231 277 341 401
#     4  11  24  41  69 101 142 174 229 280 343 393
#     4  12  24  46  68  99 140 181 225 284 338 403
#     4  12  26  43  69  98 132 183 230 277 342 407
#
# _framework density 21.697391
#
# number of rings (size 3 to 8) (size 9 to 14) (size 15 to 20)
#    0.000    0.750    3.750    4.500    1.750    3.500 
#    0.000    1.250    0.000    0.000    0.000    0.000 
#    0.000    0.000    0.000    0.000    0.000    0.000 
#
# Total GULP energy -89469.026820 kJ/mol
# GULP energy per Si atom -5591.814176 kJ/mol
# Density = 2.164801 g / cm^3
# Si number density = 21.697391 Si / 1000 Ang^3
#
#
#
# Elastic Constant Matrix: (Units=GPa)
#
#
# Indices 1 2 3 4 5 6 
#
# 1 58.8283 19.3931 23.1011 -5.1467 8.0333 -6.2856
# 2 19.3931 88.3013 21.3371 9.3716 2.1039 -2.0108
# 3 23.1011 21.3371 119.6808 17.0015 14.1671 30.0719
# 4 -5.1467 9.3716 17.0015 31.3420 5.1462 4.3882
# 5 8.0333 2.1039 14.1671 5.1462 36.8790 3.5587
# 6 -6.2856 -2.0108 30.0719 4.3882 3.5587 32.3781
#
#
#
# Elastic Compliance Matrix: (Units=1/GPa)
#
#
# Indices 1 2 3 4 5 6 
#
# 1 0.023462 -0.003983 -0.007029 0.008134 -0.004303 0.010206
# 2 -0.003983 0.013042 -0.001591 -0.004149 0.001125 0.001953
# 3 -0.007029 -0.001591 0.014623 -0.006364 -0.001758 -0.013989
# 4 0.008134 -0.004149 -0.006364 0.038347 -0.004688 0.002550
# 5 -0.004303 0.001125 -0.001758 -0.004688 0.029486 -0.001739
# 6 0.010206 0.001953 -0.013989 0.002550 -0.001739 0.045826
#
#
# Mechanical properties :
#
#
# Convention : Reuss Voigt Hill
#
# Bulk Modulus (GPa) = 38.57873 43.83034 41.20454
# Shear Modulus (GPa) = 25.17223 33.65176 29.41199
#
# Velocity S-wave (km/s) = 3.40979 3.94249 3.68578
# Velocity P-wave (km/s) = 5.77245 6.40070 6.09468
#
# Compressibility (1/GPa) = 0.02592102
#
# Stress axis : x y z
#
# Youngs Moduli (GPa) = 42.62296 76.67553 68.38484
#
# Poissons Ratio (x) = 0.30536 0.48070
# Poissons Ratio (y) = 0.16975 0.10880
# Poissons Ratio (z) = 0.29961 0.12199
#
# Static dielectric constant tensor:
#      x y z
#    x 1.817140 -0.055950 0.035810 
#    y -0.055950 1.816050 -0.009080 
#    z 0.035810 -0.009080 1.777310 
# 
# From -- ./inp_files/223393.got.cif
#   From: 2010.05.17/outbox.cif.g08.bks.cpg/sg2_112_cif.got.tgz:223393.got - 2010.06.03 11:33:40.
