data_PCOD9016332
_publ_section_title
;
Structure prediction by ZEFSAII (Michael W. Deem and Ramdas Pophale) SiO2 
 PCOD9016332
Probable space group: P -1
;
_chemical_formula_sum "Si O2"
_cell_formula_units_Z 12
_cell_length_a 9.501296
_cell_length_b 12.606067
_cell_length_c 6.601393
_cell_angle_alpha 134.678778
_cell_angle_beta 63.489373
_cell_angle_gamma 85.497535
_cell_volume 396.069809
_symmetry_space_group_name_H-M "P -1"
_symmetry_group_IT_number 2
_symmetry_cell_setting 'triclinic'
loop_
_space_group_symop_operation_xyz
x,y,z
-x,-y,-z
loop_
_atom_site_type_symbol
_atom_site_label
_atom_site_fract_x
_atom_site_fract_y
_atom_site_fract_z
Si Si1 0.227859 0.400991 0.247791
Si Si2 0.452527 0.016617 0.813317
Si Si3 0.178974 0.498060 0.977202
Si Si4 0.909911 0.944814 0.789824
Si Si5 0.495764 0.528056 0.800691
Si Si6 0.212398 0.975598 0.498633
O O1 0.311069 0.240060 0.144412
O O2 0.285028 0.356731 0.912233
O O3 0.281860 0.537659 0.464250
O O4 0.000000 0.500000 0.500000
O O5 0.299020 0.965363 0.841378
O O6 0.647978 0.960047 0.483231
O O7 0.500000 0.000000 0.000000
O O8 0.058809 0.717316 0.417296
O O9 0.379441 0.453686 0.686621
O O10 0.000000 0.500000 0.000000
O O11 0.026890 0.035136 0.840953
O O12 0.860645 0.967596 0.609508
O O13 0.500000 0.500000 0.000000
O O14 0.360031 0.748824 0.124480
#
# Coordination Sequence:
#
# PCOD9016332 Si02
#       6
#     2   2   2   2   2   2
#     4  10  17  30  51  74  93 127 174 209 240 292
#     4   9  16  27  47  73  96 119 163 217 243 278
#     4  10  19  31  48  73 106 133 159 204 260 303
#     4   9  15  27  45  69  95 124 163 201 245 290
#     4   8  16  29  47  69  97 123 166 208 239 285
#     4   8  15  25  44  71  92 120 161 209 240 279
#
# _framework density 30.297691
#
# number of rings (size 3 to 8) (size 9 to 14) (size 15 to 20)
#    0.000    3.000    1.667    0.000    0.000    0.000 
#    0.000    0.833    0.000   16.000    0.000   39.667 
#    0.000    0.167    0.000    0.000    0.000    0.000 
#
# Total GULP energy -67019.568994 kJ/mol
# GULP energy per Si atom -5584.964083 kJ/mol
# Density = 3.022873 g / cm^3
# Si number density = 30.297691 Si / 1000 Ang^3
#
#
#
# Elastic Constant Matrix: (Units=GPa)
#
#
# Indices 1 2 3 4 5 6 
#
# 1 296.0155 85.1215 43.0946 -37.9521 -52.1891 60.0910
# 2 85.1215 240.0868 53.3263 -6.3308 -27.4437 11.6948
# 3 43.0946 53.3263 91.6228 -17.8375 -23.7236 32.3074
# 4 -37.9521 -6.3308 -17.8375 79.9842 11.9172 -31.6493
# 5 -52.1891 -27.4437 -23.7236 11.9172 55.1259 -21.8886
# 6 60.0910 11.6948 32.3074 -31.6493 -21.8886 91.3046
#
#
#
# Elastic Compliance Matrix: (Units=1/GPa)
#
#
# Indices 1 2 3 4 5 6 
#
# 1 0.004767 -0.001263 0.000145 0.000970 0.002950 -0.001984
# 2 -0.001263 0.005246 -0.002754 -0.000455 0.000792 0.001166
# 3 0.000145 -0.002754 0.014898 0.001164 0.003421 -0.003791
# 4 0.000970 -0.000455 0.001164 0.014853 -0.000407 0.004059
# 5 0.002950 0.000792 0.003421 -0.000407 0.023806 0.002313
# 6 -0.001984 0.001166 -0.003791 0.004059 0.002313 0.015411
#
#
# Mechanical properties :
#
#
# Convention : Reuss Voigt Hill
#
# Bulk Modulus (GPa) = 58.25011 110.08999 84.17005
# Shear Modulus (GPa) = 54.08397 75.02844 64.55621
#
# Velocity S-wave (km/s) = 4.22961 4.98172 4.62099
# Velocity P-wave (km/s) = 6.56662 8.33697 7.50418
#
# Compressibility (1/GPa) = 0.01716735
#
# Stress axis : x y z
#
# Youngs Moduli (GPa) = 209.75751 190.60531 67.12307
#
# Poissons Ratio (x) = 0.24075 -0.00972
# Poissons Ratio (y) = 0.26494 0.18486
# Poissons Ratio (z) = -0.03038 0.52494
#
# Static dielectric constant tensor:
#      x y z
#    x 2.309970 0.040910 0.421090 
#    y 0.040910 2.295820 -0.336810 
#    z 0.421090 -0.336810 1.288410 
# 
# From -- ./inp_files/146396.got.cif
#   From: 2010.05.17/outbox.cif.g08.bks.cpg/sg2_74_cif.got.tgz:146396.got - 2010.06.03 11:33:40.
