data_PCOD9016963
_publ_section_title
;
Structure prediction by ZEFSAII (Michael W. Deem and Ramdas Pophale) SiO2 
 PCOD9016963
Probable space group: P -1
;
_chemical_formula_sum "Si O2"
_cell_formula_units_Z 15
_cell_length_a 20.785911
_cell_length_b 21.296884
_cell_length_c 9.455874
_cell_angle_alpha 151.475523
_cell_angle_beta 28.505236
_cell_angle_gamma 160.477709
_cell_volume 633.411780
_symmetry_space_group_name_H-M "P -1"
_symmetry_group_IT_number 2
_symmetry_cell_setting 'triclinic'
loop_
_space_group_symop_operation_xyz
x,y,z
-x,-y,-z
loop_
_atom_site_type_symbol
_atom_site_label
_atom_site_fract_x
_atom_site_fract_y
_atom_site_fract_z
Si Si1 0.844977 0.044177 0.009683
Si Si2 0.824715 0.530530 0.852047
Si Si3 0.562727 0.680600 0.657652
Si Si4 0.026294 0.367592 0.718493
Si Si5 0.500000 0.000000 0.500000
Si Si6 0.490354 0.628180 0.360972
Si Si7 0.168389 0.723632 0.802250
Si Si8 0.159589 0.015146 0.791594
O O1 0.695945 0.063074 0.328013
O O2 0.804295 0.931661 0.008070
O O3 0.770930 0.898118 0.735690
O O4 0.079211 0.262874 0.978521
O O5 0.812638 0.421381 0.528179
O O6 0.988898 0.614626 0.820610
O O7 0.614326 0.357051 0.001804
O O8 0.500000 0.500000 0.500000
O O9 0.549317 0.657806 0.470499
O O10 0.260609 0.508553 0.567242
O O11 0.935868 0.199296 0.450155
O O12 0.000000 0.500000 0.000000
O O13 0.900385 0.256658 0.885788
O O14 0.378621 0.928266 0.740640
O O15 0.640339 0.831473 0.386392
O O16 0.500000 0.500000 0.000000
O O17 0.000000 0.000000 0.000000
#
# Coordination Sequence:
#
# PCOD9016963 Si02
#       8
#     2   2   2   2   1   2   2   2
#     4  11  26  45  74 109 143 196 254 312 386 451
#     4  10  22  43  70 102 146 183 237 313 377 440
#     4  12  27  44  76 108 142 195 256 310 374 463
#     4  12  28  48  77 113 155 203 264 317 390 468
#     4  10  22  42  76 104 152 184 246 322 382 450
#     4  12  28  52  78 108 159 211 256 321 398 469
#     4  10  21  42  70 105 148 186 239 307 384 449
#     4  12  29  50  78 107 160 213 261 317 394 475
#
# _framework density 23.681279
#
# number of rings (size 3 to 8) (size 9 to 14) (size 15 to 20)
#    0.000    0.800    4.000    1.600    7.467    4.267 
#    0.000    0.000    0.000    0.000    0.000    0.000 
#    0.000    0.000    0.000    0.000    0.000    0.000 
#
# Total GULP energy -83610.041893 kJ/mol
# GULP energy per Si atom -5574.002793 kJ/mol
# Density = 2.362738 g / cm^3
# Si number density = 23.681279 Si / 1000 Ang^3
#
#
#
# Elastic Constant Matrix: (Units=GPa)
#
#
# Indices 1 2 3 4 5 6 
#
# 1 95.7337 23.3660 32.0799 -2.7074 17.6582 -6.8737
# 2 23.3660 136.6236 22.5763 -19.0454 13.7724 -10.8746
# 3 32.0799 22.5763 91.0038 -9.3355 13.9960 6.8577
# 4 -2.7074 -19.0454 -9.3355 46.6624 -2.2189 3.2906
# 5 17.6582 13.7724 13.9960 -2.2189 39.8585 -2.6202
# 6 -6.8737 -10.8746 6.8577 3.2906 -2.6202 31.3082
#
#
#
# Elastic Compliance Matrix: (Units=1/GPa)
#
#
# Indices 1 2 3 4 5 6 
#
# 1 0.012959 -0.001036 -0.004055 -0.000885 -0.003802 0.003148
# 2 -0.001036 0.008499 -0.001389 0.002870 -0.001660 0.002588
# 3 -0.004055 -0.001389 0.013774 0.002164 -0.002759 -0.004848
# 4 -0.000885 0.002870 0.002164 0.023123 -0.000212 -0.002120
# 5 -0.003802 -0.001660 -0.002759 -0.000212 0.028408 0.001593
# 6 0.003148 0.002588 -0.004848 -0.002120 0.001593 0.034949
#
#
# Mechanical properties :
#
#
# Convention : Reuss Voigt Hill
#
# Bulk Modulus (GPa) = 44.89463 53.26729 49.08096
# Shear Modulus (GPa) = 35.18741 39.92175 37.55458
#
# Velocity S-wave (km/s) = 3.85889 4.11030 3.98657
# Velocity P-wave (km/s) = 6.23327 6.71329 6.47773
#
# Compressibility (1/GPa) = 0.02227438
#
# Stress axis : x y z
#
# Youngs Moduli (GPa) = 77.16359 117.65477 72.60048
#
# Poissons Ratio (x) = 0.12188 0.29437
# Poissons Ratio (y) = 0.07993 0.10082
# Poissons Ratio (z) = 0.31288 0.16339
#
# Static dielectric constant tensor:
#      x y z
#    x 1.953600 -0.064970 -0.148330 
#    y -0.064970 1.940280 -0.008490 
#    z -0.148330 -0.008490 2.142500 
# 
# From -- ./inp_files/349750.got.cif
#   From: 2010.05.17/outbox.cif.g08.bks.cpg/sg2_175_cif.got.tgz:349750.got - 2010.06.03 11:33:40.
