data_PCOD9016479
_publ_section_title
;
Structure prediction by ZEFSAII (Michael W. Deem and Ramdas Pophale) SiO2 
 PCOD9016479
Probable space group: P -1
;
_chemical_formula_sum "Si O2"
_cell_formula_units_Z 11
_cell_length_a 5.025836
_cell_length_b 10.287454
_cell_length_c 15.954027
_cell_angle_alpha 42.889147
_cell_angle_beta 51.623551
_cell_angle_gamma 71.252730
_cell_volume 426.110864
_symmetry_space_group_name_H-M "P -1"
_symmetry_group_IT_number 2
_symmetry_cell_setting 'triclinic'
loop_
_space_group_symop_operation_xyz
x,y,z
-x,-y,-z
loop_
_atom_site_type_symbol
_atom_site_label
_atom_site_fract_x
_atom_site_fract_y
_atom_site_fract_z
Si Si1 0.334539 0.669454 0.078337
Si Si2 0.000000 0.000000 0.000000
Si Si3 0.534528 0.197042 0.674857
Si Si4 0.227269 0.176389 0.228991
Si Si5 0.457874 0.672474 0.733185
Si Si6 0.463952 0.559140 0.609480
O O1 0.596039 0.559433 0.123754
O O2 0.942431 0.541188 0.237676
O O3 0.447750 0.688422 0.950565
O O4 0.314075 0.885130 0.006773
O O5 0.838454 0.929550 0.158564
O O6 0.624219 0.374169 0.642484
O O7 0.515547 0.304750 0.539613
O O8 0.770100 0.043804 0.692540
O O9 0.294067 0.211776 0.297652
O O10 0.880371 0.241886 0.241875
O O11 0.610576 0.677750 0.607745
#
# Coordination Sequence:
#
# PCOD9016479 Si02
#       6
#     2   1   2   2   2   2
#     4  10  21  42  68 101 135 180 224 279 334 400
#     4   8  18  42  72  94 134 172 232 274 334 398
#     4   9  21  47  66 104 132 184 223 285 333 408
#     4  11  25  43  70 100 141 178 229 273 337 399
#     4  12  24  43  70 103 138 181 222 282 334 405
#     4  10  22  43  71  97 140 177 229 278 341 395
#
# _framework density 25.814879999999999
#
# number of rings (size 3 to 8) (size 9 to 14) (size 15 to 20)
#    0.000    1.818    1.818    1.091    2.545    1.455 
#   13.091    7.273    0.000    0.000    0.000    0.000 
#    0.000    0.000    0.000    0.000    0.000    0.000 
#
# Total GULP energy -61267.849401 kJ/mol
# GULP energy per Si atom -5569.804491 kJ/mol
# Density = 2.575612 g / cm^3
# Si number density = 25.814880 Si / 1000 Ang^3
#
#
#
# Elastic Constant Matrix: (Units=GPa)
#
#
# Indices 1 2 3 4 5 6 
#
# 1 99.8030 65.5003 46.3113 4.8251 0.1857 -26.4830
# 2 65.5003 253.2416 60.0636 -8.3057 18.3592 -55.3439
# 3 46.3113 60.0636 156.5197 10.4651 22.9193 20.9000
# 4 4.8251 -8.3057 10.4651 21.8868 5.2095 47.9494
# 5 0.1857 18.3592 22.9193 5.2095 8.8134 -12.6658
# 6 -26.4830 -55.3439 20.9000 47.9494 -12.6658 14.5841
#
#
#
# Elastic Compliance Matrix: (Units=1/GPa)
#
#
# Indices 1 2 3 4 5 6 
#
# 1 0.012078 -0.003570 -0.002585 0.006066 0.003907 -0.004463
# 2 -0.003570 0.006136 -0.000062 0.001698 -0.010897 0.001845
# 3 -0.002585 -0.000062 0.009013 -0.009747 -0.011735 0.004006
# 4 0.006066 0.001698 -0.009747 0.014057 0.031766 0.012799
# 5 0.003907 -0.010897 -0.011735 0.031766 0.110183 -0.026190
# 6 -0.004463 0.001845 0.004006 0.012799 -0.026190 -0.003102
#
#
# Mechanical properties :
#
#
# Convention : Reuss Voigt Hill
#
# Bulk Modulus (GPa) = 67.60989 94.81275 81.21132
# Shear Modulus (GPa) = 30.16948 31.56946 30.86947
#
# Velocity S-wave (km/s) = 3.42231 3.50082 3.46179
# Velocity P-wave (km/s) = 6.47020 7.29031 6.89246
#
# Compressibility (1/GPa) = 0.01479073
#
# Stress axis : x y z
#
# Youngs Moduli (GPa) = 82.79676 162.97652 110.95101
#
# Poissons Ratio (x) = 0.58188 0.28683
# Poissons Ratio (y) = 0.29561 0.00692
# Poissons Ratio (z) = 0.21405 0.01017
#
# Static dielectric constant tensor:
#      x y z
#    x 2.042900 0.049990 -0.051560 
#    y 0.049990 2.069010 -0.089800 
#    z -0.051560 -0.089800 2.075800 
# 
# From -- ./inp_files/129783.got.cif
#   From: 2010.05.17/outbox.cif.g08.bks.cpg/sg2_65_cif.got.tgz:129783.got - 2010.06.03 11:33:40.
