data_PCOD9016967
_publ_section_title
;
Structure prediction by ZEFSAII (Michael W. Deem and Ramdas Pophale) SiO2 
 PCOD9016967
Probable space group: P -1
;
_chemical_formula_sum "Si O2"
_cell_formula_units_Z 14
_cell_length_a 7.279884
_cell_length_b 9.851929
_cell_length_c 7.674139
_cell_angle_alpha 102.909381
_cell_angle_beta 81.466854
_cell_angle_gamma 108.371691
_cell_volume 507.329386
_symmetry_space_group_name_H-M "P -1"
_symmetry_group_IT_number 2
_symmetry_cell_setting 'triclinic'
loop_
_space_group_symop_operation_xyz
x,y,z
-x,-y,-z
loop_
_atom_site_type_symbol
_atom_site_label
_atom_site_fract_x
_atom_site_fract_y
_atom_site_fract_z
Si Si1 0.218840 0.578136 0.058193
Si Si2 0.173758 0.175798 0.464352
Si Si3 0.707757 0.898849 0.013961
Si Si4 0.252808 0.942111 0.595061
Si Si5 0.973013 0.178113 0.863199
Si Si6 0.498908 0.356053 0.248921
Si Si7 0.217578 0.603335 0.460121
O O1 0.266031 0.557587 0.247167
O O2 0.185591 0.735909 0.098408
O O3 0.377083 0.548093 0.898105
O O4 0.000000 0.500000 0.000000
O O5 0.082171 0.208229 0.668891
O O6 0.296634 0.311270 0.374752
O O7 0.980547 0.092962 0.363348
O O8 0.295437 0.063841 0.470790
O O9 0.657218 0.973276 0.218174
O O10 0.458665 0.199661 0.111399
O O11 0.839086 0.793790 0.026943
O O12 0.839608 0.027839 0.918312
O O13 0.260051 0.780852 0.504860
O O14 0.649073 0.405201 0.399056
O O15 0.000000 0.500000 0.500000
#
# Coordination Sequence:
#
# PCOD9016967 Si02
#       7
#     2   2   2   2   2   2   2
#     4  12  27  50  71  96 138 196 239 276 344 420
#     4  10  21  42  70 107 136 173 227 292 350 406
#     4  10  22  41  73 111 137 175 229 294 351 408
#     4  10  21  43  73 101 143 183 221 279 358 418
#     4  10  21  45  74 100 142 185 223 280 358 422
#     4  12  27  44  70 109 143 172 236 295 344 409
#     4  12  27  49  69  96 144 198 231 278 346 416
#
# _framework density 27.595480999999999
#
# number of rings (size 3 to 8) (size 9 to 14) (size 15 to 20)
#    0.000    1.143    2.857    4.286    4.000    2.857 
#    0.000    3.571    0.000    0.000    0.000    0.000 
#    0.000    0.000    0.000    0.000    0.000    0.000 
#
# Total GULP energy -78089.128003 kJ/mol
# GULP energy per Si atom -5577.794857 kJ/mol
# Density = 2.753267 g / cm^3
# Si number density = 27.595481 Si / 1000 Ang^3
#
#
#
# Elastic Constant Matrix: (Units=GPa)
#
#
# Indices 1 2 3 4 5 6 
#
# 1 83.3859 41.1351 83.6114 -9.3467 1.2633 36.0404
# 2 41.1351 95.6355 50.3089 -6.9214 5.4985 14.8967
# 3 83.6114 50.3089 188.8088 -16.8798 10.2084 7.0233
# 4 -9.3467 -6.9214 -16.8798 39.2252 15.3642 6.5807
# 5 1.2633 5.4985 10.2084 15.3642 57.2654 3.4044
# 6 36.0404 14.8967 7.0233 6.5807 3.4044 48.2488
#
#
#
# Elastic Compliance Matrix: (Units=1/GPa)
#
#
# Indices 1 2 3 4 5 6 
#
# 1 0.047014 -0.005607 -0.017664 0.006917 0.002694 -0.031949
# 2 -0.005607 0.013510 -0.000947 0.001140 -0.001316 0.000092
# 3 -0.017664 -0.000947 0.013108 0.000333 -0.002642 0.011720
# 4 0.006917 0.001140 0.000333 0.032370 -0.008448 -0.009386
# 5 0.002694 -0.001316 -0.002642 -0.008448 0.020357 -0.001505
# 6 -0.031949 0.000092 0.011720 -0.009386 -0.001505 0.044243
#
#
# Mechanical properties :
#
#
# Convention : Reuss Voigt Hill
#
# Bulk Modulus (GPa) = 39.69116 79.77123 59.73120
# Shear Modulus (GPa) = 21.98420 41.79952 31.89186
#
# Velocity S-wave (km/s) = 2.82558 3.89617 3.40323
# Velocity P-wave (km/s) = 5.00596 7.01500 6.09384
#
# Compressibility (1/GPa) = 0.02519453
#
# Stress axis : x y z
#
# Youngs Moduli (GPa) = 21.27045 74.01818 76.29099
#
# Poissons Ratio (x) = 0.41504 1.34761
# Poissons Ratio (y) = 0.11927 0.07225
# Poissons Ratio (z) = 0.37572 0.07010
#
# Static dielectric constant tensor:
#      x y z
#    x 2.234800 -0.141020 -0.060120 
#    y -0.141020 2.226060 0.072080 
#    z -0.060120 0.072080 2.185580 
# 
# From -- ./inp_files/171139.got.cif
#   From: 2010.05.17/outbox.cif.g08.bks.cpg/sg2_86_cif.got.tgz:171139.got - 2010.06.03 11:33:40.
