data_PCOD9016922
_publ_section_title
;
Structure prediction by ZEFSAII (Michael W. Deem and Ramdas Pophale) SiO2 
 PCOD9016922
Probable space group: P -1
;
_chemical_formula_sum "Si O2"
_cell_formula_units_Z 16
_cell_length_a 22.818977
_cell_length_b 5.039047
_cell_length_c 13.252884
_cell_angle_alpha 93.760959
_cell_angle_beta 23.826163
_cell_angle_gamma 92.122574
_cell_volume 613.273599
_symmetry_space_group_name_H-M "P -1"
_symmetry_group_IT_number 2
_symmetry_cell_setting 'triclinic'
loop_
_space_group_symop_operation_xyz
x,y,z
-x,-y,-z
loop_
_atom_site_type_symbol
_atom_site_label
_atom_site_fract_x
_atom_site_fract_y
_atom_site_fract_z
Si Si1 0.230931 0.228251 0.018369
Si Si2 0.731273 0.490961 0.573874
Si Si3 0.495248 0.488513 0.386364
Si Si4 0.327337 0.014917 0.648843
Si Si5 0.065662 0.518227 0.578105
Si Si6 0.893979 0.762536 0.158249
Si Si7 0.799318 0.016660 0.733191
Si Si8 0.469231 0.181791 0.956045
O O1 0.176842 0.048348 0.189072
O O2 0.102229 0.412028 0.176785
O O3 0.351400 0.407416 0.883196
O O4 0.299182 0.057693 0.813488
O O5 0.879269 0.392412 0.395701
O O6 0.776739 0.720281 0.431796
O O7 0.622427 0.296736 0.685537
O O8 0.636061 0.584084 0.823847
O O9 0.500000 0.500000 0.500000
O O10 0.460907 0.189505 0.410139
O O11 0.368649 0.705496 0.557880
O O12 0.197205 0.161576 0.796091
O O13 0.106762 0.208022 0.485364
O O14 0.149693 0.698292 0.371559
O O15 0.000000 0.500000 0.000000
O O16 0.000000 0.000000 0.000000
O O17 0.633247 0.972052 0.960973
O O18 0.500000 0.000000 0.000000
#
# Coordination Sequence:
#
# PCOD9016922 Si02
#       8
#     2   2   2   2   2   2   2   2
#     4  11  24  42  69  93 139 184 216 284 347 403
#     4  10  24  43  69  98 139 178 235 289 351 411
#     4  10  23  43  65  97 128 178 234 280 334 408
#     4  11  25  45  68 100 138 176 238 284 342 415
#     4  11  24  43  63 100 134 177 223 284 339 425
#     4  12  28  47  72 107 142 189 238 287 359 427
#     4  11  25  40  65 101 134 170 233 271 349 411
#     4  10  21  42  70 100 132 182 230 294 347 411
#
# _framework density 26.089497000000001
#
# number of rings (size 3 to 8) (size 9 to 14) (size 15 to 20)
#    0.000    1.250    1.250    3.750    3.500   10.000 
#    0.000    0.000    0.000    0.000    0.000    0.000 
#    0.000    0.000    0.000    0.000    0.000    0.000 
#
# Total GULP energy -89601.252800 kJ/mol
# GULP energy per Si atom -5600.078300 kJ/mol
# Density = 2.603012 g / cm^3
# Si number density = 26.089497 Si / 1000 Ang^3
#
#
#
# Elastic Constant Matrix: (Units=GPa)
#
#
# Indices 1 2 3 4 5 6 
#
# 1 76.0934 2.9066 26.9926 13.5033 -4.4851 -22.1418
# 2 2.9066 105.8155 25.0314 -1.0703 1.9794 -17.7026
# 3 26.9926 25.0314 92.6890 -3.3088 -9.2795 0.2054
# 4 13.5033 -1.0703 -3.3088 51.4856 -6.7825 -7.2049
# 5 -4.4851 1.9794 -9.2795 -6.7825 47.7599 2.2971
# 6 -22.1418 -17.7026 0.2054 -7.2049 2.2971 37.4143
#
#
#
# Elastic Compliance Matrix: (Units=1/GPa)
#
#
# Indices 1 2 3 4 5 6 
#
# 1 0.019730 0.003141 -0.006837 -0.003900 -0.000761 0.012496
# 2 0.003141 0.011636 -0.004209 0.000014 -0.001363 0.007474
# 3 -0.006837 -0.004209 0.014298 0.002185 0.002903 -0.005874
# 4 -0.003900 0.000014 0.002185 0.021203 0.002992 0.001586
# 5 -0.000761 -0.001363 0.002903 0.002992 0.022003 -0.001885
# 6 0.012496 0.007474 -0.005874 0.001586 -0.001885 0.038112
#
#
# Mechanical properties :
#
#
# Convention : Reuss Voigt Hill
#
# Bulk Modulus (GPa) = 33.49770 42.71770 38.10770
# Shear Modulus (GPa) = 32.73434 41.97646 37.35540
#
# Velocity S-wave (km/s) = 3.54601 4.01551 3.78804
# Velocity P-wave (km/s) = 5.44362 6.15696 5.81125
#
# Compressibility (1/GPa) = 0.02985280
#
# Stress axis : x y z
#
# Youngs Moduli (GPa) = 50.68328 85.94129 69.93836
#
# Poissons Ratio (x) = -0.26991 0.47817
# Poissons Ratio (y) = -0.15918 0.29440
# Poissons Ratio (z) = 0.34652 0.36176
#
# Static dielectric constant tensor:
#      x y z
#    x 2.025890 0.043430 -0.025230 
#    y 0.043430 2.033540 0.026940 
#    z -0.025230 0.026940 2.194670 
# 
# From -- ./inp_files/542131.got.cif
#   From: 2010.05.17/outbox.cif.g08.bks.cpg/sg2_272_cif.got.tgz:542131.got - 2010.06.03 11:33:40.
