data_PCOD9016536
_publ_section_title
;
Structure prediction by ZEFSAII (Michael W. Deem and Ramdas Pophale) SiO2 
 PCOD9016536
Probable space group: P -1
;
_chemical_formula_sum "Si O2"
_cell_formula_units_Z 16
_cell_length_a 9.179037
_cell_length_b 14.569032
_cell_length_c 13.630623
_cell_angle_alpha 60.384902
_cell_angle_beta 110.593541
_cell_angle_gamma 153.372203
_cell_volume 691.033088
_symmetry_space_group_name_H-M "P -1"
_symmetry_group_IT_number 2
_symmetry_cell_setting 'triclinic'
loop_
_space_group_symop_operation_xyz
x,y,z
-x,-y,-z
loop_
_atom_site_type_symbol
_atom_site_label
_atom_site_fract_x
_atom_site_fract_y
_atom_site_fract_z
Si Si1 0.849325 0.402095 0.361519
Si Si2 0.194052 0.011420 0.077283
Si Si3 0.262978 0.809017 0.381486
Si Si4 0.352502 0.608173 0.217304
Si Si5 0.792255 0.227460 0.136555
Si Si6 0.060139 0.862439 0.933569
Si Si7 0.762166 0.697463 0.379046
Si Si8 0.730528 0.847708 0.766485
O O1 0.651409 0.205298 0.492427
O O2 0.060067 0.608591 0.368644
O O3 0.101786 0.486649 0.309910
O O4 0.606920 0.321986 0.275627
O O5 0.570463 0.191580 0.066743
O O6 0.205328 0.044081 0.177968
O O7 0.010226 0.817845 0.062283
O O8 0.000000 0.000000 0.000000
O O9 0.569324 0.036277 0.269478
O O10 0.012630 0.752532 0.383754
O O11 0.626279 0.866367 0.140035
O O12 0.540955 0.612042 0.282946
O O13 0.134753 0.462483 0.146051
O O14 0.855697 0.190503 0.078549
O O15 0.774655 0.755459 0.863638
O O16 0.500000 0.500000 0.500000
O O17 0.966366 0.923092 0.347818
#
# Coordination Sequence:
#
# PCOD9016536 Si02
#       8
#     2   2   2   2   2   2   2   2
#     4  11  22  41  61  95 131 173 209 261 317 381
#     4  10  21  42  68  91 125 169 211 267 324 369
#     4  11  24  39  64  93 134 171 210 259 320 381
#     4  11  23  39  63  93 129 163 217 263 311 372
#     4  12  23  42  68  95 124 177 209 258 324 382
#     4  10  24  43  63  95 131 161 219 272 307 375
#     4  11  22  38  60  91 124 164 210 265 308 375
#     4  10  22  41  64  88 128 170 209 259 322 374
#
# _framework density 23.153739999999999
#
# number of rings (size 3 to 8) (size 9 to 14) (size 15 to 20)
#    0.000    1.250    5.000    0.375    3.500    1.500 
#    0.000    1.250    0.000    5.250    0.000    0.000 
#    0.000    0.000    0.000    0.000    0.000    0.000 
#
# Total GULP energy -89273.047466 kJ/mol
# GULP energy per Si atom -5579.565467 kJ/mol
# Density = 2.310104 g / cm^3
# Si number density = 23.153740 Si / 1000 Ang^3
#
#
#
# Elastic Constant Matrix: (Units=GPa)
#
#
# Indices 1 2 3 4 5 6 
#
# 1 97.6584 29.9182 22.1970 18.3396 1.0253 15.6259
# 2 29.9182 72.4438 35.8914 27.7977 13.3927 0.3753
# 3 22.1970 35.8914 93.3191 19.2197 11.7322 0.4386
# 4 18.3396 27.7977 19.2197 39.7663 8.3005 14.1118
# 5 1.0253 13.3927 11.7322 8.3005 39.9175 12.3455
# 6 15.6259 0.3753 0.4386 14.1118 12.3455 27.8465
#
#
#
# Elastic Compliance Matrix: (Units=1/GPa)
#
#
# Indices 1 2 3 4 5 6 
#
# 1 0.014028 -0.006502 -0.001823 0.001745 0.005408 -0.011037
# 2 -0.006502 0.026911 -0.004089 -0.017755 -0.009024 0.016349
# 3 -0.001823 -0.004089 0.013894 -0.003850 -0.003168 0.004215
# 4 0.001745 -0.017755 -0.003850 0.047023 0.005616 -0.026999
# 5 0.005408 -0.009024 -0.003168 0.005616 0.034152 -0.020850
# 6 -0.011037 0.016349 0.004215 -0.026999 -0.020850 0.064744
#
#
# Mechanical properties :
#
#
# Convention : Reuss Voigt Hill
#
# Bulk Modulus (GPa) = 33.32915 48.82605 41.07760
# Shear Modulus (GPa) = 21.22403 33.20037 27.21220
#
# Velocity S-wave (km/s) = 3.03092 3.79081 3.43196
# Velocity P-wave (km/s) = 5.16474 6.34774 5.78655
#
# Compressibility (1/GPa) = 0.03000376
#
# Stress axis : x y z
#
# Youngs Moduli (GPa) = 71.28807 37.15890 71.97441
#
# Poissons Ratio (x) = 0.24160 0.13123
# Poissons Ratio (y) = 0.46351 0.29433
# Poissons Ratio (z) = 0.12998 0.15196
#
# Static dielectric constant tensor:
#      x y z
#    x 1.832310 0.010720 -0.020600 
#    y 0.010720 1.901620 -0.088150 
#    z -0.020600 -0.088150 2.056570 
# 
# From -- ./inp_files/187972.got.cif
#   From: 2010.05.17/outbox.cif.g08.bks.cpg/sg2_94_cif.got.tgz:187972.got - 2010.06.03 11:33:40.
