data_PCOD9016085
_publ_section_title
;
Structure prediction by ZEFSAII (Michael W. Deem and Ramdas Pophale) SiO2 
 PCOD9016085
Probable space group: P -1
;
_chemical_formula_sum "Si O2"
_cell_formula_units_Z 14
_cell_length_a 9.080370
_cell_length_b 19.830566
_cell_length_c 12.103309
_cell_angle_alpha 152.257216
_cell_angle_beta 140.268283
_cell_angle_gamma 47.531777
_cell_volume 648.372558
_symmetry_space_group_name_H-M "P -1"
_symmetry_group_IT_number 2
_symmetry_cell_setting 'triclinic'
loop_
_space_group_symop_operation_xyz
x,y,z
-x,-y,-z
loop_
_atom_site_type_symbol
_atom_site_label
_atom_site_fract_x
_atom_site_fract_y
_atom_site_fract_z
Si Si1 0.532518 0.667466 0.887277
Si Si2 0.462735 0.668887 0.198459
Si Si3 0.366233 0.671380 0.561402
Si Si4 0.615597 0.133685 0.358898
Si Si5 0.853223 0.783719 0.438774
Si Si6 0.867513 0.953128 0.082418
Si Si7 0.889957 0.341405 0.218702
O O1 0.517468 0.714199 0.818476
O O2 0.597810 0.498636 0.683163
O O3 0.270127 0.675118 0.790367
O O4 0.705334 0.747195 0.188924
O O5 0.356516 0.758979 0.367753
O O6 0.698835 0.740362 0.391756
O O7 0.500000 0.500000 0.000000
O O8 0.285859 0.677468 0.009824
O O9 0.431043 0.762173 0.621967
O O10 0.093271 0.698689 0.457712
O O11 0.818692 0.029712 0.284110
O O12 0.383352 0.039436 0.108087
O O13 0.935689 0.950756 0.723189
O O14 0.932806 0.787139 0.875511
O O15 0.000000 0.500000 0.500000
#
# Coordination Sequence:
#
# PCOD9016085 Si02
#       7
#     2   2   2   2   2   2   2
#     4  10  22  39  65  98 130 172 228 270 324 403
#     4  11  24  41  70 100 133 174 221 276 327 399
#     4  10  21  42  66  94 134 179 213 280 328 388
#     4  10  22  45  62  99 134 169 226 266 335 402
#     4  10  23  43  65  97 131 178 220 272 333 395
#     4  10  23  45  65  93 134 178 218 274 336 393
#     4  11  24  44  68  96 131 170 226 280 332 397
#
# _framework density 21.592524999999998
#
# number of rings (size 3 to 8) (size 9 to 14) (size 15 to 20)
#    0.000    1.714    0.000    3.857    4.000    4.571 
#   23.143    0.000    0.000    0.000    0.000    0.000 
#    0.000    0.000    0.000    0.000    0.000    0.000 
#
# Total GULP energy -78202.649036 kJ/mol
# GULP energy per Si atom -5585.903503 kJ/mol
# Density = 2.154338 g / cm^3
# Si number density = 21.592525 Si / 1000 Ang^3
#
#
#
# Elastic Constant Matrix: (Units=GPa)
#
#
# Indices 1 2 3 4 5 6 
#
# 1 86.0738 35.8697 36.7878 17.3515 -4.2251 -5.1086
# 2 35.8697 51.7629 24.8283 13.0382 6.8398 -12.5963
# 3 36.7878 24.8283 81.3789 27.5321 4.3787 4.0753
# 4 17.3515 13.0382 27.5321 35.2396 -1.9605 -10.7180
# 5 -4.2251 6.8398 4.3787 -1.9605 34.2490 -0.2081
# 6 -5.1086 -12.5963 4.0753 -10.7180 -0.2081 42.4269
#
#
#
# Elastic Compliance Matrix: (Units=1/GPa)
#
#
# Indices 1 2 3 4 5 6 
#
# 1 0.018875 -0.011320 -0.004871 -0.001295 0.005132 -0.000922
# 2 -0.011320 0.032604 -0.004640 -0.000667 -0.007301 0.008558
# 3 -0.004871 -0.004640 0.021721 -0.015469 -0.003385 -0.007975
# 4 -0.001295 -0.000667 -0.015469 0.045448 0.004629 0.012636
# 5 0.005132 -0.007301 -0.003385 0.004629 0.031988 0.000102
# 6 -0.000922 0.008558 -0.007975 0.012636 0.000102 0.029958
#
#
# Mechanical properties :
#
#
# Convention : Reuss Voigt Hill
#
# Bulk Modulus (GPa) = 31.70738 46.02078 38.86408
# Shear Modulus (GPa) = 21.48056 30.49841 25.98949
#
# Velocity S-wave (km/s) = 3.15749 3.76234 3.47311
# Velocity P-wave (km/s) = 5.29238 6.34296 5.84134
#
# Compressibility (1/GPa) = 0.03153840
#
# Stress axis : x y z
#
# Youngs Moduli (GPa) = 52.97896 30.67089 46.03922
#
# Poissons Ratio (x) = 0.34719 0.22425
# Poissons Ratio (y) = 0.59972 0.21363
# Poissons Ratio (z) = 0.25805 0.14232
#
# Static dielectric constant tensor:
#      x y z
#    x 1.839210 -0.008310 0.007500 
#    y -0.008310 1.737950 -0.025020 
#    z 0.007500 -0.025020 1.781640 
# 
# From -- ./inp_files/342781.got.cif
#   From: 2010.05.17/outbox.cif.g08.bks.cpg/sg2_172_cif.got.tgz:342781.got - 2010.06.03 11:33:40.
