data_PCOD9016238
_publ_section_title
;
Structure prediction by ZEFSAII (Michael W. Deem and Ramdas Pophale) SiO2 
 PCOD9016238
Probable space group: P -1
;
_chemical_formula_sum "Si O2"
_cell_formula_units_Z 16
_cell_length_a 10.312395
_cell_length_b 16.681072
_cell_length_c 19.328838
_cell_angle_alpha 22.108126
_cell_angle_beta 29.846854
_cell_angle_gamma 37.638568
_cell_volume 621.571112
_symmetry_space_group_name_H-M "P -1"
_symmetry_group_IT_number 2
_symmetry_cell_setting 'triclinic'
loop_
_space_group_symop_operation_xyz
x,y,z
-x,-y,-z
loop_
_atom_site_type_symbol
_atom_site_label
_atom_site_fract_x
_atom_site_fract_y
_atom_site_fract_z
Si Si1 0.529257 0.995321 0.887896
Si Si2 0.701435 0.163577 0.021779
Si Si3 0.202960 0.703087 0.753586
Si Si4 0.306885 0.163223 0.321072
Si Si5 0.874327 0.686145 0.204084
Si Si6 0.269075 0.642891 0.930384
Si Si7 0.239623 0.403670 0.421722
Si Si8 0.850203 0.221623 0.655444
O O1 0.388102 0.218158 0.776645
O O2 0.805723 0.053696 0.748619
O O3 0.458987 0.922914 0.901420
O O4 0.381768 0.828495 0.141937
O O5 0.539304 0.100663 0.213885
O O6 0.687447 0.415591 0.812639
O O7 0.000329 0.162807 0.912795
O O8 0.247345 0.725626 0.797247
O O9 0.483229 0.648018 0.633663
O O10 0.130668 0.941970 0.575489
O O11 0.000000 0.500000 0.000000
O O12 0.451170 0.258674 0.247753
O O13 0.213386 0.384184 0.157716
O O14 0.847081 0.453415 0.436847
O O15 0.061586 0.694163 0.044580
O O16 0.000000 0.500000 0.500000
O O17 0.103453 0.210092 0.595810
#
# Coordination Sequence:
#
# PCOD9016238 Si02
#       8
#     2   2   2   2   2   2   2   2
#     4  11  22  41  64 103 141 179 238 290 360 430
#     4  10  21  42  67 103 138 186 234 301 356 433
#     4  12  28  47  73 109 143 193 248 300 367 436
#     4  10  23  45  74 100 141 191 242 298 360 433
#     4  10  23  39  67  98 137 184 236 288 358 432
#     4  10  23  46  69 103 138 185 242 299 353 438
#     4  11  23  45  71 100 146 187 234 294 363 433
#     4  10  24  39  64  99 136 187 225 293 357 420
#
# _framework density 25.741223000000002
#
# number of rings (size 3 to 8) (size 9 to 14) (size 15 to 20)
#    0.000    1.500    2.500    1.125    5.250    5.500 
#    2.250    0.000    0.000    0.000    0.000    0.000 
#    0.000    0.000    0.000    0.000    0.000    0.000 
#
# Total GULP energy -89235.093269 kJ/mol
# GULP energy per Si atom -5577.193329 kJ/mol
# Density = 2.568264 g / cm^3
# Si number density = 25.741223 Si / 1000 Ang^3
#
#
#
# Elastic Constant Matrix: (Units=GPa)
#
#
# Indices 1 2 3 4 5 6 
#
# 1 79.4536 37.3695 -2.4809 1.8237 -28.3286 23.4019
# 2 37.3695 49.1138 51.7294 11.9271 -20.0449 -4.0177
# 3 -2.4809 51.7294 99.3847 -21.9041 -18.7750 9.5604
# 4 1.8237 11.9271 -21.9041 18.3412 0.1091 5.8234
# 5 -28.3286 -20.0449 -18.7750 0.1091 61.2368 -5.8662
# 6 23.4019 -4.0177 9.5604 5.8234 -5.8662 33.4389
#
#
#
# Elastic Compliance Matrix: (Units=1/GPa)
#
#
# Indices 1 2 3 4 5 6 
#
# 1 0.008124 0.011620 -0.009893 -0.021187 0.004862 0.003082
# 2 0.011620 -0.010449 0.014666 0.028767 0.004699 -0.017766
# 3 -0.009893 0.014666 -0.002116 -0.014901 0.000753 0.012018
# 4 -0.021187 0.028767 -0.014901 0.013930 -0.003103 0.019574
# 5 0.004862 0.004699 0.000753 -0.003103 0.020456 0.001076
# 6 0.003082 -0.017766 0.012018 0.019574 0.001076 0.018958
#
#
# Mechanical properties :
#
#
# Convention : Reuss Voigt Hill
#
# Bulk Modulus (GPa) = 35.28129 44.57647 39.92888
# Shear Modulus (GPa) = 195.58748 32.02566 113.80657
#
# Velocity S-wave (km/s) = 8.72623 3.53106 6.65641
# Velocity P-wave (km/s) = 10.73617 5.82917 8.63842
#
# Compressibility (1/GPa) = 0.02834364
#
# Stress axis : x y z
#
# Youngs Moduli (GPa) = 123.09893 -95.70234 -472.48495
#
# Poissons Ratio (x) = 1.11208 -4.67432
# Poissons Ratio (y) = -1.43044 6.92929
# Poissons Ratio (z) = 1.21782 1.40353
#
# Static dielectric constant tensor:
#      x y z
#    x 1.921660 0.203550 -0.073120 
#    y 0.203550 1.488870 0.085500 
#    z -0.073120 0.085500 2.026670 
# 
# From -- ./inp_files/595925.got.cif
#   From: 2010.05.17/outbox.cif.g08.bks.cpg/sg2_298_cif.got.tgz:595925.got - 2010.06.03 11:33:40.
