data_PCOD9016387
_publ_section_title
;
Structure prediction by ZEFSAII (Michael W. Deem and Ramdas Pophale) SiO2 
 PCOD9016387
Probable space group: P -1
;
_chemical_formula_sum "Si O2"
_cell_formula_units_Z 14
_cell_length_a 16.938174
_cell_length_b 8.507571
_cell_length_c 9.410745
_cell_angle_alpha 115.555097
_cell_angle_beta 118.557860
_cell_angle_gamma 31.216815
_cell_volume 616.574628
_symmetry_space_group_name_H-M "P -1"
_symmetry_group_IT_number 2
_symmetry_cell_setting 'triclinic'
loop_
_space_group_symop_operation_xyz
x,y,z
-x,-y,-z
loop_
_atom_site_type_symbol
_atom_site_label
_atom_site_fract_x
_atom_site_fract_y
_atom_site_fract_z
Si Si1 0.598037 0.723089 0.863768
Si Si2 0.072708 0.695217 0.445618
Si Si3 0.667132 0.897057 0.400705
Si Si4 0.902722 0.411119 0.907269
Si Si5 0.749805 0.049739 0.329141
Si Si6 0.769043 0.002664 0.006641
Si Si7 0.426428 0.659558 0.295979
O O1 0.778752 0.490730 0.914486
O O2 0.595725 0.516029 0.798622
O O3 0.504833 0.900720 0.704344
O O4 0.500000 0.000000 0.000000
O O5 0.220285 0.427577 0.567448
O O6 0.111675 0.591789 0.275842
O O7 0.000000 0.000000 0.500000
O O8 0.928238 0.808648 0.421093
O O9 0.723882 0.894382 0.300595
O O10 0.668081 0.059608 0.573398
O O11 0.088956 0.108075 0.980406
O O12 0.846574 0.696204 0.994575
O O13 0.605907 0.390203 0.400935
O O14 0.722744 0.139093 0.175325
O O15 0.628991 0.198779 0.853681
#
# Coordination Sequence:
#
# PCOD9016387 Si02
#       7
#     2   2   2   2   2   2   2
#     4  11  25  43  68 100 138 170 225 278 333 393
#     4  11  25  40  64 100 131 173 222 278 329 387
#     4  11  24  45  67  97 134 180 221 272 339 396
#     4  10  22  41  63  94 135 171 217 278 326 395
#     4  10  22  41  66  94 134 172 221 265 330 406
#     4  10  21  42  67  96 131 177 220 265 338 396
#     4  11  23  42  71  99 129 180 225 271 332 397
#
# _framework density 22.706091000000001
#
# number of rings (size 3 to 8) (size 9 to 14) (size 15 to 20)
#    0.000    1.429    1.429    4.286    4.000    4.571 
#    2.571    0.000    0.000    0.000    0.000    0.000 
#    0.000    0.000    0.000    0.000    0.000    0.000 
#
# Total GULP energy -78045.355172 kJ/mol
# GULP energy per Si atom -5574.668227 kJ/mol
# Density = 2.265441 g / cm^3
# Si number density = 22.706091 Si / 1000 Ang^3
#
#
#
# Elastic Constant Matrix: (Units=GPa)
#
#
# Indices 1 2 3 4 5 6 
#
# 1 16.7463 -5.0005 15.4623 43.4012 -5.7216 0.6731
# 2 -5.0005 86.4333 25.7755 6.6213 -13.7210 14.0741
# 3 15.4623 25.7755 50.5832 -5.5405 11.0547 2.8671
# 4 43.4012 6.6213 -5.5405 26.5606 12.1088 -10.3374
# 5 -5.7216 -13.7210 11.0547 12.1088 12.7139 3.2281
# 6 0.6731 14.0741 2.8671 -10.3374 3.2281 22.4819
#
#
#
# Elastic Compliance Matrix: (Units=1/GPa)
#
#
# Indices 1 2 3 4 5 6 
#
# 1 0.008096 -0.010505 0.009901 0.010947 -0.030403 0.014470
# 2 -0.010505 0.013410 -0.003962 0.007985 0.006824 -0.004883
# 3 0.009901 -0.003962 0.018661 -0.011374 -0.003980 -0.004855
# 4 0.010947 0.007985 -0.011374 0.003639 0.021304 -0.005262
# 5 -0.030403 0.006824 -0.003980 0.021304 0.055777 -0.001067
# 6 0.014470 -0.004883 -0.004855 -0.005262 -0.001067 0.045457
#
#
# Mechanical properties :
#
#
# Convention : Reuss Voigt Hill
#
# Bulk Modulus (GPa) = 32.22138 25.13748 28.67943
# Shear Modulus (GPa) = 30.39208 20.18631 25.28920
#
# Velocity S-wave (km/s) = 3.66252 2.98489 3.34093
# Velocity P-wave (km/s) = 5.66629 4.79315 5.24791
#
# Compressibility (1/GPa) = 0.03103530
#
# Stress axis : x y z
#
# Youngs Moduli (GPa) = 123.51071 74.57110 53.58887
#
# Poissons Ratio (x) = 0.78340 -0.53061
# Poissons Ratio (y) = 1.29753 0.21231
# Poissons Ratio (z) = -1.22293 0.29544
#
# Static dielectric constant tensor:
#      x y z
#    x 1.859090 0.049720 0.215250 
#    y 0.049720 1.710390 -0.142860 
#    z 0.215250 -0.142860 1.688680 
# 
# From -- ./inp_files/156584.got.cif
#   From: 2010.05.17/outbox.cif.g08.bks.cpg/sg2_79_cif.got.tgz:156584.got - 2010.06.03 11:33:40.
