data_PCOD9016893
_publ_section_title
;
Structure prediction by ZEFSAII (Michael W. Deem and Ramdas Pophale) SiO2 
 PCOD9016893
Probable space group: P -1
;
_chemical_formula_sum "Si O2"
_cell_formula_units_Z 14
_cell_length_a 10.401896
_cell_length_b 9.146163
_cell_length_c 11.717024
_cell_angle_alpha 76.777836
_cell_angle_beta 55.116804
_cell_angle_gamma 45.307648
_cell_volume 620.629412
_symmetry_space_group_name_H-M "P -1"
_symmetry_group_IT_number 2
_symmetry_cell_setting 'triclinic'
loop_
_space_group_symop_operation_xyz
x,y,z
-x,-y,-z
loop_
_atom_site_type_symbol
_atom_site_label
_atom_site_fract_x
_atom_site_fract_y
_atom_site_fract_z
Si Si1 0.817719 0.626840 0.884006
Si Si2 0.416751 0.052410 0.866159
Si Si3 0.349020 0.876291 0.401276
Si Si4 0.962254 0.939854 0.910939
Si Si5 0.778386 0.425362 0.338263
Si Si6 0.260351 0.622070 0.147652
Si Si7 0.164446 0.735839 0.405859
O O1 0.839488 0.442259 0.865679
O O2 0.050371 0.553753 0.768136
O O3 0.631714 0.839901 0.862847
O O4 0.709920 0.722814 0.045889
O O5 0.524473 0.055481 0.700954
O O6 0.230471 0.050549 0.964456
O O7 0.522923 0.658239 0.423989
O O8 0.289686 0.811218 0.333290
O O9 0.096038 0.079922 0.532947
O O10 0.874050 0.131138 0.838745
O O11 0.158918 0.723612 0.775899
O O12 0.000000 0.000000 0.000000
O O13 0.828816 0.324205 0.456282
O O14 0.280318 0.559110 0.280599
O O15 0.500000 0.500000 0.000000
#
# Coordination Sequence:
#
# PCOD9016893 Si02
#       7
#     2   2   2   2   2   2   2
#     4  10  22  40  68 100 136 178 235 274 347 408
#     4  10  21  42  69  98 140 183 224 283 340 415
#     4  11  23  42  73  98 135 188 227 282 345 404
#     4  11  26  42  68 110 141 172 241 287 334 410
#     4  11  25  46  72 101 136 189 230 282 341 415
#     4  12  25  44  71 101 133 183 223 296 353 395
#     4  11  25  45  70  99 139 180 241 276 342 427
#
# _framework density 22.557746000000002
#
# number of rings (size 3 to 8) (size 9 to 14) (size 15 to 20)
#    0.000    1.143    2.857    3.000    8.000    1.714 
#    0.000    0.714    0.000    0.000    0.000    0.000 
#    0.000    0.000    0.000    0.000    0.000    0.000 
#
# Total GULP energy -78164.814808 kJ/mol
# GULP energy per Si atom -5583.201058 kJ/mol
# Density = 2.250640 g / cm^3
# Si number density = 22.557746 Si / 1000 Ang^3
#
#
#
# Elastic Constant Matrix: (Units=GPa)
#
#
# Indices 1 2 3 4 5 6 
#
# 1 86.6424 17.5706 61.8323 3.8861 -2.7355 10.5412
# 2 17.5706 82.2975 43.5521 -1.4258 -7.4330 -11.5587
# 3 61.8323 43.5521 123.5088 2.5121 -4.6449 -8.7445
# 4 3.8861 -1.4258 2.5121 22.3502 0.9672 -8.1491
# 5 -2.7355 -7.4330 -4.6449 0.9672 34.2173 -0.4669
# 6 10.5412 -11.5587 -8.7445 -8.1491 -0.4669 43.2938
#
#
#
# Elastic Compliance Matrix: (Units=1/GPa)
#
#
# Indices 1 2 3 4 5 6 
#
# 1 0.020385 0.000102 -0.010697 -0.005296 0.000239 -0.008091
# 2 0.000102 0.015738 -0.005298 0.002801 0.002679 0.003663
# 3 -0.010697 -0.005298 0.015623 0.001444 0.000137 0.004619
# 4 -0.005296 0.002801 0.001444 0.049994 -0.000872 0.011730
# 5 0.000239 0.002679 0.000137 -0.000872 0.029881 0.000843
# 6 -0.008091 0.003663 0.004619 0.011730 0.000843 0.029196
#
#
# Mechanical properties :
#
#
# Convention : Reuss Voigt Hill
#
# Bulk Modulus (GPa) = 50.10048 59.81765 54.95907
# Shear Modulus (GPa) = 25.09360 31.27184 28.18272
#
# Velocity S-wave (km/s) = 3.33891 3.72735 3.53846
# Velocity P-wave (km/s) = 6.09282 6.71560 6.41178
#
# Compressibility (1/GPa) = 0.01995989
#
# Stress axis : x y z
#
# Youngs Moduli (GPa) = 49.05685 63.54211 64.00857
#
# Poissons Ratio (x) = -0.00651 0.68472
# Poissons Ratio (y) = -0.00503 0.33909
# Poissons Ratio (z) = 0.52478 0.33662
#
# Static dielectric constant tensor:
#      x y z
#    x 1.867150 0.039970 0.022020 
#    y 0.039970 1.988250 -0.012560 
#    z 0.022020 -0.012560 1.837090 
# 
# From -- ./inp_files/381903.got.cif
#   From: 2010.05.17/outbox.cif.g08.bks.cpg/sg2_191_cif.got.tgz:381903.got - 2010.06.03 11:33:40.
