data_PCOD9016605
_publ_section_title
;
Structure prediction by ZEFSAII (Michael W. Deem and Ramdas Pophale) SiO2 
 PCOD9016605
Probable space group: P -1
;
_chemical_formula_sum "Si O2"
_cell_formula_units_Z 16
_cell_length_a 7.414899
_cell_length_b 12.272375
_cell_length_c 15.813744
_cell_angle_alpha 35.823453
_cell_angle_beta 81.331533
_cell_angle_gamma 61.283280
_cell_volume 653.802002
_symmetry_space_group_name_H-M "P -1"
_symmetry_group_IT_number 2
_symmetry_cell_setting 'triclinic'
loop_
_space_group_symop_operation_xyz
x,y,z
-x,-y,-z
loop_
_atom_site_type_symbol
_atom_site_label
_atom_site_fract_x
_atom_site_fract_y
_atom_site_fract_z
Si Si1 0.027086 0.171665 0.984265
Si Si2 0.984810 0.810854 0.577558
Si Si3 0.700708 0.861351 0.177550
Si Si4 0.573520 0.321537 0.971707
Si Si5 0.629128 0.489411 0.389821
Si Si6 0.642689 0.209526 0.227432
Si Si7 0.900563 0.544082 0.886119
Si Si8 0.149713 0.686041 0.340108
O O1 0.746000 0.329527 0.893230
O O2 0.091614 0.919035 0.154331
O O3 0.177777 0.163197 0.904419
O O4 0.039654 0.289810 0.991386
O O5 0.920989 0.700994 0.720897
O O6 0.229058 0.607001 0.645413
O O7 0.794705 0.962296 0.421330
O O8 0.000000 0.000000 0.500000
O O9 0.575159 0.742136 0.254035
O O10 0.927981 0.701878 0.322521
O O11 0.551051 0.131669 0.051417
O O12 0.701260 0.204151 0.127929
O O13 0.364207 0.588670 0.847467
O O14 0.410064 0.489168 0.409598
O O15 0.801086 0.325180 0.557298
O O16 0.373431 0.322413 0.173136
O O17 0.000000 0.500000 0.000000
#
# Coordination Sequence:
#
# PCOD9016605 Si02
#       8
#     2   2   2   2   2   2   2   2
#     4  10  21  42  68  95 137 168 229 288 336 415
#     4  12  27  45  69 100 141 181 231 293 344 410
#     4  11  21  43  69 102 132 178 224 286 343 408
#     4   9  20  38  73  99 133 180 229 279 351 409
#     4  11  25  45  65 103 139 176 228 286 337 420
#     4  10  23  45  70 101 139 183 230 281 347 416
#     4  11  26  46  69 100 135 183 236 286 347 417
#     4  10  23  42  69  98 137 179 218 275 359 402
#
# _framework density 24.472239999999999
#
# number of rings (size 3 to 8) (size 9 to 14) (size 15 to 20)
#    0.000    1.500    1.250    3.750    7.000    4.500 
#    4.500    0.000    0.000    0.000    0.000    0.000 
#    0.000    0.000    0.000    0.000    0.000    0.000 
#
# Total GULP energy -89483.385516 kJ/mol
# GULP energy per Si atom -5592.711595 kJ/mol
# Density = 2.441654 g / cm^3
# Si number density = 24.472240 Si / 1000 Ang^3
#
#
#
# Elastic Constant Matrix: (Units=GPa)
#
#
# Indices 1 2 3 4 5 6 
#
# 1 95.9319 17.6256 -4.3194 0.3826 9.8223 -13.9056
# 2 17.6256 123.1073 7.8751 3.9609 -2.8975 3.6740
# 3 -4.3194 7.8751 75.3556 18.6617 4.6841 -5.4308
# 4 0.3826 3.9609 18.6617 39.0040 -0.9857 -8.6344
# 5 9.8223 -2.8975 4.6841 -0.9857 41.4736 3.4879
# 6 -13.9056 3.6740 -5.4308 -8.6344 3.4879 34.3028
#
#
#
# Elastic Compliance Matrix: (Units=1/GPa)
#
#
# Indices 1 2 3 4 5 6 
#
# 1 0.012098 -0.002104 0.001408 0.000631 -0.003651 0.005883
# 2 -0.002104 0.008620 -0.001072 -0.000814 0.001395 -0.002293
# 3 0.001408 -0.001072 0.015469 -0.007010 -0.002458 0.001620
# 4 0.000631 -0.000814 -0.007010 0.030606 0.000736 0.006863
# 5 -0.003651 0.001395 -0.002458 0.000736 0.025743 -0.004451
# 6 0.005883 -0.002293 0.001620 0.006863 -0.004451 0.034219
#
#
# Mechanical properties :
#
#
# Convention : Reuss Voigt Hill
#
# Bulk Modulus (GPa) = 30.62680 37.41748 34.02214
# Shear Modulus (GPa) = 35.41710 41.17032 38.29371
#
# Velocity S-wave (km/s) = 3.80838 4.10607 3.96002
# Velocity P-wave (km/s) = 5.64628 6.14839 5.90267
#
# Compressibility (1/GPa) = 0.03265114
#
# Stress axis : x y z
#
# Youngs Moduli (GPa) = 82.65824 116.00610 64.64721
#
# Poissons Ratio (x) = 0.24407 -0.09102
# Poissons Ratio (y) = 0.17391 0.06929
# Poissons Ratio (z) = -0.11637 0.12433
#
# Static dielectric constant tensor:
#      x y z
#    x 2.024470 0.013980 0.056930 
#    y 0.013980 1.943230 -0.007360 
#    z 0.056930 -0.007360 1.965850 
# 
# From -- ./inp_files/499881.got.cif
#   From: 2010.05.17/outbox.cif.g08.bks.cpg/sg2_250_cif.got.tgz:499881.got - 2010.06.03 11:33:40.
