data_PCOD9016053
_publ_section_title
;
Structure prediction by ZEFSAII (Michael W. Deem and Ramdas Pophale) SiO2 
 PCOD9016053
Probable space group: P -1
;
_chemical_formula_sum "Si O2"
_cell_formula_units_Z 14
_cell_length_a 13.626495
_cell_length_b 6.754216
_cell_length_c 17.092256
_cell_angle_alpha 141.914063
_cell_angle_beta 42.509399
_cell_angle_gamma 135.250820
_cell_volume 622.984956
_symmetry_space_group_name_H-M "P -1"
_symmetry_group_IT_number 2
_symmetry_cell_setting 'triclinic'
loop_
_space_group_symop_operation_xyz
x,y,z
-x,-y,-z
loop_
_atom_site_type_symbol
_atom_site_label
_atom_site_fract_x
_atom_site_fract_y
_atom_site_fract_z
Si Si1 0.741620 0.076606 0.370122
Si Si2 0.527621 0.842810 0.143514
Si Si3 0.828694 0.721311 0.952827
Si Si4 0.513379 0.880931 0.584899
Si Si5 0.976986 0.682523 0.493023
Si Si6 0.240057 0.946871 0.307204
Si Si7 0.105816 0.329328 0.932241
O O1 0.638292 0.151949 0.386187
O O2 0.893674 0.388924 0.389650
O O3 0.651441 0.020161 0.486742
O O4 0.776731 0.740148 0.219141
O O5 0.425432 0.067097 0.237462
O O6 0.471886 0.855866 0.270300
O O7 0.500000 0.500000 0.000000
O O8 0.709685 0.934494 0.078308
O O9 0.792219 0.432029 0.820156
O O10 0.816690 0.541177 0.989237
O O11 0.995330 0.966968 0.912949
O O12 0.500000 0.500000 0.500000
O O13 0.000000 0.500000 0.500000
O O14 0.139344 0.919438 0.437429
O O15 0.850202 0.871462 0.638673
O O16 0.000000 0.500000 0.000000
#
# Coordination Sequence:
#
# PCOD9016053 Si02
#       7
#     2   2   2   2   2   2   2
#     4  11  24  42  64  99 129 161 226 265 323 395
#     4  10  21  42  66  93 128 172 214 264 324 389
#     4  10  22  42  65  91 131 168 216 262 322 383
#     4  11  24  42  70  95 129 170 213 277 333 382
#     4  11  23  40  63  93 132 166 214 267 320 388
#     4  10  22  40  64  92 126 172 212 259 326 379
#     4  11  24  40  65  95 128 170 216 266 321 383
#
# _framework density 22.472455
#
# number of rings (size 3 to 8) (size 9 to 14) (size 15 to 20)
#    0.000    1.429    2.857    1.714    4.000    1.143 
#    0.000    0.000    0.000    8.571    0.000    0.000 
#    0.000    0.000    0.000    0.000    0.000    0.000 
#
# Total GULP energy -77964.467007 kJ/mol
# GULP energy per Si atom -5568.890500 kJ/mol
# Density = 2.242131 g / cm^3
# Si number density = 22.472455 Si / 1000 Ang^3
#
#
#
# Elastic Constant Matrix: (Units=GPa)
#
#
# Indices 1 2 3 4 5 6 
#
# 1 98.1813 22.6709 51.6795 -5.1590 -32.1898 -18.5958
# 2 22.6709 34.9675 16.6243 6.5166 -2.4892 -13.9270
# 3 51.6795 16.6243 141.1542 -6.4824 -12.3730 -15.5334
# 4 -5.1590 6.5166 -6.4824 14.7395 -5.6921 -11.9721
# 5 -32.1898 -2.4892 -12.3730 -5.6921 51.2104 12.3300
# 6 -18.5958 -13.9270 -15.5334 -11.9721 12.3300 29.9827
#
#
#
# Elastic Compliance Matrix: (Units=1/GPa)
#
#
# Indices 1 2 3 4 5 6 
#
# 1 0.022656 -0.012496 -0.003132 0.026839 0.012969 0.012008
# 2 -0.012496 0.043791 -0.001815 -0.023101 -0.010340 0.006679
# 3 -0.003132 -0.001815 0.009402 0.008177 -0.000183 0.005425
# 4 0.026839 -0.023101 0.008177 0.148457 0.019431 0.061439
# 5 0.012969 -0.010340 -0.000183 0.019431 0.029597 -0.001267
# 6 0.012008 0.006679 0.005425 0.061439 -0.001267 0.071767
#
#
# Mechanical properties :
#
#
# Convention : Reuss Voigt Hill
#
# Bulk Modulus (GPa) = 24.41213 50.69471 37.55342
# Shear Modulus (GPa) = 13.36148 31.40839 22.38494
#
# Velocity S-wave (km/s) = 2.44103 3.74256 3.15954
# Velocity P-wave (km/s) = 4.33953 6.42520 5.48246
#
# Compressibility (1/GPa) = 0.04096324
#
# Stress axis : x y z
#
# Youngs Moduli (GPa) = 44.13848 22.83551 106.36588
#
# Poissons Ratio (x) = 0.28534 0.33318
# Poissons Ratio (y) = 0.55153 0.19305
# Poissons Ratio (z) = 0.13826 0.04145
#
# Static dielectric constant tensor:
#      x y z
#    x 2.023100 0.080270 -0.085720 
#    y 0.080270 1.908780 -0.043100 
#    z -0.085720 -0.043100 1.966150 
# 
# From -- ./inp_files/67555.got.cif
#   From: 2010.05.17/outbox.cif.g08.bks.cpg/sg2_34_cif.got.tgz:67555.got - 2010.06.03 11:33:40.
