data_PCOD9016266
_publ_section_title
;
Structure prediction by ZEFSAII (Michael W. Deem and Ramdas Pophale) SiO2 
 PCOD9016266
Probable space group: P -1
;
_chemical_formula_sum "Si O2"
_cell_formula_units_Z 16
_cell_length_a 5.815322
_cell_length_b 18.397124
_cell_length_c 11.242573
_cell_angle_alpha 46.329914
_cell_angle_beta 63.961210
_cell_angle_gamma 55.026280
_cell_volume 711.005268
_symmetry_space_group_name_H-M "P -1"
_symmetry_group_IT_number 2
_symmetry_cell_setting 'triclinic'
loop_
_space_group_symop_operation_xyz
x,y,z
-x,-y,-z
loop_
_atom_site_type_symbol
_atom_site_label
_atom_site_fract_x
_atom_site_fract_y
_atom_site_fract_z
Si Si1 0.382007 0.402869 0.304744
Si Si2 0.749686 0.798835 0.528270
Si Si3 0.156984 0.131865 0.033461
Si Si4 0.234346 0.042427 0.859822
Si Si5 0.832293 0.098416 0.338969
Si Si6 0.333685 0.438680 0.539242
Si Si7 0.941287 0.297081 0.201871
Si Si8 0.888458 0.645581 0.122029
O O1 0.315105 0.296398 0.415278
O O2 0.472568 0.397412 0.427794
O O3 0.633487 0.395011 0.170241
O O4 0.118224 0.519513 0.213298
O O5 0.814064 0.876905 0.332758
O O6 0.489182 0.870571 0.592765
O O7 0.979537 0.736881 0.643557
O O8 0.945662 0.083660 0.194513
O O9 0.460607 0.060928 0.106354
O O10 0.230446 0.111947 0.900805
O O11 0.025554 0.262121 0.943801
O O12 0.000000 0.000000 0.000000
O O13 0.900618 0.197873 0.259475
O O14 0.000000 0.000000 0.500000
O O15 0.500000 0.500000 0.500000
O O16 0.347691 0.351280 0.736058
O O17 0.000000 0.500000 0.500000
O O18 0.158850 0.323590 0.041256
#
# Coordination Sequence:
#
# PCOD9016266 Si02
#       8
#     2   2   2   2   2   2   2   2
#     4  10  23  44  69  96 139 181 225 287 345 420
#     4  11  24  42  67 104 133 177 230 281 355 419
#     4  10  23  45  66  94 131 177 225 282 347 414
#     4  11  25  42  66  98 132 174 224 286 349 416
#     4  10  21  42  67  89 132 174 221 285 338 416
#     4  10  23  44  69  99 135 189 236 288 345 410
#     4  10  24  40  67 102 132 178 224 283 355 413
#     4  10  22  46  66 100 135 179 233 280 349 421
#
# _framework density 22.503347999999999
#
# number of rings (size 3 to 8) (size 9 to 14) (size 15 to 20)
#    0.000    1.750    1.250    1.125    5.250    5.000 
#   18.000    0.000    0.000    0.000    0.000    0.000 
#    0.000    0.000    0.000    0.000    0.000    0.000 
#
# Total GULP energy -89137.200417 kJ/mol
# GULP energy per Si atom -5571.075026 kJ/mol
# Density = 2.245213 g / cm^3
# Si number density = 22.503348 Si / 1000 Ang^3
#
#
#
# Elastic Constant Matrix: (Units=GPa)
#
#
# Indices 1 2 3 4 5 6 
#
# 1 56.1117 4.9353 24.0184 7.7338 0.2141 3.5878
# 2 4.9353 80.9204 23.0860 5.4528 -4.0192 -12.0133
# 3 24.0184 23.0860 176.9072 28.0412 -2.7247 -3.3281
# 4 7.7338 5.4528 28.0412 32.2541 0.8214 7.3764
# 5 0.2141 -4.0192 -2.7247 0.8214 24.6383 4.0860
# 6 3.5878 -12.0133 -3.3281 7.3764 4.0860 23.9662
#
#
#
# Elastic Compliance Matrix: (Units=1/GPa)
#
#
# Indices 1 2 3 4 5 6 
#
# 1 0.019320 -0.000864 -0.002284 -0.001794 0.000011 -0.003093
# 2 -0.000864 0.014138 -0.001079 -0.003063 0.000997 0.007839
# 3 -0.002284 -0.001079 0.007119 -0.006061 0.000404 0.002586
# 4 -0.001794 -0.003063 -0.006061 0.040557 -0.000089 -0.014576
# 5 0.000011 0.000997 0.000404 -0.000089 0.041885 -0.006560
# 6 -0.003093 0.007839 0.002586 -0.014576 -0.006560 0.052082
#
#
# Mechanical properties :
#
#
# Convention : Reuss Voigt Hill
#
# Bulk Modulus (GPa) = 31.13119 46.44652 38.78885
# Shear Modulus (GPa) = 25.73818 33.63168 29.68493
#
# Velocity S-wave (km/s) = 3.38560 3.87009 3.63593
# Velocity P-wave (km/s) = 5.39881 6.37611 5.90771
#
# Compressibility (1/GPa) = 0.03212213
#
# Stress axis : x y z
#
# Youngs Moduli (GPa) = 51.75936 70.73063 140.46503
#
# Poissons Ratio (x) = 0.06114 0.32081
# Poissons Ratio (y) = 0.04474 0.15161
# Poissons Ratio (z) = 0.11822 0.07634
#
# Static dielectric constant tensor:
#      x y z
#    x 1.977250 -0.063130 -0.004860 
#    y -0.063130 1.917530 0.022630 
#    z -0.004860 0.022630 1.862660 
# 
# From -- ./inp_files/70178.got.cif
#   From: 2010.05.17/outbox.cif.g08.bks.cpg/sg2_36_cif.got.tgz:70178.got - 2010.06.03 11:33:40.
