data_PCOD9016595
_publ_section_title
;
Structure prediction by ZEFSAII (Michael W. Deem and Ramdas Pophale) SiO2 
 PCOD9016595
Probable space group: P -1
;
_chemical_formula_sum "Si O2"
_cell_formula_units_Z 16
_cell_length_a 16.463853
_cell_length_b 8.825041
_cell_length_c 17.413270
_cell_angle_alpha 34.580787
_cell_angle_beta 29.779245
_cell_angle_gamma 47.137029
_cell_volume 707.873062
_symmetry_space_group_name_H-M "P -1"
_symmetry_group_IT_number 2
_symmetry_cell_setting 'triclinic'
loop_
_space_group_symop_operation_xyz
x,y,z
-x,-y,-z
loop_
_atom_site_type_symbol
_atom_site_label
_atom_site_fract_x
_atom_site_fract_y
_atom_site_fract_z
Si Si1 0.553777 0.141919 0.058666
Si Si2 0.571702 0.286491 0.415503
Si Si3 0.284518 0.256669 0.478807
Si Si4 0.678017 0.755488 0.238933
Si Si5 0.849505 0.609595 0.618873
Si Si6 0.037588 0.865877 0.105884
Si Si7 0.767433 0.639920 0.826970
Si Si8 0.572831 0.689785 0.108403
O O1 0.402493 0.315702 0.097985
O O2 0.561776 0.938430 0.209269
O O3 0.546884 0.950646 0.069548
O O4 0.720286 0.341560 0.846317
O O5 0.664754 0.462578 0.334287
O O6 0.386955 0.255999 0.615238
O O7 0.606310 0.472312 0.235819
O O8 0.621422 0.998098 0.475950
O O9 0.226676 0.215532 0.455485
O O10 0.409156 0.530997 0.269526
O O11 0.128546 0.253493 0.664312
O O12 0.862600 0.898472 0.024323
O O13 0.889326 0.742847 0.613860
O O14 0.000000 0.500000 0.500000
O O15 0.165475 0.642338 0.089342
O O16 0.000000 0.000000 0.000000
O O17 0.722160 0.750140 0.900734
#
# Coordination Sequence:
#
# PCOD9016595 Si02
#       8
#     2   2   2   2   2   2   2   2
#     4  11  23  43  70  99 128 174 222 272 325 387
#     4  10  22  40  67  98 124 169 221 274 320 393
#     4  12  23  40  64  93 133 170 217 270 325 391
#     4  10  21  42  68  95 129 167 224 270 326 394
#     4  12  24  43  66  95 131 171 219 269 329 394
#     4  12  25  41  63  94 136 177 214 268 334 387
#     4  12  23  41  68  95 127 176 220 264 326 392
#     4  11  24  41  67  98 134 166 220 276 326 388
#
# _framework density 22.602924000000002
#
# number of rings (size 3 to 8) (size 9 to 14) (size 15 to 20)
#    0.000    0.750    3.750    4.125    0.000    0.500 
#    0.000    3.750    0.000    0.000    0.000    0.000 
#    0.000    0.000    0.000    0.000    0.000    0.000 
#
# Total GULP energy -89234.924174 kJ/mol
# GULP energy per Si atom -5577.182761 kJ/mol
# Density = 2.255148 g / cm^3
# Si number density = 22.602924 Si / 1000 Ang^3
#
#
#
# Elastic Constant Matrix: (Units=GPa)
#
#
# Indices 1 2 3 4 5 6 
#
# 1 85.9629 39.9750 21.4745 2.3755 31.5093 -1.5590
# 2 39.9750 119.1201 45.1267 0.8972 -1.7492 8.4877
# 3 21.4745 45.1267 71.9577 3.3522 15.3311 8.3864
# 4 2.3755 0.8972 3.3522 36.3188 5.7326 16.6421
# 5 31.5093 -1.7492 15.3311 5.7326 46.1063 0.8046
# 6 -1.5590 8.4877 8.3864 16.6421 0.8046 25.9389
#
#
#
# Elastic Compliance Matrix: (Units=1/GPa)
#
#
# Indices 1 2 3 4 5 6 
#
# 1 0.020483 -0.007998 0.001583 -0.000983 -0.014783 0.004426
# 2 -0.007998 0.014576 -0.008233 0.001224 0.008668 -0.003642
# 3 0.001583 -0.008233 0.020870 0.001704 -0.008462 -0.004789
# 4 -0.000983 0.001224 0.001704 0.040376 -0.004401 -0.026779
# 5 -0.014783 0.008668 -0.008462 -0.004401 0.035469 0.000735
# 6 0.004426 -0.003642 -0.004789 -0.026779 0.000735 0.058716
#
#
# Mechanical properties :
#
#
# Convention : Reuss Voigt Hill
#
# Bulk Modulus (GPa) = 37.55056 54.46592 46.00824
# Shear Modulus (GPa) = 21.86617 33.03709 27.45163
#
# Velocity S-wave (km/s) = 3.11369 3.82727 3.48877
# Velocity P-wave (km/s) = 5.43838 6.60907 6.05210
#
# Compressibility (1/GPa) = 0.02663076
#
# Stress axis : x y z
#
# Youngs Moduli (GPa) = 48.82075 68.60760 47.91681
#
# Poissons Ratio (x) = 0.54876 -0.07585
# Poissons Ratio (y) = 0.39049 0.39451
# Poissons Ratio (z) = -0.07728 0.56486
#
# Static dielectric constant tensor:
#      x y z
#    x 1.953970 -0.012210 0.050840 
#    y -0.012210 1.825540 0.017670 
#    z 0.050840 0.017670 1.881660 
# 
# From -- ./inp_files/575488.got.cif
#   From: 2010.05.17/outbox.cif.g08.bks.cpg/sg2_288_cif.got.tgz:575488.got - 2010.06.03 11:33:40.
