data_PCOD9016568
_publ_section_title
;
Structure prediction by ZEFSAII (Michael W. Deem and Ramdas Pophale) SiO2 
 PCOD9016568
Probable space group: P -1
;
_chemical_formula_sum "Si O2"
_cell_formula_units_Z 16
_cell_length_a 8.003360
_cell_length_b 11.103748
_cell_length_c 10.287271
_cell_angle_alpha 77.689553
_cell_angle_beta 110.608544
_cell_angle_gamma 127.009493
_cell_volume 683.305547
_symmetry_space_group_name_H-M "P -1"
_symmetry_group_IT_number 2
_symmetry_cell_setting 'triclinic'
loop_
_space_group_symop_operation_xyz
x,y,z
-x,-y,-z
loop_
_atom_site_type_symbol
_atom_site_label
_atom_site_fract_x
_atom_site_fract_y
_atom_site_fract_z
Si Si1 0.709492 0.926171 0.515486
Si Si2 0.933757 0.387012 0.337912
Si Si3 0.597167 0.509754 0.821730
Si Si4 0.147059 0.936788 0.035251
Si Si5 0.955497 0.817663 0.741242
Si Si6 0.840028 0.601661 0.133895
Si Si7 0.384604 0.583784 0.424915
Si Si8 0.478559 0.919315 0.698971
O O1 0.913368 0.919410 0.614790
O O2 0.529377 0.753626 0.468995
O O3 0.659490 0.982488 0.620680
O O4 0.664010 0.013078 0.374398
O O5 0.937962 0.515665 0.233478
O O6 0.688423 0.257706 0.337812
O O7 0.989685 0.287388 0.291487
O O8 0.153559 0.485389 0.459817
O O9 0.720469 0.686840 0.773977
O O10 0.344430 0.425370 0.809402
O O11 0.630567 0.425716 0.734452
O O12 0.716914 0.520900 0.984546
O O13 0.021204 0.775551 0.110954
O O14 0.387313 0.042304 0.139752
O O15 0.128237 0.906731 0.882876
O O16 0.000000 0.000000 0.000000
O O17 0.500000 0.500000 0.500000
#
# Coordination Sequence:
#
# PCOD9016568 Si02
#       8
#     2   2   2   2   2   2   2   2
#     4  11  22  45  64  91 136 173 217 266 330 386
#     4  11  24  41  67  98 126 167 218 272 328 377
#     4   9  20  39  67  98 123 167 213 271 323 380
#     4  11  23  43  68  94 131 175 214 267 330 386
#     4  10  21  42  68  93 134 171 211 275 328 386
#     4  10  22  40  69  99 124 166 220 269 322 386
#     4  11  22  42  65  94 128 173 208 265 329 387
#     4  11  26  42  66  95 131 175 220 272 318 396
#
# _framework density 23.415586999999999
#
# number of rings (size 3 to 8) (size 9 to 14) (size 15 to 20)
#    0.000    1.500    3.750    1.500    3.500    7.000 
#    6.750    0.000    0.000    0.000    0.000    0.000 
#    0.000    0.000    0.000    0.000    0.000    0.000 
#
# Total GULP energy -89297.150166 kJ/mol
# GULP energy per Si atom -5581.071885 kJ/mol
# Density = 2.336229 g / cm^3
# Si number density = 23.415587 Si / 1000 Ang^3
#
#
#
# Elastic Constant Matrix: (Units=GPa)
#
#
# Indices 1 2 3 4 5 6 
#
# 1 75.5098 8.7653 19.2312 -3.7361 22.3214 -2.0819
# 2 8.7653 104.6748 47.9710 -3.3482 20.9860 -7.5948
# 3 19.2312 47.9710 109.2986 5.3484 21.9023 3.5501
# 4 -3.7361 -3.3482 5.3484 46.6063 -9.9354 6.9576
# 5 22.3214 20.9860 21.9023 -9.9354 41.1518 -3.4206
# 6 -2.0819 -7.5948 3.5501 6.9576 -3.4206 29.9403
#
#
#
# Elastic Compliance Matrix: (Units=1/GPa)
#
#
# Indices 1 2 3 4 5 6 
#
# 1 0.016021 0.001138 -0.001636 -0.000349 -0.008424 0.000715
# 2 0.001138 0.012906 -0.005163 0.000220 -0.004111 0.003444
# 3 -0.001636 -0.005163 0.012729 -0.002407 -0.004071 -0.002839
# 4 -0.000349 0.000220 -0.002407 0.023821 0.006739 -0.004449
# 5 -0.008424 -0.004111 -0.004071 0.006739 0.034866 0.001271
# 6 0.000715 0.003444 -0.002839 -0.004449 0.001271 0.035839
#
#
# Mechanical properties :
#
#
# Convention : Reuss Voigt Hill
#
# Bulk Modulus (GPa) = 32.96841 49.04645 41.00743
# Shear Modulus (GPa) = 31.72283 37.77405 34.74844
#
# Velocity S-wave (km/s) = 3.68472 4.02082 3.85644
# Velocity P-wave (km/s) = 5.67566 6.52285 6.11395
#
# Compressibility (1/GPa) = 0.03033207
#
# Stress axis : x y z
#
# Youngs Moduli (GPa) = 62.41938 77.48606 78.55975
#
# Poissons Ratio (x) = -0.08818 0.12856
# Poissons Ratio (y) = -0.07104 0.40563
# Poissons Ratio (z) = 0.10215 0.40008
#
# Static dielectric constant tensor:
#      x y z
#    x 1.972420 0.084130 -0.019400 
#    y 0.084130 1.894280 -0.005070 
#    z -0.019400 -0.005070 1.956340 
# 
# From -- ./inp_files/389822.got.cif
#   From: 2010.05.17/outbox.cif.g08.bks.cpg/sg2_195_cif.got.tgz:389822.got - 2010.06.03 11:33:40.
