data_PCOD9016759
_publ_section_title
;
Structure prediction by ZEFSAII (Michael W. Deem and Ramdas Pophale) SiO2 
 PCOD9016759
Probable space group: P -1
;
_chemical_formula_sum "Si O2"
_cell_formula_units_Z 16
_cell_length_a 8.714114
_cell_length_b 18.398990
_cell_length_c 21.614930
_cell_angle_alpha 18.623627
_cell_angle_beta 41.184121
_cell_angle_gamma 40.522403
_cell_volume 710.348549
_symmetry_space_group_name_H-M "P -1"
_symmetry_group_IT_number 2
_symmetry_cell_setting 'triclinic'
loop_
_space_group_symop_operation_xyz
x,y,z
-x,-y,-z
loop_
_atom_site_type_symbol
_atom_site_label
_atom_site_fract_x
_atom_site_fract_y
_atom_site_fract_z
Si Si1 0.571450 0.610942 0.179532
Si Si2 0.031858 0.709696 0.277107
Si Si3 0.078416 0.549390 0.248571
Si Si4 0.520991 0.040049 0.171963
Si Si5 0.979963 0.853772 0.912199
Si Si6 0.271434 0.938541 0.446305
Si Si7 0.304952 0.718769 0.403016
Si Si8 0.617472 0.956247 0.433081
O O1 0.793150 0.704944 0.063989
O O2 0.634391 0.333087 0.382372
O O3 0.306296 0.725870 0.194717
O O4 0.523551 0.705889 0.048173
O O5 0.000000 0.500000 0.500000
O O6 0.018084 0.654028 0.252055
O O7 0.800945 0.916897 0.194027
O O8 0.081769 0.731494 0.044580
O O9 0.879478 0.404046 0.407118
O O10 0.292738 0.324415 0.372510
O O11 0.350838 0.063973 0.262387
O O12 0.421309 0.879392 0.282391
O O13 0.182542 0.899431 0.765020
O O14 0.820585 0.120712 0.745379
O O15 0.413993 0.017835 0.394814
O O16 0.000000 0.000000 0.500000
O O17 0.500000 0.500000 0.500000
O O18 0.500000 0.000000 0.500000
#
# Coordination Sequence:
#
# PCOD9016759 Si02
#       8
#     2   2   2   2   2   2   2   2
#     4  11  25  48  71 109 143 189 242 300 361 440
#     4  12  23  45  72 104 150 194 235 297 367 438
#     4  11  23  44  70 101 146 186 240 297 364 434
#     4  11  24  46  72 106 148 191 242 296 366 436
#     4  10  26  45  73 106 147 189 245 296 366 434
#     4  12  28  48  77 104 143 195 244 305 370 431
#     4  10  21  42  69 105 146 191 229 295 358 433
#     4  11  27  50  72 104 144 191 248 304 369 434
#
# _framework density 22.524156000000001
#
# number of rings (size 3 to 8) (size 9 to 14) (size 15 to 20)
#    0.000    1.000    3.750    1.125    8.750    1.500 
#    6.750    0.000    0.000    0.000    0.000    0.000 
#    0.000    0.000    0.000    0.000    0.000    0.000 
#
# Total GULP energy -89294.158796 kJ/mol
# GULP energy per Si atom -5580.884925 kJ/mol
# Density = 2.247289 g / cm^3
# Si number density = 22.524156 Si / 1000 Ang^3
#
#
#
# Elastic Constant Matrix: (Units=GPa)
#
#
# Indices 1 2 3 4 5 6 
#
# 1 78.3049 26.7598 36.3002 31.5039 -10.4724 -10.2853
# 2 26.7598 67.7268 11.6329 41.3383 1.3477 -8.5085
# 3 36.3002 11.6329 126.9278 42.1729 15.7977 5.7321
# 4 31.5039 41.3383 42.1729 30.9979 4.4818 0.7715
# 5 -10.4724 1.3477 15.7977 4.4818 56.2102 6.4890
# 6 -10.2853 -8.5085 5.7321 0.7715 6.4890 35.1307
#
#
#
# Elastic Compliance Matrix: (Units=1/GPa)
#
#
# Indices 1 2 3 4 5 6 
#
# 1 0.015493 -0.018583 -0.011122 0.023502 0.004526 0.000498
# 2 -0.018583 -0.035273 -0.023221 0.098182 -0.002547 -0.011880
# 3 -0.011122 -0.023221 -0.000420 0.043621 -0.003829 -0.009062
# 4 0.023502 0.098182 0.043621 -0.182757 0.001181 0.027338
# 5 0.004526 -0.002547 -0.003829 0.001181 0.019951 -0.002378
# 6 0.000498 -0.011880 -0.009062 0.027338 -0.002378 0.027051
#
#
# Mechanical properties :
#
#
# Convention : Reuss Voigt Hill
#
# Bulk Modulus (GPa) = -7.93319 46.92724 19.49703
# Shear Modulus (GPa) = -54.27702 37.68553 -8.29575
#
# Velocity S-wave (km/s) = -4.91422 4.09481 -1.92121
# Velocity P-wave (km/s) = 5.97739 6.57541 1.93738
#
# Compressibility (1/GPa) = -0.12605275
#
# Stress axis : x y z
#
# Youngs Moduli (GPa) = 64.54721 -28.35067 -2379.31664
#
# Poissons Ratio (x) = -0.52685 -26.46307
# Poissons Ratio (y) = 1.19950 -55.24958
# Poissons Ratio (z) = 0.71790 -0.65832
#
# Static dielectric constant tensor:
#      x y z
#    x 1.820410 0.070950 0.027910 
#    y 0.070950 1.674840 -0.047220 
#    z 0.027910 -0.047220 1.844790 
# 
# From -- ./inp_files/591158.got.cif
#   From: 2010.05.17/outbox.cif.g08.bks.cpg/sg2_296_cif.got.tgz:591158.got - 2010.06.03 11:33:40.
