data_PCOD9016380
_publ_section_title
;
Structure prediction by ZEFSAII (Michael W. Deem and Ramdas Pophale) SiO2 
 PCOD9016380
Probable space group: P -1
;
_chemical_formula_sum "Si O2"
_cell_formula_units_Z 16
_cell_length_a 13.295191
_cell_length_b 20.821990
_cell_length_c 8.669025
_cell_angle_alpha 49.530726
_cell_angle_beta 129.168358
_cell_angle_gamma 156.377339
_cell_volume 726.188787
_symmetry_space_group_name_H-M "P -1"
_symmetry_group_IT_number 2
_symmetry_cell_setting 'triclinic'
loop_
_space_group_symop_operation_xyz
x,y,z
-x,-y,-z
loop_
_atom_site_type_symbol
_atom_site_label
_atom_site_fract_x
_atom_site_fract_y
_atom_site_fract_z
Si Si1 0.986066 0.438895 0.326349
Si Si2 0.438539 0.477691 0.725105
Si Si3 0.610983 0.696457 0.803831
Si Si4 0.379370 0.725040 0.038697
Si Si5 0.887474 0.724171 0.548109
Si Si6 0.266228 0.837274 0.929026
Si Si7 0.952740 0.580155 0.271825
Si Si8 0.077233 0.055794 0.808899
O O1 0.062925 0.559448 0.325744
O O2 0.201155 0.558086 0.217335
O O3 0.958629 0.355655 0.566228
O O4 0.737337 0.323904 0.167928
O O5 0.553580 0.621786 0.700631
O O6 0.660692 0.570542 0.682684
O O7 0.197029 0.358664 0.569758
O O8 0.363830 0.365895 0.952444
O O9 0.349137 0.595739 0.748649
O O10 0.852907 0.890493 0.747356
O O11 0.660874 0.847081 0.116468
O O12 0.343626 0.793804 0.985946
O O13 0.891962 0.827893 0.376471
O O14 0.148933 0.834095 0.693583
O O15 0.047741 0.704399 0.053971
O O16 0.500000 0.000000 0.000000
O O17 0.000000 0.000000 0.000000
#
# Coordination Sequence:
#
# PCOD9016380 Si02
#       8
#     2   2   2   2   2   2   2   2
#     4   9  21  40  69 102 129 183 232 293 342 423
#     4  10  24  42  70  99 137 189 235 285 348 432
#     4  11  23  42  71 100 141 183 237 290 350 425
#     4  10  24  43  73 100 139 181 242 281 354 423
#     4  11  25  46  71 101 141 187 237 292 360 413
#     4  11  26  46  69 101 144 187 232 296 350 424
#     4  10  21  42  67  95 140 183 233 285 353 419
#     4  12  26  44  72 110 144 180 235 311 354 411
#
# _framework density 22.03284
#
# number of rings (size 3 to 8) (size 9 to 14) (size 15 to 20)
#    0.000    1.500    2.500    0.750    5.250    6.500 
#    0.000    1.250    0.000    0.000    0.000    0.000 
#    0.000    0.000    0.000    0.000    0.000    0.000 
#
# Total GULP energy -89371.375308 kJ/mol
# GULP energy per Si atom -5585.710957 kJ/mol
# Density = 2.198269 g / cm^3
# Si number density = 22.032840 Si / 1000 Ang^3
#
#
#
# Elastic Constant Matrix: (Units=GPa)
#
#
# Indices 1 2 3 4 5 6 
#
# 1 94.4378 39.7883 55.6134 18.2949 -4.6428 -0.3565
# 2 39.7883 125.5202 62.9386 34.9325 6.3338 -3.1618
# 3 55.6134 62.9386 142.1038 32.7150 -6.7129 -5.9705
# 4 18.2949 34.9325 32.7150 34.1464 -1.9560 -1.2810
# 5 -4.6428 6.3338 -6.7129 -1.9560 30.9358 9.0958
# 6 -0.3565 -3.1618 -5.9705 -1.2810 9.0958 44.1719
#
#
#
# Elastic Compliance Matrix: (Units=1/GPa)
#
#
# Indices 1 2 3 4 5 6 
#
# 1 0.014387 -0.002149 -0.004338 -0.001285 0.001885 -0.001050
# 2 -0.002149 0.013037 -0.002879 -0.009645 -0.004576 0.001189
# 3 -0.004338 -0.002879 0.011399 -0.005518 0.001839 0.000761
# 4 -0.001285 -0.009645 -0.005518 0.045307 0.003713 -0.000897
# 5 0.001885 -0.004576 0.001839 0.003713 0.036368 -0.007445
# 6 -0.001050 0.001189 0.000761 -0.000897 -0.007445 0.024325
#
#
# Mechanical properties :
#
#
# Convention : Reuss Voigt Hill
#
# Bulk Modulus (GPa) = 49.77391 75.41582 62.59487
# Shear Modulus (GPa) = 29.36864 35.43226 32.40045
#
# Velocity S-wave (km/s) = 3.65492 4.01453 3.83894
# Velocity P-wave (km/s) = 6.36011 7.46939 6.93696
#
# Compressibility (1/GPa) = 0.02009085
#
# Stress axis : x y z
#
# Youngs Moduli (GPa) = 69.50950 76.70743 87.72807
#
# Poissons Ratio (x) = 0.16488 0.38052
# Poissons Ratio (y) = 0.14941 0.25253
# Poissons Ratio (z) = 0.30150 0.22081
#
# Static dielectric constant tensor:
#      x y z
#    x 1.899370 0.027290 0.116490 
#    y 0.027290 1.806940 0.056880 
#    z 0.116490 0.056880 2.143550 
# 
# From -- ./inp_files/320281.got.cif
#   From: 2010.05.17/outbox.cif.g08.bks.cpg/sg2_161_cif.got.tgz:320281.got - 2010.06.03 11:33:40.
