data_PCOD9016392
_publ_section_title
;
Structure prediction by ZEFSAII (Michael W. Deem and Ramdas Pophale) SiO2 
 PCOD9016392
Probable space group: P -1
;
_chemical_formula_sum "Si O2"
_cell_formula_units_Z 12
_cell_length_a 11.742303
_cell_length_b 12.271220
_cell_length_c 12.785592
_cell_angle_alpha 26.991329
_cell_angle_beta 33.781350
_cell_angle_gamma 36.514416
_cell_volume 450.158469
_symmetry_space_group_name_H-M "P -1"
_symmetry_group_IT_number 2
_symmetry_cell_setting 'triclinic'
loop_
_space_group_symop_operation_xyz
x,y,z
-x,-y,-z
loop_
_atom_site_type_symbol
_atom_site_label
_atom_site_fract_x
_atom_site_fract_y
_atom_site_fract_z
Si Si1 0.952219 0.020257 0.695046
Si Si2 0.813368 0.317549 0.355752
Si Si3 0.441240 0.600749 0.075178
Si Si4 0.609573 0.807517 0.201220
Si Si5 0.956268 0.846440 0.263731
Si Si6 0.577126 0.835774 0.425392
O O1 0.052409 0.758877 0.785147
O O2 0.953179 0.221876 0.433233
O O3 0.060965 0.052769 0.692271
O O4 0.709173 0.028599 0.901893
O O5 0.683027 0.592786 0.243613
O O6 0.637744 0.156687 0.623868
O O7 0.187696 0.652163 0.251338
O O8 0.543613 0.375762 0.269331
O O9 0.500000 0.500000 0.000000
O O10 0.498334 0.870586 0.800887
O O11 0.702019 0.730096 0.313206
O O12 0.723878 0.831328 0.418912
O O13 0.000000 0.000000 0.000000
#
# Coordination Sequence:
#
# PCOD9016392 Si02
#       6
#     2   2   2   2   2   2
#     4  11  21  45  66  93 138 170 232 279 346 407
#     4  10  25  39  68  99 124 186 224 283 340 408
#     4  11  23  40  64  97 137 178 224 276 340 415
#     4  11  22  43  67  95 138 167 234 281 341 406
#     4  10  21  42  67  96 135 180 222 280 350 412
#     4  11  24  44  69 100 140 181 222 288 352 413
#
# _framework density 26.65728
#
# number of rings (size 3 to 8) (size 9 to 14) (size 15 to 20)
#    0.000    1.333    3.333    3.000    0.000    4.000 
#    0.000    1.667    0.000    0.000    0.000    0.000 
#    0.000    0.000    0.000    0.000    0.000    0.000 
#
# Total GULP energy -66911.832878 kJ/mol
# GULP energy per Si atom -5575.986073 kJ/mol
# Density = 2.659661 g / cm^3
# Si number density = 26.657280 Si / 1000 Ang^3
#
#
#
# Elastic Constant Matrix: (Units=GPa)
#
#
# Indices 1 2 3 4 5 6 
#
# 1 126.6361 29.8930 26.8779 6.9506 14.1378 21.7712
# 2 29.8930 130.4341 30.8365 2.8797 9.0625 16.6489
# 3 26.8779 30.8365 139.6045 -9.9561 17.1901 -0.2425
# 4 6.9506 2.8797 -9.9561 52.9759 -0.3267 1.8655
# 5 14.1378 9.0625 17.1901 -0.3267 34.0509 13.8810
# 6 21.7712 16.6489 -0.2425 1.8655 13.8810 49.1693
#
#
#
# Elastic Compliance Matrix: (Units=1/GPa)
#
#
# Indices 1 2 3 4 5 6 
#
# 1 0.009288 -0.001246 -0.001427 -0.001315 -0.001503 -0.003223
# 2 -0.001246 0.008674 -0.001725 -0.000548 0.000047 -0.002386
# 3 -0.001427 -0.001725 0.008462 0.001762 -0.004169 0.002368
# 4 -0.001315 -0.000548 0.001762 0.019408 -0.000032 0.000049
# 5 -0.001503 0.000047 -0.004169 -0.000032 0.035966 -0.009524
# 6 -0.003223 -0.002386 0.002368 0.000049 -0.009524 0.025272
#
#
# Mechanical properties :
#
#
# Convention : Reuss Voigt Hill
#
# Bulk Modulus (GPa) = 56.73312 63.54327 60.13820
# Shear Modulus (GPa) = 41.07083 47.84371 44.45727
#
# Velocity S-wave (km/s) = 3.92943 4.24107 4.08822
# Velocity P-wave (km/s) = 6.47425 6.91889 6.70026
#
# Compressibility (1/GPa) = 0.01762639
#
# Stress axis : x y z
#
# Youngs Moduli (GPa) = 107.66749 115.29351 118.17572
#
# Poissons Ratio (x) = 0.14369 0.16866
# Poissons Ratio (y) = 0.13419 0.20385
# Poissons Ratio (z) = 0.15367 0.19887
#
# Static dielectric constant tensor:
#      x y z
#    x 2.079160 -0.056860 -0.242180 
#    y -0.056860 2.156700 -0.086190 
#    z -0.242180 -0.086190 1.795460 
# 
# From -- ./inp_files/412530.got.cif
#   From: 2010.05.17/outbox.cif.g08.bks.cpg/sg2_207_cif.got.tgz:412530.got - 2010.06.03 11:33:40.
