data_PCOD9016374
_publ_section_title
;
Structure prediction by ZEFSAII (Michael W. Deem and Ramdas Pophale) SiO2 
 PCOD9016374
Probable space group: P -1
;
_chemical_formula_sum "Si O2"
_cell_formula_units_Z 14
_cell_length_a 20.589933
_cell_length_b 5.340888
_cell_length_c 7.623903
_cell_angle_alpha 100.305144
_cell_angle_beta 41.297115
_cell_angle_gamma 93.247938
_cell_volume 540.465228
_symmetry_space_group_name_H-M "P -1"
_symmetry_group_IT_number 2
_symmetry_cell_setting 'triclinic'
loop_
_space_group_symop_operation_xyz
x,y,z
-x,-y,-z
loop_
_atom_site_type_symbol
_atom_site_label
_atom_site_fract_x
_atom_site_fract_y
_atom_site_fract_z
Si Si1 0.599069 0.865263 0.370995
Si Si2 0.889401 0.119567 0.172873
Si Si3 0.863568 0.322126 0.588156
Si Si4 0.312773 0.661356 0.804858
Si Si5 0.026287 0.198811 0.616753
Si Si6 0.687761 0.930753 0.583311
Si Si7 0.618622 0.456904 0.752138
O O1 0.612018 0.560536 0.283253
O O2 0.618520 0.900360 0.546346
O O3 0.500000 0.000000 0.500000
O O4 0.677533 0.039893 0.152589
O O5 0.843636 0.342884 0.423255
O O6 0.803419 0.935656 0.297800
O O7 0.925822 0.244416 0.938675
O O8 0.000000 0.000000 0.000000
O O9 0.940828 0.531632 0.470260
O O10 0.887456 0.007130 0.499329
O O11 0.788206 0.389510 0.905175
O O12 0.331811 0.612933 0.551236
O O13 0.000000 0.000000 0.500000
O O14 0.662029 0.716231 0.741781
O O15 0.649830 0.207911 0.772200
O O16 0.500000 0.500000 0.000000
#
# Coordination Sequence:
#
# PCOD9016374 Si02
#       7
#     2   2   2   2   2   2   2
#     4  10  21  42  67  95 134 176 228 292 345 406
#     4  10  25  48  71 103 147 189 233 287 353 429
#     4  11  24  45  65 103 141 186 227 290 350 418
#     4  10  22  40  69  95 136 173 231 279 355 409
#     4  11  25  41  74 100 140 181 237 287 352 412
#     4  10  23  42  71  98 134 182 236 282 352 418
#     4  10  22  42  67  96 136 178 233 295 348 409
#
# _framework density 25.903611000000001
#
# number of rings (size 3 to 8) (size 9 to 14) (size 15 to 20)
#    0.000    1.714    0.000    2.571    8.000    4.571 
#   15.429    0.000    0.000    0.000    0.000    0.000 
#    0.000    0.000    0.000    0.000    0.000    0.000 
#
# Total GULP energy -77959.678588 kJ/mol
# GULP energy per Si atom -5568.548471 kJ/mol
# Density = 2.584465 g / cm^3
# Si number density = 25.903611 Si / 1000 Ang^3
#
#
#
# Elastic Constant Matrix: (Units=GPa)
#
#
# Indices 1 2 3 4 5 6 
#
# 1 70.5315 7.1177 3.8738 12.6719 2.1319 11.1606
# 2 7.1177 160.6190 12.6870 -20.4817 -2.8299 -8.9911
# 3 3.8738 12.6870 67.3568 -0.2281 34.1275 33.5890
# 4 12.6719 -20.4817 -0.2281 37.2814 -3.9311 -16.6042
# 5 2.1319 -2.8299 34.1275 -3.9311 22.7242 -2.1779
# 6 11.1606 -8.9911 33.5890 -16.6042 -2.1779 32.0756
#
#
#
# Elastic Compliance Matrix: (Units=1/GPa)
#
#
# Indices 1 2 3 4 5 6 
#
# 1 0.014062 0.000180 -0.008293 -0.001958 0.011162 0.003586
# 2 0.000180 0.005367 0.005438 -0.000075 -0.007992 -0.004834
# 3 -0.008293 0.005438 -0.009463 0.019557 0.021533 0.025905
# 4 -0.001958 -0.000075 0.019557 0.019611 -0.026905 -0.011494
# 5 0.011162 -0.007992 0.021533 -0.026905 0.000893 -0.042540
# 6 0.003586 -0.004834 0.025905 -0.011494 -0.042540 -0.007392
#
#
# Mechanical properties :
#
#
# Convention : Reuss Voigt Hill
#
# Bulk Modulus (GPa) = 216.58903 38.42936 127.50920
# Shear Modulus (GPa) = 166.84602 36.73815 101.79209
#
# Velocity S-wave (km/s) = 8.03431 3.77007 6.27549
# Velocity P-wave (km/s) = 13.03311 5.81541 10.09160
#
# Compressibility (1/GPa) = 0.00461704
#
# Stress axis : x y z
#
# Youngs Moduli (GPa) = 71.11138 186.30737 -105.67190
#
# Poissons Ratio (x) = -0.03345 -0.87630
# Poissons Ratio (y) = -0.01277 0.57467
# Poissons Ratio (z) = 0.58970 -1.01319
#
# Static dielectric constant tensor:
#      x y z
#    x 2.376570 -0.071920 0.084090 
#    y -0.071920 2.153390 -0.020660 
#    z 0.084090 -0.020660 2.090230 
# 
# From -- ./inp_files/142399.got.cif
#   From: 2010.05.17/outbox.cif.g08.bks.cpg/sg2_72_cif.got.tgz:142399.got - 2010.06.03 11:33:40.
