data_PCOD9016576
_publ_section_title
;
Structure prediction by ZEFSAII (Michael W. Deem and Ramdas Pophale) SiO2 
 PCOD9016576
Probable space group: P -1
;
_chemical_formula_sum "Si O2"
_cell_formula_units_Z 16
_cell_length_a 14.818180
_cell_length_b 7.984105
_cell_length_c 15.592396
_cell_angle_alpha 124.254148
_cell_angle_beta 150.102204
_cell_angle_gamma 73.844818
_cell_volume 654.193222
_symmetry_space_group_name_H-M "P -1"
_symmetry_group_IT_number 2
_symmetry_cell_setting 'triclinic'
loop_
_space_group_symop_operation_xyz
x,y,z
-x,-y,-z
loop_
_atom_site_type_symbol
_atom_site_label
_atom_site_fract_x
_atom_site_fract_y
_atom_site_fract_z
Si Si1 0.318530 0.803623 0.412027
Si Si2 0.684829 0.544001 0.229741
Si Si3 0.908872 0.800172 0.759078
Si Si4 0.060984 0.797444 0.505568
Si Si5 0.775027 0.156730 0.831030
Si Si6 0.618626 0.849860 0.002290
Si Si7 0.019163 0.971482 0.286441
Si Si8 0.332423 0.702686 0.579768
O O1 0.543162 0.034104 0.644075
O O2 0.363354 0.694460 0.501150
O O3 0.230684 0.697602 0.214364
O O4 0.146019 0.854472 0.322775
O O5 0.558961 0.351789 0.143335
O O6 0.815042 0.799142 0.456696
O O7 0.870686 0.566812 0.327073
O O8 0.500000 0.500000 0.000000
O O9 0.818330 0.953174 0.771174
O O10 0.035060 0.934896 0.817802
O O11 0.716334 0.550759 0.501292
O O12 0.046703 0.739987 0.919836
O O13 0.146411 0.740823 0.473820
O O14 0.000000 0.000000 0.500000
O O15 0.251506 0.920137 0.765827
O O16 0.527469 0.888786 0.850563
O O17 0.804893 0.804959 0.112069
#
# Coordination Sequence:
#
# PCOD9016576 Si02
#       8
#     2   2   2   2   2   2   2   2
#     4  10  22  40  65  93 127 171 207 264 327 390
#     4  11  22  38  65  92 127 177 214 258 315 375
#     4  10  21  42  68  94 128 168 215 271 322 386
#     4  11  24  44  62  92 139 172 210 267 318 371
#     4   9  21  44  65  91 130 171 204 271 344 371
#     4  11  23  42  64  93 132 175 211 265 314 368
#     4  10  22  43  66  93 135 171 216 261 317 379
#     4  12  24  40  65  99 125 168 226 259 312 391
#
# _framework density 24.457605999999998
#
# number of rings (size 3 to 8) (size 9 to 14) (size 15 to 20)
#    0.000    1.500    2.500    2.625    0.000    2.500 
#    2.250    0.000    0.000    0.000    0.000    0.000 
#    0.000    0.000    0.000    0.000    0.000    0.000 
#
# Total GULP energy -89275.454220 kJ/mol
# GULP energy per Si atom -5579.715889 kJ/mol
# Density = 2.440194 g / cm^3
# Si number density = 24.457606 Si / 1000 Ang^3
#
#
#
# Elastic Constant Matrix: (Units=GPa)
#
#
# Indices 1 2 3 4 5 6 
#
# 1 91.2995 30.0409 37.8125 9.9757 11.7677 32.7385
# 2 30.0409 54.4012 33.9670 -5.9103 3.4527 28.5055
# 3 37.8125 33.9670 112.8948 -6.9831 4.2554 23.8880
# 4 9.9757 -5.9103 -6.9831 34.6252 22.9681 -3.5388
# 5 11.7677 3.4527 4.2554 22.9681 47.4180 0.7425
# 6 32.7385 28.5055 23.8880 -3.5388 0.7425 47.8404
#
#
#
# Elastic Compliance Matrix: (Units=1/GPa)
#
#
# Indices 1 2 3 4 5 6 
#
# 1 0.017447 -0.003873 -0.003313 -0.007109 -0.000174 -0.008501
# 2 -0.003873 0.031361 -0.004801 0.006807 -0.003984 -0.013073
# 3 -0.003313 -0.004801 0.011789 0.003512 -0.001580 -0.000475
# 4 -0.007109 0.006807 0.003512 0.047883 -0.022286 0.002943
# 5 -0.000174 -0.003984 -0.001580 -0.022286 0.032341 0.001131
# 6 -0.008501 -0.013073 -0.000475 0.002943 0.001131 0.034947
#
#
# Mechanical properties :
#
#
# Convention : Reuss Voigt Hill
#
# Bulk Modulus (GPa) = 27.30508 51.35961 39.33234
# Shear Modulus (GPa) = 23.59061 36.42840 30.00951
#
# Velocity S-wave (km/s) = 3.10909 3.86353 3.50666
# Velocity P-wave (km/s) = 4.90684 6.39902 5.70195
#
# Compressibility (1/GPa) = 0.03662322
#
# Stress axis : x y z
#
# Youngs Moduli (GPa) = 57.31761 31.88685 84.82434
#
# Poissons Ratio (x) = 0.12350 0.28100
# Poissons Ratio (y) = 0.22199 0.40724
# Poissons Ratio (z) = 0.18988 0.15309
#
# Static dielectric constant tensor:
#      x y z
#    x 1.980200 0.032860 -0.042570 
#    y 0.032860 2.028470 -0.075840 
#    z -0.042570 -0.075840 1.980390 
# 
# From -- ./inp_files/530035.got.cif
#   From: 2010.05.17/outbox.cif.g08.bks.cpg/sg2_266_cif.got.tgz:530035.got - 2010.06.03 11:33:40.
