data_PCOD9016081
_publ_section_title
;
Structure prediction by ZEFSAII (Michael W. Deem and Ramdas Pophale) SiO2 
 PCOD9016081
Probable space group: P -1
;
_chemical_formula_sum "Si O2"
_cell_formula_units_Z 16
_cell_length_a 14.471680
_cell_length_b 8.621709
_cell_length_c 13.288844
_cell_angle_alpha 86.349149
_cell_angle_beta 30.213074
_cell_angle_gamma 105.034094
_cell_volume 649.274225
_symmetry_space_group_name_H-M "P -1"
_symmetry_group_IT_number 2
_symmetry_cell_setting 'triclinic'
loop_
_space_group_symop_operation_xyz
x,y,z
-x,-y,-z
loop_
_atom_site_type_symbol
_atom_site_label
_atom_site_fract_x
_atom_site_fract_y
_atom_site_fract_z
Si Si1 0.935340 0.156139 0.360261
Si Si2 0.329399 0.548379 0.033297
Si Si3 0.030651 0.700161 0.293766
Si Si4 0.569194 0.485400 0.635967
Si Si5 0.818045 0.818061 0.608607
Si Si6 0.454855 0.076183 0.815274
Si Si7 0.162313 0.390776 0.924380
Si Si8 0.280458 0.824408 0.783550
O O1 0.148884 0.313194 0.226944
O O2 0.864691 0.942125 0.454626
O O3 0.702142 0.129744 0.605962
O O4 0.023669 0.259608 0.162551
O O5 0.156591 0.601674 0.178876
O O6 0.469447 0.565970 0.800670
O O7 0.544165 0.695812 0.898836
O O8 0.851808 0.625576 0.370708
O O9 0.865134 0.662723 0.543532
O O10 0.249804 0.932012 0.091480
O O11 0.409105 0.428883 0.691322
O O12 0.490967 0.275522 0.756748
O O13 0.000000 0.000000 0.500000
O O14 0.351195 0.934936 0.819443
O O15 0.237241 0.613828 0.840954
O O16 0.967967 0.253339 0.027803
O O17 0.500000 0.000000 0.500000
#
# Coordination Sequence:
#
# PCOD9016081 Si02
#       8
#     2   2   2   2   2   2   2   2
#     4  11  21  41  70  95 134 178 226 273 331 404
#     4  10  21  42  66  94 133 172 216 281 330 392
#     4  11  22  41  70  97 130 178 224 270 339 404
#     4  10  23  38  64  97 128 172 231 271 323 399
#     4  11  26  45  70 105 136 172 223 279 337 407
#     4  12  22  38  68 100 129 186 229 269 338 399
#     4  10  23  42  64  98 137 180 222 283 336 388
#     4  11  24  40  68 100 138 178 227 285 339 391
#
# _framework density 24.642897999999999
#
# number of rings (size 3 to 8) (size 9 to 14) (size 15 to 20)
#    0.000    1.250    3.750    3.000    1.750    2.500 
#    0.000    1.875    0.000    0.000    0.000    0.000 
#    0.000    0.000    0.000    0.000    0.000    0.000 
#
# Total GULP energy -89266.140448 kJ/mol
# GULP energy per Si atom -5579.133778 kJ/mol
# Density = 2.458681 g / cm^3
# Si number density = 24.642898 Si / 1000 Ang^3
#
#
#
# Elastic Constant Matrix: (Units=GPa)
#
#
# Indices 1 2 3 4 5 6 
#
# 1 52.5191 9.5305 48.7973 -6.0789 -31.5213 7.2922
# 2 9.5305 101.9170 44.5241 -9.9578 -13.9116 -14.0346
# 3 48.7973 44.5241 161.3762 -19.1212 -49.8992 -4.2696
# 4 -6.0789 -9.9578 -19.1212 54.7277 -3.1341 -10.5282
# 5 -31.5213 -13.9116 -49.8992 -3.1341 69.4686 -7.2566
# 6 7.2922 -14.0346 -4.2696 -10.5282 -7.2566 32.2669
#
#
#
# Elastic Compliance Matrix: (Units=1/GPa)
#
#
# Indices 1 2 3 4 5 6 
#
# 1 0.031679 0.000622 -0.007102 0.000568 0.008832 -0.005657
# 2 0.000622 0.012192 -0.002576 0.002644 0.001625 0.006050
# 3 -0.007102 -0.002576 0.011110 0.003722 0.004855 0.004261
# 4 0.000568 0.002644 0.003722 0.022367 0.005520 0.010054
# 5 0.008832 0.001625 0.004855 0.005520 0.023128 0.006355
# 6 -0.005657 0.006050 0.004261 0.010054 0.006355 0.040175
#
#
# Mechanical properties :
#
#
# Convention : Reuss Voigt Hill
#
# Bulk Modulus (GPa) = 27.12320 57.94621 42.53470
# Shear Modulus (GPa) = 29.23084 45.49002 37.36043
#
# Velocity S-wave (km/s) = 3.44783 4.30113 3.89790
# Velocity P-wave (km/s) = 5.18463 6.94491 6.12830
#
# Compressibility (1/GPa) = 0.03686881
#
# Stress axis : x y z
#
# Youngs Moduli (GPa) = 31.56704 82.01795 90.00967
#
# Poissons Ratio (x) = -0.05106 0.63926
# Poissons Ratio (y) = -0.01965 0.23190
# Poissons Ratio (z) = 0.22419 0.21131
#
# Static dielectric constant tensor:
#      x y z
#    x 2.142730 0.026990 0.034120 
#    y 0.026990 1.942010 0.025090 
#    z 0.034120 0.025090 2.008700 
# 
# From -- ./inp_files/529616.got.cif
#   From: 2010.05.17/outbox.cif.g08.bks.cpg/sg2_265_cif.got.tgz:529616.got - 2010.06.03 11:33:40.
