data_PCOD9016444
_publ_section_title
;
Structure prediction by ZEFSAII (Michael W. Deem and Ramdas Pophale) SiO2 
 PCOD9016444
Probable space group: P -1
;
_chemical_formula_sum "Si O2"
_cell_formula_units_Z 16
_cell_length_a 24.770153
_cell_length_b 6.022300
_cell_length_c 11.740951
_cell_angle_alpha 111.056071
_cell_angle_beta 150.761894
_cell_angle_gamma 55.261751
_cell_volume 660.172657
_symmetry_space_group_name_H-M "P -1"
_symmetry_group_IT_number 2
_symmetry_cell_setting 'triclinic'
loop_
_space_group_symop_operation_xyz
x,y,z
-x,-y,-z
loop_
_atom_site_type_symbol
_atom_site_label
_atom_site_fract_x
_atom_site_fract_y
_atom_site_fract_z
Si Si1 0.922566 0.832900 0.018299
Si Si2 0.289082 0.343371 0.386894
Si Si3 0.270234 0.519253 0.137410
Si Si4 0.175122 0.966066 0.367721
Si Si5 0.691795 0.424170 0.038468
Si Si6 0.882122 0.763848 0.259836
Si Si7 0.445233 0.901441 0.780916
Si Si8 0.109509 0.468383 0.463113
O O1 0.822494 0.731527 0.843748
O O2 0.849287 0.156036 0.991341
O O3 0.921269 0.876136 0.888268
O O4 0.073423 0.606171 0.296635
O O5 0.336231 0.389207 0.358819
O O6 0.224516 0.638413 0.391905
O O7 0.408928 0.091841 0.635464
O O8 0.332073 0.542231 0.136440
O O9 0.216693 0.326483 0.969585
O O10 0.309495 0.950826 0.584162
O O11 0.117067 0.173366 0.409063
O O12 0.767082 0.571739 0.249543
O O13 0.795367 0.090572 0.199020
O O14 0.555413 0.577628 0.885372
O O15 0.000000 0.500000 0.500000
O O16 0.973403 0.729617 0.316482
O O17 0.500000 0.000000 0.000000
#
# Coordination Sequence:
#
# PCOD9016444 Si02
#       8
#     2   2   2   2   2   2   2   2
#     4  10  21  42  67  98 138 170 218 277 334 395
#     4  10  23  44  69  95 134 176 224 273 327 396
#     4  11  21  43  66  98 138 170 221 271 334 392
#     4  10  24  43  67  98 131 178 220 276 327 389
#     4  12  25  42  69  99 136 181 215 274 334 388
#     4  12  24  40  65 104 136 172 220 267 336 404
#     4  11  25  48  67  95 135 176 227 272 326 392
#     4  12  21  41  66  99 138 172 215 273 339 392
#
# _framework density 24.236086
#
# number of rings (size 3 to 8) (size 9 to 14) (size 15 to 20)
#    0.000    1.000    5.000    1.500    0.000    3.500 
#    4.500    8.750    0.000    0.000    0.000    0.000 
#    0.000    0.000    0.000    0.000    0.000    0.000 
#
# Total GULP energy -89406.733201 kJ/mol
# GULP energy per Si atom -5587.920825 kJ/mol
# Density = 2.418092 g / cm^3
# Si number density = 24.236086 Si / 1000 Ang^3
#
#
#
# Elastic Constant Matrix: (Units=GPa)
#
#
# Indices 1 2 3 4 5 6 
#
# 1 72.4949 21.6477 29.4080 -13.6164 -12.5792 -11.4187
# 2 21.6477 123.3338 16.4491 1.5840 -11.4835 -21.4517
# 3 29.4080 16.4491 79.1934 -4.5859 -17.0524 -7.8999
# 4 -13.6164 1.5840 -4.5859 35.3601 -0.8872 3.4365
# 5 -12.5792 -11.4835 -17.0524 -0.8872 29.4388 -3.3849
# 6 -11.4187 -21.4517 -7.8999 3.4365 -3.3849 35.5456
#
#
#
# Elastic Compliance Matrix: (Units=1/GPa)
#
#
# Indices 1 2 3 4 5 6 
#
# 1 0.018992 -0.001589 -0.004794 0.006513 0.005370 0.003958
# 2 -0.001589 0.009790 -0.000156 -0.001548 0.003676 0.005863
# 3 -0.004794 -0.000156 0.016381 0.000214 0.007698 0.002719
# 4 0.006513 -0.001548 0.000214 0.031109 0.003067 -0.001510
# 5 0.005370 0.003676 0.007698 0.003067 0.043340 0.009485
# 6 0.003958 0.005863 0.002719 -0.001510 0.009485 0.034596
#
#
# Mechanical properties :
#
#
# Convention : Reuss Voigt Hill
#
# Bulk Modulus (GPa) = 31.16908 45.55907 38.36408
# Shear Modulus (GPa) = 28.09269 33.90338 30.99804
#
# Velocity S-wave (km/s) = 3.40829 3.74422 3.58020
# Velocity P-wave (km/s) = 5.32702 6.12626 5.74056
#
# Compressibility (1/GPa) = 0.03208308
#
# Stress axis : x y z
#
# Youngs Moduli (GPa) = 52.65400 102.14717 61.04499
#
# Poissons Ratio (x) = 0.16235 0.29266
# Poissons Ratio (y) = 0.08369 0.00955
# Poissons Ratio (z) = 0.25243 0.01598
#
# Static dielectric constant tensor:
#      x y z
#    x 2.279380 -0.021280 -0.231880 
#    y -0.021280 1.914570 0.039540 
#    z -0.231880 0.039540 2.042900 
# 
# From -- ./inp_files/428697.got.cif
#   From: 2010.05.17/outbox.cif.g08.bks.cpg/sg2_215_cif.got.tgz:428697.got - 2010.06.03 11:33:40.
