data_PCOD9016725
_publ_section_title
;
Structure prediction by ZEFSAII (Michael W. Deem and Ramdas Pophale) SiO2 
 PCOD9016725
Probable space group: P -1
;
_chemical_formula_sum "Si O2"
_cell_formula_units_Z 14
_cell_length_a 11.258011
_cell_length_b 13.170278
_cell_length_c 10.053304
_cell_angle_alpha 35.693897
_cell_angle_beta 95.462212
_cell_angle_gamma 68.451035
_cell_volume 557.064015
_symmetry_space_group_name_H-M "P -1"
_symmetry_group_IT_number 2
_symmetry_cell_setting 'triclinic'
loop_
_space_group_symop_operation_xyz
x,y,z
-x,-y,-z
loop_
_atom_site_type_symbol
_atom_site_label
_atom_site_fract_x
_atom_site_fract_y
_atom_site_fract_z
Si Si1 0.398067 0.360590 0.183414
Si Si2 0.197908 0.759108 0.523831
Si Si3 0.214527 0.715508 0.289238
Si Si4 0.280707 0.135724 0.416940
Si Si5 0.222276 0.103451 0.161069
Si Si6 0.719669 0.755326 0.253606
Si Si7 0.848313 0.910299 0.295893
O O1 0.275994 0.339292 0.248627
O O2 0.506842 0.154804 0.286392
O O3 0.564513 0.205506 0.467416
O O4 0.290462 0.635870 0.810166
O O5 0.312262 0.617008 0.549183
O O6 0.110955 0.048780 0.199521
O O7 0.051047 0.766802 0.488877
O O8 0.229508 0.503528 0.465972
O O9 0.265726 0.810115 0.090668
O O10 0.000000 0.000000 0.000000
O O11 0.180014 0.238980 0.153624
O O12 0.215802 0.071742 0.584761
O O13 0.230605 0.216215 0.914872
O O14 0.824371 0.764102 0.359502
O O15 0.500000 0.000000 0.000000
#
# Coordination Sequence:
#
# PCOD9016725 Si02
#       7
#     2   2   2   2   2   2   2
#     4   9  20  40  65  94 134 183 238 276 360 414
#     4  11  22  41  69  99 140 190 234 295 356 424
#     4  10  25  47  68 105 146 189 233 290 366 428
#     4   9  21  41  66  94 142 178 237 294 350 416
#     4  10  21  42  69 101 140 188 237 291 362 429
#     4  12  26  45  77 109 140 189 243 301 357 421
#     4  11  25  46  66 109 144 180 245 299 351 427
#
# _framework density 25.131758999999999
#
# number of rings (size 3 to 8) (size 9 to 14) (size 15 to 20)
#    0.857    0.857    1.429    2.143    2.000    5.143 
#    7.714    0.000    0.000    0.000    0.000    0.000 
#    0.000    0.000    0.000    0.000    0.000    0.000 
#
# Total GULP energy -78204.087723 kJ/mol
# GULP energy per Si atom -5586.006266 kJ/mol
# Density = 2.507456 g / cm^3
# Si number density = 25.131759 Si / 1000 Ang^3
#
#
#
# Elastic Constant Matrix: (Units=GPa)
#
#
# Indices 1 2 3 4 5 6 
#
# 1 107.9062 59.1119 32.3913 -6.1373 -28.6600 -1.1137
# 2 59.1119 87.1718 39.8167 21.3811 -18.7779 -0.6380
# 3 32.3913 39.8167 99.7315 -0.3518 -22.7720 -5.8173
# 4 -6.1373 21.3811 -0.3518 44.2951 3.6106 -14.8689
# 5 -28.6600 -18.7779 -22.7720 3.6106 52.9287 7.5899
# 6 -1.1137 -0.6380 -5.8173 -14.8689 7.5899 56.5793
#
#
#
# Elastic Compliance Matrix: (Units=1/GPa)
#
#
# Indices 1 2 3 4 5 6 
#
# 1 0.018804 -0.014723 0.000933 0.010171 0.004323 0.002393
# 2 -0.014723 0.029453 -0.007027 -0.018353 0.001524 -0.005708
# 3 0.000933 -0.007027 0.013392 0.004016 0.003222 0.001939
# 4 0.010171 -0.018353 0.004016 0.036661 -0.003280 0.010481
# 5 0.004323 0.001524 0.003222 -0.003280 0.023907 -0.003635
# 6 0.002393 -0.005708 0.001939 0.010481 -0.003635 0.021098
#
#
# Mechanical properties :
#
#
# Convention : Reuss Voigt Hill
#
# Bulk Modulus (GPa) = 49.95909 61.93883 55.94896
# Shear Modulus (GPa) = 26.09318 41.65993 33.87656
#
# Velocity S-wave (km/s) = 3.22569 4.07585 3.67544
# Velocity P-wave (km/s) = 5.81339 6.84465 6.34999
#
# Compressibility (1/GPa) = 0.02001638
#
# Stress axis : x y z
#
# Youngs Moduli (GPa) = 53.17975 33.95213 74.67096
#
# Poissons Ratio (x) = 0.49989 -0.06970
# Poissons Ratio (y) = 0.78299 0.52468
# Poissons Ratio (z) = -0.04964 0.23857
#
# Static dielectric constant tensor:
#      x y z
#    x 2.022870 0.020500 0.072520 
#    y 0.020500 2.007520 0.024510 
#    z 0.072520 0.024510 2.104650 
# 
# From -- ./inp_files/430764.got.cif
#   From: 2010.05.17/outbox.cif.g08.bks.cpg/sg2_216_cif.got.tgz:430764.got - 2010.06.03 11:33:40.
