data_PCOD9016727
_publ_section_title
;
Structure prediction by ZEFSAII (Michael W. Deem and Ramdas Pophale) SiO2 
 PCOD9016727
Probable space group: P -1
;
_chemical_formula_sum "Si O2"
_cell_formula_units_Z 12
_cell_length_a 17.511840
_cell_length_b 14.789329
_cell_length_c 9.752832
_cell_angle_alpha 48.474408
_cell_angle_beta 35.739091
_cell_angle_gamma 22.056456
_cell_volume 505.997233
_symmetry_space_group_name_H-M "P -1"
_symmetry_group_IT_number 2
_symmetry_cell_setting 'triclinic'
loop_
_space_group_symop_operation_xyz
x,y,z
-x,-y,-z
loop_
_atom_site_type_symbol
_atom_site_label
_atom_site_fract_x
_atom_site_fract_y
_atom_site_fract_z
Si Si1 0.440262 0.132054 0.322254
Si Si2 0.242512 0.030688 0.213128
Si Si3 0.893406 0.735276 0.565848
Si Si4 0.620929 0.500640 0.219778
Si Si5 0.847447 0.999461 0.189445
Si Si6 0.378226 0.556530 0.264785
O O1 0.291996 0.181081 0.362784
O O2 0.209183 0.421781 0.411398
O O3 0.500000 0.000000 0.500000
O O4 0.706582 0.972175 0.015130
O O5 0.209739 0.171284 0.221633
O O6 0.957289 0.185757 0.490305
O O7 0.506964 0.728837 0.177762
O O8 0.882744 0.881318 0.382486
O O9 0.500000 0.500000 0.500000
O O10 0.488073 0.564014 0.206255
O O11 0.963321 0.212424 0.995248
O O12 0.525289 0.304686 0.328353
O O13 0.000000 0.000000 0.000000
O O14 0.500000 0.500000 0.000000
#
# Coordination Sequence:
#
# PCOD9016727 Si02
#       6
#     2   2   2   2   2   2
#     4  11  28  50  75 102 144 196 253 307 353 429
#     4  12  24  45  74 106 144 189 248 299 363 437
#     4  11  25  50  72 105 146 189 247 306 364 429
#     4  11  22  41  65 105 144 190 235 288 369 441
#     4  10  21  42  69 101 146 186 227 295 368 427
#     4  11  24  40  69 108 149 189 234 294 363 442
#
# _framework density 23.715544000000001
#
# number of rings (size 3 to 8) (size 9 to 14) (size 15 to 20)
#    0.000    1.000    1.667    6.000    2.333    2.000 
#    6.000    0.000    0.000    0.000    0.000    0.000 
#    0.000    0.000    0.000    0.000    0.000    0.000 
#
# Total GULP energy -67145.678786 kJ/mol
# GULP energy per Si atom -5595.473232 kJ/mol
# Density = 2.366157 g / cm^3
# Si number density = 23.715544 Si / 1000 Ang^3
#
#
#
# Elastic Constant Matrix: (Units=GPa)
#
#
# Indices 1 2 3 4 5 6 
#
# 1 102.8459 8.6239 16.4834 5.3481 24.9292 10.1664
# 2 8.6239 131.8693 36.9665 1.8167 23.7071 20.3273
# 3 16.4834 36.9665 129.7608 -6.5037 37.0611 2.4898
# 4 5.3481 1.8167 -6.5037 44.9801 -0.9656 12.3871
# 5 24.9292 23.7071 37.0611 -0.9656 44.7147 2.0087
# 6 10.1664 20.3273 2.4898 12.3871 2.0087 23.8607
#
#
#
# Elastic Compliance Matrix: (Units=1/GPa)
#
#
# Indices 1 2 3 4 5 6 
#
# 1 0.011896 0.001314 0.000316 -0.000042 -0.007341 -0.005581
# 2 0.001314 0.010174 -0.001542 0.001763 -0.004379 -0.009614
# 3 0.000316 -0.001542 0.010457 0.001348 -0.007999 0.000061
# 4 -0.000042 0.001763 0.001348 0.026573 -0.000765 -0.015356
# 5 -0.007341 -0.004379 -0.007999 -0.000765 0.035161 0.005130
# 6 -0.005581 -0.009614 0.000061 -0.015356 0.005130 0.060011
#
#
# Mechanical properties :
#
#
# Convention : Reuss Voigt Hill
#
# Bulk Modulus (GPa) = 30.57790 54.29150 42.43470
# Shear Modulus (GPa) = 30.30357 42.87125 36.58741
#
# Velocity S-wave (km/s) = 3.57850 4.25635 3.93206
# Velocity P-wave (km/s) = 5.47685 6.86279 6.20861
#
# Compressibility (1/GPa) = 0.03270336
#
# Stress axis : x y z
#
# Youngs Moduli (GPa) = 84.06393 98.28574 95.63300
#
# Poissons Ratio (x) = -0.12915 -0.03024
# Poissons Ratio (y) = -0.11046 0.14746
# Poissons Ratio (z) = -0.02658 0.15155
#
# Static dielectric constant tensor:
#      x y z
#    x 1.963420 -0.000290 -0.013280 
#    y -0.000290 1.905850 0.028840 
#    z -0.013280 0.028840 1.933770 
# 
# From -- ./inp_files/335662.got.cif
#   From: 2010.05.17/outbox.cif.g08.bks.cpg/sg2_168_cif.got.tgz:335662.got - 2010.06.03 11:33:40.
