data_PCOD9016074
_publ_section_title
;
Structure prediction by ZEFSAII (Michael W. Deem and Ramdas Pophale) SiO2 
 PCOD9016074
Probable space group: P -1
;
_chemical_formula_sum "Si O2"
_cell_formula_units_Z 16
_cell_length_a 12.612922
_cell_length_b 10.130295
_cell_length_c 18.861454
_cell_angle_alpha 87.029589
_cell_angle_beta 125.125890
_cell_angle_gamma 140.709950
_cell_volume 811.600084
_symmetry_space_group_name_H-M "P -1"
_symmetry_group_IT_number 2
_symmetry_cell_setting 'triclinic'
loop_
_space_group_symop_operation_xyz
x,y,z
-x,-y,-z
loop_
_atom_site_type_symbol
_atom_site_label
_atom_site_fract_x
_atom_site_fract_y
_atom_site_fract_z
Si Si1 0.951345 0.805921 0.332909
Si Si2 0.634505 0.248312 0.003907
Si Si3 0.789066 0.669853 0.110162
Si Si4 0.752682 0.209109 0.530666
Si Si5 0.263247 0.917065 0.725523
Si Si6 0.130593 0.204466 0.478342
Si Si7 0.419491 0.253375 0.253632
Si Si8 0.631550 0.103236 0.752761
O O1 0.918036 0.792664 0.236525
O O2 0.617220 0.502239 0.257311
O O3 0.097017 0.796920 0.404935
O O4 0.173915 0.129993 0.439114
O O5 0.654744 0.398924 0.053517
O O6 0.995343 0.548816 0.118862
O O7 0.500000 0.000000 0.000000
O O8 0.416074 0.070061 0.856986
O O9 0.500000 0.500000 0.000000
O O10 0.054603 0.941355 0.143420
O O11 0.010367 0.563581 0.629985
O O12 0.500000 0.000000 0.500000
O O13 0.567548 0.050316 0.390006
O O14 0.107820 0.909066 0.641360
O O15 0.534261 0.120913 0.771703
O O16 0.408484 0.545096 0.612488
O O17 0.000000 0.000000 0.500000
O O18 0.449464 0.124579 0.254755
#
# Coordination Sequence:
#
# PCOD9016074 Si02
#       8
#     2   2   2   2   2   2   2   2
#     4  11  23  42  67  95 132 170 218 274 328 390
#     4  11  25  44  61  96 135 164 221 277 326 393
#     4  11  25  46  64  89 131 177 221 261 333 401
#     4  12  23  40  69 101 129 171 221 268 334 398
#     4  12  22  41  69  95 131 174 216 273 329 391
#     4  10  22  40  64 101 131 161 225 274 321 392
#     4  10  21  42  66  94 129 170 214 275 322 392
#     4  11  21  40  67  95 129 172 214 263 336 391
#
# _framework density 19.714143
#
# number of rings (size 3 to 8) (size 9 to 14) (size 15 to 20)
#    0.000    1.000    2.500    6.000    0.000    1.000 
#    9.000    0.000    0.000    0.000    0.000    0.000 
#    0.000    0.000    0.000    0.000    0.000    0.000 
#
# Total GULP energy -89301.897837 kJ/mol
# GULP energy per Si atom -5581.368615 kJ/mol
# Density = 1.966927 g / cm^3
# Si number density = 19.714143 Si / 1000 Ang^3
#
#
#
# Elastic Constant Matrix: (Units=GPa)
#
#
# Indices 1 2 3 4 5 6 
#
# 1 105.9587 26.4213 18.8147 0.9215 5.7165 -8.9142
# 2 26.4213 75.4346 15.2472 0.3536 21.7984 -12.1605
# 3 18.8147 15.2472 80.7289 -4.2933 0.0736 -8.9612
# 4 0.9215 0.3536 -4.2933 31.9985 -6.6092 -2.3419
# 5 5.7165 21.7984 0.0736 -6.6092 53.7130 -5.6238
# 6 -8.9142 -12.1605 -8.9612 -2.3419 -5.6238 33.3982
#
#
#
# Elastic Compliance Matrix: (Units=1/GPa)
#
#
# Indices 1 2 3 4 5 6 
#
# 1 0.010651 -0.003259 -0.001752 -0.000361 0.000273 0.001207
# 2 -0.003259 0.017303 -0.002174 -0.001458 -0.006469 0.003655
# 3 -0.001752 -0.002174 0.013652 0.002456 0.001651 0.002854
# 4 -0.000361 -0.001458 0.002456 0.032874 0.005005 0.003180
# 5 0.000273 -0.006469 0.001651 0.005005 0.022060 0.002226
# 6 0.001207 0.003655 0.002854 0.003180 0.002226 0.032958
#
#
# Mechanical properties :
#
#
# Convention : Reuss Voigt Hill
#
# Bulk Modulus (GPa) = 36.71784 42.56539 39.64162
# Shear Modulus (GPa) = 32.69063 37.26455 34.97759
#
# Velocity S-wave (km/s) = 4.07656 4.35241 4.21674
# Velocity P-wave (km/s) = 6.38931 6.84808 6.62267
#
# Compressibility (1/GPa) = 0.02723472
#
# Stress axis : x y z
#
# Youngs Moduli (GPa) = 93.88413 57.79358 73.24882
#
# Poissons Ratio (x) = 0.18837 0.12836
# Poissons Ratio (y) = 0.30600 0.15926
# Poissons Ratio (z) = 0.16452 0.12566
#
# Static dielectric constant tensor:
#      x y z
#    x 1.699980 0.029770 -0.005260 
#    y 0.029770 1.711450 0.025100 
#    z -0.005260 0.025100 1.647810 
# 
# From -- ./inp_files/188566.got.cif
#   From: 2010.05.17/outbox.cif.g08.bks.cpg/sg2_95_cif.got.tgz:188566.got - 2010.06.03 11:33:40.
