data_PCOD9016308
_publ_section_title
;
Structure prediction by ZEFSAII (Michael W. Deem and Ramdas Pophale) SiO2 
 PCOD9016308
Probable space group: P -1
;
_chemical_formula_sum "Si O2"
_cell_formula_units_Z 15
_cell_length_a 12.541827
_cell_length_b 10.779575
_cell_length_c 11.579965
_cell_angle_alpha 105.451912
_cell_angle_beta 144.588546
_cell_angle_gamma 101.861523
_cell_volume 571.493536
_symmetry_space_group_name_H-M "P -1"
_symmetry_group_IT_number 2
_symmetry_cell_setting 'triclinic'
loop_
_space_group_symop_operation_xyz
x,y,z
-x,-y,-z
loop_
_atom_site_type_symbol
_atom_site_label
_atom_site_fract_x
_atom_site_fract_y
_atom_site_fract_z
Si Si1 0.636212 0.268741 0.226458
Si Si2 0.210389 0.225661 0.221437
Si Si3 0.755614 0.589806 0.911562
Si Si4 0.259377 0.831937 0.152977
Si Si5 0.019684 0.002289 0.658271
Si Si6 0.641547 0.562101 0.265483
Si Si7 0.000000 0.500000 0.000000
Si Si8 0.618886 0.015345 0.289155
O O1 0.759603 0.477944 0.365329
O O2 0.751147 0.211393 0.391278
O O3 0.546389 0.153604 0.997981
O O4 0.344964 0.150581 0.003473
O O5 0.522180 0.377259 0.582424
O O6 0.248018 0.283234 0.136839
O O7 0.035654 0.247117 0.130697
O O8 0.000000 0.000000 0.000000
O O9 0.604984 0.535378 0.885290
O O10 0.031667 0.657763 0.134824
O O11 0.144643 0.634185 0.042542
O O12 0.402050 0.921753 0.177182
O O13 0.500000 0.000000 0.500000
O O14 0.862124 0.795419 0.519232
O O15 0.861740 0.050464 0.562655
O O16 0.000000 0.000000 0.500000
O O17 0.500000 0.500000 0.000000
#
# Coordination Sequence:
#
# PCOD9016308 Si02
#       8
#     2   2   2   2   2   2   1   2
#     4  10  24  45  66 100 139 180 233 280 356 412
#     4  10  23  45  67  96 132 176 225 286 343 402
#     4  10  24  41  70 101 136 175 232 282 342 418
#     4  11  24  42  66  98 129 174 229 281 355 404
#     4  10  21  42  67  92 135 182 223 278 346 407
#     4  12  23  41  70 107 137 186 230 284 353 428
#     4  10  22  44  64  98 134 174 226 280 334 418
#     4  10  22  44  69  97 137 177 230 291 330 433
#
# _framework density 26.247018000000001
#
# number of rings (size 3 to 8) (size 9 to 14) (size 15 to 20)
#    0.000    1.600    2.667    1.600    3.733    2.133 
#    0.000    7.333    0.000    0.000    0.000    0.000 
#    0.000    0.000    0.000    0.000    0.000    0.000 
#
# Total GULP energy -83660.616532 kJ/mol
# GULP energy per Si atom -5577.374435 kJ/mol
# Density = 2.618728 g / cm^3
# Si number density = 26.247018 Si / 1000 Ang^3
#
#
#
# Elastic Constant Matrix: (Units=GPa)
#
#
# Indices 1 2 3 4 5 6 
#
# 1 148.9943 25.7451 -15.1286 -10.8983 -14.1272 26.1339
# 2 25.7451 219.7606 32.1671 17.2530 2.3967 3.9145
# 3 -15.1286 32.1671 49.0342 2.3355 10.1751 8.6867
# 4 -10.8983 17.2530 2.3355 41.4686 9.4676 14.3784
# 5 -14.1272 2.3967 10.1751 9.4676 28.8356 1.3340
# 6 26.1339 3.9145 8.6867 14.3784 1.3340 47.9827
#
#
#
# Elastic Compliance Matrix: (Units=1/GPa)
#
#
# Indices 1 2 3 4 5 6 
#
# 1 0.009469 -0.002156 0.005083 0.005347 0.001618 -0.007549
# 2 -0.002156 0.005791 -0.005062 -0.003977 0.001426 0.002771
# 3 0.005083 -0.005062 0.028488 0.007168 -0.009060 -0.009409
# 4 0.005347 -0.003977 0.007168 0.033831 -0.010051 -0.013744
# 5 0.001618 0.001426 -0.009060 -0.010051 0.041735 0.002494
# 6 -0.007549 0.002771 -0.009409 -0.013744 0.002494 0.030479
#
#
# Mechanical properties :
#
#
# Convention : Reuss Voigt Hill
#
# Bulk Modulus (GPa) = 25.33037 55.92849 40.62943
# Shear Modulus (GPa) = 29.90007 48.65776 39.27892
#
# Velocity S-wave (km/s) = 3.37884 4.31029 3.87267
# Velocity P-wave (km/s) = 4.98936 6.79163 5.95903
#
# Compressibility (1/GPa) = 0.03947830
#
# Stress axis : x y z
#
# Youngs Moduli (GPa) = 105.60706 172.67375 35.10223
#
# Poissons Ratio (x) = 0.37234 -0.17842
# Poissons Ratio (y) = 0.22772 0.17768
# Poissons Ratio (z) = -0.53679 0.87403
#
# Static dielectric constant tensor:
#      x y z
#    x 2.254810 -0.357960 -0.055850 
#    y -0.357960 2.544800 -0.064010 
#    z -0.055850 -0.064010 2.257190 
# 
# From -- ./inp_files/428612.got.cif
#   From: 2010.05.17/outbox.cif.g08.bks.cpg/sg2_215_cif.got.tgz:428612.got - 2010.06.03 11:33:40.
