data_PCOD9016344
_publ_section_title
;
Structure prediction by ZEFSAII (Michael W. Deem and Ramdas Pophale) SiO2 
 PCOD9016344
Probable space group: P -1
;
_chemical_formula_sum "Si O2"
_cell_formula_units_Z 16
_cell_length_a 12.178490
_cell_length_b 9.332288
_cell_length_c 18.831036
_cell_angle_alpha 149.672816
_cell_angle_beta 133.082511
_cell_angle_gamma 57.834686
_cell_volume 779.733169
_symmetry_space_group_name_H-M "P -1"
_symmetry_group_IT_number 2
_symmetry_cell_setting 'triclinic'
loop_
_space_group_symop_operation_xyz
x,y,z
-x,-y,-z
loop_
_atom_site_type_symbol
_atom_site_label
_atom_site_fract_x
_atom_site_fract_y
_atom_site_fract_z
Si Si1 0.785822 0.692841 0.593728
Si Si2 0.504260 0.663438 0.362447
Si Si3 0.855196 0.161017 0.499705
Si Si4 0.613059 0.792321 0.990934
Si Si5 0.615452 0.797442 0.689377
Si Si6 0.204274 0.452730 0.234372
Si Si7 0.415801 0.189099 0.846531
Si Si8 0.945925 0.791333 0.072919
O O1 0.666151 0.595652 0.435617
O O2 0.836791 0.425636 0.547950
O O3 0.679621 0.870139 0.671102
O O4 0.931094 0.925758 0.738110
O O5 0.363312 0.538287 0.298492
O O6 0.500000 0.000000 0.500000
O O7 0.464281 0.516714 0.205823
O O8 0.830234 0.281391 0.619334
O O9 0.728097 0.908752 0.307988
O O10 0.000000 0.000000 0.500000
O O11 0.620532 0.826931 0.093368
O O12 0.784288 0.839593 0.055541
O O13 0.500000 0.000000 0.000000
O O14 0.500000 0.500000 0.500000
O O15 0.764918 0.766625 0.785722
O O16 0.528746 0.983297 0.780529
O O17 0.083110 0.292116 0.058057
O O18 0.500000 0.500000 0.000000
O O19 0.000000 0.500000 0.000000
#
# Coordination Sequence:
#
# PCOD9016344 Si02
#       8
#     2   2   2   2   2   2   2   2
#     4  11  22  44  74 102 133 187 238 284 352 414
#     4  11  22  41  73  97 129 182 237 276 342 431
#     4  11  25  42  65  97 144 183 224 288 351 420
#     4  11  26  46  68 100 142 182 228 293 357 419
#     4  11  20  42  77  93 131 178 234 285 341 423
#     4  10  21  42  67  94 130 178 233 278 340 420
#     4  12  26  42  69 106 138 174 233 299 351 409
#     4  11  26  44  69 103 142 180 233 297 347 425
#
# _framework density 20.519839999999999
#
# number of rings (size 3 to 8) (size 9 to 14) (size 15 to 20)
#    0.000    1.000    3.750    3.750    7.000    4.000 
#    0.000    1.250    0.000    0.000    0.000    0.000 
#    0.000    0.000    0.000    0.000    0.000    0.000 
#
# Total GULP energy -89191.540230 kJ/mol
# GULP energy per Si atom -5574.471264 kJ/mol
# Density = 2.047314 g / cm^3
# Si number density = 20.519840 Si / 1000 Ang^3
#
#
#
# Elastic Constant Matrix: (Units=GPa)
#
#
# Indices 1 2 3 4 5 6 
#
# 1 108.1010 23.5458 51.2985 -6.5631 -13.9012 -21.3776
# 2 23.5458 45.4301 5.9162 3.5003 -2.4935 -27.4166
# 3 51.2985 5.9162 113.7575 4.3309 -10.3506 -15.5967
# 4 -6.5631 3.5003 4.3309 36.8564 5.8843 0.3541
# 5 -13.9012 -2.4935 -10.3506 5.8843 46.1633 -0.7242
# 6 -21.3776 -27.4166 -15.5967 0.3541 -0.7242 29.7707
#
#
#
# Elastic Compliance Matrix: (Units=1/GPa)
#
#
# Indices 1 2 3 4 5 6 
#
# 1 0.014029 -0.005316 -0.005661 0.003282 0.002285 0.002228
# 2 -0.005316 0.056024 0.007366 -0.008424 0.004964 0.051857
# 3 -0.005661 0.007366 0.012581 -0.003615 0.002122 0.009404
# 4 0.003282 -0.008424 -0.003615 0.029684 -0.004183 -0.007750
# 5 0.002285 0.004964 0.002122 -0.004183 0.023752 0.007951
# 6 0.002228 0.051857 0.009404 -0.007750 0.007951 0.088158
#
#
# Mechanical properties :
#
#
# Convention : Reuss Voigt Hill
#
# Bulk Modulus (GPa) = 13.26084 47.64553 30.45319
# Shear Modulus (GPa) = 19.48647 34.99327 27.23987
#
# Velocity S-wave (km/s) = 3.08497 4.13405 3.64743
# Velocity P-wave (km/s) = 4.37788 6.78652 5.71063
#
# Compressibility (1/GPa) = 0.07540998
#
# Stress axis : x y z
#
# Youngs Moduli (GPa) = 71.28165 17.84938 79.48796
#
# Poissons Ratio (x) = 0.09490 0.45001
# Poissons Ratio (y) = 0.37896 -0.58550
# Poissons Ratio (z) = 0.40355 -0.13148
#
# Static dielectric constant tensor:
#      x y z
#    x 2.459440 0.117140 -0.755270 
#    y 0.117140 1.838910 -0.189300 
#    z -0.755270 -0.189300 2.655520 
# 
# From -- ./inp_files/567137.got.cif
#   From: 2010.05.17/outbox.cif.g08.bks.cpg/sg2_284_cif.got.tgz:567137.got - 2010.06.03 11:33:40.
