data_PCOD9016347
_publ_section_title
;
Structure prediction by ZEFSAII (Michael W. Deem and Ramdas Pophale) SiO2 
 PCOD9016347
Probable space group: P -1
;
_chemical_formula_sum "Si O2"
_cell_formula_units_Z 12
_cell_length_a 8.058094
_cell_length_b 16.487344
_cell_length_c 6.648737
_cell_angle_alpha 67.652721
_cell_angle_beta 38.085470
_cell_angle_gamma 67.479702
_cell_volume 498.488647
_symmetry_space_group_name_H-M "P -1"
_symmetry_group_IT_number 2
_symmetry_cell_setting 'triclinic'
loop_
_space_group_symop_operation_xyz
x,y,z
-x,-y,-z
loop_
_atom_site_type_symbol
_atom_site_label
_atom_site_fract_x
_atom_site_fract_y
_atom_site_fract_z
Si Si1 0.337066 0.737858 0.416609
Si Si2 0.290480 0.269361 0.582296
Si Si3 0.479125 0.906806 0.714955
Si Si4 0.996015 0.909871 0.469791
Si Si5 0.286144 0.660327 0.119673
Si Si6 0.781662 0.445498 0.347964
O O1 0.615310 0.735532 0.272354
O O2 0.375557 0.721768 0.157257
O O3 0.198596 0.651363 0.680528
O O4 0.138647 0.828813 0.545409
O O5 0.425515 0.174933 0.448365
O O6 0.982452 0.292323 0.780316
O O7 0.455637 0.345846 0.264460
O O8 0.694984 0.897934 0.701004
O O9 0.500000 0.000000 0.500000
O O10 0.180632 0.910447 0.092224
O O11 0.000000 0.000000 0.500000
O O12 0.217950 0.576521 0.392661
O O13 0.500000 0.500000 0.500000
O O14 0.000000 0.500000 0.000000
#
# Coordination Sequence:
#
# PCOD9016347 Si02
#       6
#     2   2   2   2   2   2
#     4  10  25  43  72  94 135 175 217 270 334 389
#     4  12  22  44  66  98 126 180 216 267 335 387
#     4  12  23  41  64  95 134 170 225 282 318 391
#     4  12  25  44  64  97 135 177 220 273 330 394
#     4  10  24  42  67  92 138 162 219 270 323 388
#     4  10  21  42  67  94 131 172 211 271 328 384
#
# _framework density 24.072766000000001
#
# number of rings (size 3 to 8) (size 9 to 14) (size 15 to 20)
#    1.000    0.000    3.333    3.000    0.000    6.667 
#    0.000    5.000    0.000    0.000    0.000    0.000 
#    0.000    0.000    0.000    0.000    0.000    0.000 
#
# Total GULP energy -67108.006530 kJ/mol
# GULP energy per Si atom -5592.333878 kJ/mol
# Density = 2.401798 g / cm^3
# Si number density = 24.072766 Si / 1000 Ang^3
#
#
#
# Elastic Constant Matrix: (Units=GPa)
#
#
# Indices 1 2 3 4 5 6 
#
# 1 158.5325 26.8273 23.0701 7.2239 -24.3940 -21.2536
# 2 26.8273 138.9304 23.3014 -17.0092 1.7982 -24.0364
# 3 23.0701 23.3014 92.0242 -7.8843 -14.9637 -10.5988
# 4 7.2239 -17.0092 -7.8843 35.9767 -7.9536 -1.9226
# 5 -24.3940 1.7982 -14.9637 -7.9536 29.7023 1.5808
# 6 -21.2536 -24.0364 -10.5988 -1.9226 1.5808 36.3953
#
#
#
# Elastic Compliance Matrix: (Units=1/GPa)
#
#
# Indices 1 2 3 4 5 6 
#
# 1 0.007977 -0.001010 -0.000403 -0.000640 0.006047 0.003577
# 2 -0.001010 0.009053 -0.001254 0.004236 -0.001158 0.005298
# 3 -0.000403 -0.001254 0.013137 0.004129 0.007327 0.002662
# 4 -0.000640 0.004236 0.004129 0.033296 0.009951 0.004953
# 5 0.006047 -0.001158 0.007327 0.009951 0.044875 0.003477
# 6 0.003577 0.005298 0.002662 0.004953 0.003477 0.033949
#
#
# Mechanical properties :
#
#
# Convention : Reuss Voigt Hill
#
# Bulk Modulus (GPa) = 40.27180 59.54276 49.90728
# Shear Modulus (GPa) = 32.07157 41.50073 36.78615
#
# Velocity S-wave (km/s) = 3.65400 4.15658 3.91336
# Velocity P-wave (km/s) = 5.87943 6.91552 6.41842
#
# Compressibility (1/GPa) = 0.02483127
#
# Stress axis : x y z
#
# Youngs Moduli (GPa) = 125.36385 110.45511 76.11990
#
# Poissons Ratio (x) = 0.11160 0.03071
# Poissons Ratio (y) = 0.12667 0.09548
# Poissons Ratio (z) = 0.05057 0.13854
#
# Static dielectric constant tensor:
#      x y z
#    x 1.924210 0.017860 0.076990 
#    y 0.017860 1.927100 -0.033950 
#    z 0.076990 -0.033950 1.922070 
# 
# From -- ./inp_files/210074.got.cif
#   From: 2010.05.17/outbox.cif.g08.bks.cpg/sg2_106_cif.got.tgz:210074.got - 2010.06.03 11:33:40.
