data_PCOD9016768
_publ_section_title
;
Structure prediction by ZEFSAII (Michael W. Deem and Ramdas Pophale) SiO2 
 PCOD9016768
Probable space group: P -1
;
_chemical_formula_sum "Si O2"
_cell_formula_units_Z 16
_cell_length_a 10.339584
_cell_length_b 13.140163
_cell_length_c 13.638571
_cell_angle_alpha 126.088423
_cell_angle_beta 29.558090
_cell_angle_gamma 135.097114
_cell_volume 643.307152
_symmetry_space_group_name_H-M "P -1"
_symmetry_group_IT_number 2
_symmetry_cell_setting 'triclinic'
loop_
_space_group_symop_operation_xyz
x,y,z
-x,-y,-z
loop_
_atom_site_type_symbol
_atom_site_label
_atom_site_fract_x
_atom_site_fract_y
_atom_site_fract_z
Si Si1 0.776537 0.380400 0.388193
Si Si2 0.799769 0.145334 0.492699
Si Si3 0.718538 0.024184 0.686181
Si Si4 0.701301 0.601041 0.143732
Si Si5 0.750745 0.846112 0.119006
Si Si6 0.911761 0.673737 0.420757
Si Si7 0.348732 0.724786 0.794366
Si Si8 0.734932 0.678987 0.856065
O O1 0.527810 0.387140 0.623897
O O2 0.893079 0.524431 0.326448
O O3 0.637415 0.265655 0.328376
O O4 0.030283 0.366024 0.274282
O O5 0.495043 0.132442 0.646138
O O6 0.976139 0.294382 0.522623
O O7 0.050831 0.175505 0.265171
O O8 0.694342 0.034383 0.589372
O O9 0.461796 0.893095 0.841016
O O10 0.000000 0.000000 0.500000
O O11 0.843269 0.191476 0.727637
O O12 0.833785 0.748425 0.075694
O O13 0.510209 0.458306 0.121361
O O14 0.011394 0.620850 0.993956
O O15 0.607451 0.738576 0.059024
O O16 0.000000 0.000000 0.000000
O O17 0.597892 0.677670 0.630010
#
# Coordination Sequence:
#
# PCOD9016768 Si02
#       8
#     2   2   2   2   2   2   2   2
#     4  12  23  41  64  92 129 166 211 257 315 369
#     4  10  21  42  69  88 128 161 212 246 314 375
#     4   8  18  40  67  84 120 170 201 247 315 364
#     4  12  24  40  62  94 129 166 208 257 312 376
#     4  12  26  41  65  98 125 162 212 262 313 374
#     4   9  21  41  67  88 123 174 209 254 311 375
#     4  11  23  40  65  93 128 164 211 263 311 360
#     4  12  25  42  66  91 129 170 205 257 321 371
#
# _framework density 24.871478
#
# number of rings (size 3 to 8) (size 9 to 14) (size 15 to 20)
#    0.750    0.500    3.750    2.625    1.750    2.000 
#    0.000    0.000    0.000    3.000    0.000    0.000 
#    0.000    0.000    0.000    0.000    0.000    0.000 
#
# Total GULP energy -89177.273792 kJ/mol
# GULP energy per Si atom -5573.579612 kJ/mol
# Density = 2.481487 g / cm^3
# Si number density = 24.871478 Si / 1000 Ang^3
#
#
#
# Elastic Constant Matrix: (Units=GPa)
#
#
# Indices 1 2 3 4 5 6 
#
# 1 41.1333 13.4701 19.2024 -13.4346 -23.8583 -11.0925
# 2 13.4701 122.7065 12.9962 -20.4832 -7.4176 -16.9631
# 3 19.2024 12.9962 115.2692 -9.7076 -10.9444 9.3228
# 4 -13.4346 -20.4832 -9.7076 24.3565 11.1213 1.6070
# 5 -23.8583 -7.4176 -10.9444 11.1213 28.6020 -1.9782
# 6 -11.0925 -16.9631 9.3228 1.6070 -1.9782 31.0926
#
#
#
# Elastic Compliance Matrix: (Units=1/GPa)
#
#
# Indices 1 2 3 4 5 6 
#
# 1 0.072228 0.002761 -0.008791 0.011125 0.055549 0.032869
# 2 0.002761 0.010450 -0.001303 0.008600 0.001637 0.006737
# 3 -0.008791 -0.001303 0.010521 0.000763 -0.004448 -0.007324
# 4 0.011125 0.008600 0.000763 0.059439 -0.010987 0.004661
# 5 0.055549 0.001637 -0.004448 -0.010987 0.086236 0.028098
# 6 0.032869 0.006737 -0.007324 0.004661 0.028098 0.051307
#
#
# Mechanical properties :
#
#
# Convention : Reuss Voigt Hill
#
# Bulk Modulus (GPa) = 12.73351 41.16074 26.94712
# Shear Modulus (GPa) = 15.10461 32.37291 23.73876
#
# Velocity S-wave (km/s) = 2.46703 3.61169 3.09278
# Velocity P-wave (km/s) = 3.63948 5.82904 4.85920
#
# Compressibility (1/GPa) = 0.07853295
#
# Stress axis : x y z
#
# Youngs Moduli (GPa) = 13.84506 95.69065 95.04778
#
# Poissons Ratio (x) = -0.26422 0.83556
# Poissons Ratio (y) = -0.03823 0.12389
# Poissons Ratio (z) = 0.12171 0.12473
#
# Static dielectric constant tensor:
#      x y z
#    x 2.719420 -0.317040 -0.216680 
#    y -0.317040 2.165350 0.036300 
#    z -0.216680 0.036300 1.998760 
# 
# From -- ./inp_files/522409.got.cif
#   From: 2010.05.17/outbox.cif.g08.bks.cpg/sg2_262_cif.got.tgz:522409.got - 2010.06.03 11:33:40.
