data_PCOD9016511
_publ_section_title
;
Structure prediction by ZEFSAII (Michael W. Deem and Ramdas Pophale) SiO2 
 PCOD9016511
Probable space group: P -1
;
_chemical_formula_sum "Si O2"
_cell_formula_units_Z 16
_cell_length_a 11.106750
_cell_length_b 15.769952
_cell_length_c 7.936528
_cell_angle_alpha 131.861738
_cell_angle_beta 139.340261
_cell_angle_gamma 49.313047
_cell_volume 643.440240
_symmetry_space_group_name_H-M "P -1"
_symmetry_group_IT_number 2
_symmetry_cell_setting 'triclinic'
loop_
_space_group_symop_operation_xyz
x,y,z
-x,-y,-z
loop_
_atom_site_type_symbol
_atom_site_label
_atom_site_fract_x
_atom_site_fract_y
_atom_site_fract_z
Si Si1 0.617789 0.477828 0.917326
Si Si2 0.987020 0.677248 0.721356
Si Si3 0.900210 0.134118 0.117932
Si Si4 0.539075 0.122545 0.882486
Si Si5 0.371565 0.141827 0.245135
Si Si6 0.064930 0.207903 0.737541
Si Si7 0.215193 0.341449 0.832164
Si Si8 0.656506 0.237927 0.495196
O O1 0.558584 0.378174 0.613847
O O2 0.500000 0.500000 0.000000
O O3 0.632686 0.586678 0.957270
O O4 0.840300 0.414249 0.120379
O O5 0.784200 0.741379 0.684196
O O6 0.949698 0.618386 0.429203
O O7 0.066398 0.782913 0.882291
O O8 0.987480 0.160611 0.424261
O O9 0.676099 0.148967 0.922816
O O10 0.000000 0.000000 0.000000
O O11 0.323036 0.201189 0.719372
O O12 0.585848 0.981902 0.773536
O O13 0.589090 0.186546 0.186885
O O14 0.570804 0.169065 0.452508
O O15 0.256278 0.127951 0.930945
O O16 0.884519 0.220663 0.688855
O O17 0.118632 0.327475 0.891344
#
# Coordination Sequence:
#
# PCOD9016511 Si02
#       8
#     2   2   2   2   2   2   2   2
#     4  12  26  48  76 103 140 187 249 303 348 426
#     4  11  24  46  71 107 142 189 236 297 367 419
#     4  10  21  42  68 104 144 187 234 286 354 423
#     4  11  24  44  70 109 147 187 234 291 358 432
#     4  12  23  46  73 108 150 186 236 288 367 434
#     4  10  24  45  68 104 147 187 236 293 352 424
#     4  11  25  47  70 102 149 189 242 294 354 420
#     4  11  25  44  72 108 139 190 240 293 352 422
#
# _framework density 24.866336
#
# number of rings (size 3 to 8) (size 9 to 14) (size 15 to 20)
#    0.000    1.000    3.750    2.250    0.000    4.500 
#    4.500    0.000    0.000    0.000    0.000    0.000 
#    0.000    0.000    0.000    0.000    0.000    0.000 
#
# Total GULP energy -89403.210447 kJ/mol
# GULP energy per Si atom -5587.700653 kJ/mol
# Density = 2.480974 g / cm^3
# Si number density = 24.866336 Si / 1000 Ang^3
#
#
#
# Elastic Constant Matrix: (Units=GPa)
#
#
# Indices 1 2 3 4 5 6 
#
# 1 174.3950 37.7904 48.7437 16.5491 38.6133 15.0507
# 2 37.7904 100.0591 24.3695 12.5130 13.9977 21.1158
# 3 48.7437 24.3695 62.5539 -0.0800 12.6726 11.3464
# 4 16.5491 12.5130 -0.0800 39.4431 9.5842 6.5579
# 5 38.6133 13.9977 12.6726 9.5842 45.0668 -0.5691
# 6 15.0507 21.1158 11.3464 6.5579 -0.5691 39.9098
#
#
#
# Elastic Compliance Matrix: (Units=1/GPa)
#
#
# Indices 1 2 3 4 5 6 
#
# 1 0.008887 -0.000809 -0.005290 -0.001957 -0.005474 -0.001176
# 2 -0.000809 0.012693 -0.002971 -0.002346 -0.001980 -0.005209
# 3 -0.005290 -0.002971 0.022255 0.004208 -0.001741 -0.003476
# 4 -0.001957 -0.002346 0.004208 0.028799 -0.004953 -0.004020
# 5 -0.005474 -0.001980 -0.001741 -0.004953 0.029099 0.004836
# 6 -0.001176 -0.005209 -0.003476 -0.004020 0.004836 0.029974
#
#
# Mechanical properties :
#
#
# Convention : Reuss Voigt Hill
#
# Bulk Modulus (GPa) = 38.92039 62.09057 50.50548
# Shear Modulus (GPa) = 31.56314 39.95756 35.76035
#
# Velocity S-wave (km/s) = 3.56661 4.01296 3.79635
# Velocity P-wave (km/s) = 5.71373 6.81878 6.29056
#
# Compressibility (1/GPa) = 0.02569347
#
# Stress axis : x y z
#
# Youngs Moduli (GPa) = 112.51873 78.78333 44.93436
#
# Poissons Ratio (x) = 0.06377 0.23771
# Poissons Ratio (y) = 0.09108 0.13351
# Poissons Ratio (z) = 0.59524 0.23408
#
# Static dielectric constant tensor:
#      x y z
#    x 2.992620 0.597670 -0.100430 
#    y 0.597670 2.357880 -0.023580 
#    z -0.100430 -0.023580 2.051290 
# 
# From -- ./inp_files/274512.got.cif
#   From: 2010.05.17/outbox.cif.g08.bks.cpg/sg2_138_cif.got.tgz:274512.got - 2010.06.03 11:33:40.
