data_PCOD9016686
_publ_section_title
;
Structure prediction by ZEFSAII (Michael W. Deem and Ramdas Pophale) SiO2 
 PCOD9016686
Probable space group: P -1
;
_chemical_formula_sum "Si O2"
_cell_formula_units_Z 16
_cell_length_a 8.591610
_cell_length_b 15.310028
_cell_length_c 12.781824
_cell_angle_alpha 28.413702
_cell_angle_beta 68.369149
_cell_angle_gamma 81.375676
_cell_volume 683.531839
_symmetry_space_group_name_H-M "P -1"
_symmetry_group_IT_number 2
_symmetry_cell_setting 'triclinic'
loop_
_space_group_symop_operation_xyz
x,y,z
-x,-y,-z
loop_
_atom_site_type_symbol
_atom_site_label
_atom_site_fract_x
_atom_site_fract_y
_atom_site_fract_z
Si Si1 0.632141 0.329969 0.330500
Si Si2 0.944556 0.421607 0.713953
Si Si3 0.725106 0.599613 0.697329
Si Si4 0.855355 0.702457 0.781440
Si Si5 0.328921 0.635840 0.482609
Si Si6 0.999242 0.977448 0.899655
Si Si7 0.618069 0.780492 0.090546
Si Si8 0.271779 0.004273 0.381178
O O1 0.472019 0.399159 0.268484
O O2 0.615576 0.261035 0.527982
O O3 0.630959 0.144368 0.458639
O O4 0.814274 0.531530 0.059619
O O5 0.766355 0.446629 0.772909
O O6 0.000000 0.500000 0.500000
O O7 0.115008 0.562635 0.592965
O O8 0.936347 0.199831 0.956860
O O9 0.774392 0.581876 0.823273
O O10 0.865365 0.817553 0.397678
O O11 0.065902 0.849100 0.566836
O O12 0.751736 0.846982 0.684209
O O13 0.442027 0.756216 0.228282
O O14 0.373832 0.437765 0.688272
O O15 0.796973 0.914526 0.970631
O O16 0.000000 0.000000 0.000000
O O17 0.637343 0.867993 0.878168
#
# Coordination Sequence:
#
# PCOD9016686 Si02
#       8
#     2   2   2   2   2   2   2   2
#     4  12  26  43  69 102 135 178 229 279 337 398
#     4  11  25  42  69  98 138 183 213 273 346 398
#     4  12  26  44  66  99 137 179 223 280 337 400
#     4  11  25  47  69  95 138 173 236 279 335 400
#     4  10  23  41  69 100 135 174 223 276 331 414
#     4  11  22  41  66  97 135 173 221 267 333 412
#     4  10  21  42  68  99 135 172 222 277 339 395
#     4  11  24  44  73  97 129 183 224 285 336 397
#
# _framework density 23.407834999999999
#
# number of rings (size 3 to 8) (size 9 to 14) (size 15 to 20)
#    0.000    1.000    3.750    2.250    3.500    4.000 
#    0.000    0.000    0.000    0.000    0.000    0.000 
#    0.000    0.000    0.000    0.000    0.000    0.000 
#
# Total GULP energy -89629.217055 kJ/mol
# GULP energy per Si atom -5601.826066 kJ/mol
# Density = 2.335456 g / cm^3
# Si number density = 23.407835 Si / 1000 Ang^3
#
#
#
# Elastic Constant Matrix: (Units=GPa)
#
#
# Indices 1 2 3 4 5 6 
#
# 1 64.4533 26.5087 10.8167 -4.3349 2.2859 -20.9038
# 2 26.5087 93.1009 18.7834 1.7169 -1.5224 -15.8625
# 3 10.8167 18.7834 93.8144 4.5767 -13.5992 -22.4798
# 4 -4.3349 1.7169 4.5767 38.7611 -0.2543 4.5702
# 5 2.2859 -1.5224 -13.5992 -0.2543 22.9908 -0.0411
# 6 -20.9038 -15.8625 -22.4798 4.5702 -0.0411 36.0170
#
#
#
# Elastic Compliance Matrix: (Units=1/GPa)
#
#
# Indices 1 2 3 4 5 6 
#
# 1 0.020686 -0.004306 0.000613 0.001200 -0.001947 0.010338
# 2 -0.004306 0.012675 -0.001344 -0.001163 0.000464 0.002392
# 3 0.000613 -0.001344 0.014364 -0.002582 0.008334 0.009067
# 4 0.001200 -0.001163 -0.002582 0.026851 -0.001435 -0.004836
# 5 -0.001947 0.000464 0.008334 -0.001435 0.048642 0.004514
# 6 0.010338 0.002392 0.009067 -0.004836 0.004514 0.041096
#
#
# Mechanical properties :
#
#
# Convention : Reuss Voigt Hill
#
# Bulk Modulus (GPa) = 26.55950 40.39847 33.47899
# Shear Modulus (GPa) = 26.74687 32.57110 29.65898
#
# Velocity S-wave (km/s) = 3.38397 3.73428 3.56343
# Velocity P-wave (km/s) = 5.16134 5.99075 5.59144
#
# Compressibility (1/GPa) = 0.03765131
#
# Stress axis : x y z
#
# Youngs Moduli (GPa) = 48.34237 78.89571 69.61661
#
# Poissons Ratio (x) = 0.33975 -0.04270
# Poissons Ratio (y) = 0.20818 0.09357
# Poissons Ratio (z) = -0.02965 0.10604
#
# Static dielectric constant tensor:
#      x y z
#    x 1.933880 0.332860 0.205820 
#    y 0.332860 4.092510 1.248640 
#    z 0.205820 1.248640 2.614410 
# 
# From -- ./inp_files/398094.got.cif
#   From: 2010.05.17/outbox.cif.g08.bks.cpg/sg2_200_cif.got.tgz:398094.got - 2010.06.03 11:33:40.
