data_PCOD9016043
_publ_section_title
;
Structure prediction by ZEFSAII (Michael W. Deem and Ramdas Pophale) SiO2 
 PCOD9016043
Probable space group: P -1
;
_chemical_formula_sum "Si O2"
_cell_formula_units_Z 16
_cell_length_a 15.416474
_cell_length_b 9.324745
_cell_length_c 13.147822
_cell_angle_alpha 31.553023
_cell_angle_beta 54.278518
_cell_angle_gamma 66.393411
_cell_volume 781.728363
_symmetry_space_group_name_H-M "P -1"
_symmetry_group_IT_number 2
_symmetry_cell_setting 'triclinic'
loop_
_space_group_symop_operation_xyz
x,y,z
-x,-y,-z
loop_
_atom_site_type_symbol
_atom_site_label
_atom_site_fract_x
_atom_site_fract_y
_atom_site_fract_z
Si Si1 0.483677 0.463830 0.911931
Si Si2 0.982423 0.849407 0.882254
Si Si3 0.700782 0.534005 0.587922
Si Si4 0.710190 0.426331 0.137760
Si Si5 0.846092 0.139296 0.076776
Si Si6 0.118561 0.688463 0.282324
Si Si7 0.692855 0.018127 0.755466
Si Si8 0.837437 0.221509 0.343043
O O1 0.594063 0.531990 0.729575
O O2 0.401955 0.643699 0.809050
O O3 0.500000 0.500000 0.000000
O O4 0.419238 0.140364 0.128785
O O5 0.044741 0.900819 0.916703
O O6 0.081258 0.931210 0.682893
O O7 0.891412 0.026671 0.827799
O O8 0.916877 0.528154 0.116812
O O9 0.789245 0.449256 0.652864
O O10 0.680807 0.289855 0.662888
O O11 0.755761 0.844189 0.320926
O O12 0.804119 0.373238 0.029902
O O13 0.734294 0.252685 0.323927
O O14 0.717349 0.752876 0.961620
O O15 0.864446 0.247574 0.885788
O O16 0.000000 0.500000 0.500000
O O17 0.788260 0.098694 0.557280
#
# Coordination Sequence:
#
# PCOD9016043 Si02
#       8
#     2   2   2   2   2   2   2   2
#     4  10  24  45  72  96 127 171 222 271 329 389
#     4  10  22  40  62  97 132 173 219 263 320 390
#     4  12  25  45  67  97 137 172 213 278 324 386
#     4   9  23  42  66  96 128 165 227 263 323 397
#     4  11  24  41  65  99 133 172 222 266 323 390
#     4  12  25  38  64  94 135 173 219 261 323 382
#     4  10  24  43  69  94 133 169 218 269 332 380
#     4  10  21  42  66  92 135 169 214 272 321 385
#
# _framework density 20.467468
#
# number of rings (size 3 to 8) (size 9 to 14) (size 15 to 20)
#    0.750    0.750    1.250    3.000    7.000    0.500 
#    2.250    3.125    0.000    0.000    0.000    0.000 
#    0.000    0.000    0.000    0.000    0.000    0.000 
#
# Total GULP energy -89236.543738 kJ/mol
# GULP energy per Si atom -5577.283984 kJ/mol
# Density = 2.042088 g / cm^3
# Si number density = 20.467468 Si / 1000 Ang^3
#
#
#
# Elastic Constant Matrix: (Units=GPa)
#
#
# Indices 1 2 3 4 5 6 
#
# 1 67.0961 14.3578 -1.8405 8.0373 -12.7094 -10.3437
# 2 14.3578 57.0064 14.0864 2.2633 4.1899 21.7913
# 3 -1.8405 14.0864 64.4723 14.3794 -7.9399 2.4050
# 4 8.0373 2.2633 14.3794 33.8404 4.0571 -5.6856
# 5 -12.7094 4.1899 -7.9399 4.0571 19.7638 -7.0242
# 6 -10.3437 21.7913 2.4050 -5.6856 -7.0242 24.5765
#
#
#
# Elastic Compliance Matrix: (Units=1/GPa)
#
#
# Indices 1 2 3 4 5 6 
#
# 1 0.484012 -0.606384 0.251517 -0.130867 0.903468 0.944705
# 2 -0.606384 0.796481 -0.324271 0.161773 -1.156918 -1.222930
# 3 0.251517 -0.324271 0.151713 -0.076729 0.484641 0.499297
# 4 -0.130867 0.161773 -0.076729 0.071163 -0.251464 -0.246418
# 5 0.903468 -1.156918 0.484641 -0.251464 1.764611 1.804797
# 6 0.944705 -1.222930 0.499297 -0.246418 1.804797 1.932592
#
#
# Mechanical properties :
#
#
# Convention : Reuss Voigt Hill
#
# Bulk Modulus (GPa) = 13.52681 26.86468 20.19574
# Shear Modulus (GPa) = 0.75948 26.43421 13.59684
#
# Velocity S-wave (km/s) = 0.60981 3.59768 2.58023
# Velocity P-wave (km/s) = 2.66817 5.51468 4.33191
#
# Compressibility (1/GPa) = 0.07392727
#
# Stress axis : x y z
#
# Youngs Moduli (GPa) = 2.06607 1.25552 6.59141
#
# Poissons Ratio (x) = 0.76133 -1.65785
# Poissons Ratio (y) = 1.25283 2.13740
# Poissons Ratio (z) = -0.51965 0.40713
#
# Static dielectric constant tensor:
#      x y z
#    x 1.779580 -0.034170 0.051060 
#    y -0.034170 1.853360 -0.119480 
#    z 0.051060 -0.119480 1.790210 
# 
# From -- ./inp_files/445455.got.cif
#   From: 2010.05.17/outbox.cif.g08.bks.cpg/sg2_223_cif.got.tgz:445455.got - 2010.06.03 11:33:40.
