data_PCOD9016680
_publ_section_title
;
Structure prediction by ZEFSAII (Michael W. Deem and Ramdas Pophale) SiO2 
 PCOD9016680
Probable space group: P -1
;
_chemical_formula_sum "Si O2"
_cell_formula_units_Z 16
_cell_length_a 20.124519
_cell_length_b 9.205744
_cell_length_c 9.929677
_cell_angle_alpha 135.515250
_cell_angle_beta 131.387201
_cell_angle_gamma 36.574259
_cell_volume 750.757856
_symmetry_space_group_name_H-M "P -1"
_symmetry_group_IT_number 2
_symmetry_cell_setting 'triclinic'
loop_
_space_group_symop_operation_xyz
x,y,z
-x,-y,-z
loop_
_atom_site_type_symbol
_atom_site_label
_atom_site_fract_x
_atom_site_fract_y
_atom_site_fract_z
Si Si1 0.100973 0.817261 0.623826
Si Si2 0.931147 0.743541 0.964097
Si Si3 0.591461 0.662523 0.536402
Si Si4 0.574926 0.947710 0.200123
Si Si5 0.367378 0.490195 0.798658
Si Si6 0.269731 0.968878 0.691548
Si Si7 0.010871 0.416012 0.608487
Si Si8 0.693408 0.970283 0.907238
O O1 0.235346 0.662966 0.681174
O O2 0.087214 0.601802 0.501760
O O3 0.000000 0.000000 0.500000
O O4 0.068123 0.022386 0.833529
O O5 0.990537 0.629685 0.826455
O O6 0.000000 0.500000 0.000000
O O7 0.803013 0.849109 0.880245
O O8 0.559987 0.685752 0.351194
O O9 0.664569 0.345067 0.449525
O O10 0.495921 0.818530 0.627825
O O11 0.653460 0.794392 0.717540
O O12 0.611551 0.689213 0.163584
O O13 0.678821 0.934519 0.276162
O O14 0.500000 0.000000 0.000000
O O15 0.380263 0.711418 0.002715
O O16 0.283793 0.037555 0.907108
O O17 0.135153 0.134480 0.606732
O O18 0.000000 0.500000 0.500000
#
# Coordination Sequence:
#
# PCOD9016680 Si02
#       8
#     2   2   2   2   2   2   2   2
#     4  11  21  41  70 100 132 172 213 265 325 394
#     4  11  21  37  67  93 131 171 215 255 318 398
#     4  11  23  44  71  92 126 174 221 272 332 382
#     4  12  25  48  66  92 134 176 217 282 332 377
#     4  10  24  43  69 101 131 166 226 269 319 401
#     4  11  24  43  65  97 133 170 223 270 325 398
#     4  12  25  40  62  99 139 169 213 270 326 389
#     4  10  21  42  68  99 124 170 220 268 322 395
#
# _framework density 21.311796999999999
#
# number of rings (size 3 to 8) (size 9 to 14) (size 15 to 20)
#    0.000    1.000    3.750    3.750    1.750    1.000 
#    9.000    0.000    0.000    0.000    0.000    0.000 
#    0.000    0.000    0.000    0.000    0.000    0.000 
#
# Total GULP energy -89313.674642 kJ/mol
# GULP energy per Si atom -5582.104665 kJ/mol
# Density = 2.126329 g / cm^3
# Si number density = 21.311797 Si / 1000 Ang^3
#
#
#
# Elastic Constant Matrix: (Units=GPa)
#
#
# Indices 1 2 3 4 5 6 
#
# 1 74.3583 13.8819 45.0726 -11.7193 -14.6144 4.3833
# 2 13.8819 71.8409 41.3695 -4.2507 -20.3132 7.8106
# 3 45.0726 41.3695 123.7475 6.4203 -9.2473 8.9892
# 4 -11.7193 -4.2507 6.4203 29.1477 -0.2623 -1.5607
# 5 -14.6144 -20.3132 -9.2473 -0.2623 45.9033 -1.0540
# 6 4.3833 7.8106 8.9892 -1.5607 -1.0540 39.1043
#
#
#
# Elastic Compliance Matrix: (Units=1/GPa)
#
#
# Indices 1 2 3 4 5 6 
#
# 1 0.021337 0.003674 -0.009051 0.011146 0.006650 -0.000421
# 2 0.003674 0.020793 -0.007787 0.006181 0.008785 -0.002291
# 3 -0.009051 -0.007787 0.014212 -0.007996 -0.003536 -0.001112
# 4 0.011146 0.006181 -0.007996 0.041558 0.004937 0.001146
# 5 0.006650 0.008785 -0.003536 0.004937 0.027088 -0.000760
# 6 -0.000421 -0.002291 -0.001112 0.001146 -0.000760 0.026358
#
#
# Mechanical properties :
#
#
# Convention : Reuss Voigt Hill
#
# Bulk Modulus (GPa) = 33.31688 52.28830 42.80259
# Shear Modulus (GPa) = 26.64136 34.13924 30.39030
#
# Velocity S-wave (km/s) = 3.53948 4.00671 3.78032
# Velocity P-wave (km/s) = 5.68954 6.78182 6.25955
#
# Compressibility (1/GPa) = 0.03001482
#
# Stress axis : x y z
#
# Youngs Moduli (GPa) = 46.86713 48.09372 70.36204
#
# Poissons Ratio (x) = -0.17671 0.63682
# Poissons Ratio (y) = -0.17221 0.54792
# Poissons Ratio (z) = 0.42418 0.37452
#
# Static dielectric constant tensor:
#      x y z
#    x 1.781490 -0.039260 -0.004270 
#    y -0.039260 1.816480 -0.009610 
#    z -0.004270 -0.009610 1.693680 
# 
# From -- ./inp_files/343041.got.cif
#   From: 2010.05.17/outbox.cif.g08.bks.cpg/sg2_172_cif.got.tgz:343041.got - 2010.06.03 11:33:40.
