data_PCOD9016135
_publ_section_title
;
Structure prediction by ZEFSAII (Michael W. Deem and Ramdas Pophale) SiO2 
 PCOD9016135
Probable space group: P -1
;
_chemical_formula_sum "Si O2"
_cell_formula_units_Z 16
_cell_length_a 13.657437
_cell_length_b 8.683990
_cell_length_c 13.025970
_cell_angle_alpha 100.800935
_cell_angle_beta 67.907947
_cell_angle_gamma 148.129166
_cell_volume 727.794976
_symmetry_space_group_name_H-M "P -1"
_symmetry_group_IT_number 2
_symmetry_cell_setting 'triclinic'
loop_
_space_group_symop_operation_xyz
x,y,z
-x,-y,-z
loop_
_atom_site_type_symbol
_atom_site_label
_atom_site_fract_x
_atom_site_fract_y
_atom_site_fract_z
Si Si1 0.281618 0.806791 0.540188
Si Si2 0.316416 0.643971 0.052595
Si Si3 0.565098 0.417748 0.172903
Si Si4 0.531972 0.373918 0.418413
Si Si5 0.402164 0.217714 0.910184
Si Si6 0.066565 0.223593 0.576266
Si Si7 0.174930 0.953031 0.173055
Si Si8 0.907345 0.325139 0.191335
O O1 0.113602 0.457418 0.540247
O O2 0.208432 0.804904 0.671046
O O3 0.500000 0.000000 0.500000
O O4 0.338523 0.012079 0.460791
O O5 0.411197 0.651090 0.104573
O O6 0.102150 0.456143 0.136618
O O7 0.286170 0.497349 0.944604
O O8 0.500000 0.000000 0.000000
O O9 0.596513 0.462991 0.285978
O O10 0.552173 0.577882 0.155058
O O11 0.341103 0.067846 0.188802
O O12 0.500000 0.500000 0.500000
O O13 0.718928 0.543794 0.429221
O O14 0.245835 0.915467 0.868574
O O15 0.287528 0.138930 0.046780
O O16 0.911151 0.034789 0.709647
O O17 0.000000 0.000000 0.500000
O O18 0.994189 0.607993 0.170867
#
# Coordination Sequence:
#
# PCOD9016135 Si02
#       8
#     2   2   2   2   2   2   2   2
#     4   9  22  45  70  99 134 181 234 283 348 414
#     4  11  23  41  70 104 137 177 231 278 347 417
#     4  11  24  44  64  95 144 177 221 291 342 403
#     4  11  23  44  68  95 134 182 234 284 341 409
#     4  11  24  43  67 100 145 177 220 285 350 407
#     4  10  22  42  71  98 132 178 225 288 350 409
#     4  10  21  42  66  96 135 174 222 277 347 414
#     4  11  22  42  74 101 133 179 231 280 351 416
#
# _framework density 21.984211999999999
#
# number of rings (size 3 to 8) (size 9 to 14) (size 15 to 20)
#    0.000    1.500    2.500    3.375    1.750    3.500 
#    6.750    8.125    2.750    0.000    0.000    0.000 
#    0.000    0.000    0.000    0.000    0.000    0.000 
#
# Total GULP energy -89311.112070 kJ/mol
# GULP energy per Si atom -5581.944504 kJ/mol
# Density = 2.193417 g / cm^3
# Si number density = 21.984212 Si / 1000 Ang^3
#
#
#
# Elastic Constant Matrix: (Units=GPa)
#
#
# Indices 1 2 3 4 5 6 
#
# 1 92.5162 28.0203 72.7484 4.3338 -11.1328 -4.4386
# 2 28.0203 101.7867 66.6247 29.4715 8.3616 -4.5745
# 3 72.7484 66.6247 142.1089 14.6848 -15.6233 -3.5278
# 4 4.3338 29.4715 14.6848 40.3758 0.0776 -3.3187
# 5 -11.1328 8.3616 -15.6233 0.0776 45.2382 -7.2323
# 6 -4.4386 -4.5745 -3.5278 -3.3187 -7.2323 28.9486
#
#
#
# Elastic Compliance Matrix: (Units=1/GPa)
#
#
# Indices 1 2 3 4 5 6 
#
# 1 0.018447 0.001076 -0.009854 0.000999 0.001293 0.002235
# 2 0.001076 0.019153 -0.009152 -0.010821 -0.006545 -0.000799
# 3 -0.009854 -0.009152 0.016779 0.001672 0.005149 0.000566
# 4 0.000999 -0.010821 0.001672 0.032204 0.003273 0.003157
# 5 0.001293 -0.006545 0.005149 0.003273 0.026491 0.006785
# 6 0.002235 -0.000799 0.000566 0.003157 0.006785 0.036886
#
#
# Mechanical properties :
#
#
# Convention : Reuss Voigt Hill
#
# Bulk Modulus (GPa) = 53.99177 74.57764 64.28470
# Shear Modulus (GPa) = 26.04260 34.18040 30.11150
#
# Velocity S-wave (km/s) = 3.44554 3.94734 3.70494
# Velocity P-wave (km/s) = 6.35938 7.40082 6.89978
#
# Compressibility (1/GPa) = 0.01852134
#
# Stress axis : x y z
#
# Youngs Moduli (GPa) = 54.20831 52.21007 59.59722
#
# Poissons Ratio (x) = -0.05620 0.58726
# Poissons Ratio (y) = -0.05835 0.54543
# Poissons Ratio (z) = 0.53416 0.47783
#
# Static dielectric constant tensor:
#      x y z
#    x 1.742180 0.012130 0.040830 
#    y 0.012130 1.869760 -0.064990 
#    z 0.040830 -0.064990 1.789450 
# 
# From -- ./inp_files/447651.got.cif
#   From: 2010.05.17/outbox.cif.g08.bks.cpg/sg2_224_cif.got.tgz:447651.got - 2010.06.03 11:33:40.
