data_PCOD9016670
_publ_section_title
;
Structure prediction by ZEFSAII (Michael W. Deem and Ramdas Pophale) SiO2 
 PCOD9016670
Probable space group: P -1
;
_chemical_formula_sum "Si O2"
_cell_formula_units_Z 16
_cell_length_a 12.184806
_cell_length_b 8.100155
_cell_length_c 8.769473
_cell_angle_alpha 64.325443
_cell_angle_beta 87.781287
_cell_angle_gamma 64.555884
_cell_volume 692.763597
_symmetry_space_group_name_H-M "P -1"
_symmetry_group_IT_number 2
_symmetry_cell_setting 'triclinic'
loop_
_space_group_symop_operation_xyz
x,y,z
-x,-y,-z
loop_
_atom_site_type_symbol
_atom_site_label
_atom_site_fract_x
_atom_site_fract_y
_atom_site_fract_z
Si Si1 0.905356 0.219205 0.849896
Si Si2 0.579849 0.675846 0.302051
Si Si3 0.004177 0.045553 0.305015
Si Si4 0.202284 0.203700 0.219760
Si Si5 0.385113 0.517666 0.280528
Si Si6 0.530723 0.918110 0.701861
Si Si7 0.812140 0.458457 0.157125
Si Si8 0.027858 0.453673 0.343845
O O1 0.756700 0.330046 0.821964
O O2 0.962115 0.370318 0.826082
O O3 0.941875 0.174547 0.688247
O O4 0.000000 0.000000 0.000000
O O5 0.467283 0.638548 0.252594
O O6 0.612469 0.573076 0.511729
O O7 0.688294 0.556039 0.222375
O O8 0.560956 0.910599 0.241241
O O9 0.109014 0.112756 0.222547
O O10 0.868388 0.221931 0.189255
O O11 0.000000 0.000000 0.500000
O O12 0.346181 0.061997 0.270605
O O13 0.162590 0.270479 0.371334
O O14 0.190460 0.383350 0.033747
O O15 0.438617 0.323815 0.231594
O O16 0.500000 0.000000 0.500000
O O17 0.921340 0.423535 0.281316
O O18 0.000000 0.500000 0.500000
#
# Coordination Sequence:
#
# PCOD9016670 Si02
#       8
#     2   2   2   2   2   2   2   2
#     4  12  22  38  66  99 132 166 216 278 354 395
#     4  10  22  42  68  97 135 186 234 278 343 411
#     4  11  23  39  64  97 128 174 222 271 336 408
#     4  11  22  43  65  90 137 173 218 285 343 401
#     4  10  21  42  68  98 135 178 233 296 329 406
#     4  10  22  39  69  96 127 182 235 278 340 409
#     4  11  24  42  64  97 138 178 220 276 348 410
#     4  11  22  39  67  95 131 173 220 278 333 411
#
# _framework density 23.095904999999998
#
# number of rings (size 3 to 8) (size 9 to 14) (size 15 to 20)
#    0.000    1.250    1.250    6.750    1.750    2.500 
#    2.250    0.625    0.000    0.000    0.000    0.000 
#    0.000    0.000    0.000    0.000    0.000    0.000 
#
# Total GULP energy -89069.120327 kJ/mol
# GULP energy per Si atom -5566.820020 kJ/mol
# Density = 2.304334 g / cm^3
# Si number density = 23.095905 Si / 1000 Ang^3
#
#
#
# Elastic Constant Matrix: (Units=GPa)
#
#
# Indices 1 2 3 4 5 6 
#
# 1 94.0104 47.1979 39.8157 -14.1186 1.2968 0.1396
# 2 47.1979 131.6174 2.6682 -9.9603 -8.0765 -0.3617
# 3 39.8157 2.6682 59.3119 -11.6853 2.7362 0.1132
# 4 -14.1186 -9.9603 -11.6853 29.4100 -5.9152 3.3382
# 5 1.2968 -8.0765 2.7362 -5.9152 29.0985 -2.2036
# 6 0.1396 -0.3617 0.1132 3.3382 -2.2036 26.6471
#
#
#
# Elastic Compliance Matrix: (Units=1/GPa)
#
#
# Indices 1 2 3 4 5 6 
#
# 1 0.019552 -0.006681 -0.012370 0.002025 -0.001188 -0.000493
# 2 -0.006681 0.010310 0.004398 0.002685 0.003299 0.000093
# 3 -0.012370 0.004398 0.026150 0.006124 0.000504 -0.000712
# 4 0.002025 0.002685 0.006124 0.040418 0.007962 -0.004405
# 5 -0.001188 0.003299 0.000504 0.007962 0.037066 0.002117
# 6 -0.000493 0.000093 -0.000712 -0.004405 0.002117 0.038261
#
#
# Mechanical properties :
#
#
# Convention : Reuss Voigt Hill
#
# Bulk Modulus (GPa) = 37.44427 51.58928 44.51678
# Shear Modulus (GPa) = 23.81340 30.04831 26.93085
#
# Velocity S-wave (km/s) = 3.21450 3.61088 3.41844
# Velocity P-wave (km/s) = 5.47952 6.30635 5.90742
#
# Compressibility (1/GPa) = 0.02670635
#
# Stress axis : x y z
#
# Youngs Moduli (GPa) = 51.14661 96.98915 38.24040
#
# Poissons Ratio (x) = 0.64803 0.47302
# Poissons Ratio (y) = 0.34173 -0.16818
# Poissons Ratio (z) = 0.63266 -0.42655
#
# Static dielectric constant tensor:
#      x y z
#    x 1.783130 -0.016950 -0.024900 
#    y -0.016950 2.170760 -0.064210 
#    z -0.024900 -0.064210 1.867150 
# 
# From -- ./inp_files/242552.got.cif
#   From: 2010.05.17/outbox.cif.g08.bks.cpg/sg2_122_cif.got.tgz:242552.got - 2010.06.03 11:33:40.
