data_PCOD9016523
_publ_section_title
;
Structure prediction by ZEFSAII (Michael W. Deem and Ramdas Pophale) SiO2 
 PCOD9016523
Probable space group: P -1
;
_chemical_formula_sum "Si O2"
_cell_formula_units_Z 15
_cell_length_a 8.407656
_cell_length_b 8.684050
_cell_length_c 15.674837
_cell_angle_alpha 43.778871
_cell_angle_beta 102.039604
_cell_angle_gamma 110.938129
_cell_volume 737.371251
_symmetry_space_group_name_H-M "P -1"
_symmetry_group_IT_number 2
_symmetry_cell_setting 'triclinic'
loop_
_space_group_symop_operation_xyz
x,y,z
-x,-y,-z
loop_
_atom_site_type_symbol
_atom_site_label
_atom_site_fract_x
_atom_site_fract_y
_atom_site_fract_z
Si Si1 0.717027 0.520168 0.607160
Si Si2 0.383887 0.032533 0.551657
Si Si3 0.500000 0.500000 0.000000
Si Si4 0.870459 0.637536 0.403636
Si Si5 0.098900 0.547900 0.693536
Si Si6 0.104053 0.410936 0.934187
Si Si7 0.909228 0.126616 0.173354
Si Si8 0.518617 0.991906 0.231147
O O1 0.653456 0.721852 0.560421
O O2 0.725893 0.574295 0.484505
O O3 0.603562 0.256279 0.714202
O O4 0.908355 0.543867 0.649660
O O5 0.463228 0.020168 0.659025
O O6 0.500000 0.000000 0.500000
O O7 0.212077 0.813284 0.617553
O O8 0.700493 0.526529 0.038532
O O9 0.455615 0.212192 0.113987
O O10 0.819607 0.553336 0.335902
O O11 0.000000 0.500000 0.500000
O O12 0.964053 0.914412 0.303345
O O13 0.095905 0.395989 0.838034
O O14 0.039590 0.633848 0.863030
O O15 0.986994 0.195555 0.061247
O O16 0.704316 0.032197 0.193388
#
# Coordination Sequence:
#
# PCOD9016523 Si02
#       8
#     2   2   1   2   2   2   2   2
#     4  11  24  44  68  98 140 179 217 273 346 406
#     4  12  24  43  69 101 133 175 225 287 336 395
#     4  10  22  44  70  94 128 176 236 266 336 396
#     4  10  22  38  66 100 129 175 212 268 335 407
#     4  11  23  43  65 105 131 174 225 279 329 393
#     4  10  22  44  69  92 127 183 224 282 322 393
#     4  10  21  42  68  87 133 181 223 262 337 398
#     4  11  23  45  68  94 134 182 223 272 335 405
#
# _framework density 20.342535000000002
#
# number of rings (size 3 to 8) (size 9 to 14) (size 15 to 20)
#    0.000    1.333    4.000    1.600    5.600    1.600 
#    7.200    0.667    0.000    0.000    0.000    0.000 
#    0.000    0.000    0.000    0.000    0.000    0.000 
#
# Total GULP energy -83537.786719 kJ/mol
# GULP energy per Si atom -5569.185781 kJ/mol
# Density = 2.029623 g / cm^3
# Si number density = 20.342535 Si / 1000 Ang^3
#
#
#
# Elastic Constant Matrix: (Units=GPa)
#
#
# Indices 1 2 3 4 5 6 
#
# 1 83.5224 43.3068 50.2348 2.6473 -1.9398 -13.7089
# 2 43.3068 53.0924 23.9138 2.1306 -10.3528 -6.9896
# 3 50.2348 23.9138 118.5273 -12.2846 -10.5890 -11.9160
# 4 2.6473 2.1306 -12.2846 37.5694 -6.1204 -1.8287
# 5 -1.9398 -10.3528 -10.5890 -6.1204 35.5319 -6.5307
# 6 -13.7089 -6.9896 -11.9160 -1.8287 -6.5307 29.1187
#
#
#
# Elastic Compliance Matrix: (Units=1/GPa)
#
#
# Indices 1 2 3 4 5 6 
#
# 1 0.027788 -0.019561 -0.008641 -0.004672 -0.007014 0.002984
# 2 -0.019561 0.036157 0.002529 0.002127 0.011165 0.003142
# 3 -0.008641 0.002529 0.013076 0.005864 0.005827 0.003565
# 4 -0.004672 0.002127 0.005864 0.030286 0.008145 0.004439
# 5 -0.007014 0.011165 0.005827 0.008145 0.036058 0.010361
# 6 0.002984 0.003142 0.003565 0.004439 0.010361 0.040563
#
#
# Mechanical properties :
#
#
# Convention : Reuss Voigt Hill
#
# Bulk Modulus (GPa) = 38.94975 54.45033 46.70004
# Shear Modulus (GPa) = 20.50596 29.62314 25.06455
#
# Velocity S-wave (km/s) = 3.17840 3.82018 3.51397
# Velocity P-wave (km/s) = 5.71473 6.80318 6.28257
#
# Compressibility (1/GPa) = 0.02567411
#
# Stress axis : x y z
#
# Youngs Moduli (GPa) = 35.98710 27.65711 76.47792
#
# Poissons Ratio (x) = 0.54101 0.66087
# Poissons Ratio (y) = 0.70395 -0.19344
# Poissons Ratio (z) = 0.31097 -0.06995
#
# Static dielectric constant tensor:
#      x y z
#    x 1.672640 0.044760 0.017940 
#    y 0.044760 1.674390 -0.027830 
#    z 0.017940 -0.027830 1.721990 
# 
# From -- ./inp_files/491851.got.cif
#   From: 2010.05.17/outbox.cif.g08.bks.cpg/sg2_246_cif.got.tgz:491851.got - 2010.06.03 11:33:40.
