data_PCOD9016865
_publ_section_title
;
Structure prediction by ZEFSAII (Michael W. Deem and Ramdas Pophale) SiO2 
 PCOD9016865
Probable space group: P -1
;
_chemical_formula_sum "Si O2"
_cell_formula_units_Z 12
_cell_length_a 9.724464
_cell_length_b 5.820510
_cell_length_c 16.241977
_cell_angle_alpha 92.563516
_cell_angle_beta 136.815786
_cell_angle_gamma 62.003434
_cell_volume 483.489112
_symmetry_space_group_name_H-M "P -1"
_symmetry_group_IT_number 2
_symmetry_cell_setting 'triclinic'
loop_
_space_group_symop_operation_xyz
x,y,z
-x,-y,-z
loop_
_atom_site_type_symbol
_atom_site_label
_atom_site_fract_x
_atom_site_fract_y
_atom_site_fract_z
Si Si1 0.585726 0.850128 0.623181
Si Si2 0.338874 0.028145 0.805054
Si Si3 0.893305 0.393575 0.214309
Si Si4 0.902343 0.059295 0.553281
Si Si5 0.320800 0.995127 0.177018
Si Si6 0.755124 0.354117 0.989107
O O1 0.559554 0.078542 0.680752
O O2 0.893437 0.597567 0.738215
O O3 0.500000 0.000000 0.500000
O O4 0.406892 0.767510 0.572358
O O5 0.500853 0.956154 0.791756
O O6 0.507795 0.693392 0.905405
O O7 0.041971 0.178259 0.656107
O O8 0.337562 0.261440 0.860294
O O9 0.984692 0.223073 0.339699
O O10 0.850515 0.230703 0.122430
O O11 0.000000 0.000000 0.500000
O O12 0.325297 0.769238 0.117554
O O13 0.015063 0.274381 0.060296
#
# Coordination Sequence:
#
# PCOD9016865 Si02
#       6
#     2   2   2   2   2   2
#     4   9  20  45  68  96 134 175 225 276 332 394
#     4  12  23  39  66 102 136 178 217 277 339 400
#     4  10  24  43  69 100 139 173 221 284 331 401
#     4  11  23  43  68  99 132 177 230 273 331 397
#     4  10  21  42  69  97 133 176 221 286 327 397
#     4  10  23  43  67 100 135 177 227 269 344 399
#
# _framework density 24.819585
#
# number of rings (size 3 to 8) (size 9 to 14) (size 15 to 20)
#    0.000    1.667    1.667    2.000    0.000    5.333 
#    6.000    8.333    0.000    0.000    0.000    0.000 
#    0.000    0.000    0.000    0.000    0.000    0.000 
#
# Total GULP energy -66811.525263 kJ/mol
# GULP energy per Si atom -5567.627105 kJ/mol
# Density = 2.476309 g / cm^3
# Si number density = 24.819585 Si / 1000 Ang^3
#
#
#
# Elastic Constant Matrix: (Units=GPa)
#
#
# Indices 1 2 3 4 5 6 
#
# 1 185.1172 25.9500 55.0477 21.0809 9.6922 -20.4689
# 2 25.9500 59.5257 41.3971 18.3224 -11.5520 -20.8294
# 3 55.0477 41.3971 118.6082 47.8256 -11.0205 -9.5188
# 4 21.0809 18.3224 47.8256 32.7347 -5.0731 -1.9841
# 5 9.6922 -11.5520 -11.0205 -5.0731 49.0984 4.9528
# 6 -20.4689 -20.8294 -9.5188 -1.9841 4.9528 30.0600
#
#
#
# Elastic Compliance Matrix: (Units=1/GPa)
#
#
# Indices 1 2 3 4 5 6 
#
# 1 0.006914 0.000208 -0.003105 -0.000154 -0.002459 0.004264
# 2 0.000208 0.029851 -0.006401 -0.005921 0.003129 0.017893
# 3 -0.003105 -0.006401 0.023946 -0.029227 0.001578 -0.001157
# 4 -0.000154 -0.005921 -0.029227 0.076272 0.000822 -0.008564
# 5 -0.002459 0.003129 0.001578 0.000822 0.022293 -0.002625
# 6 0.004264 0.017893 -0.001157 -0.008564 -0.002625 0.048069
#
#
# Mechanical properties :
#
#
# Convention : Reuss Voigt Hill
#
# Bulk Modulus (GPa) = 23.74557 67.56009 45.65283
# Shear Modulus (GPa) = 20.83500 38.43570 29.63535
#
# Velocity S-wave (km/s) = 2.90048 3.93950 3.45922
# Velocity P-wave (km/s) = 4.56126 6.92621 5.86419
#
# Compressibility (1/GPa) = 0.04211312
#
# Stress axis : x y z
#
# Youngs Moduli (GPa) = 144.63188 33.49931 41.76129
#
# Poissons Ratio (x) = -0.00696 0.12969
# Poissons Ratio (y) = -0.03005 0.26733
# Poissons Ratio (z) = 0.44915 0.21444
#
# Static dielectric constant tensor:
#      x y z
#    x 2.043110 0.052390 0.065480 
#    y 0.052390 1.937410 -0.004900 
#    z 0.065480 -0.004900 2.089620 
# 
# From -- ./inp_files/24107.got.cif
#   From: 2010.05.17/outbox.cif.g08.bks.cpg/sg2_13_cif.got.tgz:24107.got - 2010.06.03 11:33:40.
