data_PCOD9016582
_publ_section_title
;
Structure prediction by ZEFSAII (Michael W. Deem and Ramdas Pophale) SiO2 
 PCOD9016582
Probable space group: P -1
;
_chemical_formula_sum "Si O2"
_cell_formula_units_Z 14
_cell_length_a 13.628264
_cell_length_b 9.392894
_cell_length_c 9.512893
_cell_angle_alpha 120.576817
_cell_angle_beta 41.601269
_cell_angle_gamma 135.493096
_cell_volume 565.966527
_symmetry_space_group_name_H-M "P -1"
_symmetry_group_IT_number 2
_symmetry_cell_setting 'triclinic'
loop_
_space_group_symop_operation_xyz
x,y,z
-x,-y,-z
loop_
_atom_site_type_symbol
_atom_site_label
_atom_site_fract_x
_atom_site_fract_y
_atom_site_fract_z
Si Si1 0.112277 0.223741 0.418814
Si Si2 0.732222 0.416802 0.051125
Si Si3 0.988615 0.027498 0.859926
Si Si4 0.103755 0.602261 0.638590
Si Si5 0.655916 0.745887 0.585727
Si Si6 0.656267 0.133964 0.734191
Si Si7 0.719307 0.154577 0.168605
O O1 0.301618 0.316098 0.343197
O O2 0.059682 0.378336 0.583956
O O3 0.000000 0.000000 0.500000
O O4 0.093245 0.174363 0.249790
O O5 0.647075 0.246523 0.933854
O O6 0.926319 0.592151 0.867366
O O7 0.560308 0.412043 0.284096
O O8 0.788836 0.340287 0.082432
O O9 0.187790 0.201040 0.668508
O O10 0.849699 0.083104 0.999781
O O11 0.000000 0.000000 0.000000
O O12 0.180153 0.697670 0.453462
O O13 0.266095 0.754969 0.648546
O O14 0.686809 0.965286 0.664131
O O15 0.475071 0.018581 0.775285
#
# Coordination Sequence:
#
# PCOD9016582 Si02
#       7
#     2   2   2   2   2   2   2
#     4  10  22  44  68  98 140 185 223 278 347 411
#     4  11  22  40  69 101 134 180 229 276 338 414
#     4  11  22  40  67  99 134 178 226 282 341 399
#     4  12  25  43  70 105 140 178 230 289 341 403
#     4  10  21  42  68  94 132 183 226 271 339 411
#     4  11  23  44  72 103 136 181 234 287 339 405
#     4  11  24  45  69 100 139 185 229 281 344 415
#
# _framework density 24.736443999999999
#
# number of rings (size 3 to 8) (size 9 to 14) (size 15 to 20)
#    0.000    1.143    0.000    9.000    0.000    2.286 
#    0.000   12.143    0.000    0.000    0.000    0.000 
#    0.000    0.000    0.000    0.000    0.000    0.000 
#
# Total GULP energy -78295.976519 kJ/mol
# GULP energy per Si atom -5592.569751 kJ/mol
# Density = 2.468014 g / cm^3
# Si number density = 24.736444 Si / 1000 Ang^3
#
#
#
# Elastic Constant Matrix: (Units=GPa)
#
#
# Indices 1 2 3 4 5 6 
#
# 1 182.5866 36.7178 72.5017 6.5424 -6.5697 -7.2423
# 2 36.7178 75.0853 15.2195 8.6747 -16.6818 5.9715
# 3 72.5017 15.2195 127.2173 -4.7664 1.1642 -16.2062
# 4 6.5424 8.6747 -4.7664 35.7293 1.2264 4.0786
# 5 -6.5697 -16.6818 1.1642 1.2264 48.3903 3.9842
# 6 -7.2423 5.9715 -16.2062 4.0786 3.9842 36.9583
#
#
#
# Elastic Compliance Matrix: (Units=1/GPa)
#
#
# Indices 1 2 3 4 5 6 
#
# 1 0.007723 -0.002775 -0.004083 -0.001326 0.000199 0.000296
# 2 -0.002775 0.016947 -0.001145 -0.003501 0.005914 -0.004035
# 3 -0.004083 -0.001145 0.010943 0.002069 -0.001605 0.004128
# 4 -0.001326 -0.003501 0.002069 0.029637 -0.002037 -0.001838
# 5 0.000199 0.005914 -0.001605 -0.002037 0.023142 -0.003890
# 6 0.000296 -0.004035 0.004128 -0.001838 -0.003890 0.030200
#
#
# Mechanical properties :
#
#
# Convention : Reuss Voigt Hill
#
# Bulk Modulus (GPa) = 51.00631 70.41857 60.71244
# Shear Modulus (GPa) = 35.42796 41.57892 38.50344
#
# Velocity S-wave (km/s) = 3.78857 4.10430 3.94959
# Velocity P-wave (km/s) = 6.30891 7.14071 6.73766
#
# Compressibility (1/GPa) = 0.01960542
#
# Stress axis : x y z
#
# Youngs Moduli (GPa) = 129.49078 59.00863 91.38671
#
# Poissons Ratio (x) = 0.16375 0.37312
# Poissons Ratio (y) = 0.35933 0.10466
# Poissons Ratio (z) = 0.52870 0.06758
#
# Static dielectric constant tensor:
#      x y z
#    x 1.974390 0.075780 0.007160 
#    y 0.075780 2.002800 0.010170 
#    z 0.007160 0.010170 1.999100 
# 
# From -- ./inp_files/244404.got.cif
#   From: 2010.05.17/outbox.cif.g08.bks.cpg/sg2_123_cif.got.tgz:244404.got - 2010.06.03 11:33:40.
