data_PCOD9016416
_publ_section_title
;
Structure prediction by ZEFSAII (Michael W. Deem and Ramdas Pophale) SiO2 
 PCOD9016416
Probable space group: P -1
;
_chemical_formula_sum "Si O2"
_cell_formula_units_Z 16
_cell_length_a 11.113233
_cell_length_b 11.944352
_cell_length_c 8.602067
_cell_angle_alpha 51.797499
_cell_angle_beta 134.699001
_cell_angle_gamma 112.892945
_cell_volume 635.640945
_symmetry_space_group_name_H-M "P -1"
_symmetry_group_IT_number 2
_symmetry_cell_setting 'triclinic'
loop_
_space_group_symop_operation_xyz
x,y,z
-x,-y,-z
loop_
_atom_site_type_symbol
_atom_site_label
_atom_site_fract_x
_atom_site_fract_y
_atom_site_fract_z
Si Si1 0.473166 0.438357 0.196648
Si Si2 0.025550 0.281049 0.523256
Si Si3 0.232214 0.257781 0.290725
Si Si4 0.225844 0.779922 0.416759
Si Si5 0.576087 0.033402 0.370775
Si Si6 0.148477 0.702404 0.969287
Si Si7 0.771387 0.019323 0.037278
Si Si8 0.679939 0.581941 0.474773
O O1 0.304943 0.359374 0.139412
O O2 0.632918 0.319685 0.459905
O O3 0.506546 0.555908 0.254470
O O4 0.500000 0.500000 0.000000
O O5 0.185346 0.373902 0.568635
O O6 0.934889 0.290131 0.599617
O O7 0.898871 0.322956 0.230498
O O8 0.097073 0.116534 0.697774
O O9 0.290378 0.095980 0.443143
O O10 0.327147 0.299853 0.499082
O O11 0.034330 0.282257 0.122153
O O12 0.179781 0.908543 0.144905
O O13 0.322076 0.831628 0.613639
O O14 0.415034 0.037261 0.107576
O O15 0.500000 0.000000 0.500000
O O16 0.226882 0.852893 0.945831
O O17 0.246322 0.562743 0.250147
#
# Coordination Sequence:
#
# PCOD9016416 Si02
#       8
#     2   2   2   2   2   2   2   2
#     4  12  27  42  69 102 137 178 230 278 342 408
#     4  11  25  41  69 101 135 179 231 278 331 407
#     4  11  22  45  72  95 134 184 218 282 339 397
#     4  11  24  45  66 100 139 178 221 287 341 398
#     4  10  21  42  67  97 135 170 222 274 342 397
#     4  11  24  46  69  98 139 180 229 276 337 403
#     4  11  22  44  70  99 136 178 225 281 338 403
#     4  11  26  48  68 100 138 183 229 276 339 405
#
# _framework density 25.171444000000001
#
# number of rings (size 3 to 8) (size 9 to 14) (size 15 to 20)
#    0.000    1.000    3.750    3.375    5.250    3.500 
#    0.000    3.125    0.000    0.000    0.000    0.000 
#    0.000    0.000    0.000    0.000    0.000    0.000 
#
# Total GULP energy -89670.815598 kJ/mol
# GULP energy per Si atom -5604.425975 kJ/mol
# Density = 2.511415 g / cm^3
# Si number density = 25.171444 Si / 1000 Ang^3
#
#
#
# Elastic Constant Matrix: (Units=GPa)
#
#
# Indices 1 2 3 4 5 6 
#
# 1 108.3438 3.7698 7.4050 -3.8163 -5.6297 12.6358
# 2 3.7698 86.3667 -0.2641 6.5716 6.1444 -2.5067
# 3 7.4050 -0.2641 84.2018 -7.9531 -11.0512 5.9766
# 4 -3.8163 6.5716 -7.9531 25.1542 1.1732 4.6491
# 5 -5.6297 6.1444 -11.0512 1.1732 17.7426 -8.9112
# 6 12.6358 -2.5067 5.9766 4.6491 -8.9112 40.9864
#
#
#
# Elastic Compliance Matrix: (Units=1/GPa)
#
#
# Indices 1 2 3 4 5 6 
#
# 1 0.009770 -0.000784 -0.000247 0.002071 0.001621 -0.002906
# 2 -0.000784 0.012210 -0.000850 -0.003464 -0.004514 0.000524
# 3 -0.000247 -0.000850 0.013378 0.004169 0.007934 -0.000674
# 4 0.002071 -0.003464 0.004169 0.043637 -0.001853 -0.006811
# 5 0.001621 -0.004514 0.007934 -0.001853 0.070317 0.013565
# 6 -0.002906 0.000524 -0.000674 -0.006811 0.013565 0.029147
#
#
# Mechanical properties :
#
#
# Convention : Reuss Voigt Hill
#
# Bulk Modulus (GPa) = 31.64909 33.41485 32.53197
# Shear Modulus (GPa) = 25.93985 34.64343 30.29164
#
# Velocity S-wave (km/s) = 3.21366 3.71387 3.47279
# Velocity P-wave (km/s) = 5.13526 5.62976 5.38819
#
# Compressibility (1/GPa) = 0.03159648
#
# Stress axis : x y z
#
# Youngs Moduli (GPa) = 102.35207 81.89939 74.74810
#
# Poissons Ratio (x) = 0.06425 0.01847
# Poissons Ratio (y) = 0.08029 0.06350
# Poissons Ratio (z) = 0.02528 0.06958
#
# Static dielectric constant tensor:
#      x y z
#    x 1.996940 0.011000 0.022260 
#    y 0.011000 2.008770 0.000650 
#    z 0.022260 0.000650 2.026370 
# 
# From -- ./inp_files/184249.got.cif
#   From: 2010.05.17/outbox.cif.g08.bks.cpg/sg2_93_cif.got.tgz:184249.got - 2010.06.03 11:33:40.
