data_PCOD9016210
_publ_section_title
;
Structure prediction by ZEFSAII (Michael W. Deem and Ramdas Pophale) SiO2 
 PCOD9016210
Probable space group: P -1
;
_chemical_formula_sum "Si O2"
_cell_formula_units_Z 16
_cell_length_a 18.969399
_cell_length_b 8.469805
_cell_length_c 21.975895
_cell_angle_alpha 138.773516
_cell_angle_beta 17.680717
_cell_angle_gamma 139.679404
_cell_volume 687.924352
_symmetry_space_group_name_H-M "P -1"
_symmetry_group_IT_number 2
_symmetry_cell_setting 'triclinic'
loop_
_space_group_symop_operation_xyz
x,y,z
-x,-y,-z
loop_
_atom_site_type_symbol
_atom_site_label
_atom_site_fract_x
_atom_site_fract_y
_atom_site_fract_z
Si Si1 0.644528 0.310597 0.850858
Si Si2 0.442877 0.581352 0.916315
Si Si3 0.544036 0.167243 0.452135
Si Si4 0.976425 0.755557 0.123490
Si Si5 0.404504 0.028915 0.774991
Si Si6 0.963587 0.904822 0.572128
Si Si7 0.687239 0.703950 0.525539
Si Si8 0.322500 0.761179 0.943171
O O1 0.875289 0.297260 0.618037
O O2 0.471238 0.040291 0.911412
O O3 0.500000 0.500000 0.000000
O O4 0.703729 0.384060 0.893253
O O5 0.310030 0.618592 0.974727
O O6 0.689815 0.786908 0.775114
O O7 0.506462 0.316547 0.785024
O O8 0.288811 0.213854 0.655041
O O9 0.635695 0.036258 0.281619
O O10 0.706113 0.437928 0.409934
O O11 0.500000 0.000000 0.500000
O O12 0.000000 0.500000 0.000000
O O13 0.158165 0.961555 0.995439
O O14 0.078788 0.762880 0.109536
O O15 0.570953 0.861001 0.618304
O O16 0.081974 0.118614 0.583184
O O17 0.000000 0.000000 0.500000
O O18 0.487960 0.650986 0.728195
#
# Coordination Sequence:
#
# PCOD9016210 Si02
#       8
#     2   2   2   2   2   2   2   2
#     4  11  24  43  67 102 143 181 237 284 344 416
#     4  12  24  45  70 107 145 180 238 288 346 418
#     4  12  26  47  73 105 141 181 238 295 344 418
#     4  11  24  47  74  96 140 189 225 286 363 402
#     4  11  26  44  71 106 142 181 235 289 349 422
#     4  11  24  43  74  99 140 189 226 288 351 405
#     4  10  21  45  66 101 141 180 230 288 342 416
#     4  10  21  42  67 100 139 180 225 290 337 417
#
# _framework density 23.258369999999999
#
# number of rings (size 3 to 8) (size 9 to 14) (size 15 to 20)
#    0.000    1.000    5.000    3.750    0.000    5.500 
#    0.000    0.000    0.000    0.000    0.000    0.000 
#    0.000    0.000    0.000    0.000    0.000    0.000 
#
# Total GULP energy -89671.525403 kJ/mol
# GULP energy per Si atom -5604.470338 kJ/mol
# Density = 2.320543 g / cm^3
# Si number density = 23.258370 Si / 1000 Ang^3
#
#
#
# Elastic Constant Matrix: (Units=GPa)
#
#
# Indices 1 2 3 4 5 6 
#
# 1 146.6784 32.7800 26.1848 -4.9956 10.5716 14.0523
# 2 32.7800 98.2073 19.7587 -2.6554 5.9330 19.8876
# 3 26.1848 19.7587 80.7759 -1.0281 -4.3694 5.2764
# 4 -4.9956 -2.6554 -1.0281 30.1902 3.5999 2.7500
# 5 10.5716 5.9330 -4.3694 3.5999 34.2415 2.9220
# 6 14.0523 19.8876 5.2764 2.7500 2.9220 36.0624
#
#
#
# Elastic Compliance Matrix: (Units=1/GPa)
#
#
# Indices 1 2 3 4 5 6 
#
# 1 0.007982 -0.001674 -0.002175 0.001556 -0.002463 -0.001788
# 2 -0.001674 0.012517 -0.002200 0.001476 -0.001583 -0.005913
# 3 -0.002175 -0.002200 0.013783 -0.000412 0.002868 -0.000157
# 4 0.001556 0.001476 -0.000412 0.034316 -0.004085 -0.003646
# 5 -0.002463 -0.001583 0.002868 -0.004085 0.031102 -0.000795
# 6 -0.001788 -0.005913 -0.000157 -0.003646 -0.000795 0.032053
#
#
# Mechanical properties :
#
#
# Convention : Reuss Voigt Hill
#
# Bulk Modulus (GPa) = 45.07469 53.67874 49.37671
# Shear Modulus (GPa) = 33.05915 36.56136 34.81026
#
# Velocity S-wave (km/s) = 3.77422 3.96910 3.87289
# Velocity P-wave (km/s) = 6.19799 6.64338 6.42454
#
# Compressibility (1/GPa) = 0.02218540
#
# Stress axis : x y z
#
# Youngs Moduli (GPa) = 125.28693 79.89277 72.55248
#
# Poissons Ratio (x) = 0.13371 0.15777
# Poissons Ratio (y) = 0.20969 0.15960
# Poissons Ratio (z) = 0.27245 0.17575
#
# Static dielectric constant tensor:
#      x y z
#    x 1.885570 -0.004140 0.002370 
#    y -0.004140 1.864110 -0.010050 
#    z 0.002370 -0.010050 1.912700 
# 
# From -- ./inp_files/346249.got.cif
#   From: 2010.05.17/outbox.cif.g08.bks.cpg/sg2_174_cif.got.tgz:346249.got - 2010.06.03 11:33:40.
