data_PCOD9016965
_publ_section_title
;
Structure prediction by ZEFSAII (Michael W. Deem and Ramdas Pophale) SiO2 
 PCOD9016965
Probable space group: P -1
;
_chemical_formula_sum "Si O2"
_cell_formula_units_Z 16
_cell_length_a 6.844173
_cell_length_b 19.932471
_cell_length_c 11.440714
_cell_angle_alpha 148.793119
_cell_angle_beta 54.330242
_cell_angle_gamma 112.273276
_cell_volume 629.830661
_symmetry_space_group_name_H-M "P -1"
_symmetry_group_IT_number 2
_symmetry_cell_setting 'triclinic'
loop_
_space_group_symop_operation_xyz
x,y,z
-x,-y,-z
loop_
_atom_site_type_symbol
_atom_site_label
_atom_site_fract_x
_atom_site_fract_y
_atom_site_fract_z
Si Si1 0.394180 0.687453 0.581442
Si Si2 0.910592 0.126055 0.306910
Si Si3 0.068046 0.628363 0.788471
Si Si4 0.734500 0.499197 0.036073
Si Si5 0.471266 0.750332 0.198565
Si Si6 0.242175 0.869490 0.212002
Si Si7 0.911949 0.622188 0.451568
Si Si8 0.288387 0.974100 0.114160
O O1 0.201889 0.617104 0.599133
O O2 0.651243 0.656998 0.521552
O O3 0.243047 0.841339 0.875832
O O4 0.516280 0.633779 0.336471
O O5 0.008459 0.240379 0.377804
O O6 0.629360 0.168719 0.523970
O O7 0.054420 0.096737 0.340577
O O8 0.000000 0.000000 0.000000
O O9 0.144666 0.474401 0.574830
O O10 0.770862 0.696696 0.000261
O O11 0.179914 0.733490 0.982513
O O12 0.647221 0.376482 0.938266
O O13 0.828706 0.477077 0.839403
O O14 0.000000 0.500000 0.000000
O O15 0.376905 0.833722 0.235814
O O16 0.374160 0.926728 0.144217
O O17 0.000000 0.000000 0.500000
O O18 0.500000 0.000000 0.000000
#
# Coordination Sequence:
#
# PCOD9016965 Si02
#       8
#     2   2   2   2   2   2   2   2
#     4  10  21  42  70 106 146 186 247 300 372 445
#     4  11  25  46  72 111 147 194 255 311 368 441
#     4  11  26  44  73 114 148 195 248 303 380 443
#     4   9  20  39  71 104 142 192 244 301 365 434
#     4  11  25  48  73 111 150 193 253 303 374 450
#     4  11  24  47  77 100 150 198 241 306 373 443
#     4  10  21  43  73 101 150 193 245 309 365 440
#     4  11  23  44  69 106 137 192 247 297 370 435
#
# _framework density 25.403652999999998
#
# number of rings (size 3 to 8) (size 9 to 14) (size 15 to 20)
#    0.000    1.500    2.500    1.875    0.000    8.000 
#    4.500    0.000    0.000    0.000    0.000    0.000 
#    0.000    0.000    0.000    0.000    0.000    0.000 
#
# Total GULP energy -89258.731821 kJ/mol
# GULP energy per Si atom -5578.670739 kJ/mol
# Density = 2.534583 g / cm^3
# Si number density = 25.403653 Si / 1000 Ang^3
#
#
#
# Elastic Constant Matrix: (Units=GPa)
#
#
# Indices 1 2 3 4 5 6 
#
# 1 109.3528 35.6139 11.0201 -5.6211 -3.2046 -3.5879
# 2 35.6139 189.3548 18.5232 3.1533 0.0321 -6.1910
# 3 11.0201 18.5232 72.9220 -12.2145 -7.9616 6.1907
# 4 -5.6211 3.1533 -12.2145 38.1135 12.0194 -14.5735
# 5 -3.2046 0.0321 -7.9616 12.0194 35.5499 -1.9049
# 6 -3.5879 -6.1910 6.1907 -14.5735 -1.9049 47.0493
#
#
#
# Elastic Compliance Matrix: (Units=1/GPa)
#
#
# Indices 1 2 3 4 5 6 
#
# 1 0.009942 -0.001778 -0.000840 0.001737 0.000186 0.001180
# 2 -0.001778 0.005787 -0.001420 -0.000959 -0.000132 0.000510
# 3 -0.000840 -0.001420 0.015143 0.003858 0.001961 -0.000969
# 4 0.001737 -0.000959 0.003858 0.034804 -0.010217 0.009865
# 5 0.000186 -0.000132 0.001961 -0.010217 0.031925 -0.002133
# 6 0.001180 0.000510 -0.000969 0.009865 -0.002133 0.024508
#
#
# Mechanical properties :
#
#
# Convention : Reuss Voigt Hill
#
# Bulk Modulus (GPa) = 43.86499 55.77154 49.81827
# Shear Modulus (GPa) = 36.28876 44.57405 40.43140
#
# Velocity S-wave (km/s) = 3.78363 4.19338 3.99376
# Velocity P-wave (km/s) = 6.03262 6.74149 6.39688
#
# Compressibility (1/GPa) = 0.02279723
#
# Stress axis : x y z
#
# Youngs Moduli (GPa) = 100.58460 172.79897 66.03571
#
# Poissons Ratio (x) = 0.30725 0.05545
# Poissons Ratio (y) = 0.17885 0.09375
# Poissons Ratio (z) = 0.08447 0.24532
#
# Static dielectric constant tensor:
#      x y z
#    x 2.095600 -0.030120 0.087200 
#    y -0.030120 1.944810 -0.140610 
#    z 0.087200 -0.140610 2.113560 
# 
# From -- ./inp_files/437845.got.cif
#   From: 2010.05.17/outbox.cif.g08.bks.cpg/sg2_219_cif.got.tgz:437845.got - 2010.06.03 11:33:40.
