data_PCOD9016258
_publ_section_title
;
Structure prediction by ZEFSAII (Michael W. Deem and Ramdas Pophale) SiO2 
 PCOD9016258
Probable space group: P -1
;
_chemical_formula_sum "Si O2"
_cell_formula_units_Z 16
_cell_length_a 20.224413
_cell_length_b 12.520812
_cell_length_c 17.728523
_cell_angle_alpha 27.595706
_cell_angle_beta 20.659285
_cell_angle_gamma 40.479012
_cell_volume 665.925864
_symmetry_space_group_name_H-M "P -1"
_symmetry_group_IT_number 2
_symmetry_cell_setting 'triclinic'
loop_
_space_group_symop_operation_xyz
x,y,z
-x,-y,-z
loop_
_atom_site_type_symbol
_atom_site_label
_atom_site_fract_x
_atom_site_fract_y
_atom_site_fract_z
Si Si1 0.289116 0.043152 0.414703
Si Si2 0.140030 0.907590 0.188432
Si Si3 0.785546 0.760157 0.861921
Si Si4 0.883751 0.296856 0.058799
Si Si5 0.418924 0.506882 0.903833
Si Si6 0.474174 0.241302 0.731131
Si Si7 0.776245 0.834962 0.206475
Si Si8 0.922175 0.335403 0.813272
O O1 0.068100 0.049260 0.628459
O O2 0.273742 0.953131 0.573782
O O3 0.347585 0.848179 0.424869
O O4 0.453665 0.326386 0.040817
O O5 0.079298 0.608562 0.444151
O O6 0.261625 0.027833 0.058434
O O7 0.286432 0.069196 0.862886
O O8 0.819182 0.520340 0.007314
O O9 0.728673 0.690105 0.878997
O O10 0.583749 0.757375 0.120452
O O11 0.000000 0.000000 0.500000
O O12 0.913825 0.299592 0.934885
O O13 0.106704 0.341259 0.825533
O O14 0.607204 0.698510 0.534796
O O15 0.298892 0.660329 0.971151
O O16 0.500000 0.500000 0.500000
O O17 0.938455 0.099275 0.904277
#
# Coordination Sequence:
#
# PCOD9016258 Si02
#       8
#     2   2   2   2   2   2   2   2
#     4  10  23  43  60  91 133 166 209 262 309 374
#     4  10  24  43  65  95 131 163 213 266 313 386
#     4  11  23  42  63  90 127 170 207 262 321 375
#     4  10  22  41  61  91 129 160 215 262 308 384
#     4  10  23  41  61  95 127 158 215 264 308 380
#     4  12  23  41  67  92 128 171 212 257 323 373
#     4  11  22  40  66  95 122 166 210 266 321 372
#     4  10  21  42  67  88 127 169 205 260 330 373
#
# _framework density 24.026698
#
# number of rings (size 3 to 8) (size 9 to 14) (size 15 to 20)
#    0.000    1.500    1.250    4.125    5.250    1.000 
#    6.750    0.625    0.000    0.000    0.000    0.000 
#    0.000    0.000    0.000    0.000    0.000    0.000 
#
# Total GULP energy -89375.243192 kJ/mol
# GULP energy per Si atom -5585.952700 kJ/mol
# Density = 2.397201 g / cm^3
# Si number density = 24.026698 Si / 1000 Ang^3
#
#
#
# Elastic Constant Matrix: (Units=GPa)
#
#
# Indices 1 2 3 4 5 6 
#
# 1 57.8853 20.4082 23.7179 -8.1016 24.3171 -11.1969
# 2 20.4082 89.4963 33.0030 0.6772 7.2596 -11.5049
# 3 23.7179 33.0030 92.9623 -8.8438 24.1188 -21.0595
# 4 -8.1016 0.6772 -8.8438 35.4201 -4.5602 8.7694
# 5 24.3171 7.2596 24.1188 -4.5602 47.8787 -5.8466
# 6 -11.1969 -11.5049 -21.0595 8.7694 -5.8466 31.6839
#
#
#
# Elastic Compliance Matrix: (Units=1/GPa)
#
#
# Indices 1 2 3 4 5 6 
#
# 1 0.024747 -0.003952 -0.000965 0.003171 -0.010716 0.003814
# 2 -0.003952 0.013713 -0.004203 -0.002406 0.002040 0.001831
# 3 -0.000965 -0.004203 0.015749 0.001267 -0.005809 0.007178
# 4 0.003171 -0.002406 0.001267 0.031203 0.000170 -0.007516
# 5 -0.010716 0.002040 -0.005809 0.000170 0.028761 -0.001647
# 6 0.003814 0.001831 0.007178 -0.007516 -0.001647 0.040122
#
#
# Mechanical properties :
#
#
# Convention : Reuss Voigt Hill
#
# Bulk Modulus (GPa) = 27.80143 43.84469 35.82306
# Shear Modulus (GPa) = 27.09650 33.87753 30.48701
#
# Velocity S-wave (km/s) = 3.36187 3.75906 3.56600
# Velocity P-wave (km/s) = 5.16388 6.09333 5.64776
#
# Compressibility (1/GPa) = 0.03596937
#
# Stress axis : x y z
#
# Youngs Moduli (GPa) = 40.40822 72.92345 63.49483
#
# Poissons Ratio (x) = 0.28818 0.06128
# Poissons Ratio (y) = 0.15969 0.26689
# Poissons Ratio (z) = 0.03900 0.30652
#
# Static dielectric constant tensor:
#      x y z
#    x 1.974140 -0.026060 0.009580 
#    y -0.026060 1.905360 0.015390 
#    z 0.009580 0.015390 1.967060 
# 
# From -- ./inp_files/577914.got.cif
#   From: 2010.05.17/outbox.cif.g08.bks.cpg/sg2_289_cif.got.tgz:577914.got - 2010.06.03 11:33:40.
