data_PCOD9016460
_publ_section_title
;
Structure prediction by ZEFSAII (Michael W. Deem and Ramdas Pophale) SiO2 
 PCOD9016460
Probable space group: P -1
;
_chemical_formula_sum "Si O2"
_cell_formula_units_Z 13
_cell_length_a 7.829891
_cell_length_b 13.542119
_cell_length_c 12.750118
_cell_angle_alpha 133.759850
_cell_angle_beta 146.765390
_cell_angle_gamma 56.928120
_cell_volume 533.308273
_symmetry_space_group_name_H-M "P -1"
_symmetry_group_IT_number 2
_symmetry_cell_setting 'triclinic'
loop_
_space_group_symop_operation_xyz
x,y,z
-x,-y,-z
loop_
_atom_site_type_symbol
_atom_site_label
_atom_site_fract_x
_atom_site_fract_y
_atom_site_fract_z
Si Si1 0.174655 0.929209 0.325415
Si Si2 0.000000 0.500000 0.500000
Si Si3 0.738832 0.963152 0.924666
Si Si4 0.940424 0.629755 0.994228
Si Si5 0.105469 0.838344 0.535285
Si Si6 0.688785 0.240674 0.186161
Si Si7 0.867617 0.540458 0.217480
O O1 0.500000 0.000000 0.500000
O O2 0.080395 0.025873 0.444497
O O3 0.918435 0.924945 0.095434
O O4 0.169312 0.767557 0.230550
O O5 0.057943 0.664696 0.678096
O O6 0.019099 0.459218 0.604642
O O7 0.444540 0.858197 0.669687
O O8 0.581292 0.104426 0.968528
O O9 0.000000 0.000000 0.000000
O O10 0.594718 0.667186 0.871570
O O11 0.971433 0.571882 0.850599
O O12 0.000000 0.500000 0.000000
O O13 0.192993 0.814215 0.684390
O O14 0.924609 0.692841 0.307116
O O15 0.500000 0.500000 0.000000
#
# Coordination Sequence:
#
# PCOD9016460 Si02
#       7
#     2   1   2   2   2   2   2
#     4  11  23  45  72 104 147 192 247 315 375 450
#     4  10  24  40  72 102 144 194 234 306 390 438
#     4  11  23  42  74 103 137 192 257 304 372 449
#     4  12  25  43  70 105 154 198 245 310 379 445
#     4  10  21  46  71  98 145 196 244 312 378 446
#     4  10  21  42  67  99 141 190 246 303 364 458
#     4  11  25  45  71 109 151 190 256 311 380 464
#
# _framework density 24.376148000000001
#
# number of rings (size 3 to 8) (size 9 to 14) (size 15 to 20)
#    0.000    1.231    3.077    2.769    2.154    7.385 
#    2.769    1.538    0.000    0.000    0.000    0.000 
#    0.000    0.000    0.000    0.000    0.000    0.000 
#
# Total GULP energy -72445.510680 kJ/mol
# GULP energy per Si atom -5572.731591 kJ/mol
# Density = 2.432067 g / cm^3
# Si number density = 24.376148 Si / 1000 Ang^3
#
#
#
# Elastic Constant Matrix: (Units=GPa)
#
#
# Indices 1 2 3 4 5 6 
#
# 1 99.0831 37.2797 35.4732 3.8605 -1.4510 -2.3060
# 2 37.2797 107.3181 45.7513 28.9727 4.4761 -3.1970
# 3 35.4732 45.7513 127.1023 29.9295 21.0558 3.9239
# 4 3.8605 28.9727 29.9295 40.2006 7.1018 4.5473
# 5 -1.4510 4.4761 21.0558 7.1018 43.3747 6.8731
# 6 -2.3060 -3.1970 3.9239 4.5473 6.8731 45.5171
#
#
#
# Elastic Compliance Matrix: (Units=1/GPa)
#
#
# Indices 1 2 3 4 5 6 
#
# 1 0.012694 -0.004142 -0.003264 0.003880 0.001805 -0.000027
# 2 -0.004142 0.013915 -0.002007 -0.008419 0.000508 0.001705
# 3 -0.003264 -0.002007 0.011707 -0.006146 -0.004577 -0.000010
# 4 0.003880 -0.008419 -0.006146 0.035752 -0.001359 -0.003231
# 5 0.001805 0.000508 -0.004577 -0.001359 0.026026 -0.003272
# 6 -0.000027 0.001705 -0.000010 -0.003231 -0.003272 0.022906
#
#
# Mechanical properties :
#
#
# Convention : Reuss Voigt Hill
#
# Bulk Modulus (GPa) = 51.30731 63.39020 57.34875
# Shear Modulus (GPa) = 33.71044 40.15178 36.93111
#
# Velocity S-wave (km/s) = 3.72281 4.06294 3.89659
# Velocity P-wave (km/s) = 6.29070 6.93336 6.61983
#
# Compressibility (1/GPa) = 0.01949040
#
# Stress axis : x y z
#
# Youngs Moduli (GPa) = 78.77735 71.86471 85.41963
#
# Poissons Ratio (x) = 0.29764 0.27880
# Poissons Ratio (y) = 0.32627 0.17145
# Poissons Ratio (z) = 0.25712 0.14425
#
# Static dielectric constant tensor:
#      x y z
#    x 1.957670 0.016950 0.022750 
#    y 0.016950 1.988980 0.042030 
#    z 0.022750 0.042030 2.029200 
# 
# From -- ./inp_files/312218.got.cif
#   From: 2010.05.17/outbox.cif.g08.bks.cpg/sg2_157_cif.got.tgz:312218.got - 2010.06.03 11:33:40.
