data_PCOD9016620
_publ_section_title
;
Structure prediction by ZEFSAII (Michael W. Deem and Ramdas Pophale) SiO2 
 PCOD9016620
Probable space group: P -1
;
_chemical_formula_sum "Si O2"
_cell_formula_units_Z 14
_cell_length_a 13.809586
_cell_length_b 14.118768
_cell_length_c 9.140739
_cell_angle_alpha 151.353345
_cell_angle_beta 121.102874
_cell_angle_gamma 69.449922
_cell_volume 708.484284
_symmetry_space_group_name_H-M "P -1"
_symmetry_group_IT_number 2
_symmetry_cell_setting 'triclinic'
loop_
_space_group_symop_operation_xyz
x,y,z
-x,-y,-z
loop_
_atom_site_type_symbol
_atom_site_label
_atom_site_fract_x
_atom_site_fract_y
_atom_site_fract_z
Si Si1 0.738449 0.717043 0.627397
Si Si2 0.840477 0.356291 0.694276
Si Si3 0.391182 0.951363 0.955400
Si Si4 0.117958 0.432309 0.684406
Si Si5 0.713523 0.329610 0.274634
Si Si6 0.887118 0.192679 0.030113
Si Si7 0.976171 0.026889 0.348278
O O1 0.777678 0.655841 0.417036
O O2 0.694909 0.510103 0.404961
O O3 0.861161 0.852083 0.973106
O O4 0.645261 0.850302 0.744850
O O5 0.722765 0.178780 0.396118
O O6 0.807744 0.431352 0.612528
O O7 0.941547 0.239750 0.596278
O O8 0.862914 0.503588 0.047630
O O9 0.393736 0.804778 0.898255
O O10 0.500000 0.000000 0.000000
O O11 0.114235 0.632632 0.855459
O O12 0.995756 0.275575 0.336849
O O13 0.773122 0.181211 0.024036
O O14 0.917760 0.007053 0.715000
O O15 0.000000 0.000000 0.500000
#
# Coordination Sequence:
#
# PCOD9016620 Si02
#       7
#     2   2   2   2   2   2   2
#     4   9  19  36  54  76 108 138 173 213 267 312
#     4   9  19  32  50  81 105 136 184 211 251 315
#     4   9  20  39  58  75 101 135 179 229 271 303
#     4   9  16  31  51  76 110 145 165 209 260 311
#     4   9  20  34  53  81 103 137 185 210 261 312
#     4   9  17  29  50  74 113 147 168 204 259 311
#     4  10  17  30  51  78 110 149 170 200 259 307
#
# _framework density 19.760493
#
# number of rings (size 3 to 8) (size 9 to 14) (size 15 to 20)
#    0.857    2.000    1.429    0.857    0.000    1.714 
#    0.000    0.714    0.000    3.429    0.000    0.000 
#    0.000    0.000    0.000    0.000    0.000    0.000 
#
# Total GULP energy -78051.853946 kJ/mol
# GULP energy per Si atom -5575.132425 kJ/mol
# Density = 1.971552 g / cm^3
# Si number density = 19.760493 Si / 1000 Ang^3
#
#
#
# Elastic Constant Matrix: (Units=GPa)
#
#
# Indices 1 2 3 4 5 6 
#
# 1 105.1091 18.9195 39.8443 10.5572 -18.4263 27.6734
# 2 18.9195 40.5448 23.7329 4.6956 -5.3586 15.3679
# 3 39.8443 23.7329 97.4108 -3.8006 -36.2101 10.2036
# 4 10.5572 4.6956 -3.8006 29.0060 2.0097 -3.1823
# 5 -18.4263 -5.3586 -36.2101 2.0097 20.8024 -0.0979
# 6 27.6734 15.3679 10.2036 -3.1823 -0.0979 26.3678
#
#
#
# Elastic Compliance Matrix: (Units=1/GPa)
#
#
# Indices 1 2 3 4 5 6 
#
# 1 0.019980 0.003725 0.001093 -0.011963 0.021597 -0.024927
# 2 0.003725 0.038856 -0.010223 -0.011375 -0.003500 -0.023986
# 3 0.001093 -0.010223 0.035658 0.000802 0.060285 -0.008667
# 4 -0.011963 -0.011375 0.000802 0.044561 -0.016322 0.024192
# 5 0.021597 -0.003500 0.060285 -0.016322 0.172600 -0.045285
# 6 -0.024927 -0.023986 -0.008667 0.024192 -0.045285 0.084171
#
#
# Mechanical properties :
#
#
# Convention : Reuss Voigt Hill
#
# Bulk Modulus (GPa) = 11.94972 45.33979 28.64476
# Shear Modulus (GPa) = 11.50667 25.93977 18.72322
#
# Velocity S-wave (km/s) = 2.41572 3.62706 3.08150
# Velocity P-wave (km/s) = 3.72040 6.36673 5.21424
#
# Compressibility (1/GPa) = 0.08368397
#
# Stress axis : x y z
#
# Youngs Moduli (GPa) = 50.05081 25.73615 28.04409
#
# Poissons Ratio (x) = -0.09587 -0.03064
# Poissons Ratio (y) = -0.18645 0.28668
# Poissons Ratio (z) = -0.05469 0.26309
#
# Static dielectric constant tensor:
#      x y z
#    x 1.703380 0.019530 0.010490 
#    y 0.019530 1.704350 0.025320 
#    z 0.010490 0.025320 1.710850 
# 
# From -- ./inp_files/200360.got.cif
#   From: 2010.05.17/outbox.cif.g08.bks.cpg/sg2_101_cif.got.tgz:200360.got - 2010.06.03 11:33:40.
