data_PCOD9016117
_publ_section_title
;
Structure prediction by ZEFSAII (Michael W. Deem and Ramdas Pophale) SiO2 
 PCOD9016117
Probable space group: P -1
;
_chemical_formula_sum "Si O2"
_cell_formula_units_Z 16
_cell_length_a 5.289193
_cell_length_b 17.946113
_cell_length_c 21.076906
_cell_angle_alpha 20.559997
_cell_angle_beta 103.411151
_cell_angle_gamma 105.768305
_cell_volume 674.657045
_symmetry_space_group_name_H-M "P -1"
_symmetry_group_IT_number 2
_symmetry_cell_setting 'triclinic'
loop_
_space_group_symop_operation_xyz
x,y,z
-x,-y,-z
loop_
_atom_site_type_symbol
_atom_site_label
_atom_site_fract_x
_atom_site_fract_y
_atom_site_fract_z
Si Si1 0.307730 0.928973 0.986838
Si Si2 0.309400 0.192687 0.420192
Si Si3 0.728415 0.717205 0.954632
Si Si4 0.202359 0.370979 0.580226
Si Si5 0.962878 0.479895 0.353976
Si Si6 0.859610 0.096575 0.561537
Si Si7 0.551429 0.639344 0.142222
Si Si8 0.868126 0.512953 0.913875
O O1 0.435083 0.840927 0.001588
O O2 0.184704 0.136742 0.795694
O O3 0.118491 0.718276 0.166818
O O4 0.500000 0.000000 0.000000
O O5 0.581234 0.099930 0.507751
O O6 0.096599 0.058971 0.560165
O O7 0.379929 0.431572 0.265818
O O8 0.189805 0.254371 0.297688
O O9 0.740374 0.727573 0.023580
O O10 0.421357 0.633106 0.986985
O O11 0.922859 0.560820 0.064542
O O12 0.813251 0.934332 0.747105
O O13 0.500000 0.500000 0.500000
O O14 0.096187 0.360854 0.510630
O O15 0.000000 0.500000 0.500000
O O16 0.943774 0.332744 0.408165
O O17 0.667132 0.534953 0.294855
O O18 0.000000 0.500000 0.000000
#
# Coordination Sequence:
#
# PCOD9016117 Si02
#       8
#     2   2   2   2   2   2   2   2
#     4  12  25  45  71  96 140 183 236 298 366 427
#     4  10  21  42  66  95 139 179 221 284 342 409
#     4  11  25  42  71 106 141 183 238 286 341 420
#     4  12  29  46  65  95 134 178 229 293 363 432
#     4  11  25  43  68  96 135 181 235 290 362 415
#     4  11  23  42  66 101 137 177 236 288 340 412
#     4  10  24  43  69  99 134 188 236 285 357 423
#     4  11  23  45  72 104 143 190 232 277 346 420
#
# _framework density 23.715751999999998
#
# number of rings (size 3 to 8) (size 9 to 14) (size 15 to 20)
#    0.000    1.000    2.500    4.125    5.250    2.000 
#    0.000    3.750    0.000    0.000    0.000    0.000 
#    0.000    0.000    0.000    0.000    0.000    0.000 
#
# Total GULP energy -89442.476129 kJ/mol
# GULP energy per Si atom -5590.154758 kJ/mol
# Density = 2.366177 g / cm^3
# Si number density = 23.715752 Si / 1000 Ang^3
#
#
#
# Elastic Constant Matrix: (Units=GPa)
#
#
# Indices 1 2 3 4 5 6 
#
# 1 104.8457 34.0782 15.0822 6.1338 1.6067 11.0095
# 2 34.0782 90.0723 26.8431 6.8227 9.7908 17.0791
# 3 15.0822 26.8431 132.6822 22.0679 4.0132 11.5439
# 4 6.1338 6.8227 22.0679 46.8621 8.1426 5.4271
# 5 1.6067 9.7908 4.0132 8.1426 42.3804 8.2912
# 6 11.0095 17.0791 11.5439 5.4271 8.2912 31.9028
#
#
#
# Elastic Compliance Matrix: (Units=1/GPa)
#
#
# Indices 1 2 3 4 5 6 
#
# 1 0.011028 -0.003811 -0.000232 -0.000740 0.000981 -0.001811
# 2 -0.003811 0.014314 -0.002005 0.000307 -0.002024 -0.005149
# 3 -0.000232 -0.002005 0.008700 -0.003712 0.000662 -0.001535
# 4 -0.000740 0.000307 -0.003712 0.024020 -0.003990 -0.001615
# 5 0.000981 -0.002024 0.000662 -0.003990 0.025811 -0.005523
# 6 -0.001811 -0.005149 -0.001535 -0.001615 -0.005523 0.036992
#
#
# Mechanical properties :
#
#
# Convention : Reuss Voigt Hill
#
# Bulk Modulus (GPa) = 45.56112 53.28968 49.42540
# Shear Modulus (GPa) = 35.64434 41.00220 38.32327
#
# Velocity S-wave (km/s) = 3.88104 4.16252 4.02424
# Velocity P-wave (km/s) = 6.27187 6.75433 6.51756
#
# Compressibility (1/GPa) = 0.02194854
#
# Stress axis : x y z
#
# Youngs Moduli (GPa) = 90.67728 69.85971 114.94781
#
# Poissons Ratio (x) = 0.26620 0.02663
# Poissons Ratio (y) = 0.34553 0.23043
# Poissons Ratio (z) = 0.02101 0.14004
#
# Static dielectric constant tensor:
#      x y z
#    x 1.924000 0.017440 -0.026650 
#    y 0.017440 2.028340 0.046930 
#    z -0.026650 0.046930 1.896150 
# 
# From -- ./inp_files/584042.got.cif
#   From: 2010.05.17/outbox.cif.g08.bks.cpg/sg2_293_cif.got.tgz:584042.got - 2010.06.03 11:33:40.
