data_PCOD9016060
_publ_section_title
;
Structure prediction by ZEFSAII (Michael W. Deem and Ramdas Pophale) SiO2 
 PCOD9016060
Probable space group: P -1
;
_chemical_formula_sum "Si O2"
_cell_formula_units_Z 16
_cell_length_a 8.130186
_cell_length_b 5.161222
_cell_length_c 27.019588
_cell_angle_alpha 123.147869
_cell_angle_beta 140.944226
_cell_angle_gamma 59.845899
_cell_volume 591.591306
_symmetry_space_group_name_H-M "P -1"
_symmetry_group_IT_number 2
_symmetry_cell_setting 'triclinic'
loop_
_space_group_symop_operation_xyz
x,y,z
-x,-y,-z
loop_
_atom_site_type_symbol
_atom_site_label
_atom_site_fract_x
_atom_site_fract_y
_atom_site_fract_z
Si Si1 0.930603 0.852281 0.288332
Si Si2 0.270362 0.678240 0.226613
Si Si3 0.307505 0.821595 0.991576
Si Si4 0.167905 0.365821 0.073423
Si Si5 0.516785 0.554103 0.423708
Si Si6 0.172488 0.392023 0.414158
Si Si7 0.774314 0.943686 0.372864
Si Si8 0.944570 0.270419 0.173260
O O1 0.796023 0.888135 0.313642
O O2 0.247485 0.720204 0.353001
O O3 0.813406 0.595961 0.201572
O O4 0.949689 0.212292 0.318696
O O5 0.289709 0.586136 0.163231
O O6 0.538515 0.769492 0.319033
O O7 0.167211 0.406428 0.205837
O O8 0.066066 0.003433 0.211645
O O9 0.046713 0.757160 0.953524
O O10 0.226185 0.893109 0.923326
O O11 0.500000 0.500000 0.000000
O O12 0.385014 0.100747 0.072141
O O13 0.000000 0.500000 0.000000
O O14 0.392742 0.381151 0.422546
O O15 0.712507 0.743293 0.520376
O O16 0.690488 0.303978 0.403906
O O17 0.043712 0.745421 0.433906
#
# Coordination Sequence:
#
# PCOD9016060 Si02
#       8
#     2   2   2   2   2   2   2   2
#     4  11  24  39  64  93 128 170 225 270 331 396
#     4  11  24  44  70  94 135 182 215 274 337 390
#     4  10  23  42  66  99 130 174 219 273 328 391
#     4  10  21  42  66  93 134 169 220 268 329 393
#     4  10  21  43  62  90 132 170 213 278 335 390
#     4  10  23  39  64  94 127 171 220 273 330 400
#     4  11  24  39  64  95 126 172 225 270 329 393
#     4  11  24  45  68  95 137 177 218 271 338 394
#
# _framework density 27.045697000000001
#
# number of rings (size 3 to 8) (size 9 to 14) (size 15 to 20)
#    0.000    1.500    2.500    1.500    3.500    4.000 
#    2.250    0.000    0.000    0.000    0.000    0.000 
#    0.000    0.000    0.000    0.000    0.000    0.000 
#
# Total GULP energy -89454.647697 kJ/mol
# GULP energy per Si atom -5590.915481 kJ/mol
# Density = 2.698414 g / cm^3
# Si number density = 27.045697 Si / 1000 Ang^3
#
#
#
# Elastic Constant Matrix: (Units=GPa)
#
#
# Indices 1 2 3 4 5 6 
#
# 1 78.9737 20.7018 8.2099 6.8462 -10.8868 -21.3360
# 2 20.7018 125.4604 11.7241 11.4949 -7.3555 -35.8657
# 3 8.2099 11.7241 73.5873 21.6340 -13.3130 -10.7671
# 4 6.8462 11.4949 21.6340 45.1794 -8.4348 -6.2473
# 5 -10.8868 -7.3555 -13.3130 -8.4348 40.2564 15.2263
# 6 -21.3360 -35.8657 -10.7671 -6.2473 15.2263 49.4775
#
#
#
# Elastic Compliance Matrix: (Units=1/GPa)
#
#
# Indices 1 2 3 4 5 6 
#
# 1 0.014554 -0.000754 -0.000199 -0.000914 0.001623 0.005071
# 2 -0.000754 0.010276 -0.000276 -0.001641 -0.001533 0.007329
# 3 -0.000199 -0.000276 0.016524 -0.006991 0.003370 0.001390
# 4 -0.000914 -0.001641 -0.006991 0.026495 0.002944 -0.000666
# 5 0.001623 -0.001533 0.003370 0.002944 0.029955 -0.008525
# 6 0.005071 0.007329 0.001390 -0.000666 -0.008525 0.030552
#
#
# Mechanical properties :
#
#
# Convention : Reuss Voigt Hill
#
# Bulk Modulus (GPa) = 25.71012 39.92146 32.81579
# Shear Modulus (GPa) = 34.77524 42.80837 38.79180
#
# Velocity S-wave (km/s) = 3.58969 3.98278 3.79133
# Velocity P-wave (km/s) = 5.16798 5.99523 5.59691
#
# Compressibility (1/GPa) = 0.03889519
#
# Stress axis : x y z
#
# Youngs Moduli (GPa) = 68.71043 97.31047 60.51920
#
# Poissons Ratio (x) = 0.07340 0.01206
# Poissons Ratio (y) = 0.05183 0.01669
# Poissons Ratio (z) = 0.01370 0.02683
#
# Static dielectric constant tensor:
#      x y z
#    x 2.095850 0.052850 0.089230 
#    y 0.052850 2.226160 0.101680 
#    z 0.089230 0.101680 2.320840 
# 
# From -- ./inp_files/10619.got.cif
#   From: 2010.05.17/outbox.cif.g08.bks.cpg/sg2_6_cif.got.tgz:10619.got - 2010.06.03 11:33:40.
