data_PCOD9016819
_publ_section_title
;
Structure prediction by ZEFSAII (Michael W. Deem and Ramdas Pophale) SiO2 
 PCOD9016819
Probable space group: P -1
;
_chemical_formula_sum "Si O2"
_cell_formula_units_Z 16
_cell_length_a 14.953840
_cell_length_b 5.078251
_cell_length_c 16.663691
_cell_angle_alpha 79.191213
_cell_angle_beta 35.194955
_cell_angle_gamma 83.566940
_cell_volume 714.503673
_symmetry_space_group_name_H-M "P -1"
_symmetry_group_IT_number 2
_symmetry_cell_setting 'triclinic'
loop_
_space_group_symop_operation_xyz
x,y,z
-x,-y,-z
loop_
_atom_site_type_symbol
_atom_site_label
_atom_site_fract_x
_atom_site_fract_y
_atom_site_fract_z
Si Si1 0.837461 0.083790 0.150287
Si Si2 0.475316 0.214160 0.574314
Si Si3 0.797847 0.425650 0.009044
Si Si4 0.145143 0.324530 0.382494
Si Si5 0.983451 0.972253 0.826337
Si Si6 0.036103 0.856309 0.612220
Si Si7 0.544277 0.729528 0.766772
Si Si8 0.355348 0.690002 0.394952
O O1 0.790681 0.322519 0.112705
O O2 0.878529 0.122106 0.212002
O O3 0.929829 0.257549 0.879654
O O4 0.000000 0.000000 0.000000
O O5 0.500000 0.500000 0.500000
O O6 0.302742 0.143233 0.739249
O O7 0.594774 0.217586 0.559021
O O8 0.500000 0.000000 0.500000
O O9 0.637579 0.347468 0.084521
O O10 0.844933 0.740586 0.954412
O O11 0.120042 0.257669 0.310852
O O12 0.326040 0.401075 0.265007
O O13 0.000000 0.500000 0.500000
O O14 0.107222 0.075468 0.484406
O O15 0.018770 0.971608 0.706480
O O16 0.169474 0.648562 0.529215
O O17 0.576513 0.584690 0.666379
O O18 0.578189 0.052089 0.721223
#
# Coordination Sequence:
#
# PCOD9016819 Si02
#       8
#     2   2   2   2   2   2   2   2
#     4  10  24  45  68  96 138 190 230 267 331 410
#     4  12  26  41  63  99 140 174 225 286 338 386
#     4  11  24  43  67  95 132 186 224 265 327 400
#     4  10  21  42  69  95 125 174 211 281 347 414
#     4  11  25  42  68  98 135 175 226 279 320 396
#     4  10  23  41  66 100 131 163 225 275 346 400
#     4  11  22  40  68  91 127 165 227 261 330 398
#     4  11  22  39  65  92 127 173 208 279 326 402
#
# _framework density 22.393165
#
# number of rings (size 3 to 8) (size 9 to 14) (size 15 to 20)
#    0.000    1.250    2.500    2.625    3.500    5.000 
#    0.000    1.250    0.000    0.000    0.000    0.000 
#    0.000    0.000    0.000    0.000    0.000    0.000 
#
# Total GULP energy -89352.000433 kJ/mol
# GULP energy per Si atom -5584.500027 kJ/mol
# Density = 2.234220 g / cm^3
# Si number density = 22.393165 Si / 1000 Ang^3
#
#
#
# Elastic Constant Matrix: (Units=GPa)
#
#
# Indices 1 2 3 4 5 6 
#
# 1 144.0956 -6.6807 23.6991 -4.2919 -3.7641 14.9640
# 2 -6.6807 70.9958 5.0140 1.0609 2.8181 3.5418
# 3 23.6991 5.0140 52.9048 1.8916 5.7563 -2.5837
# 4 -4.2919 1.0609 1.8916 29.9707 9.2969 0.9421
# 5 -3.7641 2.8181 5.7563 9.2969 38.9264 8.6616
# 6 14.9640 3.5418 -2.5837 0.9421 8.6616 26.4695
#
#
#
# Elastic Compliance Matrix: (Units=1/GPa)
#
#
# Indices 1 2 3 4 5 6 
#
# 1 0.008498 0.001320 -0.004553 0.000849 0.002600 -0.006306
# 2 0.001320 0.014503 -0.002111 -0.000120 0.000066 -0.002910
# 3 -0.004553 -0.002111 0.022017 -0.000669 -0.004856 0.006618
# 4 0.000849 -0.000120 -0.000669 0.036195 -0.008683 0.001024
# 5 0.002600 0.000066 -0.004856 -0.008683 0.031378 -0.011912
# 6 -0.006306 -0.002910 0.006618 0.001024 -0.011912 0.046241
#
#
# Mechanical properties :
#
#
# Convention : Reuss Voigt Hill
#
# Bulk Modulus (GPa) = 29.12896 34.67347 31.90121
# Shear Modulus (GPa) = 27.62985 35.47092 31.55038
#
# Velocity S-wave (km/s) = 3.51643 3.98428 3.75764
# Velocity P-wave (km/s) = 5.43353 6.05669 5.75355
#
# Compressibility (1/GPa) = 0.03433010
#
# Stress axis : x y z
#
# Youngs Moduli (GPa) = 117.67559 68.95144 45.41950
#
# Poissons Ratio (x) = -0.09101 0.20680
# Poissons Ratio (y) = -0.15532 0.09587
# Poissons Ratio (z) = 0.53578 0.14554
#
# Static dielectric constant tensor:
#      x y z
#    x 1.891280 0.024990 -0.028830 
#    y 0.024990 1.802950 0.056410 
#    z -0.028830 0.056410 1.811530 
# 
# From -- ./inp_files/525772.got.cif
#   From: 2010.05.17/outbox.cif.g08.bks.cpg/sg2_263_cif.got.tgz:525772.got - 2010.06.03 11:33:40.
