data_PCOD9016287
_publ_section_title
;
Structure prediction by ZEFSAII (Michael W. Deem and Ramdas Pophale) SiO2 
 PCOD9016287
Probable space group: P -1
;
_chemical_formula_sum "Si O2"
_cell_formula_units_Z 12
_cell_length_a 22.451685
_cell_length_b 19.916162
_cell_length_c 12.613645
_cell_angle_alpha 152.797225
_cell_angle_beta 159.754194
_cell_angle_gamma 16.716834
_cell_volume 559.026961
_symmetry_space_group_name_H-M "P -1"
_symmetry_group_IT_number 2
_symmetry_cell_setting 'triclinic'
loop_
_space_group_symop_operation_xyz
x,y,z
-x,-y,-z
loop_
_atom_site_type_symbol
_atom_site_label
_atom_site_fract_x
_atom_site_fract_y
_atom_site_fract_z
Si Si1 0.350092 0.225129 0.132393
Si Si2 0.260383 0.849037 0.913068
Si Si3 0.988450 0.290094 0.771285
Si Si4 0.113620 0.517186 0.614421
Si Si5 0.798152 0.030341 0.773756
Si Si6 0.780210 0.834102 0.803164
O O1 0.249427 0.440131 0.207861
O O2 0.537893 0.163158 0.453876
O O3 0.101473 0.296943 0.867028
O O4 0.500000 0.000000 0.000000
O O5 0.119260 0.796335 0.562366
O O6 0.562862 0.656990 0.094774
O O7 0.278868 0.846582 0.068395
O O8 0.095128 0.104380 0.957346
O O9 0.223905 0.126619 0.024674
O O10 0.080894 0.416884 0.327459
O O11 0.000000 0.500000 0.500000
O O12 0.947760 0.776351 0.689097
O O13 0.000000 0.000000 0.000000
O O14 0.500000 0.000000 0.500000
#
# Coordination Sequence:
#
# PCOD9016287 Si02
#       6
#     2   2   2   2   2   2
#     4  11  24  42  65  94 135 177 219 272 335 398
#     4  11  24  42  67 100 136 171 225 280 333 391
#     4  11  24  42  64  97 134 172 220 278 336 393
#     4  11  23  42  69  97 131 177 227 269 330 398
#     4  12  25  43  71 100 134 179 226 273 333 403
#     4  10  21  42  67  91 128 174 216 273 332 392
#
# _framework density 21.465869999999999
#
# number of rings (size 3 to 8) (size 9 to 14) (size 15 to 20)
#    0.000    1.000    1.667    5.500    2.333    5.333 
#    0.000    0.833    0.000    0.000    0.000    0.000 
#    0.000    0.000    0.000    0.000    0.000    0.000 
#
# Total GULP energy -66933.567463 kJ/mol
# GULP energy per Si atom -5577.797289 kJ/mol
# Density = 2.141701 g / cm^3
# Si number density = 21.465870 Si / 1000 Ang^3
#
#
#
# Elastic Constant Matrix: (Units=GPa)
#
#
# Indices 1 2 3 4 5 6 
#
# 1 77.8740 22.0452 44.2748 11.6524 6.2489 -0.9849
# 2 22.0452 95.5408 57.7153 21.5341 -4.2438 8.9189
# 3 44.2748 57.7153 160.2097 37.4409 -0.2130 2.2019
# 4 11.6524 21.5341 37.4409 36.5474 2.3581 4.5724
# 5 6.2489 -4.2438 -0.2130 2.3581 47.9949 5.6935
# 6 -0.9849 8.9189 2.2019 4.5724 5.6935 31.6182
#
#
#
# Elastic Compliance Matrix: (Units=1/GPa)
#
#
# Indices 1 2 3 4 5 6 
#
# 1 0.015654 -0.001554 -0.003717 -0.000322 -0.002373 0.001659
# 2 -0.001554 0.014424 -0.003838 -0.003745 0.002082 -0.003683
# 3 -0.003717 -0.003838 0.010350 -0.007337 0.000405 0.001234
# 4 -0.000322 -0.003745 -0.007337 0.037749 -0.001751 -0.003586
# 5 -0.002373 0.002082 0.000405 -0.001751 0.021937 -0.004386
# 6 0.001659 -0.003683 0.001234 -0.003586 -0.004386 0.033941
#
#
# Mechanical properties :
#
#
# Convention : Reuss Voigt Hill
#
# Bulk Modulus (GPa) = 45.02618 64.63280 54.82949
# Shear Modulus (GPa) = 31.31328 37.20470 34.25899
#
# Velocity S-wave (km/s) = 3.82350 4.16769 3.99930
# Velocity P-wave (km/s) = 6.36502 7.30304 6.85011
#
# Compressibility (1/GPa) = 0.02220930
#
# Stress axis : x y z
#
# Youngs Moduli (GPa) = 63.88120 69.32690 96.61912
#
# Poissons Ratio (x) = 0.10777 0.35912
# Poissons Ratio (y) = 0.09930 0.37085
# Poissons Ratio (z) = 0.23744 0.26609
#
# Static dielectric constant tensor:
#      x y z
#    x 1.832800 -0.032460 -0.005720 
#    y -0.032460 1.953260 -0.026380 
#    z -0.005720 -0.026380 1.761010 
# 
# From -- ./inp_files/48973.got.cif
#   From: 2010.05.17/outbox.cif.g08.bks.cpg/sg2_25_cif.got.tgz:48973.got - 2010.06.03 11:33:40.
