data_PCOD9016445
_publ_section_title
;
Structure prediction by ZEFSAII (Michael W. Deem and Ramdas Pophale) SiO2 
 PCOD9016445
Probable space group: P -1
;
_chemical_formula_sum "Si O2"
_cell_formula_units_Z 14
_cell_length_a 17.509276
_cell_length_b 8.059257
_cell_length_c 11.320711
_cell_angle_alpha 113.266415
_cell_angle_beta 149.126876
_cell_angle_gamma 50.872240
_cell_volume 591.186152
_symmetry_space_group_name_H-M "P -1"
_symmetry_group_IT_number 2
_symmetry_cell_setting 'triclinic'
loop_
_space_group_symop_operation_xyz
x,y,z
-x,-y,-z
loop_
_atom_site_type_symbol
_atom_site_label
_atom_site_fract_x
_atom_site_fract_y
_atom_site_fract_z
Si Si1 0.215721 0.381375 0.718426
Si Si2 0.438470 0.705745 0.753800
Si Si3 0.861559 0.858683 0.617574
Si Si4 0.539051 0.650754 0.463228
Si Si5 0.151251 0.758649 0.561982
Si Si6 0.137767 0.447484 0.273376
Si Si7 0.812158 0.218568 0.876320
O O1 0.251328 0.167253 0.639606
O O2 0.217193 0.555593 0.684578
O O3 0.000000 0.500000 0.500000
O O4 0.384269 0.294298 0.006545
O O5 0.511971 0.460971 0.734098
O O6 0.319557 0.755824 0.730253
O O7 0.282709 0.868771 0.493091
O O8 0.876985 0.700437 0.694488
O O9 0.075326 0.770402 0.860969
O O10 0.655915 0.703063 0.556090
O O11 0.685361 0.461794 0.704588
O O12 0.333088 0.831158 0.296401
O O13 0.094291 0.671434 0.347776
O O14 0.000000 0.000000 0.500000
O O15 0.000000 0.500000 0.000000
O O16 0.000000 0.000000 0.000000
#
# Coordination Sequence:
#
# PCOD9016445 Si02
#       7
#     2   2   2   2   2   2   2
#     4  11  23  41  64  95 131 170 222 282 338 394
#     4  11  22  42  65  95 132 174 228 272 337 413
#     4  11  22  38  66  93 133 172 218 284 335 397
#     4  10  22  39  67  92 127 181 218 278 338 401
#     4  10  23  42  67  98 130 179 228 277 337 406
#     4  10  21  42  67  98 138 174 224 286 339 402
#     4  11  21  40  65  93 131 171 230 268 339 409
#
# _framework density 23.681206
#
# number of rings (size 3 to 8) (size 9 to 14) (size 15 to 20)
#    0.000    1.429    2.857    2.571    0.000    0.000 
#    0.000    3.571    3.143    0.000    0.000    0.000 
#    0.000    0.000    0.000    0.000    0.000    0.000 
#
# Total GULP energy -77980.588381 kJ/mol
# GULP energy per Si atom -5570.042027 kJ/mol
# Density = 2.362731 g / cm^3
# Si number density = 23.681206 Si / 1000 Ang^3
#
#
#
# Elastic Constant Matrix: (Units=GPa)
#
#
# Indices 1 2 3 4 5 6 
#
# 1 76.7264 20.6090 48.5526 -1.2995 32.3270 -5.6566
# 2 20.6090 60.6523 24.6065 -4.9114 18.0022 -5.6416
# 3 48.5526 24.6065 183.2390 10.6646 33.6934 -3.8701
# 4 -1.2995 -4.9114 10.6646 28.5336 -4.1432 9.0755
# 5 32.3270 18.0022 33.6934 -4.1432 40.2258 -1.4959
# 6 -5.6566 -5.6416 -3.8701 9.0755 -1.4959 35.1849
#
#
#
# Elastic Compliance Matrix: (Units=1/GPa)
#
#
# Indices 1 2 3 4 5 6 
#
# 1 0.021338 -0.001833 -0.002691 -0.001196 -0.014102 0.002550
# 2 -0.001833 0.019743 -0.001132 0.002243 -0.006113 0.001908
# 3 -0.002691 -0.001132 0.007267 -0.003912 -0.003782 0.001033
# 4 -0.001196 0.002243 -0.003912 0.041240 0.007087 -0.010599
# 5 -0.014102 -0.006113 -0.003782 0.007087 0.042689 -0.003676
# 6 0.002550 0.001908 0.001033 -0.010599 -0.003676 0.031828
#
#
# Mechanical properties :
#
#
# Convention : Reuss Voigt Hill
#
# Bulk Modulus (GPa) = 27.00053 56.46154 41.73104
# Shear Modulus (GPa) = 26.62930 35.91217 31.27074
#
# Velocity S-wave (km/s) = 3.35698 3.89843 3.63779
# Velocity P-wave (km/s) = 5.14317 6.64513 5.94180
#
# Compressibility (1/GPa) = 0.03703632
#
# Stress axis : x y z
#
# Youngs Moduli (GPa) = 46.86510 50.65152 137.60066
#
# Poissons Ratio (x) = 0.09283 0.37032
# Poissons Ratio (y) = 0.08589 0.15575
# Poissons Ratio (z) = 0.12613 0.05733
#
# Static dielectric constant tensor:
#      x y z
#    x 2.058910 -0.237740 -0.040140 
#    y -0.237740 2.603610 0.162700 
#    z -0.040140 0.162700 2.087620 
# 
# From -- ./inp_files/68197.got.cif
#   From: 2010.05.17/outbox.cif.g08.bks.cpg/sg2_35_cif.got.tgz:68197.got - 2010.06.03 11:33:40.
