data_PCOD9016769
_publ_section_title
;
Structure prediction by ZEFSAII (Michael W. Deem and Ramdas Pophale) SiO2 
 PCOD9016769
Probable space group: P -1
;
_chemical_formula_sum "Si O2"
_cell_formula_units_Z 14
_cell_length_a 14.782625
_cell_length_b 9.030534
_cell_length_c 9.894739
_cell_angle_alpha 135.969415
_cell_angle_beta 126.481407
_cell_angle_gamma 41.807616
_cell_volume 607.097882
_symmetry_space_group_name_H-M "P -1"
_symmetry_group_IT_number 2
_symmetry_cell_setting 'triclinic'
loop_
_space_group_symop_operation_xyz
x,y,z
-x,-y,-z
loop_
_atom_site_type_symbol
_atom_site_label
_atom_site_fract_x
_atom_site_fract_y
_atom_site_fract_z
Si Si1 0.421936 0.277274 0.041544
Si Si2 0.694557 0.984392 0.647669
Si Si3 0.028659 0.785016 0.276546
Si Si4 0.283201 0.736317 0.386041
Si Si5 0.212935 0.177828 0.824571
Si Si6 0.788400 0.025583 0.033719
Si Si7 0.597438 0.641590 0.232691
O O1 0.454030 0.296205 0.927672
O O2 0.268568 0.341711 0.932978
O O3 0.417120 0.474529 0.274589
O O4 0.500000 0.000000 0.000000
O O5 0.758797 0.083910 0.666249
O O6 0.538154 0.216951 0.701790
O O7 0.678079 0.770741 0.426704
O O8 0.777660 0.905459 0.808362
O O9 0.186019 0.649270 0.294181
O O10 0.000000 0.000000 0.500000
O O11 0.951784 0.666384 0.199292
O O12 0.939460 0.923419 0.153695
O O13 0.272860 0.927698 0.617265
O O14 0.262834 0.060550 0.941992
O O15 0.697077 0.335067 0.140479
#
# Coordination Sequence:
#
# PCOD9016769 Si02
#       7
#     2   2   2   2   2   2   2
#     4  12  25  39  65  97 125 166 214 255 315 385
#     4  11  23  39  66  91 129 168 208 254 322 373
#     4   8  20  43  65  91 128 163 211 263 310 368
#     4  11  22  41  66  89 128 167 205 261 314 366
#     4   9  22  42  63  93 126 158 212 254 312 370
#     4  10  21  42  69  88 128 166 202 267 314 365
#     4  11  24  42  61  96 132 160 210 264 313 373
#
# _framework density 23.060531999999998
#
# number of rings (size 3 to 8) (size 9 to 14) (size 15 to 20)
#    0.857    0.857    2.857    1.286    2.000    5.143 
#    0.000    2.143    0.000    0.000    0.000    0.000 
#    0.000    0.000    0.000    0.000    0.000    0.000 
#
# Total GULP energy -78059.130609 kJ/mol
# GULP energy per Si atom -5575.652186 kJ/mol
# Density = 2.300804 g / cm^3
# Si number density = 23.060532 Si / 1000 Ang^3
#
#
#
# Elastic Constant Matrix: (Units=GPa)
#
#
# Indices 1 2 3 4 5 6 
#
# 1 82.1282 -9.5114 6.9648 6.1081 -9.3703 17.8260
# 2 -9.5114 48.9236 28.1194 5.6912 -10.2220 10.9509
# 3 6.9648 28.1194 139.8546 7.4582 -20.7653 -1.1986
# 4 6.1081 5.6912 7.4582 33.4595 3.6945 -1.8201
# 5 -9.3703 -10.2220 -20.7653 3.6945 36.4805 -4.1377
# 6 17.8260 10.9509 -1.1986 -1.8201 -4.1377 23.1938
#
#
#
# Elastic Compliance Matrix: (Units=1/GPa)
#
#
# Indices 1 2 3 4 5 6 
#
# 1 0.018993 0.011212 -0.002253 -0.006509 0.005175 -0.019595
# 2 0.011212 0.034076 -0.006115 -0.008587 0.007045 -0.024439
# 3 -0.002253 -0.006115 0.009112 -0.000669 0.003607 0.005680
# 4 -0.006509 -0.008587 -0.000669 0.033997 -0.006712 0.010493
# 5 0.005175 0.007045 0.003607 -0.006712 0.033253 -0.001711
# 6 -0.019595 -0.024439 0.005680 0.010493 -0.001711 0.070526
#
#
# Mechanical properties :
#
#
# Convention : Reuss Voigt Hill
#
# Bulk Modulus (GPa) = 14.73425 35.78353 25.25889
# Shear Modulus (GPa) = 23.05293 34.98233 29.01763
#
# Velocity S-wave (km/s) = 3.16519 3.89907 3.55114
# Velocity P-wave (km/s) = 4.44535 5.98508 5.27173
#
# Compressibility (1/GPa) = 0.06786907
#
# Stress axis : x y z
#
# Youngs Moduli (GPa) = 52.65010 29.34634 109.74727
#
# Poissons Ratio (x) = -0.32903 0.24722
# Poissons Ratio (y) = -0.59031 0.67113
# Poissons Ratio (z) = 0.11860 0.17946
#
# Static dielectric constant tensor:
#      x y z
#    x 2.015970 -0.104100 0.058750 
#    y -0.104100 1.859190 0.002040 
#    z 0.058750 0.002040 1.891590 
# 
# From -- ./inp_files/294306.got.cif
#   From: 2010.05.17/outbox.cif.g08.bks.cpg/sg2_148_cif.got.tgz:294306.got - 2010.06.03 11:33:40.
