data_PCOD9016783
_publ_section_title
;
Structure prediction by ZEFSAII (Michael W. Deem and Ramdas Pophale) SiO2 
 PCOD9016783
Probable space group: P -1
;
_chemical_formula_sum "Si O2"
_cell_formula_units_Z 14
_cell_length_a 16.061464
_cell_length_b 22.113586
_cell_length_c 13.727612
_cell_angle_alpha 24.978008
_cell_angle_beta 154.576379
_cell_angle_gamma 162.940548
_cell_volume 577.077450
_symmetry_space_group_name_H-M "P -1"
_symmetry_group_IT_number 2
_symmetry_cell_setting 'triclinic'
loop_
_space_group_symop_operation_xyz
x,y,z
-x,-y,-z
loop_
_atom_site_type_symbol
_atom_site_label
_atom_site_fract_x
_atom_site_fract_y
_atom_site_fract_z
Si Si1 0.812913 0.350757 0.927717
Si Si2 0.559159 0.817040 0.780795
Si Si3 0.564395 0.101037 0.738509
Si Si4 0.131859 0.396263 0.036844
Si Si5 0.809018 0.868691 0.769369
Si Si6 0.187898 0.847815 0.268528
Si Si7 0.691248 0.720391 0.444532
O O1 0.528582 0.291766 0.717781
O O2 0.000000 0.500000 0.000000
O O3 0.027915 0.469595 0.889261
O O4 0.687176 0.120329 0.143776
O O5 0.772453 0.917929 0.766461
O O6 0.251988 0.724796 0.556669
O O7 0.707406 0.990781 0.769575
O O8 0.445151 0.604315 0.014074
O O9 0.475583 0.217747 0.458561
O O10 0.585325 0.030740 0.760159
O O11 0.872549 0.242607 0.909355
O O12 0.162690 0.279753 0.310471
O O13 0.083341 0.078272 0.687289
O O14 0.883861 0.744408 0.054427
O O15 0.500000 0.500000 0.500000
#
# Coordination Sequence:
#
# PCOD9016783 Si02
#       7
#     2   2   2   2   2   2   2
#     4  12  23  42  69  95 135 172 222 276 332 394
#     4  10  24  42  68  98 129 179 227 283 331 393
#     4  11  24  42  66 100 137 180 216 280 340 396
#     4  12  26  43  66 103 140 172 226 277 339 403
#     4  11  22  41  69  96 134 175 226 274 332 398
#     4  10  21  42  69  92 131 175 230 274 331 393
#     4  12  24  41  72 101 131 173 225 279 338 399
#
# _framework density 24.260173000000002
#
# number of rings (size 3 to 8) (size 9 to 14) (size 15 to 20)
#    0.000    0.857    4.286    2.571    0.000    7.429 
#    0.000    1.429    0.000    0.000    0.000    0.000 
#    0.000    0.000    0.000    0.000    0.000    0.000 
#
# Total GULP energy -78176.097870 kJ/mol
# GULP energy per Si atom -5584.006991 kJ/mol
# Density = 2.420496 g / cm^3
# Si number density = 24.260173 Si / 1000 Ang^3
#
#
#
# Elastic Constant Matrix: (Units=GPa)
#
#
# Indices 1 2 3 4 5 6 
#
# 1 81.5936 10.6286 56.0788 19.5594 -3.8002 20.7844
# 2 10.6286 36.5181 20.2106 3.6217 -12.1647 9.2198
# 3 56.0788 20.2106 150.3410 20.3498 12.1039 21.2269
# 4 19.5594 3.6217 20.3498 31.1215 10.2303 2.2716
# 5 -3.8002 -12.1647 12.1039 10.2303 40.2204 3.6170
# 6 20.7844 9.2198 21.2269 2.2716 3.6170 26.5787
#
#
#
# Elastic Compliance Matrix: (Units=1/GPa)
#
#
# Indices 1 2 3 4 5 6 
#
# 1 0.023701 0.005519 -0.006377 -0.013755 0.010733 -0.015641
# 2 0.005519 0.039489 -0.005378 -0.009287 0.017826 -0.015351
# 3 -0.006377 -0.005378 0.010310 -0.000357 -0.005183 -0.000646
# 4 -0.013755 -0.009287 -0.000357 0.046771 -0.017029 0.012583
# 5 0.010733 0.017826 -0.005183 -0.017029 0.038438 -0.014213
# 6 -0.015641 -0.015351 -0.000646 0.012583 -0.014213 0.056555
#
#
# Mechanical properties :
#
#
# Convention : Reuss Voigt Hill
#
# Bulk Modulus (GPa) = 16.38570 49.14318 32.76444
# Shear Modulus (GPa) = 20.15512 31.68645 25.92078
#
# Velocity S-wave (km/s) = 2.88547 3.61793 3.27226
# Velocity P-wave (km/s) = 4.22730 6.14437 5.27368
#
# Compressibility (1/GPa) = 0.06102882
#
# Stress axis : x y z
#
# Youngs Moduli (GPa) = 42.19269 25.32379 96.99474
#
# Poissons Ratio (x) = -0.13977 0.61849
# Poissons Ratio (y) = -0.23287 0.52162
# Poissons Ratio (z) = 0.26904 0.13619
#
# Static dielectric constant tensor:
#      x y z
#    x 1.917290 0.003630 0.020140 
#    y 0.003630 1.906850 0.029610 
#    z 0.020140 0.029610 1.997570 
# 
# From -- ./inp_files/457669.got.cif
#   From: 2010.05.17/outbox.cif.g08.bks.cpg/sg2_229_cif.got.tgz:457669.got - 2010.06.03 11:33:40.
