data_PCOD9016299
_publ_section_title
;
Structure prediction by ZEFSAII (Michael W. Deem and Ramdas Pophale) SiO2 
 PCOD9016299
Probable space group: P -1
;
_chemical_formula_sum "Si O2"
_cell_formula_units_Z 15
_cell_length_a 10.376551
_cell_length_b 22.492757
_cell_length_c 14.130223
_cell_angle_alpha 159.208625
_cell_angle_beta 42.249897
_cell_angle_gamma 144.938945
_cell_volume 667.405723
_symmetry_space_group_name_H-M "P -1"
_symmetry_group_IT_number 2
_symmetry_cell_setting 'triclinic'
loop_
_space_group_symop_operation_xyz
x,y,z
-x,-y,-z
loop_
_atom_site_type_symbol
_atom_site_label
_atom_site_fract_x
_atom_site_fract_y
_atom_site_fract_z
Si Si1 0.000000 0.000000 0.500000
Si Si2 0.844235 0.595425 0.542716
Si Si3 0.114359 0.952366 0.608802
Si Si4 0.183864 0.341432 0.817517
Si Si5 0.943429 0.579023 0.264487
Si Si6 0.499302 0.616389 0.903571
Si Si7 0.215306 0.927760 0.955847
Si Si8 0.735879 0.171139 0.008258
O O1 0.822850 0.053887 0.727903
O O2 0.204488 0.247716 0.761805
O O3 0.844095 0.634240 0.489697
O O4 0.653509 0.589450 0.703859
O O5 0.077281 0.768810 0.715353
O O6 0.834444 0.392219 0.251884
O O7 0.022084 0.877411 0.439656
O O8 0.102847 0.772382 0.402695
O O9 0.343327 0.163718 0.811018
O O10 0.916715 0.965083 0.786223
O O11 0.396749 0.448243 0.790800
O O12 0.082323 0.480218 0.074823
O O13 0.724347 0.428447 0.097734
O O14 0.467693 0.067421 0.993121
O O15 0.210988 0.827164 0.907379
#
# Coordination Sequence:
#
# PCOD9016299 Si02
#       8
#     1   2   2   2   2   2   2   2
#     4  12  24  44  68  90 128 164 210 262 314 362
#     4  11  23  41  63  98 125 160 213 259 303 378
#     4  10  21  42  67  92 128 163 210 256 311 380
#     4  11  23  44  61  93 127 168 208 259 313 370
#     4  11  23  39  64  94 132 161 210 259 306 369
#     4  10  23  40  69  91 126 170 204 254 323 366
#     4  10  23  40  67  91 121 167 209 253 320 370
#     4  11  22  43  65  89 125 167 205 263 312 367
#
# _framework density 22.475085
#
# number of rings (size 3 to 8) (size 9 to 14) (size 15 to 20)
#    0.000    1.333    2.667    4.000    1.867    5.333 
#    2.400    1.333    0.000    0.000    0.000    0.000 
#    0.000    0.000    0.000    0.000    0.000    0.000 
#
# Total GULP energy -83596.345332 kJ/mol
# GULP energy per Si atom -5573.089689 kJ/mol
# Density = 2.242393 g / cm^3
# Si number density = 22.475085 Si / 1000 Ang^3
#
#
#
# Elastic Constant Matrix: (Units=GPa)
#
#
# Indices 1 2 3 4 5 6 
#
# 1 33.4734 6.6376 9.6869 3.6415 8.1897 -9.1784
# 2 6.6376 201.4217 21.8029 58.8212 29.7710 47.5660
# 3 9.6869 21.8029 83.8560 19.0666 14.6249 29.7563
# 4 3.6415 58.8212 19.0666 53.7503 2.0708 27.8046
# 5 8.1897 29.7710 14.6249 2.0708 34.3755 4.2772
# 6 -9.1784 47.5660 29.7563 27.8046 4.2772 45.1689
#
#
#
# Elastic Compliance Matrix: (Units=1/GPa)
#
#
# Indices 1 2 3 4 5 6 
#
# 1 0.041841 -0.002363 -0.009339 -0.008611 -0.006296 0.023040
# 2 -0.002363 0.009940 0.003641 -0.007616 -0.008155 -0.007886
# 3 -0.009339 0.003641 0.019705 -0.001079 -0.007084 -0.017378
# 4 -0.008611 -0.007616 -0.001079 0.035781 0.008928 -0.015890
# 5 -0.006296 -0.008155 -0.007084 0.008928 0.039792 0.002711
# 6 0.023040 -0.007886 -0.017378 -0.015890 0.002711 0.056099
#
#
# Mechanical properties :
#
#
# Convention : Reuss Voigt Hill
#
# Bulk Modulus (GPa) = 18.06267 43.88955 30.97611
# Shear Modulus (GPa) = 21.03200 45.36718 33.19959
#
# Velocity S-wave (km/s) = 3.06239 4.49771 3.84757
# Velocity P-wave (km/s) = 4.53415 6.82224 5.79230
#
# Compressibility (1/GPa) = 0.05536281
#
# Stress axis : x y z
#
# Youngs Moduli (GPa) = 23.90025 100.60257 50.74928
#
# Poissons Ratio (x) = 0.23777 0.47393
# Poissons Ratio (y) = 0.05649 -0.18477
# Poissons Ratio (z) = 0.22319 -0.36627
#
# Static dielectric constant tensor:
#      x y z
#    x 1.493980 0.179340 0.078730 
#    y 0.179340 1.712770 -0.058240 
#    z 0.078730 -0.058240 1.816540 
# 
# From -- ./inp_files/401817.got.cif
#   From: 2010.05.17/outbox.cif.g08.bks.cpg/sg2_201_cif.got.tgz:401817.got - 2010.06.03 11:33:40.
