data_PCOD9016065
_publ_section_title
;
Structure prediction by ZEFSAII (Michael W. Deem and Ramdas Pophale) SiO2 
 PCOD9016065
Probable space group: P -1
;
_chemical_formula_sum "Si O2"
_cell_formula_units_Z 16
_cell_length_a 14.435676
_cell_length_b 11.215613
_cell_length_c 19.877747
_cell_angle_alpha 145.190659
_cell_angle_beta 150.032696
_cell_angle_gamma 54.644848
_cell_volume 812.331004
_symmetry_space_group_name_H-M "P -1"
_symmetry_group_IT_number 2
_symmetry_cell_setting 'triclinic'
loop_
_space_group_symop_operation_xyz
x,y,z
-x,-y,-z
loop_
_atom_site_type_symbol
_atom_site_label
_atom_site_fract_x
_atom_site_fract_y
_atom_site_fract_z
Si Si1 0.689423 0.140192 0.334537
Si Si2 0.044626 0.411035 0.058661
Si Si3 0.318311 0.075207 0.418184
Si Si4 0.011844 0.261651 0.714029
Si Si5 0.470943 0.382052 0.999309
Si Si6 0.445135 0.411392 0.254286
Si Si7 0.841847 0.813609 0.498276
Si Si8 0.276593 0.995146 0.853715
O O1 0.870092 0.238892 0.549492
O O2 0.567792 0.290536 0.313507
O O3 0.777926 0.102770 0.302148
O O4 0.533947 0.869267 0.129706
O O5 0.008039 0.559396 0.162943
O O6 0.273072 0.430228 0.202034
O O7 0.000000 0.500000 0.000000
O O8 0.881187 0.137951 0.839353
O O9 0.398411 0.327648 0.551065
O O10 0.258824 0.097374 0.466927
O O11 0.500000 0.000000 0.500000
O O12 0.912560 0.010014 0.574290
O O13 0.250430 0.339592 0.875398
O O14 0.668997 0.557701 0.248809
O O15 0.500000 0.500000 0.000000
O O16 0.331537 0.247104 0.040541
O O17 0.054025 0.825087 0.668370
O O18 0.500000 0.000000 0.000000
#
# Coordination Sequence:
#
# PCOD9016065 Si02
#       8
#     2   2   2   2   2   2   2   2
#     4  11  24  45  66  94 143 177 215 286 341 398
#     4  12  23  43  69  97 133 180 227 284 332 389
#     4  12  23  39  68  99 127 173 231 273 327 400
#     4  12  24  44  69  98 139 177 227 284 332 400
#     4  12  24  41  69 102 132 176 230 271 338 412
#     4  11  24  46  65  99 138 176 224 280 342 401
#     4  12  22  39  70 100 130 173 226 277 335 395
#     4  10  21  42  66  93 137 176 212 277 340 396
#
# _framework density 19.696404999999999
#
# number of rings (size 3 to 8) (size 9 to 14) (size 15 to 20)
#    0.000    0.500    6.250    2.625    0.000    0.500 
#    6.750    4.375    0.000    0.000    0.000    0.000 
#    0.000    0.000    0.000    0.000    0.000    0.000 
#
# Total GULP energy -89238.090656 kJ/mol
# GULP energy per Si atom -5577.380666 kJ/mol
# Density = 1.965158 g / cm^3
# Si number density = 19.696405 Si / 1000 Ang^3
#
#
#
# Elastic Constant Matrix: (Units=GPa)
#
#
# Indices 1 2 3 4 5 6 
#
# 1 115.5294 60.0084 49.5437 -8.5290 10.0425 -14.7466
# 2 60.0084 135.6565 62.0253 3.3588 14.5113 -16.6831
# 3 49.5437 62.0253 161.4565 1.6195 4.8862 -2.5945
# 4 -8.5290 3.3588 1.6195 29.9914 0.1580 5.7179
# 5 10.0425 14.5113 4.8862 0.1580 40.6031 -0.8365
# 6 -14.7466 -16.6831 -2.5945 5.7179 -0.8365 21.9119
#
#
#
# Elastic Compliance Matrix: (Units=1/GPa)
#
#
# Indices 1 2 3 4 5 6 
#
# 1 0.012587 -0.003940 -0.002272 0.003335 -0.001356 0.004280
# 2 -0.003940 0.011721 -0.003068 -0.003536 -0.002693 0.006729
# 3 -0.002272 -0.003068 0.008007 -0.000196 0.000637 -0.002842
# 4 0.003335 -0.003536 -0.000196 0.036608 0.000114 -0.010020
# 5 -0.001356 -0.002693 0.000637 0.000114 0.025810 -0.001932
# 6 0.004280 0.006729 -0.002842 -0.010020 -0.001932 0.055845
#
#
# Mechanical properties :
#
#
# Convention : Reuss Voigt Hill
#
# Bulk Modulus (GPa) = 72.71386 83.97747 78.34566
# Shear Modulus (GPa) = 28.78142 34.57227 31.67685
#
# Velocity S-wave (km/s) = 3.82678 4.19412 4.01466
# Velocity P-wave (km/s) = 7.51819 8.13528 7.83281
#
# Compressibility (1/GPa) = 0.01375254
#
# Stress axis : x y z
#
# Youngs Moduli (GPa) = 79.44469 85.32027 124.89510
#
# Poissons Ratio (x) = 0.33618 0.28382
# Poissons Ratio (y) = 0.31302 0.38323
# Poissons Ratio (z) = 0.18053 0.26180
#
# Static dielectric constant tensor:
#      x y z
#    x 1.824300 0.043990 0.108110 
#    y 0.043990 1.752600 -0.014810 
#    z 0.108110 -0.014810 1.802610 
# 
# From -- ./inp_files/597904.got.cif
#   From: 2010.05.17/outbox.cif.g08.bks.cpg/sg2_299_cif.got.tgz:597904.got - 2010.06.03 11:33:40.
