data_PCOD9016538
_publ_section_title
;
Structure prediction by ZEFSAII (Michael W. Deem and Ramdas Pophale) SiO2 
 PCOD9016538
Probable space group: P -1
;
_chemical_formula_sum "Si O2"
_cell_formula_units_Z 16
_cell_length_a 8.835868
_cell_length_b 10.221230
_cell_length_c 16.702080
_cell_angle_alpha 69.075034
_cell_angle_beta 46.169331
_cell_angle_gamma 43.792241
_cell_volume 721.610288
_symmetry_space_group_name_H-M "P -1"
_symmetry_group_IT_number 2
_symmetry_cell_setting 'triclinic'
loop_
_space_group_symop_operation_xyz
x,y,z
-x,-y,-z
loop_
_atom_site_type_symbol
_atom_site_label
_atom_site_fract_x
_atom_site_fract_y
_atom_site_fract_z
Si Si1 0.136372 0.080114 0.991319
Si Si2 0.946147 0.815270 0.608032
Si Si3 0.259776 0.428226 0.478611
Si Si4 0.297704 0.616871 0.789150
Si Si5 0.827515 0.190353 0.754381
Si Si6 0.704105 0.067613 0.494112
Si Si7 0.253290 0.103800 0.160925
Si Si8 0.800636 0.271791 0.927849
O O1 0.060776 0.192097 0.911023
O O2 0.405944 0.025780 0.949751
O O3 0.840164 0.232748 0.119317
O O4 0.237220 0.871402 0.997085
O O5 0.793741 0.842344 0.739669
O O6 0.140752 0.604083 0.542522
O O7 0.152674 0.850660 0.548512
O O8 0.713137 0.971768 0.591460
O O9 0.520588 0.369945 0.340912
O O10 0.399868 0.242139 0.523200
O O11 0.000000 0.500000 0.500000
O O12 0.522089 0.396400 0.788003
O O13 0.011172 0.692053 0.831807
O O14 0.882608 0.227058 0.814120
O O15 0.804627 0.033308 0.803693
O O16 0.074335 0.101181 0.616200
O O17 0.500000 0.500000 0.000000
#
# Coordination Sequence:
#
# PCOD9016538 Si02
#       8
#     2   2   2   2   2   2   2   2
#     4  11  25  44  69  97 135 178 220 266 336 388
#     4  10  22  41  67  94 129 169 220 267 332 374
#     4  12  25  41  68 100 131 173 219 272 334 400
#     4  12  23  43  68  95 132 177 219 274 333 388
#     4  11  22  41  71  93 131 175 220 270 340 381
#     4  10  21  42  68  91 129 174 215 272 325 392
#     4  11  25  43  68 100 132 174 223 280 316 396
#     4  11  23  42  65  94 133 177 215 271 323 394
#
# _framework density 22.172632
#
# number of rings (size 3 to 8) (size 9 to 14) (size 15 to 20)
#    0.000    1.000    6.250    0.750    0.000    5.000 
#    2.250    0.000    0.000    0.000    0.000    0.000 
#    0.000    0.000    0.000    0.000    0.000    0.000 
#
# Total GULP energy -89449.291814 kJ/mol
# GULP energy per Si atom -5590.580738 kJ/mol
# Density = 2.212217 g / cm^3
# Si number density = 22.172632 Si / 1000 Ang^3
#
#
#
# Elastic Constant Matrix: (Units=GPa)
#
#
# Indices 1 2 3 4 5 6 
#
# 1 84.5753 47.4597 37.8606 13.7582 26.2565 -35.4650
# 2 47.4597 163.7785 39.5508 18.4773 24.7656 -44.1199
# 3 37.8606 39.5508 93.2293 19.4079 36.0527 -5.1312
# 4 13.7582 18.4773 19.4079 33.3643 -2.0112 11.7190
# 5 26.2565 24.7656 36.0527 -2.0112 40.2256 -2.9572
# 6 -35.4650 -44.1199 -5.1312 11.7190 -2.9572 48.8551
#
#
#
# Elastic Compliance Matrix: (Units=1/GPa)
#
#
# Indices 1 2 3 4 5 6 
#
# 1 0.047065 0.012007 0.005624 -0.051292 -0.041647 0.055382
# 2 0.012007 0.015279 0.003078 -0.026182 -0.019256 0.027952
# 3 0.005624 0.003078 0.023011 -0.023694 -0.026392 0.013365
# 4 -0.051292 -0.026182 -0.023694 0.114006 0.070178 -0.086466
# 5 -0.041647 -0.019256 -0.026392 0.070178 0.086504 -0.061992
# 6 0.055382 0.027952 0.013365 -0.086466 -0.061992 0.104307
#
#
# Mechanical properties :
#
#
# Convention : Reuss Voigt Hill
#
# Bulk Modulus (GPa) = 7.88820 65.70281 36.79551
# Shear Modulus (GPa) = 12.78735 38.93646 25.86191
#
# Velocity S-wave (km/s) = 2.40410 4.19508 3.41895
# Velocity P-wave (km/s) = 3.35732 7.29121 5.67597
#
# Compressibility (1/GPa) = 0.12677161
#
# Stress axis : x y z
#
# Youngs Moduli (GPa) = 21.24722 65.45066 43.45831
#
# Poissons Ratio (x) = -0.78585 -0.24442
# Poissons Ratio (y) = -0.25511 -0.13375
# Poissons Ratio (z) = -0.11950 -0.20144
#
# Static dielectric constant tensor:
#      x y z
#    x 1.874730 -0.020190 0.027500 
#    y -0.020190 1.803740 -0.030480 
#    z 0.027500 -0.030480 1.815050 
# 
# From -- ./inp_files/306252.got.cif
#   From: 2010.05.17/outbox.cif.g08.bks.cpg/sg2_154_cif.got.tgz:306252.got - 2010.06.03 11:33:40.
