data_PCOD9016384
_publ_section_title
;
Structure prediction by ZEFSAII (Michael W. Deem and Ramdas Pophale) SiO2 
 PCOD9016384
Probable space group: P -1
;
_chemical_formula_sum "Si O2"
_cell_formula_units_Z 16
_cell_length_a 14.046098
_cell_length_b 9.325988
_cell_length_c 11.725077
_cell_angle_alpha 77.333358
_cell_angle_beta 30.654091
_cell_angle_gamma 69.329775
_cell_volume 721.126571
_symmetry_space_group_name_H-M "P -1"
_symmetry_group_IT_number 2
_symmetry_cell_setting 'triclinic'
loop_
_space_group_symop_operation_xyz
x,y,z
-x,-y,-z
loop_
_atom_site_type_symbol
_atom_site_label
_atom_site_fract_x
_atom_site_fract_y
_atom_site_fract_z
Si Si1 0.050583 0.158450 0.418878
Si Si2 0.892868 0.640610 0.497232
Si Si3 0.392377 0.644340 0.431182
Si Si4 0.711810 0.865069 0.302382
Si Si5 0.352115 0.567488 0.243418
Si Si6 0.558984 0.296989 0.383966
Si Si7 0.945574 0.837434 0.837883
Si Si8 0.953660 0.158318 0.859665
O O1 0.833911 0.288114 0.630298
O O2 0.180357 0.204711 0.374006
O O3 0.131273 0.175075 0.207078
O O4 0.000000 0.000000 0.500000
O O5 0.733561 0.573623 0.614926
O O6 0.024895 0.696288 0.260005
O O7 0.000000 0.500000 0.500000
O O8 0.440735 0.634086 0.248097
O O9 0.529162 0.475300 0.360146
O O10 0.415441 0.744371 0.500023
O O11 0.152814 0.697884 0.663573
O O12 0.647699 0.721350 0.434177
O O13 0.874231 0.886589 0.215715
O O14 0.500000 0.000000 0.500000
O O15 0.802584 0.836022 0.088466
O O16 0.500000 0.500000 0.000000
O O17 0.746124 0.200757 0.132942
O O18 0.979067 0.005058 0.784788
#
# Coordination Sequence:
#
# PCOD9016384 Si02
#       8
#     2   2   2   2   2   2   2   2
#     4  10  21  42  67  96 129 178 228 278 342 396
#     4  10  23  43  68  99 130 182 232 274 352 408
#     4  10  23  43  61  99 134 175 226 278 345 393
#     4  12  24  41  68 104 132 177 234 266 347 413
#     4  10  23  42  68  92 133 173 223 284 337 402
#     4  11  24  42  68  98 135 181 222 281 342 414
#     4  11  22  42  69  95 142 181 216 295 335 409
#     4  12  23  44  73  94 144 179 227 282 348 412
#
# _framework density 22.187505000000002
#
# number of rings (size 3 to 8) (size 9 to 14) (size 15 to 20)
#    0.000    1.250    3.750    1.875    3.500    1.500 
#   13.500    0.625    0.000    0.000    0.000    0.000 
#    0.000    0.000    0.000    0.000    0.000    0.000 
#
# Total GULP energy -89133.769911 kJ/mol
# GULP energy per Si atom -5570.860619 kJ/mol
# Density = 2.213700 g / cm^3
# Si number density = 22.187505 Si / 1000 Ang^3
#
#
#
# Elastic Constant Matrix: (Units=GPa)
#
#
# Indices 1 2 3 4 5 6 
#
# 1 43.5870 36.7364 38.3853 0.5987 20.3847 0.1397
# 2 36.7364 61.1014 38.2640 1.5091 9.1279 11.2595
# 3 38.3853 38.2640 131.5197 6.1463 29.8340 1.4001
# 4 0.5987 1.5091 6.1463 39.5262 5.7226 3.1172
# 5 20.3847 9.1279 29.8340 5.7226 27.0089 0.2866
# 6 0.1397 11.2595 1.4001 3.1172 0.2866 29.6323
#
#
#
# Elastic Compliance Matrix: (Units=1/GPa)
#
#
# Indices 1 2 3 4 5 6 
#
# 1 0.087723 -0.048248 -0.000512 0.006565 -0.050917 0.017745
# 2 -0.048248 0.048312 -0.005854 -0.002754 0.027326 -0.017828
# 3 -0.000512 -0.005854 0.011882 -0.000203 -0.010736 0.001791
# 4 0.006565 -0.002754 -0.000203 0.026843 -0.009469 -0.001707
# 5 -0.050917 0.027326 -0.010736 -0.009469 0.080183 -0.009415
# 6 0.017745 -0.017828 0.001791 -0.001707 -0.009415 0.040623
#
#
# Mechanical properties :
#
#
# Convention : Reuss Voigt Hill
#
# Bulk Modulus (GPa) = 25.84695 51.44216 38.64456
# Shear Modulus (GPa) = 11.97059 27.42163 19.69611
#
# Velocity S-wave (km/s) = 2.32528 3.51936 2.98268
# Velocity P-wave (km/s) = 4.34555 6.30476 5.41451
#
# Compressibility (1/GPa) = 0.03868928
#
# Stress axis : x y z
#
# Youngs Moduli (GPa) = 11.39946 20.69884 84.16270
#
# Poissons Ratio (x) = 0.99868 0.04305
# Poissons Ratio (y) = 0.55000 0.49272
# Poissons Ratio (z) = 0.00583 0.12118
#
# Static dielectric constant tensor:
#      x y z
#    x 1.959440 0.102440 0.043280 
#    y 0.102440 2.000040 -0.024940 
#    z 0.043280 -0.024940 1.790700 
# 
# From -- ./inp_files/447451.got.cif
#   From: 2010.05.17/outbox.cif.g08.bks.cpg/sg2_224_cif.got.tgz:447451.got - 2010.06.03 11:33:40.
