data_PCOD9016489
_publ_section_title
;
Structure prediction by ZEFSAII (Michael W. Deem and Ramdas Pophale) SiO2 
 PCOD9016489
Probable space group: P -1
;
_chemical_formula_sum "Si O2"
_cell_formula_units_Z 14
_cell_length_a 7.130618
_cell_length_b 21.188592
_cell_length_c 8.630100
_cell_angle_alpha 137.640277
_cell_angle_beta 87.212376
_cell_angle_gamma 121.761150
_cell_volume 600.894272
_symmetry_space_group_name_H-M "P -1"
_symmetry_group_IT_number 2
_symmetry_cell_setting 'triclinic'
loop_
_space_group_symop_operation_xyz
x,y,z
-x,-y,-z
loop_
_atom_site_type_symbol
_atom_site_label
_atom_site_fract_x
_atom_site_fract_y
_atom_site_fract_z
Si Si1 0.214414 0.571453 0.760857
Si Si2 0.721200 0.094144 0.533753
Si Si3 0.172222 0.356320 0.523520
Si Si4 0.824231 0.315090 0.750057
Si Si5 0.365413 0.248585 0.470761
Si Si6 0.159406 0.204912 0.962288
Si Si7 0.149124 0.035757 0.852798
O O1 0.255535 0.481833 0.663819
O O2 0.524032 0.705145 0.930043
O O3 0.000000 0.500000 0.500000
O O4 0.079484 0.589233 0.931211
O O5 0.696072 0.178398 0.590833
O O6 0.500000 0.000000 0.500000
O O7 0.668928 0.985202 0.235042
O O8 0.012197 0.188516 0.782535
O O9 0.361654 0.354933 0.614597
O O10 0.108001 0.262441 0.208366
O O11 0.978529 0.325652 0.615039
O O12 0.616319 0.313402 0.682538
O O13 0.348780 0.178884 0.193540
O O14 0.095280 0.107542 0.309545
O O15 0.032218 0.060797 0.769248
#
# Coordination Sequence:
#
# PCOD9016489 Si02
#       7
#     2   2   2   2   2   2   2
#     4  12  28  50  74 101 140 193 244 296 357 420
#     4  12  24  41  71 110 145 188 233 286 360 432
#     4  11  26  47  73 105 140 191 240 298 352 421
#     4  12  26  45  74 106 141 184 247 293 350 434
#     4  10  23  44  70 105 142 182 232 294 359 414
#     4  11  25  47  72 103 149 186 237 298 356 417
#     4  10  21  42  68 101 143 184 227 291 351 424
#
# _framework density 23.298608999999999
#
# number of rings (size 3 to 8) (size 9 to 14) (size 15 to 20)
#    0.000    0.857    1.429    4.714    6.000    1.143 
#    0.000    0.000    0.000    0.000    0.000    0.000 
#    0.000    0.000    0.000    0.000    0.000    0.000 
#
# Total GULP energy -78020.619004 kJ/mol
# GULP energy per Si atom -5572.901357 kJ/mol
# Density = 2.324558 g / cm^3
# Si number density = 23.298609 Si / 1000 Ang^3
#
#
#
# Elastic Constant Matrix: (Units=GPa)
#
#
# Indices 1 2 3 4 5 6 
#
# 1 12.2930 -11.2039 30.8040 44.2444 33.2857 -94.0821
# 2 -11.2039 94.6498 24.0783 29.0481 17.6774 -79.8678
# 3 30.8040 24.0783 54.3071 -17.6502 -30.2017 19.9536
# 4 44.2444 29.0481 -17.6502 10.3648 -31.7025 23.0874
# 5 33.2857 17.6774 -30.2017 -31.7025 25.8222 56.8110
# 6 -94.0821 -79.8678 19.9536 23.0874 56.8110 -32.3990
#
#
#
# Elastic Compliance Matrix: (Units=1/GPa)
#
#
# Indices 1 2 3 4 5 6 
#
# 1 0.010518 -0.005181 0.002017 0.001925 0.005775 -0.005029
# 2 -0.005181 0.009229 0.001360 0.004308 0.003211 0.001831
# 3 0.002017 0.001360 0.016397 0.004404 0.002510 0.008429
# 4 0.001925 0.004308 0.004404 0.042969 0.003048 0.022466
# 5 0.005775 0.003211 0.002510 0.003048 0.016858 0.008591
# 6 -0.005029 0.001831 0.008429 0.022466 0.008591 0.015489
#
#
# Mechanical properties :
#
#
# Convention : Reuss Voigt Hill
#
# Bulk Modulus (GPa) = 30.73645 27.62297 29.17971
# Shear Modulus (GPa) = 39.70957 8.59571 24.15264
#
# Velocity S-wave (km/s) = 4.13289 1.92286 3.22321
# Velocity P-wave (km/s) = 5.99961 4.10020 5.13843
#
# Compressibility (1/GPa) = 0.03253466
#
# Stress axis : x y z
#
# Youngs Moduli (GPa) = 95.07919 108.34937 60.98698
#
# Poissons Ratio (x) = 0.56136 -0.12298
# Poissons Ratio (y) = 0.49261 -0.08293
# Poissons Ratio (z) = -0.19173 -0.14734
#
# Static dielectric constant tensor:
#      x y z
#    x 1.908480 0.054700 0.032650 
#    y 0.054700 1.944760 -0.040420 
#    z 0.032650 -0.040420 1.956870 
# 
# From -- ./inp_files/141731.got.cif
#   From: 2010.05.17/outbox.cif.g08.bks.cpg/sg2_71_cif.got.tgz:141731.got - 2010.06.03 11:33:40.
