data_PCOD9016250
_publ_section_title
;
Structure prediction by ZEFSAII (Michael W. Deem and Ramdas Pophale) SiO2 
 PCOD9016250
Probable space group: P -1
;
_chemical_formula_sum "Si O2"
_cell_formula_units_Z 14
_cell_length_a 5.514927
_cell_length_b 8.202936
_cell_length_c 18.551907
_cell_angle_alpha 62.814580
_cell_angle_beta 88.165576
_cell_angle_gamma 125.746872
_cell_volume 551.529797
_symmetry_space_group_name_H-M "P -1"
_symmetry_group_IT_number 2
_symmetry_cell_setting 'triclinic'
loop_
_space_group_symop_operation_xyz
x,y,z
-x,-y,-z
loop_
_atom_site_type_symbol
_atom_site_label
_atom_site_fract_x
_atom_site_fract_y
_atom_site_fract_z
Si Si1 0.758098 0.165015 0.219172
Si Si2 0.845105 0.726965 0.227753
Si Si3 0.459559 0.282034 0.121128
Si Si4 0.454597 0.701131 0.590079
Si Si5 0.148563 0.927267 0.605894
Si Si6 0.579074 0.208299 0.834852
Si Si7 0.431514 0.668182 0.046822
O O1 0.538916 0.237348 0.207010
O O2 0.809844 0.081294 0.307731
O O3 0.089223 0.414940 0.131219
O O4 0.553467 0.955985 0.202345
O O5 0.765808 0.588051 0.331705
O O6 0.505056 0.623596 0.217854
O O7 0.055276 0.686635 0.188617
O O8 0.080341 0.026318 0.167231
O O9 0.609975 0.562454 0.059815
O O10 0.593992 0.268425 0.045998
O O11 0.246793 0.774576 0.603279
O O12 0.797900 0.833946 0.603201
O O13 0.575622 0.801868 0.487794
O O14 0.433349 0.132636 0.932407
#
# Coordination Sequence:
#
# PCOD9016250 Si02
#       7
#     2   2   2   2   2   2   2
#     4  11  23  43  65 100 130 180 220 289 319 410
#     4  11  22  44  63 101 132 172 223 278 321 408
#     4  10  25  42  66  95 134 177 233 268 346 382
#     4  10  21  42  67 106 131 181 215 274 336 401
#     4  10  23  39  71 100 140 170 226 268 338 399
#     4  11  26  40  68  97 134 176 229 265 344 384
#     4  11  23  45  65  93 136 184 219 290 318 406
#
# _framework density 25.383939000000002
#
# number of rings (size 3 to 8) (size 9 to 14) (size 15 to 20)
#    0.000    1.429    1.429    3.000    6.000    2.857 
#    0.000    3.571    0.000    0.000    0.000    0.000 
#    0.000    0.000    0.000    0.000    0.000    0.000 
#
# Total GULP energy -77955.643546 kJ/mol
# GULP energy per Si atom -5568.260253 kJ/mol
# Density = 2.532616 g / cm^3
# Si number density = 25.383939 Si / 1000 Ang^3
#
#
#
# Elastic Constant Matrix: (Units=GPa)
#
#
# Indices 1 2 3 4 5 6 
#
# 1 124.3422 18.7152 15.8819 6.9301 16.8904 -8.0994
# 2 18.7152 98.8019 28.7808 12.8208 -5.5654 1.7105
# 3 15.8819 28.7808 167.1834 9.9298 23.7735 -0.2687
# 4 6.9301 12.8208 9.9298 33.0951 7.7798 6.8298
# 5 16.8904 -5.5654 23.7735 7.7798 42.2797 1.3126
# 6 -8.0994 1.7105 -0.2687 6.8298 1.3126 19.3011
#
#
#
# Elastic Compliance Matrix: (Units=1/GPa)
#
#
# Indices 1 2 3 4 5 6 
#
# 1 0.009230 -0.001910 0.000091 -0.001286 -0.003901 0.004764
# 2 -0.001910 0.011981 -0.002248 -0.004487 0.004449 -0.000610
# 3 0.000091 -0.002248 0.006984 -0.000413 -0.004207 0.000767
# 4 -0.001286 -0.004487 -0.000413 0.036395 -0.006150 -0.012608
# 5 -0.003901 0.004449 -0.004207 -0.006150 0.029353 -0.001910
# 6 0.004764 -0.000610 0.000767 -0.012608 -0.001910 0.058466
#
#
# Mechanical properties :
#
#
# Convention : Reuss Voigt Hill
#
# Bulk Modulus (GPa) = 49.85012 57.45372 53.65192
# Shear Modulus (GPa) = 29.89874 40.73181 35.31527
#
# Velocity S-wave (km/s) = 3.43572 4.01013 3.73399
# Velocity P-wave (km/s) = 5.95147 6.64263 6.30652
#
# Compressibility (1/GPa) = 0.02006013
#
# Stress axis : x y z
#
# Youngs Moduli (GPa) = 108.34037 83.46265 143.18727
#
# Poissons Ratio (x) = 0.15943 -0.01300
# Poissons Ratio (y) = 0.20695 0.32192
# Poissons Ratio (z) = -0.00984 0.18765
#
# Static dielectric constant tensor:
#      x y z
#    x 2.385410 -0.140760 0.031090 
#    y -0.140760 2.113770 -0.010560 
#    z 0.031090 -0.010560 1.978000 
# 
# From -- ./inp_files/581548.got.cif
#   From: 2010.05.17/outbox.cif.g08.bks.cpg/sg2_291_cif.got.tgz:581548.got - 2010.06.03 11:33:40.
