data_PCOD9016622
_publ_section_title
;
Structure prediction by ZEFSAII (Michael W. Deem and Ramdas Pophale) SiO2 
 PCOD9016622
Probable space group: P -1
;
_chemical_formula_sum "Si O2"
_cell_formula_units_Z 16
_cell_length_a 21.662998
_cell_length_b 5.399484
_cell_length_c 9.002381
_cell_angle_alpha 49.044729
_cell_angle_beta 62.193824
_cell_angle_gamma 82.957109
_cell_volume 676.466294
_symmetry_space_group_name_H-M "P -1"
_symmetry_group_IT_number 2
_symmetry_cell_setting 'triclinic'
loop_
_space_group_symop_operation_xyz
x,y,z
-x,-y,-z
loop_
_atom_site_type_symbol
_atom_site_label
_atom_site_fract_x
_atom_site_fract_y
_atom_site_fract_z
Si Si1 0.118017 0.146702 0.237655
Si Si2 0.509519 0.817255 0.213547
Si Si3 0.850272 0.569394 0.441595
Si Si4 0.595196 0.324541 0.171444
Si Si5 0.230467 0.490373 0.752254
Si Si6 0.640723 0.687005 0.443594
Si Si7 0.291099 0.285808 0.338730
Si Si8 0.974751 0.839278 0.375995
O O1 0.083964 0.192510 0.415228
O O2 0.140499 0.795925 0.374580
O O3 0.186185 0.417530 0.983241
O O4 0.049245 0.121868 0.214290
O O5 0.556740 0.560422 0.214108
O O6 0.429586 0.584007 0.433729
O O7 0.543137 0.093854 0.193720
O O8 0.500000 0.000000 0.000000
O O9 0.825120 0.587930 0.293569
O O10 0.785826 0.637438 0.585762
O O11 0.928215 0.834809 0.282622
O O12 0.621145 0.042108 0.344477
O O13 0.664107 0.563882 0.914836
O O14 0.288803 0.274632 0.753166
O O15 0.274378 0.880684 0.527594
O O16 0.661663 0.565059 0.627595
O O17 0.000000 0.500000 0.500000
#
# Coordination Sequence:
#
# PCOD9016622 Si02
#       8
#     2   2   2   2   2   2   2   2
#     4  10  21  42  68  96 131 179 221 284 338 415
#     4  12  25  47  74 101 139 183 233 293 351 411
#     4  10  22  42  63  97 133 178 223 285 343 410
#     4  12  27  45  74 100 138 188 230 294 348 414
#     4  11  25  41  68  97 138 175 233 282 344 415
#     4  11  26  44  67 101 133 179 231 280 347 414
#     4  11  25  42  65  96 137 179 225 286 340 415
#     4   9  20  40  68  95 133 171 226 275 343 411
#
# _framework density 23.652324
#
# number of rings (size 3 to 8) (size 9 to 14) (size 15 to 20)
#    0.000    1.250    1.250    3.375    5.250    6.500 
#    0.000    8.750    0.000    0.000    0.000    0.000 
#    0.000    0.000    0.000    0.000    0.000    0.000 
#
# Total GULP energy -89539.011766 kJ/mol
# GULP energy per Si atom -5596.188235 kJ/mol
# Density = 2.359849 g / cm^3
# Si number density = 23.652324 Si / 1000 Ang^3
#
#
#
# Elastic Constant Matrix: (Units=GPa)
#
#
# Indices 1 2 3 4 5 6 
#
# 1 106.4300 47.2331 21.9993 12.3589 -0.2764 -25.8225
# 2 47.2331 85.2352 5.2441 -0.1874 -4.4421 -10.6570
# 3 21.9993 5.2441 85.0973 1.3518 -12.8283 -9.6090
# 4 12.3589 -0.1874 1.3518 21.9362 -6.3182 2.7182
# 5 -0.2764 -4.4421 -12.8283 -6.3182 18.2883 0.3451
# 6 -25.8225 -10.6570 -9.6090 2.7182 0.3451 28.0972
#
#
#
# Elastic Compliance Matrix: (Units=1/GPa)
#
#
# Indices 1 2 3 4 5 6 
#
# 1 0.019977 -0.009536 -0.004264 -0.016049 -0.010833 0.014970
# 2 -0.009536 0.017033 0.002288 0.008108 0.008444 -0.002409
# 3 -0.004264 0.002288 0.014663 0.004942 0.012458 0.001332
# 4 -0.016049 0.008108 0.004942 0.064444 0.027770 -0.016560
# 5 -0.010833 0.008444 0.012458 0.027770 0.075015 -0.006100
# 6 0.014970 -0.002409 0.001332 -0.016560 -0.006100 0.050567
#
#
# Mechanical properties :
#
#
# Convention : Reuss Voigt Hill
#
# Bulk Modulus (GPa) = 34.90810 47.30174 41.10492
# Shear Modulus (GPa) = 18.23007 27.15008 22.69008
#
# Velocity S-wave (km/s) = 2.77925 3.39172 3.10064
# Velocity P-wave (km/s) = 5.00898 5.94815 5.49865
#
# Compressibility (1/GPa) = 0.02864664
#
# Stress axis : x y z
#
# Youngs Moduli (GPa) = 50.05796 58.71127 68.20031
#
# Poissons Ratio (x) = 0.55987 0.29084
# Poissons Ratio (y) = 0.47735 -0.15602
# Poissons Ratio (z) = 0.21347 -0.13431
#
# Static dielectric constant tensor:
#      x y z
#    x 2.080500 -0.151840 0.002080 
#    y -0.151840 2.202820 -0.017890 
#    z 0.002080 -0.017890 1.850910 
# 
# From -- ./inp_files/139187.got.cif
#   From: 2010.05.17/outbox.cif.g08.bks.cpg/sg2_70_cif.got.tgz:139187.got - 2010.06.03 11:33:40.
