data_PCOD9016273
_publ_section_title
;
Structure prediction by ZEFSAII (Michael W. Deem and Ramdas Pophale) SiO2 
 PCOD9016273
Probable space group: P -1
;
_chemical_formula_sum "Si O2"
_cell_formula_units_Z 16
_cell_length_a 16.971102
_cell_length_b 13.592057
_cell_length_c 10.021636
_cell_angle_alpha 41.376207
_cell_angle_beta 117.907552
_cell_angle_gamma 144.590510
_cell_volume 820.838173
_symmetry_space_group_name_H-M "P -1"
_symmetry_group_IT_number 2
_symmetry_cell_setting 'triclinic'
loop_
_space_group_symop_operation_xyz
x,y,z
-x,-y,-z
loop_
_atom_site_type_symbol
_atom_site_label
_atom_site_fract_x
_atom_site_fract_y
_atom_site_fract_z
Si Si1 0.588024 0.464458 0.720384
Si Si2 0.852565 0.384776 0.446307
Si Si3 0.104636 0.211277 0.972702
Si Si4 0.261474 0.744883 0.806252
Si Si5 0.101301 0.236279 0.246707
Si Si6 0.549410 0.757846 0.428552
Si Si7 0.457717 0.093804 0.202188
Si Si8 0.569580 0.440041 0.169207
O O1 0.737947 0.614453 0.752868
O O2 0.596761 0.653987 0.530753
O O3 0.557485 0.346650 0.673505
O O4 0.466108 0.238939 0.954023
O O5 0.877952 0.593751 0.247306
O O6 0.803537 0.280243 0.360685
O O7 0.000000 0.500000 0.500000
O O8 0.710009 0.175966 0.639698
O O9 0.259576 0.334853 0.956464
O O10 0.051443 0.138136 0.156672
O O11 0.000000 0.000000 0.000000
O O12 0.414664 0.855833 0.786525
O O13 0.316809 0.950885 0.736566
O O14 0.139697 0.465772 0.050842
O O15 0.000000 0.000000 0.500000
O O16 0.465853 0.633073 0.629975
O O17 0.504896 0.220520 0.253673
O O18 0.500000 0.500000 0.000000
#
# Coordination Sequence:
#
# PCOD9016273 Si02
#       8
#     2   2   2   2   2   2   2   2
#     4  10  23  41  60  95 124 162 215 262 305 393
#     4  11  23  38  62  96 131 162 203 268 321 371
#     4  11  25  41  60  99 128 162 220 260 315 388
#     4  10  21  42  67  90 125 168 213 264 312 380
#     4  10  22  44  62  84 132 173 203 256 323 374
#     4  11  22  37  66  94 122 157 216 264 317 366
#     4  11  20  42  65  90 127 161 217 259 312 382
#     4  12  21  38  71  94 121 172 212 267 319 372
#
# _framework density 19.492272
#
# number of rings (size 3 to 8) (size 9 to 14) (size 15 to 20)
#    0.000    1.250    6.250    1.125    3.500    3.000 
#    9.000    0.625    0.000    0.000    0.000    0.000 
#    0.000    0.000    0.000    0.000    0.000    0.000 
#
# Total GULP energy -89193.731177 kJ/mol
# GULP energy per Si atom -5574.608199 kJ/mol
# Density = 1.944791 g / cm^3
# Si number density = 19.492272 Si / 1000 Ang^3
#
#
#
# Elastic Constant Matrix: (Units=GPa)
#
#
# Indices 1 2 3 4 5 6 
#
# 1 52.5150 45.2700 31.0013 -0.5785 8.2740 -1.8195
# 2 45.2700 129.3359 55.8061 -7.2308 2.8116 -23.5656
# 3 31.0013 55.8061 136.8832 -22.0735 -12.8181 -8.1043
# 4 -0.5785 -7.2308 -22.0735 20.8405 5.9723 -0.4488
# 5 8.2740 2.8116 -12.8181 5.9723 24.7588 4.7590
# 6 -1.8195 -23.5656 -8.1043 -0.4488 4.7590 45.1591
#
#
#
# Elastic Compliance Matrix: (Units=1/GPa)
#
#
# Indices 1 2 3 4 5 6 
#
# 1 0.031923 -0.009595 -0.005346 -0.005206 -0.010392 -0.003637
# 2 -0.009595 0.013616 -0.002810 0.002054 -0.001520 0.006395
# 3 -0.005346 -0.002810 0.011763 0.009647 0.005887 -0.000096
# 4 -0.005206 0.002054 0.009647 0.061475 -0.009129 0.004166
# 5 -0.010392 -0.001520 0.005887 -0.009129 0.050352 -0.005552
# 6 -0.003637 0.006395 -0.000096 0.004166 -0.005552 0.025944
#
#
# Mechanical properties :
#
#
# Convention : Reuss Voigt Hill
#
# Bulk Modulus (GPa) = 45.87225 64.76544 55.31884
# Shear Modulus (GPa) = 21.02233 30.59546 25.80889
#
# Velocity S-wave (km/s) = 3.28761 3.96614 3.64271
# Velocity P-wave (km/s) = 6.16407 7.36696 6.79220
#
# Compressibility (1/GPa) = 0.02179967
#
# Stress axis : x y z
#
# Youngs Moduli (GPa) = 31.32532 73.44395 85.00980
#
# Poissons Ratio (x) = 0.70467 0.45448
# Poissons Ratio (y) = 0.30055 0.23892
# Poissons Ratio (z) = 0.16747 0.20641
#
# Static dielectric constant tensor:
#      x y z
#    x 1.687950 0.000020 0.009230 
#    y 0.000020 1.705790 -0.006650 
#    z 0.009230 -0.006650 1.783160 
# 
# From -- ./inp_files/306544.got.cif
#   From: 2010.05.17/outbox.cif.g08.bks.cpg/sg2_154_cif.got.tgz:306544.got - 2010.06.03 11:33:40.
