data_PCOD9016130
_publ_section_title
;
Structure prediction by ZEFSAII (Michael W. Deem and Ramdas Pophale) SiO2 
 PCOD9016130
Probable space group: P -1
;
_chemical_formula_sum "Si O2"
_cell_formula_units_Z 12
_cell_length_a 7.168150
_cell_length_b 10.457438
_cell_length_c 9.088002
_cell_angle_alpha 119.884502
_cell_angle_beta 51.882200
_cell_angle_gamma 115.247187
_cell_volume 457.574440
_symmetry_space_group_name_H-M "P -1"
_symmetry_group_IT_number 2
_symmetry_cell_setting 'triclinic'
loop_
_space_group_symop_operation_xyz
x,y,z
-x,-y,-z
loop_
_atom_site_type_symbol
_atom_site_label
_atom_site_fract_x
_atom_site_fract_y
_atom_site_fract_z
Si Si1 0.455097 0.955513 0.789663
Si Si2 0.540236 0.667174 0.637139
Si Si3 0.093669 0.032680 0.200090
Si Si4 0.755601 0.728441 0.273614
Si Si5 0.288643 0.801336 0.392790
Si Si6 0.357596 0.573354 0.985999
O O1 0.354847 0.778581 0.751201
O O2 0.480635 0.733787 0.358970
O O3 0.577727 0.036309 0.634541
O O4 0.238861 0.041560 0.982865
O O5 0.500000 0.500000 0.500000
O O6 0.751353 0.734373 0.456616
O O7 0.522545 0.650241 0.813217
O O8 0.319581 0.031794 0.200050
O O9 0.927813 0.872272 0.210572
O O10 0.940412 0.161784 0.385172
O O11 0.804852 0.571890 0.093696
O O12 0.249475 0.697595 0.204449
O O13 0.500000 0.500000 0.000000
#
# Coordination Sequence:
#
# PCOD9016130 Si02
#       6
#     2   2   2   2   2   2
#     4  11  24  41  65 100 134 175 229 270 334 391
#     4  10  21  42  66  96 133 175 221 274 330 399
#     4  11  23  41  67 100 134 180 222 275 330 395
#     4  10  22  42  69 101 135 176 222 274 332 395
#     4  11  22  43  71  98 136 176 220 278 331 395
#     4   9  20  40  69  99 139 173 217 277 334 398
#
# _framework density 26.225242999999999
#
# number of rings (size 3 to 8) (size 9 to 14) (size 15 to 20)
#    0.000    1.667    1.667    3.000    0.000    0.667 
#    3.000    2.500    0.000    6.000    0.000    0.000 
#    0.000    0.000    0.000    0.000    0.000    0.000 
#
# Total GULP energy -66976.853501 kJ/mol
# GULP energy per Si atom -5581.404458 kJ/mol
# Density = 2.616555 g / cm^3
# Si number density = 26.225243 Si / 1000 Ang^3
#
#
#
# Elastic Constant Matrix: (Units=GPa)
#
#
# Indices 1 2 3 4 5 6 
#
# 1 100.7022 24.4173 69.1292 15.8798 -12.2245 -18.3294
# 2 24.4173 108.6196 56.9149 33.6653 3.4435 -9.2278
# 3 69.1292 56.9149 209.9359 32.8150 -15.5373 -4.5183
# 4 15.8798 33.6653 32.8150 54.1623 -7.9556 12.6607
# 5 -12.2245 3.4435 -15.5373 -7.9556 44.9214 6.8828
# 6 -18.3294 -9.2278 -4.5183 12.6607 6.8828 46.6719
#
#
#
# Elastic Compliance Matrix: (Units=1/GPa)
#
#
# Indices 1 2 3 4 5 6 
#
# 1 0.014414 0.000436 -0.004153 -0.003267 0.000940 0.006092
# 2 0.000436 0.014017 -0.002705 -0.009213 -0.004416 0.005831
# 3 -0.004153 -0.002705 0.007076 -0.000801 0.001613 -0.001502
# 4 -0.003267 -0.009213 -0.000801 0.029443 0.006615 -0.012145
# 5 0.000940 -0.004416 0.001613 0.006615 0.025489 -0.005901
# 6 0.006092 0.005831 -0.001502 -0.012145 -0.005901 0.028991
#
#
# Mechanical properties :
#
#
# Convention : Reuss Voigt Hill
#
# Bulk Modulus (GPa) = 44.12422 80.02005 62.07214
# Shear Modulus (GPa) = 35.75815 47.07085 41.41450
#
# Velocity S-wave (km/s) = 3.69657 4.24118 3.97821
# Velocity P-wave (km/s) = 5.92293 7.38663 6.69490
#
# Compressibility (1/GPa) = 0.02266329
#
# Stress axis : x y z
#
# Youngs Moduli (GPa) = 69.37816 71.34398 141.31353
#
# Poissons Ratio (x) = -0.03113 0.58690
# Poissons Ratio (y) = -0.03027 0.38224
# Poissons Ratio (z) = 0.28814 0.19298
#
# Static dielectric constant tensor:
#      x y z
#    x 2.161940 0.085640 0.068470 
#    y 0.085640 2.075900 0.124750 
#    z 0.068470 0.124750 2.172050 
# 
# From -- ./inp_files/181009.got.cif
#   From: 2010.05.17/outbox.cif.g08.bks.cpg/sg2_91_cif.got.tgz:181009.got - 2010.06.03 11:33:40.
