data_PCOD9016888
_publ_section_title
;
Structure prediction by ZEFSAII (Michael W. Deem and Ramdas Pophale) SiO2 
 PCOD9016888
Probable space group: P -1
;
_chemical_formula_sum "Si O2"
_cell_formula_units_Z 13
_cell_length_a 10.221712
_cell_length_b 9.067077
_cell_length_c 9.797395
_cell_angle_alpha 83.534885
_cell_angle_beta 109.733157
_cell_angle_gamma 140.430077
_cell_volume 527.696224
_symmetry_space_group_name_H-M "P -1"
_symmetry_group_IT_number 2
_symmetry_cell_setting 'triclinic'
loop_
_space_group_symop_operation_xyz
x,y,z
-x,-y,-z
loop_
_atom_site_type_symbol
_atom_site_label
_atom_site_fract_x
_atom_site_fract_y
_atom_site_fract_z
Si Si1 0.190485 0.494417 0.451817
Si Si2 0.500000 0.500000 0.500000
Si Si3 0.802929 0.384388 0.272951
Si Si4 0.590586 0.229325 0.946814
Si Si5 0.358380 0.865133 0.294275
Si Si6 0.810479 0.956945 0.769575
Si Si7 0.288768 0.215618 0.934949
O O1 0.268362 0.400285 0.443278
O O2 0.139423 0.459658 0.597693
O O3 0.379210 0.768186 0.435365
O O4 0.979767 0.399962 0.318501
O O5 0.623003 0.713375 0.639874
O O6 0.584996 0.121451 0.286558
O O7 0.746062 0.411932 0.106912
O O8 0.715719 0.300278 0.843575
O O9 0.385807 0.172733 0.869816
O O10 0.500000 0.000000 0.000000
O O11 0.208319 0.881318 0.275230
O O12 0.757483 0.891303 0.919789
O O13 0.058222 0.097843 0.819036
O O14 0.500000 0.500000 0.000000
#
# Coordination Sequence:
#
# PCOD9016888 Si02
#       7
#     2   1   2   2   2   2   2
#     4  11  25  42  70  94 138 182 229 276 358 404
#     4  12  26  46  66 106 142 178 226 294 344 420
#     4  10  22  44  67  93 135 181 224 286 329 426
#     4  10  21  42  69  98 137 170 237 282 338 408
#     4  11  23  44  69  99 131 184 231 284 336 422
#     4  11  26  46  69 100 149 177 232 291 346 406
#     4  11  25  46  71 103 141 187 226 289 351 415
#
# _framework density 24.635386
#
# number of rings (size 3 to 8) (size 9 to 14) (size 15 to 20)
#    0.000    1.231    4.615    0.462    8.615    0.615 
#    0.000    1.538    0.000    0.000    0.000    0.000 
#    0.000    0.000    0.000    0.000    0.000    0.000 
#
# Total GULP energy -72399.150933 kJ/mol
# GULP energy per Si atom -5569.165456 kJ/mol
# Density = 2.457932 g / cm^3
# Si number density = 24.635386 Si / 1000 Ang^3
#
#
#
# Elastic Constant Matrix: (Units=GPa)
#
#
# Indices 1 2 3 4 5 6 
#
# 1 235.0276 17.4349 66.6253 -8.4480 6.8087 -3.2531
# 2 17.4349 36.2617 8.8387 1.5484 -6.6195 8.7267
# 3 66.6253 8.8387 122.7010 -9.5535 -8.8742 -3.4066
# 4 -8.4480 1.5484 -9.5535 28.2077 10.6433 -0.1325
# 5 6.8087 -6.6195 -8.8742 10.6433 44.2284 5.8855
# 6 -3.2531 8.7267 -3.4066 -0.1325 5.8855 27.6411
#
#
#
# Elastic Compliance Matrix: (Units=1/GPa)
#
#
# Indices 1 2 3 4 5 6 
#
# 1 0.005398 -0.002882 -0.002714 0.001797 -0.002472 0.001746
# 2 -0.002882 0.034267 -0.001146 -0.006458 0.008649 -0.013172
# 3 -0.002714 -0.001146 0.010009 0.002024 0.001643 0.000936
# 4 0.001797 -0.006458 0.002024 0.041385 -0.011480 0.005143
# 5 -0.002472 0.008649 0.001643 -0.011480 0.028569 -0.008957
# 6 0.001746 -0.013172 0.000936 0.005143 -0.008957 0.042589
#
#
# Mechanical properties :
#
#
# Convention : Reuss Voigt Hill
#
# Bulk Modulus (GPa) = 27.63288 64.42091 46.02690
# Shear Modulus (GPa) = 26.62902 40.08819 33.35860
#
# Velocity S-wave (km/s) = 3.29131 4.03831 3.68379
# Velocity P-wave (km/s) = 5.06801 6.92462 6.06775
#
# Compressibility (1/GPa) = 0.03618877
#
# Stress axis : x y z
#
# Youngs Moduli (GPa) = 185.24267 29.18275 99.91423
#
# Poissons Ratio (x) = 0.08410 0.27117
# Poissons Ratio (y) = 0.53387 0.11455
# Poissons Ratio (z) = 0.50276 0.03346
#
# Static dielectric constant tensor:
#      x y z
#    x 1.988820 -0.002880 -0.065260 
#    y -0.002880 2.100580 0.153780 
#    z -0.065260 0.153780 2.093090 
# 
# From -- ./inp_files/376454.got.cif
#   From: 2010.05.17/outbox.cif.g08.bks.cpg/sg2_189_cif.got.tgz:376454.got - 2010.06.03 11:33:40.
