data_PCOD9016998
_publ_section_title
;
Structure prediction by ZEFSAII (Michael W. Deem and Ramdas Pophale) SiO2 
 PCOD9016998
Probable space group: P -1
;
_chemical_formula_sum "Si O2"
_cell_formula_units_Z 14
_cell_length_a 19.376102
_cell_length_b 15.860349
_cell_length_c 9.389512
_cell_angle_alpha 44.009220
_cell_angle_beta 43.935961
_cell_angle_gamma 18.877244
_cell_volume 638.498578
_symmetry_space_group_name_H-M "P -1"
_symmetry_group_IT_number 2
_symmetry_cell_setting 'triclinic'
loop_
_space_group_symop_operation_xyz
x,y,z
-x,-y,-z
loop_
_atom_site_type_symbol
_atom_site_label
_atom_site_fract_x
_atom_site_fract_y
_atom_site_fract_z
Si Si1 0.864687 0.381693 0.688080
Si Si2 0.301093 0.282133 0.714559
Si Si3 0.272228 0.068325 0.356769
Si Si4 0.298855 0.669695 0.184099
Si Si5 0.983819 0.612287 0.031247
Si Si6 0.556714 0.559066 0.433639
Si Si7 0.070591 0.731547 0.955794
O O1 0.730077 0.629033 0.503121
O O2 0.818327 0.311777 0.750124
O O3 0.112351 0.160792 0.579075
O O4 0.814090 0.416378 0.885176
O O5 0.249207 0.195125 0.888619
O O6 0.524482 0.088266 0.679205
O O7 0.111948 0.530982 0.804770
O O8 0.131948 0.334917 0.188269
O O9 0.369786 0.864525 0.348618
O O10 0.383087 0.537225 0.375201
O O11 0.500000 0.500000 0.000000
O O12 0.124198 0.964442 0.102651
O O13 0.980736 0.706355 0.051256
O O14 0.500000 0.500000 0.500000
O O15 0.761216 0.395284 0.250857
#
# Coordination Sequence:
#
# PCOD9016998 Si02
#       7
#     2   2   2   2   2   2   2
#     4  11  24  44  68  99 136 182 224 278 343 404
#     4  10  21  42  70  94 139 183 222 270 343 404
#     4  11  22  44  74  95 142 179 225 272 348 408
#     4  12  25  47  71  96 139 185 221 281 354 398
#     4  10  23  42  69 104 131 182 228 282 332 400
#     4  12  25  43  71 106 132 176 231 283 335 402
#     4  12  25  43  67 104 140 169 237 285 322 411
#
# _framework density 21.926439999999999
#
# number of rings (size 3 to 8) (size 9 to 14) (size 15 to 20)
#    0.000    0.857    2.857    3.857    0.000    5.714 
#    2.571    1.429    0.000    0.000    0.000    0.000 
#    0.000    0.000    0.000    0.000    0.000    0.000 
#
# Total GULP energy -78260.170918 kJ/mol
# GULP energy per Si atom -5590.012208 kJ/mol
# Density = 2.187653 g / cm^3
# Si number density = 21.926440 Si / 1000 Ang^3
#
#
#
# Elastic Constant Matrix: (Units=GPa)
#
#
# Indices 1 2 3 4 5 6 
#
# 1 165.5509 -36.6144 44.7189 21.8560 -19.7122 -29.1349
# 2 -36.6144 -40.3046 18.5083 44.0751 -16.6090 -39.6968
# 3 44.7189 18.5083 135.7735 18.0148 9.4320 -2.4899
# 4 21.8560 44.0751 18.0148 25.5385 -0.5573 0.0783
# 5 -19.7122 -16.6090 9.4320 -0.5573 41.6853 6.3901
# 6 -29.1349 -39.6968 -2.4899 0.0783 6.3901 22.6128
#
#
#
# Elastic Compliance Matrix: (Units=1/GPa)
#
#
# Indices 1 2 3 4 5 6 
#
# 1 0.005576 -0.003631 -0.001825 0.002817 0.001619 0.000142
# 2 -0.003631 -0.002923 0.000488 0.007805 -0.001451 -0.009373
# 3 -0.001825 0.000488 0.008839 -0.005576 -0.002787 0.000284
# 4 0.002817 0.007805 -0.005576 0.027241 0.003679 0.015584
# 5 0.001619 -0.001451 -0.002787 0.003679 0.026107 -0.008158
# 6 0.000142 -0.009373 0.000284 0.015584 -0.008158 0.030234
#
#
# Mechanical properties :
#
#
# Convention : Reuss Voigt Hill
#
# Bulk Modulus (GPa) = 643.30180 34.91615 339.10898
# Shear Modulus (GPa) = 47.38021 33.59444 40.48732
#
# Velocity S-wave (km/s) = 4.65356 3.91851 4.30176
# Velocity P-wave (km/s) = 17.96947 6.03587 13.40399
#
# Compressibility (1/GPa) = 0.00155448
#
# Stress axis : x y z
#
# Youngs Moduli (GPa) = 179.32815 -342.09723 113.14060
#
# Poissons Ratio (x) = -1.24217 0.20651
# Poissons Ratio (y) = 0.65115 -0.05517
# Poissons Ratio (z) = 0.32732 0.16683
#
# Static dielectric constant tensor:
#      x y z
#    x 1.829260 -0.028310 0.000780 
#    y -0.028310 1.814240 -0.014950 
#    z 0.000780 -0.014950 1.828780 
# 
# From -- ./inp_files/172012.got.cif
#   From: 2010.05.17/outbox.cif.g08.bks.cpg/sg2_87_cif.got.tgz:172012.got - 2010.06.03 11:33:40.
