data_PCOD9016006
_publ_section_title
;
Structure prediction by ZEFSAII (Michael W. Deem and Ramdas Pophale) SiO2 
 PCOD9016006
Probable space group: P -1
;
_chemical_formula_sum "Si O2"
_cell_formula_units_Z 16
_cell_length_a 14.789503
_cell_length_b 11.224457
_cell_length_c 9.639818
_cell_angle_alpha 63.037814
_cell_angle_beta 52.190972
_cell_angle_gamma 103.384878
_cell_volume 777.965902
_symmetry_space_group_name_H-M "P -1"
_symmetry_group_IT_number 2
_symmetry_cell_setting 'triclinic'
loop_
_space_group_symop_operation_xyz
x,y,z
-x,-y,-z
loop_
_atom_site_type_symbol
_atom_site_label
_atom_site_fract_x
_atom_site_fract_y
_atom_site_fract_z
Si Si1 0.198809 0.469176 0.517422
Si Si2 0.513706 0.589808 0.079840
Si Si3 0.702107 0.151729 0.719797
Si Si4 0.619816 0.976555 0.372964
Si Si5 0.098788 0.722834 0.263427
Si Si6 0.077181 0.135136 0.991361
Si Si7 0.420714 0.327027 0.561782
Si Si8 0.770067 0.993415 0.512441
O O1 0.374099 0.584612 0.224422
O O2 0.213528 0.631301 0.472658
O O3 0.056954 0.319392 0.615721
O O4 0.165502 0.343596 0.742486
O O5 0.467888 0.442741 0.314903
O O6 0.500000 0.500000 0.000000
O O7 0.684082 0.812643 0.790192
O O8 0.784275 0.153371 0.779104
O O9 0.760164 0.118705 0.548051
O O10 0.500000 0.000000 0.000000
O O11 0.540402 0.795146 0.442698
O O12 0.675824 0.951199 0.477736
O O13 0.500000 0.000000 0.500000
O O14 0.780559 0.170558 0.039433
O O15 0.000000 0.500000 0.500000
O O16 0.227577 0.165358 0.873773
O O17 0.941183 0.070046 0.261766
O O18 0.000000 0.000000 0.000000
O O19 0.500000 0.500000 0.500000
#
# Coordination Sequence:
#
# PCOD9016006 Si02
#       8
#     2   2   2   2   2   2   2   2
#     4  10  21  42  66  89 135 181 215 276 338 399
#     4  11  22  41  71  94 128 178 230 269 334 409
#     4  11  23  40  65  98 139 173 220 277 339 401
#     4  12  25  43  71  99 138 178 226 279 340 408
#     4  10  23  42  62  95 135 178 218 274 341 401
#     4  11  21  45  70  92 130 181 224 273 333 403
#     4  11  26  46  69 100 138 179 222 281 346 399
#     4  12  23  42  68 105 127 180 230 274 337 403
#
# _framework density 20.566455000000001
#
# number of rings (size 3 to 8) (size 9 to 14) (size 15 to 20)
#    0.000    1.000    5.000    1.500    3.500    2.500 
#    6.750    0.625    0.000    0.000    0.000    0.000 
#    0.000    0.000    0.000    0.000    0.000    0.000 
#
# Total GULP energy -89123.572632 kJ/mol
# GULP energy per Si atom -5570.223289 kJ/mol
# Density = 2.051964 g / cm^3
# Si number density = 20.566455 Si / 1000 Ang^3
#
#
#
# Elastic Constant Matrix: (Units=GPa)
#
#
# Indices 1 2 3 4 5 6 
#
# 1 39.2349 21.8062 23.3580 4.6765 5.4800 -7.7276
# 2 21.8062 157.8884 44.9322 14.8600 -11.0778 -14.8325
# 3 23.3580 44.9322 137.8541 16.7345 -7.2488 -6.9136
# 4 4.6765 14.8600 16.7345 38.2520 -3.9569 -1.3993
# 5 5.4800 -11.0778 -7.2488 -3.9569 21.8105 -1.9070
# 6 -7.7276 -14.8325 -6.9136 -1.3993 -1.9070 38.1542
#
#
#
# Elastic Compliance Matrix: (Units=1/GPa)
#
#
# Indices 1 2 3 4 5 6 
#
# 1 0.032737 -0.003501 -0.004618 -0.001674 -0.011510 0.003796
# 2 -0.003501 0.007886 -0.001458 -0.001467 0.004331 0.002255
# 3 -0.004618 -0.001458 0.008978 -0.002483 0.002969 0.000182
# 4 -0.001674 -0.001467 -0.002483 0.028412 0.003995 -0.000118
# 5 -0.011510 0.004331 0.002969 0.003995 0.052887 0.002681
# 6 0.003796 0.002255 0.000182 -0.000118 0.002681 0.028018
#
#
# Mechanical properties :
#
#
# Convention : Reuss Voigt Hill
#
# Bulk Modulus (GPa) = 32.84253 57.24113 45.04183
# Shear Modulus (GPa) = 26.56458 35.96874 31.26666
#
# Velocity S-wave (km/s) = 3.59785 4.18653 3.90330
# Velocity P-wave (km/s) = 5.76741 7.15975 6.50096
#
# Compressibility (1/GPa) = 0.03044832
#
# Stress axis : x y z
#
# Youngs Moduli (GPa) = 30.54652 126.80919 111.37808
#
# Poissons Ratio (x) = 0.44391 0.51430
# Poissons Ratio (y) = 0.10693 0.16242
# Poissons Ratio (z) = 0.14105 0.18492
#
# Static dielectric constant tensor:
#      x y z
#    x 1.835550 -0.014170 -0.031050 
#    y -0.014170 1.754740 -0.062110 
#    z -0.031050 -0.062110 1.702780 
# 
# From -- ./inp_files/306926.got.cif
#   From: 2010.05.17/outbox.cif.g08.bks.cpg/sg2_154_cif.got.tgz:306926.got - 2010.06.03 11:33:40.
