data_PCOD9016934
_publ_section_title
;
Structure prediction by ZEFSAII (Michael W. Deem and Ramdas Pophale) SiO2 
 PCOD9016934
Probable space group: P -1
;
_chemical_formula_sum "Si O2"
_cell_formula_units_Z 14
_cell_length_a 13.868957
_cell_length_b 22.873732
_cell_length_c 11.399297
_cell_angle_alpha 149.646352
_cell_angle_beta 150.693973
_cell_angle_gamma 20.356300
_cell_volume 593.472565
_symmetry_space_group_name_H-M "P -1"
_symmetry_group_IT_number 2
_symmetry_cell_setting 'triclinic'
loop_
_space_group_symop_operation_xyz
x,y,z
-x,-y,-z
loop_
_atom_site_type_symbol
_atom_site_label
_atom_site_fract_x
_atom_site_fract_y
_atom_site_fract_z
Si Si1 0.165778 0.162257 0.057014
Si Si2 0.702145 0.553178 0.269599
Si Si3 0.230574 0.466359 0.347128
Si Si4 0.617417 0.010143 0.762735
Si Si5 0.423374 0.840492 0.654254
Si Si6 0.360505 0.364421 0.060509
Si Si7 0.732300 0.291546 0.129468
O O1 0.356946 0.065168 0.213733
O O2 0.334649 0.174436 0.167512
O O3 0.852605 0.359035 0.102328
O O4 0.163394 0.040869 0.772925
O O5 0.467262 0.719297 0.394587
O O6 0.000000 0.500000 0.500000
O O7 0.531251 0.628430 0.096581
O O8 0.480127 0.272668 0.324831
O O9 0.280308 0.474619 0.278560
O O10 0.222361 0.590124 0.620729
O O11 0.925395 0.529753 0.140864
O O12 0.955539 0.898562 0.903997
O O13 0.500000 0.000000 0.500000
O O14 0.423518 0.209645 0.909972
O O15 0.632118 0.294362 0.155528
#
# Coordination Sequence:
#
# PCOD9016934 Si02
#       7
#     2   2   2   2   2   2   2
#     4  10  22  43  70 103 138 184 237 292 356 423
#     4  10  23  44  72  98 138 185 236 291 356 415
#     4  11  23  45  73 102 144 185 240 293 358 436
#     4  12  25  44  72 105 144 186 240 293 361 435
#     4  10  21  42  70 101 136 186 235 294 355 419
#     4  11  24  45  70 106 143 190 232 294 363 429
#     4  12  26  46  73 104 142 189 241 298 358 427
#
# _framework density 23.589970000000001
#
# number of rings (size 3 to 8) (size 9 to 14) (size 15 to 20)
#    0.000    1.143    2.857    3.429    4.000    2.286 
#    2.571    1.429    0.000    0.000    0.000    0.000 
#    0.000    0.000    0.000    0.000    0.000    0.000 
#
# Total GULP energy -78106.197117 kJ/mol
# GULP energy per Si atom -5579.014080 kJ/mol
# Density = 2.353628 g / cm^3
# Si number density = 23.589970 Si / 1000 Ang^3
#
#
#
# Elastic Constant Matrix: (Units=GPa)
#
#
# Indices 1 2 3 4 5 6 
#
# 1 78.7993 7.6682 26.3712 -3.5565 -17.5094 -12.2137
# 2 7.6682 111.4732 27.6499 20.9081 -18.1361 -7.1995
# 3 26.3712 27.6499 113.0572 18.8031 -30.8457 1.5010
# 4 -3.5565 20.9081 18.8031 50.1104 -3.4771 -7.1663
# 5 -17.5094 -18.1361 -30.8457 -3.4771 33.9704 6.6667
# 6 -12.2137 -7.1995 1.5010 -7.1663 6.6667 33.8233
#
#
#
# Elastic Compliance Matrix: (Units=1/GPa)
#
#
# Indices 1 2 3 4 5 6 
#
# 1 0.015765 0.000177 -0.003080 0.003333 0.004655 0.005656
# 2 0.000177 0.010634 -0.000798 -0.003713 0.004530 0.000683
# 3 -0.003080 -0.000798 0.013606 -0.004965 0.010828 -0.005072
# 4 0.003333 -0.003713 -0.004965 0.024285 -0.003559 0.006480
# 5 0.004655 0.004530 0.010828 -0.003559 0.045195 -0.007497
# 6 0.005656 0.000683 -0.005072 0.006480 -0.007497 0.034829
#
#
# Mechanical properties :
#
#
# Convention : Reuss Voigt Hill
#
# Bulk Modulus (GPa) = 30.67070 47.41202 39.04136
# Shear Modulus (GPa) = 30.75354 39.69018 35.22186
#
# Velocity S-wave (km/s) = 3.61455 4.10628 3.86824
# Velocity P-wave (km/s) = 5.51814 6.52871 6.04458
#
# Compressibility (1/GPa) = 0.03260441
#
# Stress axis : x y z
#
# Youngs Moduli (GPa) = 63.43004 94.03791 73.49687
#
# Poissons Ratio (x) = -0.01665 0.22637
# Poissons Ratio (y) = -0.01123 0.05862
# Poissons Ratio (z) = 0.19536 0.07500
#
# Static dielectric constant tensor:
#      x y z
#    x 1.912170 0.001510 -0.047840 
#    y 0.001510 1.867720 0.013650 
#    z -0.047840 0.013650 1.937890 
# 
# From -- ./inp_files/458149.got.cif
#   From: 2010.05.17/outbox.cif.g08.bks.cpg/sg2_230_cif.got.tgz:458149.got - 2010.06.03 11:33:40.
