data_PCOD9016755
_publ_section_title
;
Structure prediction by ZEFSAII (Michael W. Deem and Ramdas Pophale) SiO2 
 PCOD9016755
Probable space group: P -1
;
_chemical_formula_sum "Si O2"
_cell_formula_units_Z 14
_cell_length_a 5.684635
_cell_length_b 24.455592
_cell_length_c 14.960792
_cell_angle_alpha 17.438053
_cell_angle_beta 67.130392
_cell_angle_gamma 70.227238
_cell_volume 570.299607
_symmetry_space_group_name_H-M "P -1"
_symmetry_group_IT_number 2
_symmetry_cell_setting 'triclinic'
loop_
_space_group_symop_operation_xyz
x,y,z
-x,-y,-z
loop_
_atom_site_type_symbol
_atom_site_label
_atom_site_fract_x
_atom_site_fract_y
_atom_site_fract_z
Si Si1 0.688172 0.459560 0.614828
Si Si2 0.267664 0.098643 0.772206
Si Si3 0.489589 0.603179 0.602054
Si Si4 0.012449 0.663576 0.672372
Si Si5 0.713527 0.033049 0.709340
Si Si6 0.815326 0.102047 0.226093
Si Si7 0.604520 0.220849 0.248578
O O1 0.500000 0.500000 0.500000
O O2 0.593144 0.563906 0.551627
O O3 0.000000 0.500000 0.500000
O O4 0.651164 0.241098 0.981802
O O5 0.394591 0.203874 0.674663
O O6 0.439595 0.968021 0.896478
O O7 0.231472 0.260899 0.453266
O O8 0.000000 0.000000 0.000000
O O9 0.185979 0.605405 0.655693
O O10 0.568882 0.433196 0.914353
O O11 0.147600 0.838173 0.434936
O O12 0.000000 0.500000 0.000000
O O13 0.677352 0.156712 0.434955
O O14 0.904656 0.892968 0.866157
O O15 0.808848 0.166967 0.228416
O O16 0.663267 0.899642 0.552773
#
# Coordination Sequence:
#
# PCOD9016755 Si02
#       7
#     2   2   2   2   2   2   2
#     4  11  28  49  73 108 147 200 249 299 373 444
#     4  11  26  44  67 101 144 191 243 300 368 438
#     4  10  24  45  72 100 142 188 242 305 366 442
#     4  11  23  42  69 100 137 183 237 300 367 433
#     4  11  22  39  67 101 137 181 234 296 363 435
#     4  10  23  42  69 103 140 182 238 305 364 443
#     4  10  21  42  69 105 135 179 238 302 379 430
#
# _framework density 24.548501999999999
#
# number of rings (size 3 to 8) (size 9 to 14) (size 15 to 20)
#    0.000    1.429    0.000    3.857    4.000    8.000 
#    5.143    0.000    0.000    0.000    0.000    0.000 
#    0.000    0.000    0.000    0.000    0.000    0.000 
#
# Total GULP energy -78388.694523 kJ/mol
# GULP energy per Si atom -5599.192466 kJ/mol
# Density = 2.449263 g / cm^3
# Si number density = 24.548502 Si / 1000 Ang^3
#
#
#
# Elastic Constant Matrix: (Units=GPa)
#
#
# Indices 1 2 3 4 5 6 
#
# 1 80.5742 75.7377 23.7928 5.9391 21.0635 -10.6276
# 2 75.7377 210.8951 38.6178 1.7711 17.6126 -40.1148
# 3 23.7928 38.6178 91.3808 1.7906 13.9184 -8.3702
# 4 5.9391 1.7711 1.7906 33.1452 3.4468 6.0756
# 5 21.0635 17.6126 13.9184 3.4468 41.4213 4.5927
# 6 -10.6276 -40.1148 -8.3702 6.0756 4.5927 51.3147
#
#
#
# Elastic Compliance Matrix: (Units=1/GPa)
#
#
# Indices 1 2 3 4 5 6 
#
# 1 0.021278 -0.006772 -0.001551 -0.002585 -0.007183 -0.000191
# 2 -0.006772 0.008372 -0.001284 -0.000050 -0.000230 0.004959
# 3 -0.001551 -0.001284 0.012431 -0.000201 -0.002935 0.000989
# 4 -0.002585 -0.000050 -0.000201 0.031507 -0.000745 -0.004271
# 5 -0.007183 -0.000230 -0.002935 -0.000745 0.029462 -0.004695
# 6 -0.000191 0.004959 0.000989 -0.004271 -0.004695 0.024412
#
#
# Mechanical properties :
#
#
# Convention : Reuss Voigt Hill
#
# Bulk Modulus (GPa) = 43.73335 73.23854 58.48595
# Shear Modulus (GPa) = 32.40470 41.48969 36.94719
#
# Velocity S-wave (km/s) = 3.63716 4.11556 3.88373
# Velocity P-wave (km/s) = 5.95754 7.24450 6.63231
#
# Compressibility (1/GPa) = 0.02286585
#
# Stress axis : x y z
#
# Youngs Moduli (GPa) = 46.99775 119.44810 80.44108
#
# Poissons Ratio (x) = 0.80892 0.12476
# Poissons Ratio (y) = 0.31828 0.10332
# Poissons Ratio (z) = 0.07289 0.15343
#
# Static dielectric constant tensor:
#      x y z
#    x 1.992820 -0.038140 -0.007990 
#    y -0.038140 1.913800 0.032160 
#    z -0.007990 0.032160 1.987110 
# 
# From -- ./inp_files/68232.got.cif
#   From: 2010.05.17/outbox.cif.g08.bks.cpg/sg2_35_cif.got.tgz:68232.got - 2010.06.03 11:33:40.
