data_PCOD9016396
_publ_section_title
;
Structure prediction by ZEFSAII (Michael W. Deem and Ramdas Pophale) SiO2 
 PCOD9016396
Probable space group: P -1
;
_chemical_formula_sum "Si O2"
_cell_formula_units_Z 16
_cell_length_a 6.311678
_cell_length_b 20.427138
_cell_length_c 5.299014
_cell_angle_alpha 96.463508
_cell_angle_beta 92.696004
_cell_angle_gamma 118.046490
_cell_volume 595.230759
_symmetry_space_group_name_H-M "P -1"
_symmetry_group_IT_number 2
_symmetry_cell_setting 'triclinic'
loop_
_space_group_symop_operation_xyz
x,y,z
-x,-y,-z
loop_
_atom_site_type_symbol
_atom_site_label
_atom_site_fract_x
_atom_site_fract_y
_atom_site_fract_z
Si Si1 0.623021 0.132051 0.107162
Si Si2 0.863372 0.795668 0.939968
Si Si3 0.246734 0.345175 0.864139
Si Si4 0.096111 0.400954 0.381530
Si Si5 0.287116 0.524012 0.107497
Si Si6 0.592507 0.836767 0.309660
Si Si7 0.150970 0.040271 0.273641
Si Si8 0.603898 0.278140 0.391063
O O1 0.554580 0.125250 0.803270
O O2 0.891986 0.148492 0.153644
O O3 0.425381 0.060002 0.214018
O O4 0.655245 0.214879 0.227299
O O5 0.878793 0.743948 0.142535
O O6 0.767624 0.844850 0.098664
O O7 0.653538 0.735265 0.726317
O O8 0.177488 0.372186 0.615684
O O9 0.539945 0.387927 0.887020
O O10 0.145836 0.370068 0.110415
O O11 0.236156 0.489520 0.372476
O O12 0.809909 0.360757 0.386297
O O13 0.500000 0.500000 0.000000
O O14 0.000000 0.500000 0.000000
O O15 0.751589 0.874690 0.579585
O O16 0.421293 0.751063 0.337200
O O17 0.000000 0.000000 0.500000
O O18 0.000000 0.000000 0.000000
#
# Coordination Sequence:
#
# PCOD9016396 Si02
#       8
#     2   2   2   2   2   2   2   2
#     4  10  21  42  67  96 137 179 223 287 351 427
#     4  11  23  40  67 104 138 178 239 291 360 426
#     4  11  24  43  71 102 141 192 240 304 370 435
#     4  11  23  44  70 101 142 188 249 296 371 439
#     4  10  23  47  73 106 149 201 257 317 380 454
#     4  10  23  40  69  99 136 177 232 286 352 421
#     4  11  22  44  73  97 135 184 226 281 358 429
#     4  10  22  38  64  97 139 180 232 294 354 426
#
# _framework density 26.880329
#
# number of rings (size 3 to 8) (size 9 to 14) (size 15 to 20)
#    0.000    1.500    2.500    1.875    3.500    2.000 
#    0.000    6.250    0.000    0.000    0.000    0.000 
#    0.000    0.000    0.000    0.000    0.000    0.000 
#
# Total GULP energy -89104.827796 kJ/mol
# GULP energy per Si atom -5569.051737 kJ/mol
# Density = 2.681915 g / cm^3
# Si number density = 26.880329 Si / 1000 Ang^3
#
#
#
# Elastic Constant Matrix: (Units=GPa)
#
#
# Indices 1 2 3 4 5 6 
#
# 1 125.3325 31.2430 45.3591 -5.7493 10.6222 55.7449
# 2 31.2430 121.9421 27.6311 -31.4400 -8.4826 51.0719
# 3 45.3591 27.6311 140.3690 -21.3444 5.2455 22.3551
# 4 -5.7493 -31.4400 -21.3444 51.9824 0.9706 -17.3871
# 5 10.6222 -8.4826 5.2455 0.9706 36.6111 -11.0431
# 6 55.7449 51.0719 22.3551 -17.3871 -11.0431 62.3998
#
#
#
# Elastic Compliance Matrix: (Units=1/GPa)
#
#
# Indices 1 2 3 4 5 6 
#
# 1 0.018275 0.002826 -0.003492 -0.004336 -0.010185 -0.020399
# 2 0.002826 0.013998 -0.000958 0.004155 -0.001388 -0.012726
# 3 -0.003492 -0.000958 0.008654 0.003149 -0.000027 0.001676
# 4 -0.004336 0.004155 0.003149 0.024783 0.003167 0.006811
# 5 -0.010185 -0.001388 -0.000027 0.003167 0.035097 0.017339
# 6 -0.020399 -0.012726 0.001676 0.006811 0.017339 0.049031
#
#
# Mechanical properties :
#
#
# Convention : Reuss Voigt Hill
#
# Bulk Modulus (GPa) = 26.53970 66.23445 46.38707
# Shear Modulus (GPa) = 30.18462 49.09269 39.63865
#
# Velocity S-wave (km/s) = 3.35464 4.27821 3.84426
# Velocity P-wave (km/s) = 4.98995 7.00700 6.08267
#
# Compressibility (1/GPa) = 0.03767940
#
# Stress axis : x y z
#
# Youngs Moduli (GPa) = 54.71826 71.43648 115.55442
#
# Poissons Ratio (x) = -0.20187 0.40349
# Poissons Ratio (y) = -0.15463 0.11073
# Poissons Ratio (z) = 0.19107 0.06845
#
# Static dielectric constant tensor:
#      x y z
#    x 2.299590 -0.067930 0.014580 
#    y -0.067930 2.269600 0.030590 
#    z 0.014580 0.030590 2.222020 
# 
# From -- ./inp_files/13303.got.cif
#   From: 2010.05.17/outbox.cif.g08.bks.cpg/sg2_7_cif.got.tgz:13303.got - 2010.06.03 11:33:40.
