data_PCOD9016655
_publ_section_title
;
Structure prediction by ZEFSAII (Michael W. Deem and Ramdas Pophale) SiO2 
 PCOD9016655
Probable space group: P -1
;
_chemical_formula_sum "Si O2"
_cell_formula_units_Z 14
_cell_length_a 19.532200
_cell_length_b 10.253959
_cell_length_c 13.588727
_cell_angle_alpha 42.907611
_cell_angle_beta 155.791118
_cell_angle_gamma 147.931500
_cell_volume 582.223969
_symmetry_space_group_name_H-M "P -1"
_symmetry_group_IT_number 2
_symmetry_cell_setting 'triclinic'
loop_
_space_group_symop_operation_xyz
x,y,z
-x,-y,-z
loop_
_atom_site_type_symbol
_atom_site_label
_atom_site_fract_x
_atom_site_fract_y
_atom_site_fract_z
Si Si1 0.353818 0.819530 0.666505
Si Si2 0.407355 0.109925 0.758274
Si Si3 0.674030 0.640048 0.738948
Si Si4 0.217065 0.924016 0.044293
Si Si5 0.844482 0.142774 0.784954
Si Si6 0.863030 0.820382 0.512239
Si Si7 0.414909 0.461868 0.020222
O O1 0.350424 0.995523 0.638131
O O2 0.584156 0.982533 0.819015
O O3 0.177805 0.712653 0.408537
O O4 0.331632 0.617382 0.818869
O O5 0.199730 0.047846 0.573358
O O6 0.500000 0.000000 0.000000
O O7 0.500000 0.500000 0.500000
O O8 0.590776 0.409723 0.828008
O O9 0.697143 0.857843 0.707002
O O10 0.911487 0.758888 0.944508
O O11 0.245884 0.169183 0.976808
O O12 0.218783 0.828276 0.205980
O O13 0.997636 0.763436 0.781520
O O14 0.629594 0.582444 0.298572
O O15 0.000000 0.000000 0.500000
O O16 0.500000 0.500000 0.000000
#
# Coordination Sequence:
#
# PCOD9016655 Si02
#       7
#     2   2   2   2   2   2   2
#     4  11  23  45  64 105 142 171 232 287 333 408
#     4  12  24  43  72 102 138 180 226 290 343 400
#     4  11  24  47  68  98 143 181 226 283 342 411
#     4  11  24  44  72  97 140 184 229 282 341 408
#     4  11  25  44  72 101 135 189 232 271 347 413
#     4  12  22  42  70  99 134 177 226 276 347 410
#     4  10  21  42  68  97 137 179 222 282 342 394
#
# _framework density 24.045729000000001
#
# number of rings (size 3 to 8) (size 9 to 14) (size 15 to 20)
#    0.000    0.857    5.714    2.143    2.000    1.143 
#    5.143    2.143    0.000    0.000    0.000    0.000 
#    0.000    0.000    0.000    0.000    0.000    0.000 
#
# Total GULP energy -78319.814243 kJ/mol
# GULP energy per Si atom -5594.272446 kJ/mol
# Density = 2.399100 g / cm^3
# Si number density = 24.045729 Si / 1000 Ang^3
#
#
#
# Elastic Constant Matrix: (Units=GPa)
#
#
# Indices 1 2 3 4 5 6 
#
# 1 144.6456 8.8932 31.8610 1.6427 -5.8919 5.4565
# 2 8.8932 90.2241 17.0881 4.8359 -4.7491 1.1460
# 3 31.8610 17.0881 155.9569 4.6436 -26.9762 -1.7388
# 4 1.6427 4.8359 4.6436 24.7924 -1.2342 -4.4364
# 5 -5.8919 -4.7491 -26.9762 -1.2342 42.3638 -7.3871
# 6 5.4565 1.1460 -1.7388 -4.4364 -7.3871 26.8246
#
#
#
# Elastic Compliance Matrix: (Units=1/GPa)
#
#
# Indices 1 2 3 4 5 6 
#
# 1 0.007329 -0.000406 -0.001511 -0.000448 -0.000303 -0.001729
# 2 -0.000406 0.011466 -0.001054 -0.002123 0.000369 -0.000725
# 3 -0.001511 -0.001054 0.007732 -0.000514 0.004952 0.002132
# 4 -0.000448 -0.002123 -0.000514 0.042348 0.001946 0.007688
# 5 -0.000303 0.000369 0.004952 0.001946 0.028293 0.008480
# 6 -0.001729 -0.000725 0.002132 0.007688 0.008480 0.041407
#
#
# Mechanical properties :
#
#
# Convention : Reuss Voigt Hill
#
# Bulk Modulus (GPa) = 48.58260 56.27902 52.43081
# Shear Modulus (GPa) = 33.02966 40.99511 37.01238
#
# Velocity S-wave (km/s) = 3.71026 4.13350 3.92758
# Velocity P-wave (km/s) = 6.21311 6.79977 6.51305
#
# Compressibility (1/GPa) = 0.02058350
#
# Stress axis : x y z
#
# Youngs Moduli (GPa) = 136.43960 87.21674 129.33422
#
# Poissons Ratio (x) = 0.03543 0.19545
# Poissons Ratio (y) = 0.05542 0.13636
# Poissons Ratio (z) = 0.20618 0.09195
#
# Static dielectric constant tensor:
#      x y z
#    x 1.948920 -0.014310 -0.037020 
#    y -0.014310 1.991750 -0.056030 
#    z -0.037020 -0.056030 1.937910 
# 
# From -- ./inp_files/427585.got.cif
#   From: 2010.05.17/outbox.cif.g08.bks.cpg/sg2_214_cif.got.tgz:427585.got - 2010.06.03 11:33:40.
