data_PCOD9016034
_publ_section_title
;
Structure prediction by ZEFSAII (Michael W. Deem and Ramdas Pophale) SiO2 
 PCOD9016034
Probable space group: P -1
;
_chemical_formula_sum "Si O2"
_cell_formula_units_Z 16
_cell_length_a 5.855243
_cell_length_b 18.616200
_cell_length_c 9.241806
_cell_angle_alpha 128.923768
_cell_angle_beta 84.693057
_cell_angle_gamma 101.846987
_cell_volume 766.147777
_symmetry_space_group_name_H-M "P -1"
_symmetry_group_IT_number 2
_symmetry_cell_setting 'triclinic'
loop_
_space_group_symop_operation_xyz
x,y,z
-x,-y,-z
loop_
_atom_site_type_symbol
_atom_site_label
_atom_site_fract_x
_atom_site_fract_y
_atom_site_fract_z
Si Si1 0.003595 0.005862 0.258778
Si Si2 0.270455 0.551052 0.086705
Si Si3 0.701203 0.436045 0.565703
Si Si4 0.729695 0.078458 0.617804
Si Si5 0.658941 0.923710 0.926826
Si Si6 0.702346 0.288835 0.943141
Si Si7 0.403695 0.275847 0.234697
Si Si8 0.934666 0.638267 0.759777
O O1 0.161587 0.065894 0.203873
O O2 0.905125 0.067638 0.463256
O O3 0.153147 0.944049 0.265654
O O4 0.792965 0.947378 0.101858
O O5 0.251841 0.579042 0.289722
O O6 0.332774 0.639681 0.088843
O O7 0.500000 0.500000 0.000000
O O8 0.000000 0.500000 0.000000
O O9 0.464719 0.367532 0.447806
O O10 0.728395 0.547682 0.681948
O O11 0.883944 0.400539 0.403033
O O12 0.678454 0.182587 0.757284
O O13 0.500000 0.000000 0.500000
O O14 0.535725 0.815590 0.810131
O O15 0.500000 0.000000 0.000000
O O16 0.531508 0.288995 0.089548
O O17 0.954092 0.328153 0.050844
O O18 0.136955 0.273365 0.204111
#
# Coordination Sequence:
#
# PCOD9016034 Si02
#       8
#     2   2   2   2   2   2   2   2
#     4  10  23  41  66  93 132 174 215 277 342 404
#     4  12  27  47  69 101 142 183 230 289 351 413
#     4  10  23  40  65  95 128 169 220 277 333 403
#     4  11  23  43  66  98 133 171 226 277 343 410
#     4  11  23  42  65  92 134 169 220 279 336 403
#     4  11  24  41  68  95 131 177 223 279 344 413
#     4  11  23  39  67  96 124 174 225 272 337 404
#     4  10  21  42  66  92 128 168 220 276 334 400
#
# _framework density 20.883702
#
# number of rings (size 3 to 8) (size 9 to 14) (size 15 to 20)
#    0.000    1.250    1.250    4.125    1.750    7.000 
#    0.000    0.000    0.000    0.000    0.000    0.000 
#    0.000    0.000    0.000    0.000    0.000    0.000 
#
# Total GULP energy -89292.767577 kJ/mol
# GULP energy per Si atom -5580.797974 kJ/mol
# Density = 2.083617 g / cm^3
# Si number density = 20.883702 Si / 1000 Ang^3
#
#
#
# Elastic Constant Matrix: (Units=GPa)
#
#
# Indices 1 2 3 4 5 6 
#
# 1 70.1803 37.1910 30.8932 14.6046 12.2141 -22.7745
# 2 37.1910 123.1943 63.0167 8.2834 10.2529 -21.8928
# 3 30.8932 63.0167 108.2447 1.0701 14.9105 -10.6511
# 4 14.6046 8.2834 1.0701 40.7157 -7.2357 -3.1799
# 5 12.2141 10.2529 14.9105 -7.2357 26.7426 -7.0394
# 6 -22.7745 -21.8928 -10.6511 -3.1799 -7.0394 34.6779
#
#
#
# Elastic Compliance Matrix: (Units=1/GPa)
#
#
# Indices 1 2 3 4 5 6 
#
# 1 0.023357 -0.002393 -0.003120 -0.008310 -0.007471 0.010592
# 2 -0.002393 0.013029 -0.006521 -0.001139 0.000657 0.004680
# 3 -0.003120 -0.006521 0.014269 0.001084 -0.004416 -0.002580
# 4 -0.008310 -0.001139 0.001084 0.029719 0.011460 -0.000792
# 5 -0.007471 0.000657 -0.004416 0.011460 0.047386 0.004822
# 6 0.010592 0.004680 -0.002580 -0.000792 0.004822 0.038862
#
#
# Mechanical properties :
#
#
# Convention : Reuss Voigt Hill
#
# Bulk Modulus (GPa) = 37.61042 62.64682 50.12862
# Shear Modulus (GPa) = 25.05631 31.79513 28.42572
#
# Velocity S-wave (km/s) = 3.46757 3.90614 3.69337
# Velocity P-wave (km/s) = 5.83786 7.09978 6.49952
#
# Compressibility (1/GPa) = 0.02658838
#
# Stress axis : x y z
#
# Youngs Moduli (GPa) = 42.81338 76.75392 70.08365
#
# Poissons Ratio (x) = 0.18364 0.21864
# Poissons Ratio (y) = 0.10243 0.45700
# Poissons Ratio (z) = 0.13357 0.50050
#
# Static dielectric constant tensor:
#      x y z
#    x 1.943730 -0.054780 0.039340 
#    y -0.054780 1.816990 0.026040 
#    z 0.039340 0.026040 1.725030 
# 
# From -- ./inp_files/39288.got.cif
#   From: 2010.05.17/outbox.cif.g08.bks.cpg/sg2_20_cif.got.tgz:39288.got - 2010.06.03 11:33:40.
