data_PCOD9016184
_publ_section_title
;
Structure prediction by ZEFSAII (Michael W. Deem and Ramdas Pophale) SiO2 
 PCOD9016184
Probable space group: P -1
;
_chemical_formula_sum "Si O2"
_cell_formula_units_Z 16
_cell_length_a 11.361292
_cell_length_b 17.927682
_cell_length_c 20.448488
_cell_angle_alpha 19.861267
_cell_angle_beta 151.567934
_cell_angle_gamma 152.051875
_cell_volume 631.597488
_symmetry_space_group_name_H-M "P -1"
_symmetry_group_IT_number 2
_symmetry_cell_setting 'triclinic'
loop_
_space_group_symop_operation_xyz
x,y,z
-x,-y,-z
loop_
_atom_site_type_symbol
_atom_site_label
_atom_site_fract_x
_atom_site_fract_y
_atom_site_fract_z
Si Si1 0.965814 0.349802 0.172879
Si Si2 0.394576 0.109090 0.562410
Si Si3 0.545343 0.110196 0.357589
Si Si4 0.355533 0.280115 0.656621
Si Si5 0.011282 0.240402 0.771590
Si Si6 0.934391 0.498085 0.300042
Si Si7 0.962093 0.036283 0.095454
Si Si8 0.186281 0.798135 0.979261
O O1 0.973325 0.552830 0.060292
O O2 0.713691 0.123017 0.253232
O O3 0.217706 0.263699 0.367992
O O4 0.000000 0.500000 0.000000
O O5 0.334643 0.018009 0.532385
O O6 0.709808 0.231293 0.623998
O O7 0.275642 0.096717 0.202561
O O8 0.723559 0.374381 0.243836
O O9 0.500000 0.000000 0.500000
O O10 0.500000 0.500000 0.500000
O O11 0.114630 0.340998 0.518813
O O12 0.563282 0.266310 0.823790
O O13 0.268597 0.028327 0.783590
O O14 0.164637 0.460036 0.711238
O O15 0.137290 0.207875 0.790765
O O16 0.000000 0.000000 0.000000
O O17 0.098537 0.759821 0.141683
O O18 0.892149 0.083396 0.094689
#
# Coordination Sequence:
#
# PCOD9016184 Si02
#       8
#     2   2   2   2   2   2   2   2
#     4  11  26  44  74 101 136 182 232 293 344 409
#     4  10  24  49  69 104 143 178 232 289 349 412
#     4  11  24  42  69  99 137 183 228 280 340 418
#     4  11  24  41  66  95 135 178 220 280 338 403
#     4   9  21  42  69  98 133 179 221 277 352 406
#     4  11  21  40  69  97 129 180 225 278 345 404
#     4  10  21  42  66  98 135 169 229 281 338 418
#     4  11  24  43  66 102 131 176 234 275 340 416
#
# _framework density 25.332588999999999
#
# number of rings (size 3 to 8) (size 9 to 14) (size 15 to 20)
#    0.000    1.500    1.250    2.625    3.500    4.000 
#    2.250    5.625    0.000    0.000    0.000    0.000 
#    0.000    0.000    0.000    0.000    0.000    0.000 
#
# Total GULP energy -89367.244848 kJ/mol
# GULP energy per Si atom -5585.452803 kJ/mol
# Density = 2.527493 g / cm^3
# Si number density = 25.332589 Si / 1000 Ang^3
#
#
#
# Elastic Constant Matrix: (Units=GPa)
#
#
# Indices 1 2 3 4 5 6 
#
# 1 96.9448 17.2685 18.0318 -16.4769 8.7134 -24.9629
# 2 17.2685 58.5304 14.7715 -18.9668 14.9074 -26.9194
# 3 18.0318 14.7715 142.7386 -20.2963 -4.6260 -3.9739
# 4 -16.4769 -18.9668 -20.2963 37.2658 4.2966 6.3582
# 5 8.7134 14.9074 -4.6260 4.2966 36.7258 -8.8516
# 6 -24.9629 -26.9194 -3.9739 6.3582 -8.8516 33.1249
#
#
#
# Elastic Compliance Matrix: (Units=1/GPa)
#
#
# Indices 1 2 3 4 5 6 
#
# 1 0.014211 0.004544 -0.001138 0.006253 -0.003145 0.012225
# 2 0.004544 0.036923 -0.001657 0.016664 -0.011741 0.026895
# 3 -0.001138 -0.001657 0.007743 0.002993 0.001199 -0.001530
# 4 0.006253 0.016664 0.002993 0.039520 -0.010513 0.008218
# 5 -0.003145 -0.011741 0.001199 -0.010513 0.033959 -0.000675
# 6 0.012225 0.026895 -0.001530 0.008218 -0.000675 0.059317
#
#
# Mechanical properties :
#
#
# Convention : Reuss Voigt Hill
#
# Bulk Modulus (GPa) = 16.03221 44.26194 30.14708
# Shear Modulus (GPa) = 23.92732 37.96612 30.94672
#
# Velocity S-wave (km/s) = 3.07665 3.87551 3.49896
# Velocity P-wave (km/s) = 4.35471 6.12670 5.31507
#
# Compressibility (1/GPa) = 0.06237443
#
# Stress axis : x y z
#
# Youngs Moduli (GPa) = 70.36982 27.08354 129.14960
#
# Poissons Ratio (x) = -0.12308 0.14696
# Poissons Ratio (y) = -0.31978 0.21405
# Poissons Ratio (z) = 0.08007 0.04489
#
# Static dielectric constant tensor:
#      x y z
#    x 2.238110 0.040750 -0.090720 
#    y 0.040750 2.087310 -0.054840 
#    z -0.090720 -0.054840 1.973770 
# 
# From -- ./inp_files/595986.got.cif
#   From: 2010.05.17/outbox.cif.g08.bks.cpg/sg2_298_cif.got.tgz:595986.got - 2010.06.03 11:33:40.
