data_PCOD9016230
_publ_section_title
;
Structure prediction by ZEFSAII (Michael W. Deem and Ramdas Pophale) SiO2 
 PCOD9016230
Probable space group: P -1
;
_chemical_formula_sum "Si O2"
_cell_formula_units_Z 16
_cell_length_a 15.143337
_cell_length_b 21.424285
_cell_length_c 17.187744
_cell_angle_alpha 161.537308
_cell_angle_beta 149.837973
_cell_angle_gamma 22.352928
_cell_volume 667.893903
_symmetry_space_group_name_H-M "P -1"
_symmetry_group_IT_number 2
_symmetry_cell_setting 'triclinic'
loop_
_space_group_symop_operation_xyz
x,y,z
-x,-y,-z
loop_
_atom_site_type_symbol
_atom_site_label
_atom_site_fract_x
_atom_site_fract_y
_atom_site_fract_z
Si Si1 0.594700 0.309502 0.420266
Si Si2 0.545920 0.843020 0.149324
Si Si3 0.950586 0.327038 0.800796
Si Si4 0.754707 0.501789 0.483823
Si Si5 0.727069 0.845652 0.544901
Si Si6 0.357181 0.804162 0.432223
Si Si7 0.755038 0.959889 0.993463
Si Si8 0.249172 0.636379 0.006700
O O1 0.500000 0.500000 0.500000
O O2 0.798377 0.287404 0.587815
O O3 0.390371 0.410168 0.443481
O O4 0.692895 0.049570 0.141731
O O5 0.357521 0.988078 0.244589
O O6 0.604603 0.029955 0.397239
O O7 0.431101 0.847666 0.987396
O O8 0.774149 0.541698 0.985611
O O9 0.191036 0.025897 0.635219
O O10 0.000000 0.500000 0.000000
O O11 0.584696 0.539344 0.332011
O O12 0.758928 0.721457 0.713597
O O13 0.024320 0.245008 0.396623
O O14 0.500000 0.000000 0.500000
O O15 0.772396 0.580675 0.274918
O O16 0.249895 0.723883 0.197465
O O17 0.001537 0.883589 0.073509
O O18 0.500000 0.500000 0.000000
#
# Coordination Sequence:
#
# PCOD9016230 Si02
#       8
#     2   2   2   2   2   2   2   2
#     4  12  23  43  67  99 135 178 231 276 342 405
#     4  10  21  42  68  97 137 183 218 272 343 401
#     4  10  22  40  67 102 137 175 220 280 337 397
#     4  10  26  43  68  99 135 179 225 287 340 402
#     4  11  26  47  65  97 140 181 224 282 347 406
#     4  10  21  42  67 102 135 172 229 278 337 401
#     4  10  22  42  67 100 135 180 225 280 336 400
#     4  11  22  39  70 102 129 180 231 278 328 408
#
# _framework density 23.955901000000001
#
# number of rings (size 3 to 8) (size 9 to 14) (size 15 to 20)
#    0.000    1.500    3.750    0.375    1.750    6.000 
#    4.500    1.250    0.000    0.000    0.000    0.000 
#    0.000    0.000    0.000    0.000    0.000    0.000 
#
# Total GULP energy -89229.799690 kJ/mol
# GULP energy per Si atom -5576.862481 kJ/mol
# Density = 2.390138 g / cm^3
# Si number density = 23.955901 Si / 1000 Ang^3
#
#
#
# Elastic Constant Matrix: (Units=GPa)
#
#
# Indices 1 2 3 4 5 6 
#
# 1 71.8012 48.7322 21.1209 3.9831 -7.4562 -14.5779
# 2 48.7322 130.3228 22.2267 7.3724 -9.3748 -30.2034
# 3 21.1209 22.2267 100.2368 1.9782 -17.5010 -11.6725
# 4 3.9831 7.3724 1.9782 31.5414 -6.0334 -2.2961
# 5 -7.4562 -9.3748 -17.5010 -6.0334 23.9859 5.8496
# 6 -14.5779 -30.2034 -11.6725 -2.2961 5.8496 28.9998
#
#
#
# Elastic Compliance Matrix: (Units=1/GPa)
#
#
# Indices 1 2 3 4 5 6 
#
# 1 0.019427 -0.006300 -0.002217 -0.000436 0.001361 0.002003
# 2 -0.006300 0.012351 -0.000280 -0.001383 0.000007 0.009473
# 3 -0.002217 -0.000280 0.012081 0.001232 0.007845 0.001972
# 4 -0.000436 -0.001383 0.001232 0.033661 0.008754 -0.000264
# 5 0.001361 0.000007 0.007845 0.008754 0.051467 -0.005839
# 6 0.002003 0.009473 0.001972 -0.000264 -0.005839 0.047307
#
#
# Mechanical properties :
#
#
# Convention : Reuss Voigt Hill
#
# Bulk Modulus (GPa) = 38.07203 54.05783 46.06493
# Shear Modulus (GPa) = 24.67410 30.92414 27.79912
#
# Velocity S-wave (km/s) = 3.21281 3.59678 3.41020
# Velocity P-wave (km/s) = 5.44885 6.31376 5.89718
#
# Compressibility (1/GPa) = 0.02626600
#
# Stress axis : x y z
#
# Youngs Moduli (GPa) = 51.47369 80.96638 82.77769
#
# Poissons Ratio (x) = 0.51005 0.18353
# Poissons Ratio (y) = 0.32426 0.02315
# Poissons Ratio (z) = 0.11412 0.02264
#
# Static dielectric constant tensor:
#      x y z
#    x 1.930910 -0.011770 -0.007210 
#    y -0.011770 2.081910 0.065990 
#    z -0.007210 0.065990 2.003410 
# 
# From -- ./inp_files/263425.got.cif
#   From: 2010.05.17/outbox.cif.g08.bks.cpg/sg2_132_cif.got.tgz:263425.got - 2010.06.03 11:33:40.
