data_PCOD9016859
_publ_section_title
;
Structure prediction by ZEFSAII (Michael W. Deem and Ramdas Pophale) SiO2 
 PCOD9016859
Probable space group: P -1
;
_chemical_formula_sum "Si O2"
_cell_formula_units_Z 16
_cell_length_a 9.356488
_cell_length_b 11.634067
_cell_length_c 18.882553
_cell_angle_alpha 42.369628
_cell_angle_beta 137.100255
_cell_angle_gamma 106.527476
_cell_volume 781.419716
_symmetry_space_group_name_H-M "P -1"
_symmetry_group_IT_number 2
_symmetry_cell_setting 'triclinic'
loop_
_space_group_symop_operation_xyz
x,y,z
-x,-y,-z
loop_
_atom_site_type_symbol
_atom_site_label
_atom_site_fract_x
_atom_site_fract_y
_atom_site_fract_z
Si Si1 0.297252 0.375503 0.507197
Si Si2 0.035622 0.578390 0.170567
Si Si3 0.054425 0.153186 0.592292
Si Si4 0.579601 0.839906 0.539024
Si Si5 0.152633 0.765761 0.367714
Si Si6 0.110339 0.992558 0.119807
Si Si7 0.261931 0.904245 0.595785
Si Si8 0.500398 0.297789 0.089723
O O1 0.198499 0.496547 0.340530
O O2 0.275587 0.539916 0.481114
O O3 0.138568 0.285026 0.520332
O O4 0.587281 0.179560 0.694552
O O5 0.180108 0.387577 0.256600
O O6 0.977691 0.773243 0.015866
O O7 0.761295 0.640633 0.066586
O O8 0.010539 0.205375 0.635564
O O9 0.795022 0.191119 0.448130
O O10 0.269818 0.909115 0.769852
O O11 0.354702 0.817889 0.442700
O O12 0.500000 0.000000 0.500000
O O13 0.685764 0.924660 0.481327
O O14 0.009094 0.923156 0.178791
O O15 0.000000 0.000000 0.000000
O O16 0.482637 0.755462 0.796846
O O17 0.000000 0.000000 0.500000
O O18 0.500000 0.500000 0.000000
#
# Coordination Sequence:
#
# PCOD9016859 Si02
#       8
#     2   2   2   2   2   2   2   2
#     4  12  24  47  74 100 139 190 239 285 349 421
#     4  12  23  44  74 102 134 186 236 286 343 417
#     4  11  23  44  69 104 143 182 234 294 351 413
#     4  12  24  44  70 102 141 179 226 287 354 410
#     4  12  25  44  70 104 146 184 225 299 361 407
#     4  12  24  46  72 104 135 179 244 283 341 431
#     4  10  21  42  69  96 139 186 232 275 333 420
#     4  11  22  40  67 103 135 183 239 277 332 422
#
# _framework density 20.475553999999999
#
# number of rings (size 3 to 8) (size 9 to 14) (size 15 to 20)
#    0.000    0.500    5.000    6.000    0.000    0.000 
#    2.250    5.000    0.000    0.000    0.000    0.000 
#    0.000    0.000    0.000    0.000    0.000    0.000 
#
# Total GULP energy -89250.447757 kJ/mol
# GULP energy per Si atom -5578.152985 kJ/mol
# Density = 2.042895 g / cm^3
# Si number density = 20.475554 Si / 1000 Ang^3
#
#
#
# Elastic Constant Matrix: (Units=GPa)
#
#
# Indices 1 2 3 4 5 6 
#
# 1 79.1089 27.9653 30.0557 -8.7031 -14.3276 -10.2690
# 2 27.9653 108.1986 49.7660 -21.8176 -1.8446 -11.1542
# 3 30.0557 49.7660 135.4580 -14.4022 -7.8907 -10.2798
# 4 -8.7031 -21.8176 -14.4022 50.9285 7.8001 -3.1960
# 5 -14.3276 -1.8446 -7.8907 7.8001 28.9788 -3.7109
# 6 -10.2690 -11.1542 -10.2798 -3.1960 -3.7109 43.1310
#
#
#
# Elastic Compliance Matrix: (Units=1/GPa)
#
#
# Indices 1 2 3 4 5 6 
#
# 1 0.016188 -0.002853 -0.001833 0.000050 0.007738 0.003349
# 2 -0.002853 0.012656 -0.003551 0.004433 -0.002528 0.001858
# 3 -0.001833 -0.003551 0.009321 0.000658 0.001361 0.001033
# 4 0.000050 0.004433 0.000658 0.022700 -0.005298 0.002542
# 5 0.007738 -0.002528 0.001361 -0.005298 0.040560 0.004610
# 6 0.003349 0.001858 0.001033 0.002542 0.004610 0.025294
#
#
# Mechanical properties :
#
#
# Convention : Reuss Voigt Hill
#
# Bulk Modulus (GPa) = 46.10651 59.81552 52.96102
# Shear Modulus (GPa) = 33.23929 38.93955 36.08942
#
# Velocity S-wave (km/s) = 4.03347 4.36565 4.20284
# Velocity P-wave (km/s) = 6.65271 7.39516 7.03374
#
# Compressibility (1/GPa) = 0.02168891
#
# Stress axis : x y z
#
# Youngs Moduli (GPa) = 61.77551 79.01619 107.28002
#
# Poissons Ratio (x) = 0.22547 0.19666
# Poissons Ratio (y) = 0.17627 0.38098
# Poissons Ratio (z) = 0.11325 0.28061
#
# Static dielectric constant tensor:
#      x y z
#    x 1.808640 0.044460 -0.065450 
#    y 0.044460 1.904310 -0.072880 
#    z -0.065450 -0.072880 1.818380 
# 
# From -- ./inp_files/559698.got.cif
#   From: 2010.05.17/outbox.cif.g08.bks.cpg/sg2_280_cif.got.tgz:559698.got - 2010.06.03 11:33:40.
