data_PCOD9016302
_publ_section_title
;
Structure prediction by ZEFSAII (Michael W. Deem and Ramdas Pophale) SiO2 
 PCOD9016302
Probable space group: P -1
;
_chemical_formula_sum "Si O2"
_cell_formula_units_Z 12
_cell_length_a 11.803673
_cell_length_b 10.996782
_cell_length_c 7.271138
_cell_angle_alpha 38.775204
_cell_angle_beta 87.212413
_cell_angle_gamma 66.422655
_cell_volume 481.423489
_symmetry_space_group_name_H-M "P -1"
_symmetry_group_IT_number 2
_symmetry_cell_setting 'triclinic'
loop_
_space_group_symop_operation_xyz
x,y,z
-x,-y,-z
loop_
_atom_site_type_symbol
_atom_site_label
_atom_site_fract_x
_atom_site_fract_y
_atom_site_fract_z
Si Si1 0.038239 0.218471 0.946170
Si Si2 0.733465 0.698364 0.056363
Si Si3 0.070657 0.071312 0.700802
Si Si4 0.165448 0.363275 0.259985
Si Si5 0.644021 0.443138 0.637893
Si Si6 0.453349 0.122545 0.659118
O O1 0.913807 0.442646 0.803849
O O2 0.021324 0.210090 0.736957
O O3 0.170410 0.226066 0.956515
O O4 0.032044 0.999603 0.266588
O O5 0.799416 0.566351 0.015264
O O6 0.586168 0.947440 0.733420
O O7 0.702227 0.548075 0.367413
O O8 0.088532 0.236681 0.371240
O O9 0.223570 0.824346 0.016062
O O10 0.314176 0.153310 0.577031
O O11 0.500000 0.500000 0.500000
O O12 0.593835 0.608832 0.628015
O O13 0.500000 0.000000 0.000000
#
# Coordination Sequence:
#
# PCOD9016302 Si02
#       6
#     2   2   2   2   2   2
#     4  11  25  44  67 101 137 178 224 268 333 404
#     4  11  25  43  68  98 142 175 212 284 342 386
#     4  11  24  41  72  96 131 180 232 267 318 404
#     4  12  24  46  67 100 141 173 216 279 343 388
#     4  11  22  43  67 100 127 176 233 271 321 401
#     4  10  21  42  67  92 131 175 223 268 322 396
#
# _framework density 24.926079000000001
#
# number of rings (size 3 to 8) (size 9 to 14) (size 15 to 20)
#    0.000    1.000    1.667    6.500    4.667    0.667 
#    6.000    1.667    0.000    0.000    0.000    0.000 
#    0.000    0.000    0.000    0.000    0.000    0.000 
#
# Total GULP energy -67156.461470 kJ/mol
# GULP energy per Si atom -5596.371789 kJ/mol
# Density = 2.486935 g / cm^3
# Si number density = 24.926079 Si / 1000 Ang^3
#
#
#
# Elastic Constant Matrix: (Units=GPa)
#
#
# Indices 1 2 3 4 5 6 
#
# 1 175.9818 44.0825 37.3946 -20.3633 -1.5429 -4.9744
# 2 44.0825 115.6922 57.0673 -29.3868 -1.9517 -23.5470
# 3 37.3946 57.0673 82.6319 -18.3269 -12.0964 -12.6032
# 4 -20.3633 -29.3868 -18.3269 41.8277 -6.7861 8.9548
# 5 -1.5429 -1.9517 -12.0964 -6.7861 57.8706 -10.3233
# 6 -4.9744 -23.5470 -12.6032 8.9548 -10.3233 38.7750
#
#
#
# Elastic Compliance Matrix: (Units=1/GPa)
#
#
# Indices 1 2 3 4 5 6 
#
# 1 0.006580 -0.001410 -0.001851 0.001584 -0.000260 -0.001049
# 2 -0.001410 0.015749 -0.008047 0.005738 0.000478 0.005570
# 3 -0.001851 -0.008047 0.020023 0.002523 0.004518 0.002005
# 4 0.001584 0.005738 0.002523 0.030806 0.004105 -0.001514
# 5 -0.000260 0.000478 0.004518 0.004105 0.019794 0.006047
# 6 -0.001049 0.005570 0.002005 -0.001514 0.006047 0.031649
#
#
# Mechanical properties :
#
#
# Convention : Reuss Voigt Hill
#
# Bulk Modulus (GPa) = 50.66306 72.37718 61.52012
# Shear Modulus (GPa) = 32.51095 43.41212 37.96154
#
# Velocity S-wave (km/s) = 3.61542 4.17782 3.90675
# Velocity P-wave (km/s) = 6.14799 7.23685 6.71453
#
# Compressibility (1/GPa) = 0.01973825
#
# Stress axis : x y z
#
# Youngs Moduli (GPa) = 151.97020 63.49587 49.94193
#
# Poissons Ratio (x) = 0.08951 0.09244
# Poissons Ratio (y) = 0.21422 0.40186
# Poissons Ratio (z) = 0.28129 0.51092
#
# Static dielectric constant tensor:
#      x y z
#    x 2.037350 -0.005700 0.040280 
#    y -0.005700 1.969030 -0.024800 
#    z 0.040280 -0.024800 2.038280 
# 
# From -- ./inp_files/251250.got.cif
#   From: 2010.05.17/outbox.cif.g08.bks.cpg/sg2_126_cif.got.tgz:251250.got - 2010.06.03 11:33:40.
