data_PCOD9016959
_publ_section_title
;
Structure prediction by ZEFSAII (Michael W. Deem and Ramdas Pophale) SiO2 
 PCOD9016959
Probable space group: P -1
;
_chemical_formula_sum "Si O2"
_cell_formula_units_Z 14
_cell_length_a 15.639761
_cell_length_b 11.860851
_cell_length_c 7.866571
_cell_angle_alpha 55.430653
_cell_angle_beta 119.148000
_cell_angle_gamma 152.087712
_cell_volume 562.108042
_symmetry_space_group_name_H-M "P -1"
_symmetry_group_IT_number 2
_symmetry_cell_setting 'triclinic'
loop_
_space_group_symop_operation_xyz
x,y,z
-x,-y,-z
loop_
_atom_site_type_symbol
_atom_site_label
_atom_site_fract_x
_atom_site_fract_y
_atom_site_fract_z
Si Si1 0.432916 0.968991 0.716824
Si Si2 0.306258 0.607511 0.162602
Si Si3 0.297717 0.202072 0.598201
Si Si4 0.765194 0.203372 0.666748
Si Si5 0.024153 0.659161 0.765792
Si Si6 0.179624 0.052637 0.993897
Si Si7 0.207596 0.264385 0.149398
O O1 0.291916 0.841087 0.544708
O O2 0.559898 0.239805 0.678965
O O3 0.584092 0.040543 0.730710
O O4 0.334053 0.781093 0.939467
O O5 0.104159 0.375653 0.242380
O O6 0.030380 0.144053 0.031874
O O7 0.174063 0.133907 0.395526
O O8 0.653866 0.459551 0.880728
O O9 0.225301 0.960805 0.703793
O O10 0.257579 0.182366 0.773967
O O11 0.927593 0.494972 0.639185
O O12 0.807448 0.095002 0.838554
O O13 0.000000 0.500000 0.000000
O O14 0.270353 0.244234 0.072706
O O15 0.500000 0.500000 0.500000
#
# Coordination Sequence:
#
# PCOD9016959 Si02
#       7
#     2   2   2   2   2   2   2
#     4   9  22  41  74 114 150 194 253 334 380 450
#     4  10  21  42  70 104 156 198 251 312 395 455
#     4  12  28  48  76 113 153 204 259 321 383 454
#     4  10  21  44  74 112 151 197 258 319 388 452
#     4  11  22  44  77 104 148 201 257 318 381 459
#     4  11  25  49  75 111 155 201 262 315 377 470
#     4  11  26  47  74 110 153 211 249 314 388 465
#
# _framework density 24.906245999999999
#
# number of rings (size 3 to 8) (size 9 to 14) (size 15 to 20)
#    0.000    1.429    2.857    0.429    2.000    6.286 
#    5.143    2.143    0.000    0.000    0.000    1.000 
#    0.000    0.000    0.000    0.000    0.000    0.000 
#
# Total GULP energy -78303.381023 kJ/mol
# GULP energy per Si atom -5593.098645 kJ/mol
# Density = 2.484956 g / cm^3
# Si number density = 24.906246 Si / 1000 Ang^3
#
#
#
# Elastic Constant Matrix: (Units=GPa)
#
#
# Indices 1 2 3 4 5 6 
#
# 1 140.9747 66.9791 45.7539 12.2823 -11.0429 -10.6352
# 2 66.9791 141.7967 59.3683 4.6624 -14.8130 -24.2908
# 3 45.7539 59.3683 120.3331 21.6019 -6.9456 -12.9463
# 4 12.2823 4.6624 21.6019 43.6131 -10.6701 -13.2465
# 5 -11.0429 -14.8130 -6.9456 -10.6701 44.2280 8.3370
# 6 -10.6352 -24.2908 -12.9463 -13.2465 8.3370 61.7799
#
#
#
# Elastic Compliance Matrix: (Units=1/GPa)
#
#
# Indices 1 2 3 4 5 6 
#
# 1 0.009556 -0.003895 -0.001457 -0.001596 0.000583 -0.000613
# 2 -0.003895 0.011397 -0.004290 0.003614 0.002409 0.003361
# 3 -0.001457 -0.004290 0.011837 -0.005418 -0.001162 -0.000462
# 4 -0.001596 0.003614 -0.005418 0.028749 0.005882 0.005381
# 5 0.000583 0.002409 -0.001162 0.005882 0.025047 -0.001315
# 6 -0.000613 0.003361 -0.000462 0.005381 -0.001315 0.018637
#
#
# Mechanical properties :
#
#
# Convention : Reuss Voigt Hill
#
# Bulk Modulus (GPa) = 74.04801 83.03411 78.54106
# Shear Modulus (GPa) = 38.75695 45.32441 42.04068
#
# Velocity S-wave (km/s) = 3.94904 4.27054 4.11293
# Velocity P-wave (km/s) = 7.11256 7.59788 7.35922
#
# Compressibility (1/GPa) = 0.01350475
#
# Stress axis : x y z
#
# Youngs Moduli (GPa) = 104.65095 87.74183 84.48231
#
# Poissons Ratio (x) = 0.34177 0.12311
# Poissons Ratio (y) = 0.40763 0.36242
# Poissons Ratio (z) = 0.15250 0.37641
#
# Static dielectric constant tensor:
#      x y z
#    x 2.076490 -0.004010 0.038440 
#    y -0.004010 2.009220 0.046220 
#    z 0.038440 0.046220 1.963440 
# 
# From -- ./inp_files/346875.got.cif
#   From: 2010.05.17/outbox.cif.g08.bks.cpg/sg2_174_cif.got.tgz:346875.got - 2010.06.03 11:33:40.
