data_PCOD9016877
_publ_section_title
;
Structure prediction by ZEFSAII (Michael W. Deem and Ramdas Pophale) SiO2 
 PCOD9016877
Probable space group: P -1
;
_chemical_formula_sum "Si O2"
_cell_formula_units_Z 14
_cell_length_a 14.657913
_cell_length_b 11.774560
_cell_length_c 7.204336
_cell_angle_alpha 62.802016
_cell_angle_beta 96.400345
_cell_angle_gamma 47.530169
_cell_volume 626.605367
_symmetry_space_group_name_H-M "P -1"
_symmetry_group_IT_number 2
_symmetry_cell_setting 'triclinic'
loop_
_space_group_symop_operation_xyz
x,y,z
-x,-y,-z
loop_
_atom_site_type_symbol
_atom_site_label
_atom_site_fract_x
_atom_site_fract_y
_atom_site_fract_z
Si Si1 0.051226 0.654368 0.575049
Si Si2 0.325699 0.690759 0.730388
Si Si3 0.640971 0.750438 0.303352
Si Si4 0.383769 0.510894 0.500179
Si Si5 0.925048 0.541189 0.749012
Si Si6 0.924931 0.863248 0.791153
Si Si7 0.103614 0.908103 0.867662
O O1 0.222734 0.428670 0.690995
O O2 0.037191 0.708479 0.750739
O O3 0.952363 0.635008 0.562053
O O4 0.969298 0.868457 0.297631
O O5 0.340870 0.571069 0.661322
O O6 0.197485 0.799368 0.774887
O O7 0.500000 0.500000 0.000000
O O8 0.259758 0.903840 0.483860
O O9 0.573204 0.685839 0.385518
O O10 0.745205 0.694765 0.540124
O O11 0.500000 0.000000 0.000000
O O12 0.500000 0.500000 0.500000
O O13 0.232429 0.719140 0.186844
O O14 0.037038 0.288828 0.938673
O O15 0.000000 0.500000 0.000000
O O16 0.973089 0.946952 0.808858
#
# Coordination Sequence:
#
# PCOD9016877 Si02
#       7
#     2   2   2   2   2   2   2
#     4  10  23  43  69  98 134 179 226 280 346 407
#     4  11  23  40  65 104 139 172 220 287 344 399
#     4  12  27  45  68  99 142 181 230 287 347 409
#     4  12  26  42  70 104 137 179 229 283 351 402
#     4  10  23  44  67  98 135 181 230 275 343 417
#     4  10  21  42  69  98 131 176 227 280 333 413
#     4  11  22  44  70  98 134 175 231 281 335 409
#
# _framework density 22.342611000000002
#
# number of rings (size 3 to 8) (size 9 to 14) (size 15 to 20)
#    0.000    1.143    2.857    3.857    4.000    3.429 
#    0.000    2.857    0.000    0.000    0.000    0.000 
#    0.000    0.000    0.000    0.000    0.000    0.000 
#
# Total GULP energy -78083.833739 kJ/mol
# GULP energy per Si atom -5577.416696 kJ/mol
# Density = 2.229176 g / cm^3
# Si number density = 22.342611 Si / 1000 Ang^3
#
#
#
# Elastic Constant Matrix: (Units=GPa)
#
#
# Indices 1 2 3 4 5 6 
#
# 1 153.7761 36.1069 67.8852 -14.4144 -22.1919 31.0337
# 2 36.1069 89.0365 30.0298 3.8089 -3.3060 16.5686
# 3 67.8852 30.0298 196.9670 -15.8180 -14.5709 29.4535
# 4 -14.4144 3.8089 -15.8180 39.4592 8.5070 2.2998
# 5 -22.1919 -3.3060 -14.5709 8.5070 43.5760 -3.8496
# 6 31.0337 16.5686 29.4535 2.2998 -3.8496 30.3796
#
#
#
# Elastic Compliance Matrix: (Units=1/GPa)
#
#
# Indices 1 2 3 4 5 6 
#
# 1 0.009875 -0.002149 -0.001520 0.002952 0.003139 -0.007268
# 2 -0.002149 0.013228 -0.000861 -0.002099 -0.000328 -0.004067
# 3 -0.001520 -0.000861 0.006635 0.002338 0.000523 -0.004521
# 4 0.002952 -0.002099 0.002338 0.028846 -0.004110 -0.006842
# 5 0.003139 -0.000328 0.000523 -0.004110 0.025500 0.000007
# 6 -0.007268 -0.004067 -0.004521 -0.006842 0.000007 0.047461
#
#
# Mechanical properties :
#
#
# Convention : Reuss Voigt Hill
#
# Bulk Modulus (GPa) = 48.36075 78.64705 63.50390
# Shear Modulus (GPa) = 33.89909 43.06680 38.48294
#
# Velocity S-wave (km/s) = 3.89940 4.39517 4.15468
# Velocity P-wave (km/s) = 6.47810 7.81240 7.17633
#
# Compressibility (1/GPa) = 0.02067793
#
# Stress axis : x y z
#
# Youngs Moduli (GPa) = 101.26596 75.59917 150.72651
#
# Poissons Ratio (x) = 0.16249 0.22905
# Poissons Ratio (y) = 0.21766 0.12972
# Poissons Ratio (z) = 0.15389 0.06506
#
# Static dielectric constant tensor:
#      x y z
#    x 1.929810 0.000430 0.045620 
#    y 0.000430 1.929180 0.050890 
#    z 0.045620 0.050890 1.892070 
# 
# From -- ./inp_files/304809.got.cif
#   From: 2010.05.17/outbox.cif.g08.bks.cpg/sg2_153_cif.got.tgz:304809.got - 2010.06.03 11:33:40.
