data_PCOD9016087
_publ_section_title
;
Structure prediction by ZEFSAII (Michael W. Deem and Ramdas Pophale) SiO2 
 PCOD9016087
Probable space group: P -1
;
_chemical_formula_sum "Si O2"
_cell_formula_units_Z 16
_cell_length_a 13.303989
_cell_length_b 8.092500
_cell_length_c 7.810675
_cell_angle_alpha 59.954474
_cell_angle_beta 91.843701
_cell_angle_gamma 110.019126
_cell_volume 673.843311
_symmetry_space_group_name_H-M "P -1"
_symmetry_group_IT_number 2
_symmetry_cell_setting 'triclinic'
loop_
_space_group_symop_operation_xyz
x,y,z
-x,-y,-z
loop_
_atom_site_type_symbol
_atom_site_label
_atom_site_fract_x
_atom_site_fract_y
_atom_site_fract_z
Si Si1 0.365336 0.464336 0.202913
Si Si2 0.732310 0.964731 0.049251
Si Si3 0.989204 0.779658 0.685191
Si Si4 0.795331 0.272736 0.384841
Si Si5 0.397508 0.110317 0.570262
Si Si6 0.524491 0.901167 0.879986
Si Si7 0.821346 0.695192 0.998783
Si Si8 0.801204 0.398429 0.707784
O O1 0.423993 0.322342 0.359854
O O2 0.264521 0.332831 0.145594
O O3 0.306935 0.549850 0.303135
O O4 0.445917 0.661854 0.003025
O O5 0.646054 0.922076 0.910443
O O6 0.813469 0.857712 0.052158
O O7 0.786482 0.211447 0.935073
O O8 0.664804 0.875862 0.263629
O O9 0.937782 0.754460 0.884694
O O10 0.903221 0.598210 0.662237
O O11 0.103667 0.759762 0.681347
O O12 0.000000 0.000000 0.500000
O O13 0.814377 0.319432 0.562594
O O14 0.690775 0.071612 0.445623
O O15 0.785243 0.473528 0.198233
O O16 0.492944 0.032994 0.667458
O O17 0.500000 0.000000 0.000000
#
# Coordination Sequence:
#
# PCOD9016087 Si02
#       8
#     2   2   2   2   2   2   2   2
#     4  11  21  42  66  93 138 175 218 276 320 384
#     4  11  23  43  67  94 137 173 219 276 324 388
#     4  11  24  44  69  94 129 172 217 272 336 395
#     4  12  23  43  67 100 131 176 216 270 333 392
#     4  11  22  42  68  98 134 178 221 270 330 382
#     4  10  21  42  66  94 135 176 226 266 329 382
#     4  11  24  42  63  98 132 172 219 273 327 389
#     4  11  22  42  66  97 134 169 218 272 325 392
#
# _framework density 23.744392999999999
#
# number of rings (size 3 to 8) (size 9 to 14) (size 15 to 20)
#    0.000    1.000    3.750    5.250    0.000    2.500 
#    2.250    3.125    0.000    0.000    0.000    0.000 
#    0.000    0.000    0.000    0.000    0.000    0.000 
#
# Total GULP energy -89634.173309 kJ/mol
# GULP energy per Si atom -5602.135832 kJ/mol
# Density = 2.369035 g / cm^3
# Si number density = 23.744393 Si / 1000 Ang^3
#
#
#
# Elastic Constant Matrix: (Units=GPa)
#
#
# Indices 1 2 3 4 5 6 
#
# 1 88.9423 46.2566 23.7265 -2.6915 -0.5201 -13.6695
# 2 46.2566 81.5492 25.7216 -10.1726 -7.8351 -19.2920
# 3 23.7265 25.7216 104.2790 -2.2741 12.3842 -24.1250
# 4 -2.6915 -10.1726 -2.2741 45.9671 -12.4988 2.5120
# 5 -0.5201 -7.8351 12.3842 -12.4988 37.5367 -1.8814
# 6 -13.6695 -19.2920 -24.1250 2.5120 -1.8814 35.1327
#
#
#
# Elastic Compliance Matrix: (Units=1/GPa)
#
#
# Indices 1 2 3 4 5 6 
#
# 1 0.016335 -0.009152 -0.001148 -0.001653 -0.001828 0.000562
# 2 -0.009152 0.021121 -0.002392 0.005648 0.007271 0.006380
# 3 -0.001148 -0.002392 0.012534 -0.001667 -0.004869 0.006705
# 4 -0.001653 0.005648 -0.001667 0.025606 0.010234 0.000031
# 5 -0.001828 0.007271 -0.004869 0.010234 0.033196 0.000984
# 6 0.000562 0.006380 0.006705 0.000031 0.000984 0.036840
#
#
# Mechanical properties :
#
#
# Convention : Reuss Voigt Hill
#
# Bulk Modulus (GPa) = 40.64119 51.79777 46.21948
# Shear Modulus (GPa) = 27.89873 35.66502 31.78187
#
# Velocity S-wave (km/s) = 3.43149 3.87982 3.66252
# Velocity P-wave (km/s) = 5.73179 6.47555 6.11499
#
# Compressibility (1/GPa) = 0.02460558
#
# Stress axis : x y z
#
# Youngs Moduli (GPa) = 61.21779 47.34644 79.78285
#
# Poissons Ratio (x) = 0.43334 0.09160
# Poissons Ratio (y) = 0.56029 0.19081
# Poissons Ratio (z) = 0.07029 0.11323
#
# Static dielectric constant tensor:
#      x y z
#    x 1.895110 -0.011730 0.001750 
#    y -0.011730 1.892310 0.024610 
#    z 0.001750 0.024610 1.915670 
# 
# From -- ./inp_files/297420.got.cif
#   From: 2010.05.17/outbox.cif.g08.bks.cpg/sg2_149_cif.got.tgz:297420.got - 2010.06.03 11:33:40.
