data_PCOD9016047
_publ_section_title
;
Structure prediction by ZEFSAII (Michael W. Deem and Ramdas Pophale) SiO2 
 PCOD9016047
Probable space group: P -1
;
_chemical_formula_sum "Si O2"
_cell_formula_units_Z 16
_cell_length_a 14.180370
_cell_length_b 8.072081
_cell_length_c 18.687714
_cell_angle_alpha 40.875742
_cell_angle_beta 141.703239
_cell_angle_gamma 146.011211
_cell_volume 705.956824
_symmetry_space_group_name_H-M "P -1"
_symmetry_group_IT_number 2
_symmetry_cell_setting 'triclinic'
loop_
_space_group_symop_operation_xyz
x,y,z
-x,-y,-z
loop_
_atom_site_type_symbol
_atom_site_label
_atom_site_fract_x
_atom_site_fract_y
_atom_site_fract_z
Si Si1 0.748193 0.480256 0.168865
Si Si2 0.184622 0.305746 0.537962
Si Si3 0.356303 0.439859 0.150027
Si Si4 0.258832 0.965306 0.804194
Si Si5 0.022392 0.484394 0.934031
Si Si6 0.057520 0.693308 0.398332
Si Si7 0.351864 0.121205 0.111903
Si Si8 0.429396 0.213022 0.411982
O O1 0.797715 0.312429 0.194462
O O2 0.542617 0.203996 0.164909
O O3 0.889569 0.641869 0.267176
O O4 0.724183 0.725751 0.034497
O O5 0.132508 0.543542 0.440606
O O6 0.375395 0.466599 0.553662
O O7 0.222651 0.202153 0.669538
O O8 0.000000 0.000000 0.500000
O O9 0.400072 0.293873 0.159494
O O10 0.361431 0.295865 0.274091
O O11 0.517338 0.809853 0.125491
O O12 0.154776 0.367763 0.040696
O O13 0.137103 0.808072 0.853913
O O14 0.815232 0.238446 0.861499
O O15 0.000000 0.500000 0.000000
O O16 0.000000 0.500000 0.500000
O O17 0.247616 0.036754 0.411470
O O18 0.500000 0.000000 0.500000
#
# Coordination Sequence:
#
# PCOD9016047 Si02
#       8
#     2   2   2   2   2   2   2   2
#     4  11  24  43  66  92 137 169 225 266 332 392
#     4  10  21  42  66  93 124 171 221 265 331 390
#     4  11  23  42  70  92 131 172 221 265 335 391
#     4  11  24  42  66  92 132 178 209 273 338 387
#     4  12  26  41  64  98 133 166 220 270 332 386
#     4  11  24  42  67  96 131 172 220 273 327 385
#     4  11  26  40  68 100 127 173 221 272 322 398
#     4   9  22  39  65  93 127 166 217 263 325 386
#
# _framework density 22.664275
#
# number of rings (size 3 to 8) (size 9 to 14) (size 15 to 20)
#    0.000    1.250    2.500    2.250   10.500    1.000 
#    0.000    0.625    0.000    0.000    0.000    0.000 
#    0.000    0.000    0.000    0.000    0.000    0.000 
#
# Total GULP energy -89382.325998 kJ/mol
# GULP energy per Si atom -5586.395375 kJ/mol
# Density = 2.261269 g / cm^3
# Si number density = 22.664275 Si / 1000 Ang^3
#
#
#
# Elastic Constant Matrix: (Units=GPa)
#
#
# Indices 1 2 3 4 5 6 
#
# 1 63.8277 31.6890 4.6777 4.4363 -18.7994 19.1018
# 2 31.6890 130.6065 21.1963 13.4442 -15.1581 45.5442
# 3 4.6777 21.1963 58.0220 0.1360 -2.0193 25.6152
# 4 4.4363 13.4442 0.1360 33.6334 3.1102 -3.2236
# 5 -18.7994 -15.1581 -2.0193 3.1102 32.3843 -7.0620
# 6 19.1018 45.5442 25.6152 -3.2236 -7.0620 47.0228
#
#
#
# Elastic Compliance Matrix: (Units=1/GPa)
#
#
# Indices 1 2 3 4 5 6 
#
# 1 0.021959 -0.001406 0.002458 -0.004082 0.010993 -0.007526
# 2 -0.001406 0.013435 0.001069 -0.006744 0.003355 -0.012982
# 3 0.002458 0.001069 0.023182 -0.002295 0.000374 -0.014764
# 4 -0.004082 -0.006744 -0.002295 0.034626 -0.006636 0.010817
# 5 0.010993 0.003355 0.000374 -0.006636 0.038941 -0.002526
# 6 -0.007526 -0.012982 -0.014764 0.010817 -0.002526 0.045302
#
#
# Mechanical properties :
#
#
# Convention : Reuss Voigt Hill
#
# Bulk Modulus (GPa) = 15.91887 40.84246 28.38066
# Shear Modulus (GPa) = 25.75421 35.60099 30.67760
#
# Velocity S-wave (km/s) = 3.37461 3.96763 3.68308
# Velocity P-wave (km/s) = 4.71413 6.24894 5.53499
#
# Compressibility (1/GPa) = 0.06281855
#
# Stress axis : x y z
#
# Youngs Moduli (GPa) = 45.53889 74.43327 43.13644
#
# Poissons Ratio (x) = 0.10468 -0.10604
# Poissons Ratio (y) = 0.06404 -0.04612
# Poissons Ratio (z) = -0.11194 -0.07959
#
# Static dielectric constant tensor:
#      x y z
#    x 1.870550 0.055480 0.038620 
#    y 0.055480 2.008630 0.009390 
#    z 0.038620 0.009390 1.948080 
# 
# From -- ./inp_files/179500.got.cif
#   From: 2010.05.17/outbox.cif.g08.bks.cpg/sg2_90_cif.got.tgz:179500.got - 2010.06.03 11:33:40.
