data_PCOD9016260
_publ_section_title
;
Structure prediction by ZEFSAII (Michael W. Deem and Ramdas Pophale) SiO2 
 PCOD9016260
Probable space group: P -1
;
_chemical_formula_sum "Si O2"
_cell_formula_units_Z 16
_cell_length_a 9.103818
_cell_length_b 12.063229
_cell_length_c 14.289027
_cell_angle_alpha 135.125436
_cell_angle_beta 52.183548
_cell_angle_gamma 141.762190
_cell_volume 679.504603
_symmetry_space_group_name_H-M "P -1"
_symmetry_group_IT_number 2
_symmetry_cell_setting 'triclinic'
loop_
_space_group_symop_operation_xyz
x,y,z
-x,-y,-z
loop_
_atom_site_type_symbol
_atom_site_label
_atom_site_fract_x
_atom_site_fract_y
_atom_site_fract_z
Si Si1 0.074400 0.580220 0.712996
Si Si2 0.702607 0.552717 0.327720
Si Si3 0.759855 0.119378 0.513638
Si Si4 0.589591 0.790706 0.039733
Si Si5 0.786046 0.805433 0.632305
Si Si6 0.123437 0.395780 0.906028
Si Si7 0.012159 0.158474 0.984759
Si Si8 0.425049 0.045067 0.311532
O O1 0.178504 0.546510 0.743451
O O2 0.310229 0.736973 0.652139
O O3 0.887481 0.358290 0.610457
O O4 0.974740 0.692071 0.855070
O O5 0.751107 0.695530 0.480114
O O6 0.418591 0.373316 0.327580
O O7 0.820135 0.655658 0.245593
O O8 0.950586 0.101974 0.381885
O O9 0.500000 0.000000 0.500000
O O10 0.716793 0.030303 0.581715
O O11 0.745780 0.809498 0.075843
O O12 0.465963 0.887474 0.173801
O O13 0.382430 0.566751 0.953265
O O14 0.784043 0.934169 0.969439
O O15 0.708293 0.936274 0.708825
O O16 0.985932 0.219085 0.929852
O O17 0.000000 0.500000 0.000000
#
# Coordination Sequence:
#
# PCOD9016260 Si02
#       8
#     2   2   2   2   2   2   2   2
#     4   9  19  41  67  87 132 171 207 268 337 390
#     4   9  19  40  68  96 126 170 220 269 324 387
#     4  11  23  40  63  99 127 159 223 276 325 393
#     4  10  24  43  65  95 137 176 220 261 333 402
#     4   9  20  43  66  88 131 178 212 261 334 390
#     4  12  23  39  68 105 129 165 224 284 327 381
#     4  10  21  45  66  94 132 182 211 263 341 391
#     4  10  21  42  67  89 123 181 217 262 325 392
#
# _framework density 23.546568000000001
#
# number of rings (size 3 to 8) (size 9 to 14) (size 15 to 20)
#    0.000    2.000    1.250    2.250    1.750    1.000 
#   11.250    0.000    0.000    0.000    0.000    0.000 
#    0.000    0.000    0.000    0.000    0.000    0.000 
#
# Total GULP energy -89536.290512 kJ/mol
# GULP energy per Si atom -5596.018157 kJ/mol
# Density = 2.349298 g / cm^3
# Si number density = 23.546568 Si / 1000 Ang^3
#
#
#
# Elastic Constant Matrix: (Units=GPa)
#
#
# Indices 1 2 3 4 5 6 
#
# 1 85.5148 28.6195 24.2718 -3.6737 -20.9514 13.3207
# 2 28.6195 115.6477 14.5459 -6.6754 11.1050 11.7329
# 3 24.2718 14.5459 55.5719 -3.3770 -12.6638 2.3194
# 4 -3.6737 -6.6754 -3.3770 29.7376 -3.2406 0.6317
# 5 -20.9514 11.1050 -12.6638 -3.2406 35.8466 -4.0012
# 6 13.3207 11.7329 2.3194 0.6317 -4.0012 46.9627
#
#
#
# Elastic Compliance Matrix: (Units=1/GPa)
#
#
# Indices 1 2 3 4 5 6 
#
# 1 0.017171 -0.004317 -0.003897 0.001843 0.009853 -0.002785
# 2 -0.004317 0.010937 -0.002410 0.000939 -0.006900 -0.001989
# 3 -0.003897 -0.002410 0.021898 0.002151 0.006528 0.001153
# 4 0.001843 0.000939 0.002151 0.034830 0.004590 -0.000941
# 5 0.009853 -0.006900 0.006528 0.004590 0.038720 0.001844
# 6 -0.002785 -0.001989 0.001153 -0.000941 0.001844 0.022693
#
#
# Mechanical properties :
#
#
# Convention : Reuss Voigt Hill
#
# Bulk Modulus (GPa) = 34.77004 43.51208 39.14106
# Shear Modulus (GPa) = 28.23565 35.12918 31.68241
#
# Velocity S-wave (km/s) = 3.46662 3.86671 3.67211
# Velocity P-wave (km/s) = 5.55174 6.20117 5.88542
#
# Compressibility (1/GPa) = 0.02876040
#
# Stress axis : x y z
#
# Youngs Moduli (GPa) = 58.23644 91.43459 45.66721
#
# Poissons Ratio (x) = 0.39468 0.17794
# Poissons Ratio (y) = 0.25138 0.11004
# Poissons Ratio (z) = 0.22692 0.22032
#
# Static dielectric constant tensor:
#      x y z
#    x 1.887940 0.016620 -0.003560 
#    y 0.016620 1.903490 0.031220 
#    z -0.003560 0.031220 1.916590 
# 
# From -- ./inp_files/500802.got.cif
#   From: 2010.05.17/outbox.cif.g08.bks.cpg/sg2_251_cif.got.tgz:500802.got - 2010.06.03 11:33:40.
