data_PCOD9016480
_publ_section_title
;
Structure prediction by ZEFSAII (Michael W. Deem and Ramdas Pophale) SiO2 
 PCOD9016480
Probable space group: P -1
;
_chemical_formula_sum "Si O2"
_cell_formula_units_Z 14
_cell_length_a 8.132414
_cell_length_b 15.402024
_cell_length_c 13.304294
_cell_angle_alpha 29.983370
_cell_angle_beta 134.671778
_cell_angle_gamma 137.098170
_cell_volume 555.293381
_symmetry_space_group_name_H-M "P -1"
_symmetry_group_IT_number 2
_symmetry_cell_setting 'triclinic'
loop_
_space_group_symop_operation_xyz
x,y,z
-x,-y,-z
loop_
_atom_site_type_symbol
_atom_site_label
_atom_site_fract_x
_atom_site_fract_y
_atom_site_fract_z
Si Si1 0.698506 0.453868 0.924032
Si Si2 0.975002 0.032011 0.578411
Si Si3 0.760937 0.828600 0.112091
Si Si4 0.256876 0.517463 0.424861
Si Si5 0.163545 0.626386 0.736804
Si Si6 0.484029 0.913648 0.216375
Si Si7 0.529100 0.765990 0.584317
O O1 0.669041 0.423880 0.060508
O O2 0.477294 0.289865 0.940903
O O3 0.636222 0.637693 0.691185
O O4 0.000000 0.500000 0.000000
O O5 0.227170 0.035883 0.731358
O O6 0.904093 0.204148 0.414269
O O7 0.000000 0.000000 0.500000
O O8 0.728073 0.859295 0.662567
O O9 0.838073 0.668537 0.359929
O O10 0.630010 0.936590 0.019122
O O11 0.000000 0.000000 0.000000
O O12 0.500000 0.500000 0.500000
O O13 0.320086 0.707745 0.320296
O O14 0.095869 0.525745 0.249846
O O15 0.288852 0.661037 0.647832
O O16 0.478343 0.907818 0.342796
#
# Coordination Sequence:
#
# PCOD9016480 Si02
#       7
#     2   2   2   2   2   2   2
#     4  12  24  48  74 105 149 204 256 299 380 464
#     4  10  21  42  68 101 135 191 242 298 369 442
#     4  12  28  47  78 113 149 197 253 312 382 448
#     4  12  26  49  75 109 153 199 252 308 377 455
#     4  12  25  42  70 108 144 188 253 314 362 445
#     4  11  23  48  74 102 152 203 243 300 386 451
#     4  11  23  41  74 105 146 193 250 314 375 436
#
# _framework density 25.211897
#
# number of rings (size 3 to 8) (size 9 to 14) (size 15 to 20)
#    0.000    0.571    2.857    6.857    2.000    2.857 
#    2.571    0.000    0.000    0.000    0.000    0.000 
#    0.000    0.000    0.000    0.000    0.000    0.000 
#
# Total GULP energy -78145.980147 kJ/mol
# GULP energy per Si atom -5581.855725 kJ/mol
# Density = 2.515451 g / cm^3
# Si number density = 25.211897 Si / 1000 Ang^3
#
#
#
# Elastic Constant Matrix: (Units=GPa)
#
#
# Indices 1 2 3 4 5 6 
#
# 1 48.5227 11.4700 7.3082 7.1498 3.3082 9.0949
# 2 11.4700 178.6080 74.4602 -6.3880 3.4254 4.5238
# 3 7.3082 74.4602 105.3146 -1.9661 15.4135 -4.6593
# 4 7.1498 -6.3880 -1.9661 46.8376 -7.8805 -0.4062
# 5 3.3082 3.4254 15.4135 -7.8805 38.1346 -1.5213
# 6 9.0949 4.5238 -4.6593 -0.4062 -1.5213 34.9531
#
#
#
# Elastic Compliance Matrix: (Units=1/GPa)
#
#
# Indices 1 2 3 4 5 6 
#
# 1 0.022926 -0.001095 -0.000771 -0.004186 -0.002687 -0.006092
# 2 -0.001095 0.008262 -0.006105 0.001369 0.002044 -0.001493
# 3 -0.000771 -0.006105 0.014764 -0.000988 -0.005448 0.002710
# 4 -0.004186 0.001369 -0.000988 0.023064 0.005457 0.001286
# 5 -0.002687 0.002044 -0.005448 0.005457 0.029645 0.001062
# 6 -0.006092 -0.001493 0.002710 0.001286 0.001062 0.030811
#
#
# Mechanical properties :
#
#
# Convention : Reuss Voigt Hill
#
# Bulk Modulus (GPa) = 33.32259 57.65801 45.49030
# Shear Modulus (GPa) = 32.17166 39.93219 36.05192
#
# Velocity S-wave (km/s) = 3.57606 3.98410 3.78558
# Velocity P-wave (km/s) = 5.50424 6.63951 6.09835
#
# Compressibility (1/GPa) = 0.03000967
#
# Stress axis : x y z
#
# Youngs Moduli (GPa) = 43.61910 121.03827 67.73163
#
# Poissons Ratio (x) = 0.13248 0.05225
# Poissons Ratio (y) = 0.04774 0.41350
# Poissons Ratio (z) = 0.03365 0.73894
#
# Static dielectric constant tensor:
#      x y z
#    x 2.180150 -0.001070 -0.036600 
#    y -0.001070 2.074970 -0.023870 
#    z -0.036600 -0.023870 2.037990 
# 
# From -- ./inp_files/336829.got.cif
#   From: 2010.05.17/outbox.cif.g08.bks.cpg/sg2_169_cif.got.tgz:336829.got - 2010.06.03 11:33:40.
