data_PCOD9016450
_publ_section_title
;
Structure prediction by ZEFSAII (Michael W. Deem and Ramdas Pophale) SiO2 
 PCOD9016450
Probable space group: P -1
;
_chemical_formula_sum "Si O2"
_cell_formula_units_Z 15
_cell_length_a 7.705890
_cell_length_b 6.307171
_cell_length_c 12.155133
_cell_angle_alpha 81.963396
_cell_angle_beta 79.258120
_cell_angle_gamma 81.237858
_cell_volume 569.853646
_symmetry_space_group_name_H-M "P -1"
_symmetry_group_IT_number 2
_symmetry_cell_setting 'triclinic'
loop_
_space_group_symop_operation_xyz
x,y,z
-x,-y,-z
loop_
_atom_site_type_symbol
_atom_site_label
_atom_site_fract_x
_atom_site_fract_y
_atom_site_fract_z
Si Si1 0.759192 0.199547 0.827537
Si Si2 0.070019 0.475131 0.836413
Si Si3 0.500000 0.500000 0.500000
Si Si4 0.031990 0.904936 0.400262
Si Si5 0.857352 0.624548 0.562203
Si Si6 0.277162 0.783077 0.667649
Si Si7 0.410902 0.369721 0.204422
Si Si8 0.227421 0.226614 0.030195
O O1 0.586704 0.373099 0.818346
O O2 0.922864 0.324206 0.834890
O O3 0.808563 0.099666 0.709414
O O4 0.744458 0.027621 0.937009
O O5 0.162157 0.587426 0.719232
O O6 0.965756 0.675839 0.902573
O O7 0.212623 0.331982 0.905624
O O8 0.683839 0.597701 0.509696
O O9 0.378663 0.718145 0.547366
O O10 0.922941 0.873942 0.545795
O O11 0.033768 0.630904 0.430082
O O12 0.855474 0.000901 0.344719
O O13 0.756971 0.638754 0.693834
O O14 0.419737 0.765218 0.749884
O O15 0.369737 0.303759 0.091570
#
# Coordination Sequence:
#
# PCOD9016450 Si02
#       8
#     2   2   1   2   2   2   2   2
#     4  11  21  41  66  98 124 171 223 266 317 396
#     4  10  22  41  71  93 131 170 214 281 319 380
#     4  10  24  38  62  88 136 166 214 268 322 392
#     4  12  24  37  71  93 127 176 225 264 325 404
#     4  11  21  40  61  92 128 175 216 266 330 387
#     4  11  24  44  59  99 131 170 213 272 330 384
#     4  10  24  41  64  94 137 168 212 276 326 390
#     4  10  21  42  67  99 125 169 226 264 325 391
#
# _framework density 26.322548999999999
#
# number of rings (size 3 to 8) (size 9 to 14) (size 15 to 20)
#    0.000    1.333    2.667    2.800    5.600    2.667 
#    7.200    0.667    0.000    0.000    0.000    0.000 
#    0.000    0.000    0.000    0.000    0.000    0.000 
#
# Total GULP energy -83591.740573 kJ/mol
# GULP energy per Si atom -5572.782705 kJ/mol
# Density = 2.626264 g / cm^3
# Si number density = 26.322549 Si / 1000 Ang^3
#
#
#
# Elastic Constant Matrix: (Units=GPa)
#
#
# Indices 1 2 3 4 5 6 
#
# 1 148.0289 74.0159 33.6889 -2.9919 14.1989 -9.3986
# 2 74.0159 142.9127 48.1245 -41.3393 3.6375 -3.5186
# 3 33.6889 48.1245 80.5542 -25.3559 15.1308 -11.8359
# 4 -2.9919 -41.3393 -25.3559 45.8738 -5.0616 15.5960
# 5 14.1989 3.6375 15.1308 -5.0616 39.5332 0.2521
# 6 -9.3986 -3.5186 -11.8359 15.5960 0.2521 24.7313
#
#
#
# Elastic Compliance Matrix: (Units=1/GPa)
#
#
# Indices 1 2 3 4 5 6 
#
# 1 0.012588 -0.009364 -0.001070 -0.012433 -0.004911 0.010830
# 2 -0.009364 0.018398 -0.004316 0.019447 0.005910 -0.015330
# 3 -0.001070 -0.004316 0.018539 0.003756 -0.005869 0.005543
# 4 -0.012433 0.019447 0.003756 0.052927 0.008229 -0.033621
# 5 -0.004911 0.005910 -0.005869 0.008229 0.029875 -0.009328
# 6 0.010830 -0.015330 0.005543 -0.033621 -0.009328 0.066319
#
#
# Mechanical properties :
#
#
# Convention : Reuss Voigt Hill
#
# Bulk Modulus (GPa) = 49.93926 75.90604 62.92265
# Shear Modulus (GPa) = 21.29277 36.40542 28.84910
#
# Velocity S-wave (km/s) = 2.84723 3.72297 3.31416
# Velocity P-wave (km/s) = 5.46097 6.88333 6.21299
#
# Compressibility (1/GPa) = 0.02002433
#
# Stress axis : x y z
#
# Youngs Moduli (GPa) = 79.43802 54.35417 53.93978
#
# Poissons Ratio (x) = 0.50897 0.05772
# Poissons Ratio (y) = 0.74385 0.23283
# Poissons Ratio (z) = 0.08501 0.23462
#
# Static dielectric constant tensor:
#      x y z
#    x 2.033690 0.008420 -0.009170 
#    y 0.008420 2.089880 0.044380 
#    z -0.009170 0.044380 1.631900 
# 
# From -- ./inp_files/134342.got.cif
#   From: 2010.05.17/outbox.cif.g08.bks.cpg/sg2_68_cif.got.tgz:134342.got - 2010.06.03 11:33:40.
