data_PCOD9016192
_publ_section_title
;
Structure prediction by ZEFSAII (Michael W. Deem and Ramdas Pophale) SiO2 
 PCOD9016192
Probable space group: P -1
;
_chemical_formula_sum "Si O2"
_cell_formula_units_Z 12
_cell_length_a 10.947797
_cell_length_b 11.838289
_cell_length_c 8.856077
_cell_angle_alpha 51.622788
_cell_angle_beta 118.207734
_cell_angle_gamma 139.681312
_cell_volume 582.196846
_symmetry_space_group_name_H-M "P -1"
_symmetry_group_IT_number 2
_symmetry_cell_setting 'triclinic'
loop_
_space_group_symop_operation_xyz
x,y,z
-x,-y,-z
loop_
_atom_site_type_symbol
_atom_site_label
_atom_site_fract_x
_atom_site_fract_y
_atom_site_fract_z
Si Si1 0.215129 0.548025 0.644181
Si Si2 0.311806 0.861012 0.907660
Si Si3 0.068859 0.898198 0.557088
Si Si4 0.904127 0.486175 0.706972
Si Si5 0.496259 0.131232 0.269837
Si Si6 0.919565 0.084681 0.805759
O O1 0.247764 0.617624 0.432106
O O2 0.410212 0.672597 0.743509
O O3 0.091593 0.576604 0.644776
O O4 0.077946 0.315440 0.742698
O O5 0.235547 0.955074 0.713239
O O6 0.368890 0.805758 0.843643
O O7 0.152746 0.673034 0.073143
O O8 0.500000 0.000000 0.000000
O O9 0.111605 0.955323 0.358656
O O10 0.930746 0.659874 0.658270
O O11 0.000000 0.000000 0.500000
O O12 0.500000 0.000000 0.500000
O O13 0.287799 0.012389 0.183582
O O14 0.000000 0.000000 0.000000
#
# Coordination Sequence:
#
# PCOD9016192 Si02
#       6
#     2   2   2   2   2   2
#     4  10  21  42  70  94 132 173 227 276 316 397
#     4  12  24  39  70 100 128 176 227 268 321 401
#     4  11  25  43  64  97 138 171 210 278 340 386
#     4  10  21  42  66  99 128 175 224 269 331 391
#     4  12  22  42  69  97 127 173 232 272 317 393
#     4  11  26  44  67  98 135 176 216 275 342 387
#
# _framework density 20.611587
#
# number of rings (size 3 to 8) (size 9 to 14) (size 15 to 20)
#    0.000    1.000    3.333    4.500    4.667    0.667 
#    0.000    0.833    0.000    0.000    0.000    0.000 
#    0.000    0.000    0.000    0.000    0.000    0.000 
#
# Total GULP energy -66970.248242 kJ/mol
# GULP energy per Si atom -5580.854020 kJ/mol
# Density = 2.056467 g / cm^3
# Si number density = 20.611587 Si / 1000 Ang^3
#
#
#
# Elastic Constant Matrix: (Units=GPa)
#
#
# Indices 1 2 3 4 5 6 
#
# 1 78.4279 32.2518 47.4082 -2.9593 11.2452 -13.4870
# 2 32.2518 119.0085 46.5669 23.2064 12.7399 -9.8658
# 3 47.4082 46.5669 138.0110 14.6678 15.4658 3.4719
# 4 -2.9593 23.2064 14.6678 32.2291 2.4602 1.7462
# 5 11.2452 12.7399 15.4658 2.4602 39.2111 4.1433
# 6 -13.4870 -9.8658 3.4719 1.7462 4.1433 33.2714
#
#
#
# Elastic Compliance Matrix: (Units=1/GPa)
#
#
# Indices 1 2 3 4 5 6 
#
# 1 0.020030 -0.003282 -0.006319 0.006915 -0.003451 0.007872
# 2 -0.003282 0.012126 -0.001946 -0.008161 -0.002052 0.003152
# 3 -0.006319 -0.001946 0.010696 -0.003749 -0.001125 -0.003918
# 4 0.006915 -0.008161 -0.003749 0.039328 -0.000187 -0.001267
# 5 -0.003451 -0.002052 -0.001125 -0.000187 0.028185 -0.005390
# 6 0.007872 0.003152 -0.003918 -0.001267 -0.005390 0.035328
#
#
# Mechanical properties :
#
#
# Convention : Reuss Voigt Hill
#
# Bulk Modulus (GPa) = 50.61385 65.32235 57.96810
# Shear Modulus (GPa) = 28.51071 34.89036 31.70053
#
# Velocity S-wave (km/s) = 3.72322 4.11877 3.92598
# Velocity P-wave (km/s) = 6.56449 7.37427 6.98113
#
# Compressibility (1/GPa) = 0.01975744
#
# Stress axis : x y z
#
# Youngs Moduli (GPa) = 49.92633 82.46712 93.49076
#
# Poissons Ratio (x) = 0.27064 0.59079
# Poissons Ratio (y) = 0.16385 0.18195
# Poissons Ratio (z) = 0.31550 0.16049
#
# Static dielectric constant tensor:
#      x y z
#    x 1.771230 0.016550 -0.030720 
#    y 0.016550 1.800890 0.035570 
#    z -0.030720 0.035570 1.858920 
# 
# From -- ./inp_files/151910.got.cif
#   From: 2010.05.17/outbox.cif.g08.bks.cpg/sg2_76_cif.got.tgz:151910.got - 2010.06.03 11:33:40.
