data_PCOD9016167
_publ_section_title
;
Structure prediction by ZEFSAII (Michael W. Deem and Ramdas Pophale) SiO2 
 PCOD9016167
Probable space group: P -1
;
_chemical_formula_sum "Si O2"
_cell_formula_units_Z 14
_cell_length_a 5.412227
_cell_length_b 6.658460
_cell_length_c 21.965664
_cell_angle_alpha 126.204740
_cell_angle_beta 69.745706
_cell_angle_gamma 102.723589
_cell_volume 599.108158
_symmetry_space_group_name_H-M "P -1"
_symmetry_group_IT_number 2
_symmetry_cell_setting 'triclinic'
loop_
_space_group_symop_operation_xyz
x,y,z
-x,-y,-z
loop_
_atom_site_type_symbol
_atom_site_label
_atom_site_fract_x
_atom_site_fract_y
_atom_site_fract_z
Si Si1 0.647598 0.347745 0.511370
Si Si2 0.872324 0.874519 0.428089
Si Si3 0.828271 0.235780 0.041868
Si Si4 0.257609 0.670779 0.062861
Si Si5 0.833131 0.157219 0.767082
Si Si6 0.398047 0.445880 0.777808
Si Si7 0.784928 0.578179 0.664742
O O1 0.500000 0.500000 0.500000
O O2 0.410508 0.233349 0.550650
O O3 0.790352 0.509797 0.580049
O O4 0.817126 0.112535 0.433215
O O5 0.039339 0.634057 0.356885
O O6 0.000000 0.000000 0.500000
O O7 0.644895 0.328976 0.129392
O O8 0.003583 0.487750 0.059939
O O9 0.731691 0.166783 0.969888
O O10 0.000000 0.000000 0.000000
O O11 0.282672 0.803233 0.148450
O O12 0.500000 0.500000 0.000000
O O13 0.610009 0.260467 0.758276
O O14 0.114339 0.307337 0.765727
O O15 0.875620 0.862909 0.709462
O O16 0.516250 0.545792 0.721432
#
# Coordination Sequence:
#
# PCOD9016167 Si02
#       7
#     2   2   2   2   2   2   2
#     4  10  23  46  76 103 140 185 239 290 369 434
#     4   9  22  45  68 105 135 179 232 293 349 448
#     4  10  23  41  70  97 138 195 248 299 364 425
#     4  10  21  42  66  97 139 186 250 300 346 435
#     4  11  27  46  73 106 152 195 244 305 376 424
#     4  11  27  47  69 111 149 193 246 309 367 435
#     4  11  27  45  75 104 148 189 243 300 371 439
#
# _framework density 23.368071
#
# number of rings (size 3 to 8) (size 9 to 14) (size 15 to 20)
#    0.000    1.714    1.429    0.000    6.000    9.714 
#    0.000    0.000    0.000    0.000    0.000    0.000 
#    0.000    0.000    0.000    0.000    0.000    0.000 
#
# Total GULP energy -78106.285010 kJ/mol
# GULP energy per Si atom -5579.020358 kJ/mol
# Density = 2.331488 g / cm^3
# Si number density = 23.368071 Si / 1000 Ang^3
#
#
#
# Elastic Constant Matrix: (Units=GPa)
#
#
# Indices 1 2 3 4 5 6 
#
# 1 78.8075 37.0966 8.6105 5.8833 -6.7019 -17.0643
# 2 37.0966 129.1952 67.2823 0.7725 -4.7282 -28.4817
# 3 8.6105 67.2823 106.1263 5.6698 -11.3237 -11.7019
# 4 5.8833 0.7725 5.6698 41.3546 -0.1334 1.9836
# 5 -6.7019 -4.7282 -11.3237 -0.1334 36.1678 -4.5674
# 6 -17.0643 -28.4817 -11.7019 1.9836 -4.5674 57.0853
#
#
#
# Elastic Compliance Matrix: (Units=1/GPa)
#
#
# Indices 1 2 3 4 5 6 
#
# 1 0.016049 -0.005294 0.002928 -0.002725 0.003585 0.003138
# 2 -0.005294 0.014485 -0.008558 0.001473 -0.001290 0.003736
# 3 0.002928 -0.008558 0.015198 -0.002333 0.004191 0.000137
# 4 -0.002725 0.001473 -0.002333 0.024930 -0.001142 -0.001516
# 5 0.003585 -0.001290 0.004191 -0.001142 0.029922 0.003721
# 6 0.003138 0.003736 0.000137 -0.001516 0.003721 0.020698
#
#
# Mechanical properties :
#
#
# Convention : Reuss Voigt Hill
#
# Bulk Modulus (GPa) = 41.86896 60.01197 50.94046
# Shear Modulus (GPa) = 33.09283 40.33084 36.71183
#
# Velocity S-wave (km/s) = 3.76727 4.15890 3.96792
# Velocity P-wave (km/s) = 6.07282 6.98562 6.54515
#
# Compressibility (1/GPa) = 0.02388404
#
# Stress axis : x y z
#
# Youngs Moduli (GPa) = 62.30956 69.03878 65.79973
#
# Poissons Ratio (x) = 0.36549 -0.19267
# Poissons Ratio (y) = 0.32986 0.56310
# Poissons Ratio (z) = -0.18245 0.59082
#
# Static dielectric constant tensor:
#      x y z
#    x 1.793300 0.031090 -0.020780 
#    y 0.031090 1.828870 0.008480 
#    z -0.020780 0.008480 1.952100 
# 
# From -- ./inp_files/10255.got.cif
#   From: 2010.05.17/outbox.cif.g08.bks.cpg/sg2_6_cif.got.tgz:10255.got - 2010.06.03 11:33:40.
