data_PCOD9016994
_publ_section_title
;
Structure prediction by ZEFSAII (Michael W. Deem and Ramdas Pophale) SiO2 
 PCOD9016994
Probable space group: P -1
;
_chemical_formula_sum "Si O2"
_cell_formula_units_Z 15
_cell_length_a 17.503671
_cell_length_b 7.976099
_cell_length_c 5.489674
_cell_angle_alpha 72.054563
_cell_angle_beta 63.433966
_cell_angle_gamma 53.069185
_cell_volume 547.130046
_symmetry_space_group_name_H-M "P -1"
_symmetry_group_IT_number 2
_symmetry_cell_setting 'triclinic'
loop_
_space_group_symop_operation_xyz
x,y,z
-x,-y,-z
loop_
_atom_site_type_symbol
_atom_site_label
_atom_site_fract_x
_atom_site_fract_y
_atom_site_fract_z
Si Si1 0.000000 0.000000 0.000000
Si Si2 0.892562 0.376100 0.580904
Si Si3 0.571737 0.550726 0.033143
Si Si4 0.632792 0.129425 0.628328
Si Si5 0.764576 0.223758 0.663626
Si Si6 0.749578 0.740317 0.978976
Si Si7 0.389170 0.171999 0.497452
Si Si8 0.087125 0.210056 0.106544
O O1 0.939494 0.183815 0.792815
O O2 0.056563 0.120828 0.966198
O O3 0.832644 0.321273 0.495210
O O4 0.812100 0.587629 0.737267
O O5 0.983953 0.374043 0.321119
O O6 0.683296 0.336495 0.951694
O O7 0.597272 0.703769 0.790346
O O8 0.500000 0.500000 0.000000
O O9 0.487820 0.693540 0.292499
O O10 0.698221 0.231972 0.526193
O O11 0.668877 0.974987 0.883351
O O12 0.656287 0.965154 0.458405
O O13 0.847258 0.984558 0.714466
O O14 0.836480 0.713189 0.049994
O O15 0.678945 0.683411 0.249300
O O16 0.500000 0.000000 0.500000
#
# Coordination Sequence:
#
# PCOD9016994 Si02
#       8
#     1   2   2   2   2   2   2   2
#     4  10  22  40  66  96 134 166 224 280 330 384
#     4  11  23  41  68  93 135 175 223 276 331 398
#     4  10  21  42  70  94 131 178 218 269 339 401
#     4  10  22  43  67  92 139 172 216 277 334 400
#     4   9  20  39  67  94 121 175 220 260 334 390
#     4  11  25  42  66 101 129 179 226 271 334 405
#     4  12  25  40  68  97 135 176 223 276 332 393
#     4  10  23  43  66  95 136 174 222 278 333 393
#
# _framework density 27.415787999999999
#
# number of rings (size 3 to 8) (size 9 to 14) (size 15 to 20)
#    0.000    1.600    1.333    3.200    1.867    6.933 
#    0.000    9.333    0.000    0.000    0.000    0.000 
#    0.000    0.000    0.000    0.000    0.000    0.000 
#
# Total GULP energy -83698.966851 kJ/mol
# GULP energy per Si atom -5579.931123 kJ/mol
# Density = 2.735339 g / cm^3
# Si number density = 27.415788 Si / 1000 Ang^3
#
#
#
# Elastic Constant Matrix: (Units=GPa)
#
#
# Indices 1 2 3 4 5 6 
#
# 1 166.3588 18.7244 41.2353 4.8353 -22.4995 5.8391
# 2 18.7244 112.0060 34.5342 6.9259 -7.9300 -21.6416
# 3 41.2353 34.5342 79.8204 18.2524 -19.7744 -18.2380
# 4 4.8353 6.9259 18.2524 34.2725 -16.3311 -5.8867
# 5 -22.4995 -7.9300 -19.7744 -16.3311 41.4570 6.0060
# 6 5.8391 -21.6416 -18.2380 -5.8867 6.0060 52.6590
#
#
#
# Elastic Compliance Matrix: (Units=1/GPa)
#
#
# Indices 1 2 3 4 5 6 
#
# 1 0.007520 -0.000422 -0.003967 0.002320 0.003386 -0.002508
# 2 -0.000422 0.010766 -0.003869 0.000328 -0.000351 0.003208
# 3 -0.003967 -0.003869 0.019623 -0.006848 0.003113 0.004525
# 4 0.002320 0.000328 -0.006848 0.038827 0.013302 0.000329
# 5 0.003386 -0.000351 0.003113 0.013302 0.032864 -0.001702
# 6 -0.002508 0.003208 0.004525 0.000329 -0.001702 0.022385
#
#
# Mechanical properties :
#
#
# Convention : Reuss Voigt Hill
#
# Bulk Modulus (GPa) = 46.74445 60.79698 53.77071
# Shear Modulus (GPa) = 32.12706 43.25711 37.69209
#
# Velocity S-wave (km/s) = 3.42694 3.97648 3.71189
# Velocity P-wave (km/s) = 5.72239 6.58083 6.16656
#
# Compressibility (1/GPa) = 0.02139291
#
# Stress axis : x y z
#
# Youngs Moduli (GPa) = 132.97001 92.88240 50.96179
#
# Poissons Ratio (x) = 0.03924 0.20217
# Poissons Ratio (y) = 0.05617 0.19715
# Poissons Ratio (z) = 0.52751 0.35933
#
# Static dielectric constant tensor:
#      x y z
#    x 2.119780 0.055710 0.020920 
#    y 0.055710 2.171380 0.041790 
#    z 0.020920 0.041790 2.127830 
# 
# From -- ./inp_files/104879.got.cif
#   From: 2010.05.17/outbox.cif.g08.bks.cpg/sg2_53_cif.got.tgz:104879.got - 2010.06.03 11:33:40.
