data_PCOD9016985
_publ_section_title
;
Structure prediction by ZEFSAII (Michael W. Deem and Ramdas Pophale) SiO2 
 PCOD9016985
Probable space group: P -1
;
_chemical_formula_sum "Si O2"
_cell_formula_units_Z 16
_cell_length_a 18.055896
_cell_length_b 5.373098
_cell_length_c 8.252582
_cell_angle_alpha 58.446730
_cell_angle_beta 90.515436
_cell_angle_gamma 91.388166
_cell_volume 682.056283
_symmetry_space_group_name_H-M "P -1"
_symmetry_group_IT_number 2
_symmetry_cell_setting 'triclinic'
loop_
_space_group_symop_operation_xyz
x,y,z
-x,-y,-z
loop_
_atom_site_type_symbol
_atom_site_label
_atom_site_fract_x
_atom_site_fract_y
_atom_site_fract_z
Si Si1 0.328637 0.892390 0.239429
Si Si2 0.420053 0.861076 0.580592
Si Si3 0.062001 0.246790 0.435300
Si Si4 0.547582 0.716961 0.051750
Si Si5 0.810738 0.987470 0.642417
Si Si6 0.973651 0.668025 0.103871
Si Si7 0.159802 0.372187 0.681514
Si Si8 0.699490 0.760464 0.447397
O O1 0.373154 0.907114 0.403717
O O2 0.244873 0.001105 0.212786
O O3 0.322400 0.536670 0.350133
O O4 0.377094 0.118042 0.059111
O O5 0.500000 0.000000 0.500000
O O6 0.371789 0.039753 0.649712
O O7 0.430613 0.522135 0.733447
O O8 0.108669 0.187425 0.618122
O O9 0.016677 0.533218 0.304832
O O10 0.123622 0.233342 0.298261
O O11 0.000000 0.000000 0.500000
O O12 0.500000 0.500000 0.000000
O O13 0.500000 0.000000 0.000000
O O14 0.845142 0.306993 0.506336
O O15 0.756155 0.930214 0.509208
O O16 0.885364 0.637345 0.149428
O O17 0.000000 0.500000 0.000000
O O18 0.000000 0.000000 0.000000
O O19 0.247160 0.305577 0.682973
#
# Coordination Sequence:
#
# PCOD9016985 Si02
#       8
#     2   2   2   2   2   2   2   2
#     4  10  22  43  66  98 139 172 233 281 346 409
#     4  11  22  41  71 100 134 183 228 277 350 409
#     4  11  21  40  72  94 126 178 240 267 341 417
#     4  12  27  43  69 104 141 177 228 290 340 410
#     4   9  20  39  69  93 124 175 234 277 331 407
#     4  12  27  41  63 102 144 171 218 296 354 398
#     4  10  21  42  70  93 129 184 235 278 341 424
#     4   9  21  40  69  95 130 179 232 284 340 415
#
# _framework density 23.458476999999998
#
# number of rings (size 3 to 8) (size 9 to 14) (size 15 to 20)
#    0.000    1.500    2.500    1.875    7.000    1.000 
#    2.250    0.000    0.000    0.000    0.000    0.000 
#    0.000    0.000    0.000    0.000    0.000    0.000 
#
# Total GULP energy -89213.183690 kJ/mol
# GULP energy per Si atom -5575.823981 kJ/mol
# Density = 2.340508 g / cm^3
# Si number density = 23.458477 Si / 1000 Ang^3
#
#
#
# Elastic Constant Matrix: (Units=GPa)
#
#
# Indices 1 2 3 4 5 6 
#
# 1 148.0034 46.5448 48.8538 -16.5982 -25.6692 -28.8609
# 2 46.5448 95.6533 27.7071 -11.0217 -15.9811 -16.1716
# 3 48.8538 27.7071 107.8194 -19.8239 -28.6769 -18.5541
# 4 -16.5982 -11.0217 -19.8239 29.8227 5.3970 7.6327
# 5 -25.6692 -15.9811 -28.6769 5.3970 44.5122 -3.3760
# 6 -28.8609 -16.1716 -18.5541 7.6327 -3.3760 48.2455
#
#
#
# Elastic Compliance Matrix: (Units=1/GPa)
#
#
# Indices 1 2 3 4 5 6 
#
# 1 0.009859 -0.002766 -0.001746 0.001528 0.003710 0.004317
# 2 -0.002766 0.013034 -0.000671 0.001753 0.002619 0.002362
# 3 -0.001746 -0.000671 0.013854 0.005739 0.007259 0.003659
# 4 0.001528 0.001753 0.005739 0.039446 0.000235 -0.002515
# 5 0.003710 0.002619 0.007259 0.000235 0.030801 0.008007
# 6 0.004317 0.002362 0.003659 -0.002515 0.008007 0.026467
#
#
# Mechanical properties :
#
#
# Convention : Reuss Voigt Hill
#
# Bulk Modulus (GPa) = 37.90537 66.40973 52.15755
# Shear Modulus (GPa) = 32.76110 39.74079 36.25095
#
# Velocity S-wave (km/s) = 3.74111 4.12040 3.93533
# Velocity P-wave (km/s) = 5.90379 7.14198 6.55220
#
# Compressibility (1/GPa) = 0.02638149
#
# Stress axis : x y z
#
# Youngs Moduli (GPa) = 101.42505 76.72527 72.18241
#
# Poissons Ratio (x) = 0.21223 0.12603
# Poissons Ratio (y) = 0.28055 0.04841
# Poissons Ratio (z) = 0.17708 0.05146
#
# Static dielectric constant tensor:
#      x y z
#    x 1.923200 -0.059750 0.031020 
#    y -0.059750 2.082500 0.167450 
#    z 0.031020 0.167450 1.900570 
# 
# From -- ./inp_files/117552.got.cif
#   From: 2010.05.17/outbox.cif.g08.bks.cpg/sg2_59_cif.got.tgz:117552.got - 2010.06.03 11:33:40.
