data_PCOD9016904
_publ_section_title
;
Structure prediction by ZEFSAII (Michael W. Deem and Ramdas Pophale) SiO2 
 PCOD9016904
Probable space group: P -1
;
_chemical_formula_sum "Si O2"
_cell_formula_units_Z 16
_cell_length_a 7.997793
_cell_length_b 4.968139
_cell_length_c 22.523613
_cell_angle_alpha 76.059073
_cell_angle_beta 124.174371
_cell_angle_gamma 120.901295
_cell_volume 633.898115
_symmetry_space_group_name_H-M "P -1"
_symmetry_group_IT_number 2
_symmetry_cell_setting 'triclinic'
loop_
_space_group_symop_operation_xyz
x,y,z
-x,-y,-z
loop_
_atom_site_type_symbol
_atom_site_label
_atom_site_fract_x
_atom_site_fract_y
_atom_site_fract_z
Si Si1 0.707770 0.836314 0.766386
Si Si2 0.593713 0.420032 0.462628
Si Si3 0.037060 0.686777 0.903271
Si Si4 0.284648 0.657258 0.835549
Si Si5 0.836995 0.257159 0.604851
Si Si6 0.664449 0.410721 0.677387
Si Si7 0.219269 0.943009 0.044978
Si Si8 0.243321 0.235528 0.745998
O O1 0.765304 0.715302 0.722721
O O2 0.477628 0.533551 0.756939
O O3 0.902786 0.880312 0.849388
O O4 0.658328 0.124294 0.728556
O O5 0.500000 0.500000 0.500000
O O6 0.821562 0.415744 0.531485
O O7 0.576433 0.634509 0.395506
O O8 0.400264 0.071120 0.424333
O O9 0.143808 0.625902 0.868763
O O10 0.848818 0.363519 0.912269
O O11 0.227891 0.856745 0.982545
O O12 0.192414 0.348962 0.793318
O O13 0.546651 0.774807 0.900747
O O14 0.277398 0.933435 0.780275
O O15 0.816442 0.444230 0.647930
O O16 0.053293 0.204228 0.662118
O O17 0.000000 0.000000 0.000000
#
# Coordination Sequence:
#
# PCOD9016904 Si02
#       8
#     2   2   2   2   2   2   2   2
#     4  12  24  43  67  97 142 176 232 293 345 405
#     4   9  20  39  70  98 137 172 239 280 342 419
#     4  11  26  45  71 104 137 190 230 290 349 420
#     4  12  27  48  72 103 142 184 238 285 349 414
#     4  10  21  42  69  99 135 182 229 290 341 417
#     4  11  22  41  67  98 128 182 227 279 345 414
#     4  11  26  47  73 102 144 182 235 288 353 413
#     4  12  27  45  67 104 139 181 234 291 344 412
#
# _framework density 25.240646000000002
#
# number of rings (size 3 to 8) (size 9 to 14) (size 15 to 20)
#    0.000    1.000    2.500    3.375    8.750    0.500 
#    0.000    1.250    0.000    0.000    0.000    0.000 
#    0.000    0.000    0.000    0.000    0.000    0.000 
#
# Total GULP energy -89662.472228 kJ/mol
# GULP energy per Si atom -5603.904514 kJ/mol
# Density = 2.518320 g / cm^3
# Si number density = 25.240646 Si / 1000 Ang^3
#
#
#
# Elastic Constant Matrix: (Units=GPa)
#
#
# Indices 1 2 3 4 5 6 
#
# 1 70.8956 19.9489 47.7771 -1.2558 3.5476 -2.2349
# 2 19.9489 109.3112 57.9550 -11.4114 6.0390 -20.3462
# 3 47.7771 57.9550 185.5501 -15.0751 26.2488 2.2952
# 4 -1.2558 -11.4114 -15.0751 51.6061 -10.1914 -0.6878
# 5 3.5476 6.0390 26.2488 -10.1914 32.9156 7.0626
# 6 -2.2349 -20.3462 2.2952 -0.6878 7.0626 36.2398
#
#
#
# Elastic Compliance Matrix: (Units=1/GPa)
#
#
# Indices 1 2 3 4 5 6 
#
# 1 0.017283 -0.000842 -0.004468 -0.000768 0.001495 0.000570
# 2 -0.000842 0.012866 -0.003697 0.001769 -0.000387 0.007515
# 3 -0.004468 -0.003697 0.008472 0.000531 -0.005024 -0.001898
# 4 -0.000768 0.001769 0.000531 0.021056 0.005816 0.000178
# 5 0.001495 -0.000387 -0.005024 0.005816 0.037606 -0.007025
# 6 0.000570 0.007515 -0.001898 0.000178 -0.007025 0.033341
#
#
# Mechanical properties :
#
#
# Convention : Reuss Voigt Hill
#
# Bulk Modulus (GPa) = 48.52408 68.56877 58.54643
# Shear Modulus (GPa) = 32.15320 40.15737 36.15529
#
# Velocity S-wave (km/s) = 3.57300 3.99304 3.78884
# Velocity P-wave (km/s) = 6.02396 6.96305 6.51046
#
# Compressibility (1/GPa) = 0.02060832
#
# Stress axis : x y z
#
# Youngs Moduli (GPa) = 57.86114 77.72207 118.03793
#
# Poissons Ratio (x) = 0.06542 0.52741
# Poissons Ratio (y) = 0.04870 0.43633
# Poissons Ratio (z) = 0.25853 0.28730
#
# Static dielectric constant tensor:
#      x y z
#    x 2.057750 -0.002600 -0.008260 
#    y -0.002600 2.005840 -0.017390 
#    z -0.008260 -0.017390 2.046610 
# 
# From -- ./inp_files/585621.got.cif
#   From: 2010.05.17/outbox.cif.g08.bks.cpg/sg2_293_cif.got.tgz:585621.got - 2010.06.03 11:33:40.
