data_PCOD9016577
_publ_section_title
;
Structure prediction by ZEFSAII (Michael W. Deem and Ramdas Pophale) SiO2 
 PCOD9016577
Probable space group: P -1
;
_chemical_formula_sum "Si O2"
_cell_formula_units_Z 14
_cell_length_a 24.089267
_cell_length_b 16.820314
_cell_length_c 9.281381
_cell_angle_alpha 140.734949
_cell_angle_beta 31.795464
_cell_angle_gamma 161.662381
_cell_volume 611.269245
_symmetry_space_group_name_H-M "P -1"
_symmetry_group_IT_number 2
_symmetry_cell_setting 'triclinic'
loop_
_space_group_symop_operation_xyz
x,y,z
-x,-y,-z
loop_
_atom_site_type_symbol
_atom_site_label
_atom_site_fract_x
_atom_site_fract_y
_atom_site_fract_z
Si Si1 0.238706 0.235089 0.363473
Si Si2 0.096124 0.630692 0.129269
Si Si3 0.779379 0.505796 0.656115
Si Si4 0.400365 0.778149 0.828018
Si Si5 0.475701 0.229381 0.189881
Si Si6 0.863477 0.926886 0.321699
Si Si7 0.514480 0.731708 0.278861
O O1 0.378687 0.487958 0.329395
O O2 0.226891 0.232639 0.559362
O O3 0.325272 0.188262 0.054638
O O4 0.000000 0.000000 0.500000
O O5 0.896763 0.503966 0.455706
O O6 0.306495 0.942827 0.109255
O O7 0.182633 0.598084 0.976369
O O8 0.000000 0.500000 0.000000
O O9 0.624950 0.332809 0.617743
O O10 0.969427 0.795953 0.595994
O O11 0.636157 0.421151 0.974793
O O12 0.381854 0.663379 0.839018
O O13 0.570449 0.893592 0.502652
O O14 0.500000 0.000000 0.000000
O O15 0.328256 0.195070 0.500055
O O16 0.000000 0.000000 0.000000
#
# Coordination Sequence:
#
# PCOD9016577 Si02
#       7
#     2   2   2   2   2   2   2
#     4  11  24  42  65 102 132 177 226 275 335 400
#     4  10  21  42  68  94 128 168 226 281 331 398
#     4  11  22  42  65  97 129 178 223 270 344 404
#     4  10  23  45  66  99 135 174 227 284 339 396
#     4  10  24  42  64  96 135 172 222 275 341 402
#     4  11  25  41  65  99 138 172 223 281 337 404
#     4  11  23  42  70  96 136 177 225 277 332 409
#
# _framework density 22.903162999999999
#
# number of rings (size 3 to 8) (size 9 to 14) (size 15 to 20)
#    0.000    1.429    4.286    0.000    4.000    1.714 
#    0.000    0.000    0.000    0.000    0.000    0.000 
#    0.000    0.000    0.000    0.000    0.000    0.000 
#
# Total GULP energy -78123.729107 kJ/mol
# GULP energy per Si atom -5580.266365 kJ/mol
# Density = 2.285103 g / cm^3
# Si number density = 22.903163 Si / 1000 Ang^3
#
#
#
# Elastic Constant Matrix: (Units=GPa)
#
#
# Indices 1 2 3 4 5 6 
#
# 1 154.2961 25.9148 58.0987 -4.2704 -8.4279 16.5879
# 2 25.9148 53.0259 30.0725 2.1916 -5.7263 10.1921
# 3 58.0987 30.0725 166.6458 1.1967 -2.9186 4.4117
# 4 -4.2704 2.1916 1.1967 29.0380 5.8766 5.6840
# 5 -8.4279 -5.7263 -2.9186 5.8766 40.2105 -4.7605
# 6 16.5879 10.1921 4.4117 5.6840 -4.7605 29.1836
#
#
#
# Elastic Compliance Matrix: (Units=1/GPa)
#
#
# Indices 1 2 3 4 5 6 
#
# 1 0.008230 -0.001918 -0.002424 0.002133 0.000493 -0.003977
# 2 -0.001918 0.023074 -0.003294 -0.001161 0.002116 -0.005899
# 3 -0.002424 -0.003294 0.007402 -0.000677 -0.000162 0.001515
# 4 0.002133 -0.001161 -0.000677 0.037950 -0.006396 -0.009140
# 5 0.000493 0.002116 -0.000162 -0.006396 0.026743 0.004613
# 6 -0.003977 -0.005899 0.001515 -0.009140 0.004613 0.040890
#
#
# Mechanical properties :
#
#
# Convention : Reuss Voigt Hill
#
# Bulk Modulus (GPa) = 42.67216 66.90440 54.78828
# Shear Modulus (GPa) = 29.87347 37.01186 33.44266
#
# Velocity S-wave (km/s) = 3.61548 4.02433 3.82537
# Velocity P-wave (km/s) = 6.00841 7.13225 6.59431
#
# Compressibility (1/GPa) = 0.02343448
#
# Stress axis : x y z
#
# Youngs Moduli (GPa) = 121.51402 43.33825 135.09245
#
# Poissons Ratio (x) = 0.08310 0.32753
# Poissons Ratio (y) = 0.23300 0.44497
# Poissons Ratio (z) = 0.29461 0.14275
#
# Static dielectric constant tensor:
#      x y z
#    x 1.879040 -0.000720 -0.024600 
#    y -0.000720 1.922900 0.077140 
#    z -0.024600 0.077140 1.896380 
# 
# From -- ./inp_files/37016.got.cif
#   From: 2010.05.17/outbox.cif.g08.bks.cpg/sg2_19_cif.got.tgz:37016.got - 2010.06.03 11:33:40.
