data_PCOD9016558
_publ_section_title
;
Structure prediction by ZEFSAII (Michael W. Deem and Ramdas Pophale) SiO2 
 PCOD9016558
Probable space group: P -1
;
_chemical_formula_sum "Si O2"
_cell_formula_units_Z 16
_cell_length_a 9.078981
_cell_length_b 8.386750
_cell_length_c 21.013029
_cell_angle_alpha 59.686798
_cell_angle_beta 30.337535
_cell_angle_gamma 69.337940
_cell_volume 684.977009
_symmetry_space_group_name_H-M "P -1"
_symmetry_group_IT_number 2
_symmetry_cell_setting 'triclinic'
loop_
_space_group_symop_operation_xyz
x,y,z
-x,-y,-z
loop_
_atom_site_type_symbol
_atom_site_label
_atom_site_fract_x
_atom_site_fract_y
_atom_site_fract_z
Si Si1 0.367334 0.633291 0.974686
Si Si2 0.298631 0.511137 0.510075
Si Si3 0.613542 0.428526 0.808121
Si Si4 0.318423 0.115077 0.587705
Si Si5 0.560290 0.920775 0.639878
Si Si6 0.358294 0.954344 0.163426
Si Si7 0.817409 0.465412 0.141732
Si Si8 0.217429 0.843216 0.380809
O O1 0.510896 0.569813 0.868635
O O2 0.449963 0.842188 0.931373
O O3 0.500000 0.500000 0.000000
O O4 0.017055 0.573489 0.101316
O O5 0.500000 0.500000 0.500000
O O6 0.340438 0.313582 0.504572
O O7 0.299125 0.666418 0.423983
O O8 0.965347 0.476815 0.668054
O O9 0.522035 0.199580 0.894744
O O10 0.483667 0.471553 0.779647
O O11 0.969697 0.030203 0.742123
O O12 0.500000 0.000000 0.500000
O O13 0.489657 0.103597 0.592752
O O14 0.285428 0.754321 0.762472
O O15 0.874746 0.867286 0.513810
O O16 0.592427 0.975212 0.690766
O O17 0.293665 0.856094 0.276269
O O18 0.000000 0.500000 0.000000
#
# Coordination Sequence:
#
# PCOD9016558 Si02
#       8
#     2   2   2   2   2   2   2   2
#     4  11  25  47  72  97 131 183 233 286 341 400
#     4  11  23  41  63 101 143 177 216 275 351 407
#     4  10  24  44  67  97 141 172 226 291 330 409
#     4  11  23  38  61  95 141 177 216 275 338 416
#     4  11  21  38  66  99 132 181 224 278 337 405
#     4  11  25  43  67 104 135 176 230 279 348 411
#     4  10  21  42  68  93 129 179 230 281 330 391
#     4  11  22  38  68 101 137 178 222 276 343 421
#
# _framework density 23.358447999999999
#
# number of rings (size 3 to 8) (size 9 to 14) (size 15 to 20)
#    0.000    1.250    3.750    2.250    3.500    4.000 
#    2.250    1.250    0.000    0.000    0.000    0.000 
#    0.000    0.000    0.000    0.000    0.000    0.000 
#
# Total GULP energy -89215.269451 kJ/mol
# GULP energy per Si atom -5575.954341 kJ/mol
# Density = 2.330528 g / cm^3
# Si number density = 23.358448 Si / 1000 Ang^3
#
#
#
# Elastic Constant Matrix: (Units=GPa)
#
#
# Indices 1 2 3 4 5 6 
#
# 1 126.6246 27.3902 21.3260 -1.6112 -27.6042 -34.2156
# 2 27.3902 102.2955 23.9883 -25.5462 -9.6213 -22.9630
# 3 21.3260 23.9883 42.5803 -18.4559 -19.6363 -12.7096
# 4 -1.6112 -25.5462 -18.4559 32.3579 -1.2474 3.6878
# 5 -27.6042 -9.6213 -19.6363 -1.2474 34.4793 6.6596
# 6 -34.2156 -22.9630 -12.7096 3.6878 6.6596 46.4086
#
#
#
# Elastic Compliance Matrix: (Units=1/GPa)
#
#
# Indices 1 2 3 4 5 6 
#
# 1 0.011694 -0.000998 0.000123 -0.000645 0.007759 0.007100
# 2 -0.000998 0.014047 -0.000377 0.010350 0.002323 0.004956
# 3 0.000123 -0.000377 0.052485 0.029907 0.029484 0.007670
# 4 -0.000645 0.010350 0.029907 0.056267 0.020389 0.005439
# 5 0.007759 0.002323 0.029484 0.020389 0.052268 0.005824
# 6 0.007100 0.004956 0.007670 0.005439 0.005824 0.030067
#
#
# Mechanical properties :
#
#
# Convention : Reuss Voigt Hill
#
# Bulk Modulus (GPa) = 13.20621 46.32327 29.76474
# Shear Modulus (GPa) = 20.44388 35.90224 28.17306
#
# Velocity S-wave (km/s) = 2.96163 3.92473 3.47669
# Velocity P-wave (km/s) = 4.16665 6.35709 5.37464
#
# Compressibility (1/GPa) = 0.07572194
#
# Stress axis : x y z
#
# Youngs Moduli (GPa) = 85.51248 71.19071 19.05306
#
# Poissons Ratio (x) = 0.07102 -0.00234
# Poissons Ratio (y) = 0.08531 0.00719
# Poissons Ratio (z) = -0.01050 0.02685
#
# Static dielectric constant tensor:
#      x y z
#    x 2.046800 0.055660 0.027750 
#    y 0.055660 1.971860 -0.024330 
#    z 0.027750 -0.024330 2.012830 
# 
# From -- ./inp_files/222421.got.cif
#   From: 2010.05.17/outbox.cif.g08.bks.cpg/sg2_112_cif.got.tgz:222421.got - 2010.06.03 11:33:40.
