data_PCOD9016218
_publ_section_title
;
Structure prediction by ZEFSAII (Michael W. Deem and Ramdas Pophale) SiO2 
 PCOD9016218
Probable space group: P -1
;
_chemical_formula_sum "Si O2"
_cell_formula_units_Z 14
_cell_length_a 20.327341
_cell_length_b 9.379186
_cell_length_c 5.337767
_cell_angle_alpha 103.170990
_cell_angle_beta 76.582629
_cell_angle_gamma 140.342037
_cell_volume 629.762133
_symmetry_space_group_name_H-M "P -1"
_symmetry_group_IT_number 2
_symmetry_cell_setting 'triclinic'
loop_
_space_group_symop_operation_xyz
x,y,z
-x,-y,-z
loop_
_atom_site_type_symbol
_atom_site_label
_atom_site_fract_x
_atom_site_fract_y
_atom_site_fract_z
Si Si1 0.202025 0.072262 0.433837
Si Si2 0.448270 0.100014 0.605279
Si Si3 0.842531 0.300935 0.976209
Si Si4 0.052647 0.695540 0.724090
Si Si5 0.599478 0.659775 0.295768
Si Si6 0.350006 0.819036 0.062803
Si Si7 0.344520 0.500552 0.189507
O O1 0.302098 0.210704 0.569749
O O2 0.237654 0.261014 0.296738
O O3 0.178898 0.884524 0.230848
O O4 0.102869 0.919444 0.641828
O O5 0.401697 0.978301 0.328703
O O6 0.397074 0.171842 0.750259
O O7 0.572212 0.322899 0.597379
O O8 0.421283 0.952334 0.806343
O O9 0.754956 0.270444 0.961826
O O10 0.956113 0.561667 0.940638
O O11 0.855197 0.251759 0.219682
O O12 0.000000 0.500000 0.500000
O O13 0.500000 0.500000 0.500000
O O14 0.399086 0.460504 0.966849
O O15 0.330094 0.619439 0.079790
#
# Coordination Sequence:
#
# PCOD9016218 Si02
#       7
#     2   2   2   2   2   2   2
#     4  11  21  39  67  95 133 171 226 285 337 397
#     4  12  25  45  66  95 139 193 234 275 330 410
#     4  10  21  42  67 101 129 175 229 281 336 416
#     4   9  20  39  70  99 127 168 229 284 339 403
#     4  12  24  42  67  97 134 181 237 283 333 397
#     4  12  27  44  68  99 143 187 227 280 347 404
#     4  12  27  40  64 101 141 180 228 283 340 403
#
# _framework density 22.230616000000001
#
# number of rings (size 3 to 8) (size 9 to 14) (size 15 to 20)
#    0.000    0.857    2.857    4.714    4.000    0.000 
#    0.000    0.714    0.000   12.000    0.000    0.000 
#    0.000    0.000    0.000    0.000    0.000    0.000 
#
# Total GULP energy -78211.241014 kJ/mol
# GULP energy per Si atom -5586.517215 kJ/mol
# Density = 2.218002 g / cm^3
# Si number density = 22.230616 Si / 1000 Ang^3
#
#
#
# Elastic Constant Matrix: (Units=GPa)
#
#
# Indices 1 2 3 4 5 6 
#
# 1 104.4245 37.4841 23.0520 6.7247 11.7261 -15.7499
# 2 37.4841 150.5795 53.0376 -28.8629 6.1600 -4.2583
# 3 23.0520 53.0376 106.0261 9.6964 12.8852 -4.2741
# 4 6.7247 -28.8629 9.6964 50.0418 -1.7689 10.0675
# 5 11.7261 6.1600 12.8852 -1.7689 22.7994 4.5325
# 6 -15.7499 -4.2583 -4.2741 10.0675 4.5325 37.4068
#
#
#
# Elastic Compliance Matrix: (Units=1/GPa)
#
#
# Indices 1 2 3 4 5 6 
#
# 1 0.013532 -0.004509 0.001293 -0.006615 -0.008607 0.008155
# 2 -0.004509 0.011532 -0.006376 0.009538 0.004425 -0.004418
# 3 0.001293 -0.006376 0.014280 -0.007845 -0.008535 0.004596
# 4 -0.006615 0.009538 -0.007845 0.030676 0.010038 -0.012068
# 5 -0.008607 0.004425 -0.008535 0.010038 0.055379 -0.013507
# 6 0.008155 -0.004418 0.004596 -0.012068 -0.013507 0.035073
#
#
# Mechanical properties :
#
#
# Convention : Reuss Voigt Hill
#
# Bulk Modulus (GPa) = 49.60563 65.35304 57.47933
# Shear Modulus (GPa) = 26.82747 38.54670 32.68709
#
# Velocity S-wave (km/s) = 3.47764 4.16859 3.83869
# Velocity P-wave (km/s) = 6.20386 7.25473 6.74978
#
# Compressibility (1/GPa) = 0.02015900
#
# Stress axis : x y z
#
# Youngs Moduli (GPa) = 73.89969 86.71846 70.02813
#
# Poissons Ratio (x) = 0.39103 -0.09056
# Poissons Ratio (y) = 0.33323 0.44651
# Poissons Ratio (z) = -0.09557 0.55293
#
# Static dielectric constant tensor:
#      x y z
#    x 1.823730 -0.018440 -0.009620 
#    y -0.018440 1.904520 -0.048100 
#    z -0.009620 -0.048100 1.966340 
# 
# From -- ./inp_files/123450.got.cif
#   From: 2010.05.17/outbox.cif.g08.bks.cpg/sg2_62_cif.got.tgz:123450.got - 2010.06.03 11:33:40.
