data_PCOD9016820
_publ_section_title
;
Structure prediction by ZEFSAII (Michael W. Deem and Ramdas Pophale) SiO2 
 PCOD9016820
Probable space group: P -1
;
_chemical_formula_sum "Si O2"
_cell_formula_units_Z 16
_cell_length_a 12.209674
_cell_length_b 8.332048
_cell_length_c 20.756744
_cell_angle_alpha 131.790766
_cell_angle_beta 28.555421
_cell_angle_gamma 142.096466
_cell_volume 617.531824
_symmetry_space_group_name_H-M "P -1"
_symmetry_group_IT_number 2
_symmetry_cell_setting 'triclinic'
loop_
_space_group_symop_operation_xyz
x,y,z
-x,-y,-z
loop_
_atom_site_type_symbol
_atom_site_label
_atom_site_fract_x
_atom_site_fract_y
_atom_site_fract_z
Si Si1 0.825498 0.231349 0.450040
Si Si2 0.371596 0.712143 0.799543
Si Si3 0.042465 0.097870 0.772029
Si Si4 0.972608 0.714559 0.308986
Si Si5 0.622943 0.512580 0.690067
Si Si6 0.579984 0.845562 0.593392
Si Si7 0.126258 0.263401 0.965665
Si Si8 0.547835 0.329818 0.978087
O O1 0.729801 0.427212 0.551760
O O2 0.148446 0.400026 0.349247
O O3 0.806326 0.055853 0.353328
O O4 0.670045 0.052470 0.545521
O O5 0.232938 0.402513 0.774027
O O6 0.577202 0.738032 0.755412
O O7 0.531504 0.893677 0.703901
O O8 0.111133 0.729223 0.946477
O O9 0.981584 0.126733 0.737461
O O10 0.752082 0.922107 0.912691
O O11 0.821573 0.793661 0.457518
O O12 0.717218 0.412841 0.343771
O O13 0.250407 0.726631 0.178886
O O14 0.336672 0.285349 0.810016
O O15 0.288112 0.503297 0.997450
O O16 0.000000 0.000000 0.000000
O O17 0.500000 0.500000 0.000000
#
# Coordination Sequence:
#
# PCOD9016820 Si02
#       8
#     2   2   2   2   2   2   2   2
#     4  10  22  42  66  91 137 171 207 272 319 381
#     4  11  24  42  70  98 124 174 221 264 320 388
#     4  10  21  42  69  95 126 168 216 276 314 372
#     4   9  19  37  63  92 126 160 204 266 324 367
#     4  11  25  42  64  97 132 176 214 250 335 394
#     4   9  18  37  64  91 122 166 205 262 322 362
#     4  12  26  48  63  90 138 175 212 269 327 390
#     4  12  25  40  66  99 125 168 219 270 324 372
#
# _framework density 25.909596000000001
#
# number of rings (size 3 to 8) (size 9 to 14) (size 15 to 20)
#    0.000    1.500    3.750    2.250    1.750    2.000 
#    4.500    0.000    0.000    0.000    0.000    0.000 
#    0.000    0.000    0.000    0.000    0.000    0.000 
#
# Total GULP energy -89566.716151 kJ/mol
# GULP energy per Si atom -5597.919759 kJ/mol
# Density = 2.585062 g / cm^3
# Si number density = 25.909596 Si / 1000 Ang^3
#
#
#
# Elastic Constant Matrix: (Units=GPa)
#
#
# Indices 1 2 3 4 5 6 
#
# 1 67.6789 14.2285 27.1111 0.2578 -7.0522 -0.6109
# 2 14.2285 81.1463 38.6588 9.4295 -6.2962 -5.0912
# 3 27.1111 38.6588 192.4624 15.2355 -12.0803 -20.4342
# 4 0.2578 9.4295 15.2355 52.5596 -14.7830 6.0033
# 5 -7.0522 -6.2962 -12.0803 -14.7830 33.7524 6.2157
# 6 -0.6109 -5.0912 -20.4342 6.0033 6.2157 46.9438
#
#
#
# Elastic Compliance Matrix: (Units=1/GPa)
#
#
# Indices 1 2 3 4 5 6 
#
# 1 0.016341 -0.001968 -0.002017 0.002027 0.003508 -0.001603
# 2 -0.001968 0.014052 -0.002304 -0.001783 0.000483 0.000660
# 3 -0.002017 -0.002304 0.006373 -0.001674 0.000202 0.002685
# 4 0.002027 -0.001783 -0.001674 0.023450 0.010742 -0.005317
# 5 0.003508 0.000483 0.000202 0.010742 0.036332 -0.005998
# 6 -0.001603 0.000660 0.002685 -0.005317 -0.005998 0.023996
#
#
# Mechanical properties :
#
#
# Convention : Reuss Voigt Hill
#
# Bulk Modulus (GPa) = 41.34302 55.69828 48.52065
# Shear Modulus (GPa) = 35.41467 44.07044 39.74256
#
# Velocity S-wave (km/s) = 3.70111 4.12871 3.92074
# Velocity P-wave (km/s) = 5.85283 6.65373 6.26609
#
# Compressibility (1/GPa) = 0.02418788
#
# Stress axis : x y z
#
# Youngs Moduli (GPa) = 61.19658 71.16339 156.91223
#
# Poissons Ratio (x) = 0.14007 0.31648
# Poissons Ratio (y) = 0.12045 0.36150
# Poissons Ratio (z) = 0.12343 0.16395
#
# Static dielectric constant tensor:
#      x y z
#    x 2.129810 0.103300 -0.061690 
#    y 0.103300 2.119720 0.039720 
#    z -0.061690 0.039720 2.037980 
# 
# From -- ./inp_files/619273.got.cif
#   From: 2010.05.17/outbox.cif.g08.bks.cpg/sg2_310_cif.got.tgz:619273.got - 2010.06.03 11:33:40.
