data_PCOD9016639
_publ_section_title
;
Structure prediction by ZEFSAII (Michael W. Deem and Ramdas Pophale) SiO2 
 PCOD9016639
Probable space group: P -1
;
_chemical_formula_sum "Si O2"
_cell_formula_units_Z 16
_cell_length_a 13.725789
_cell_length_b 24.940662
_cell_length_c 8.517178
_cell_angle_alpha 41.979692
_cell_angle_beta 127.440036
_cell_angle_gamma 159.272851
_cell_volume 641.521619
_symmetry_space_group_name_H-M "P -1"
_symmetry_group_IT_number 2
_symmetry_cell_setting 'triclinic'
loop_
_space_group_symop_operation_xyz
x,y,z
-x,-y,-z
loop_
_atom_site_type_symbol
_atom_site_label
_atom_site_fract_x
_atom_site_fract_y
_atom_site_fract_z
Si Si1 0.776008 0.602523 0.560846
Si Si2 0.406161 0.099652 0.430097
Si Si3 0.165530 0.334235 0.872703
Si Si4 0.756527 0.786367 0.463719
Si Si5 0.111050 0.776395 0.824680
Si Si6 0.745001 0.938974 0.302904
Si Si7 0.182058 0.634494 0.234733
Si Si8 0.388840 0.658385 0.133058
O O1 0.500000 0.500000 0.500000
O O2 0.918197 0.688854 0.337138
O O3 0.960670 0.724073 0.634711
O O4 0.671381 0.449185 0.808581
O O5 0.445050 0.157425 0.516365
O O6 0.581981 0.244477 0.149148
O O7 0.071644 0.933684 0.433576
O O8 0.411828 0.007205 0.630090
O O9 0.504598 0.567945 0.710636
O O10 0.025488 0.287634 0.995832
O O11 0.045317 0.170632 0.107824
O O12 0.772701 0.862153 0.453281
O O13 0.661515 0.783276 0.227552
O O14 0.111170 0.681711 0.010720
O O15 0.532417 0.846270 0.159757
O O16 0.151234 0.543053 0.281552
O O17 0.000000 0.500000 0.500000
#
# Coordination Sequence:
#
# PCOD9016639 Si02
#       8
#     2   2   2   2   2   2   2   2
#     4  11  25  42  71 107 142 184 228 293 356 427
#     4  11  24  40  65 109 136 178 236 283 362 430
#     4  10  24  45  66 108 138 183 241 281 351 429
#     4  10  21  42  68  96 148 185 222 293 356 426
#     4  11  25  44  71  99 140 189 233 295 353 407
#     4  10  24  42  70  98 136 189 234 292 356 415
#     4  11  25  49  74  94 137 190 241 297 350 418
#     4  10  24  42  66 103 138 181 233 294 348 424
#
# _framework density 24.940702999999999
#
# number of rings (size 3 to 8) (size 9 to 14) (size 15 to 20)
#    0.000    1.500    0.000    4.500    8.750    7.500 
#    2.250    0.000    0.000    0.000    0.000    0.000 
#    0.000    0.000    0.000    0.000    0.000    0.000 
#
# Total GULP energy -89304.758286 kJ/mol
# GULP energy per Si atom -5581.547393 kJ/mol
# Density = 2.488394 g / cm^3
# Si number density = 24.940703 Si / 1000 Ang^3
#
#
#
# Elastic Constant Matrix: (Units=GPa)
#
#
# Indices 1 2 3 4 5 6 
#
# 1 121.9401 47.9955 21.7026 4.9800 20.8474 -23.3882
# 2 47.9955 93.9203 20.1450 9.8311 6.7525 -23.6131
# 3 21.7026 20.1450 90.1225 8.9162 5.7886 -0.1797
# 4 4.9800 9.8311 8.9162 41.1722 -5.2454 0.1761
# 5 20.8474 6.7525 5.7886 -5.2454 43.1859 4.3518
# 6 -23.3882 -23.6131 -0.1797 0.1761 4.3518 30.4231
#
#
#
# Elastic Compliance Matrix: (Units=1/GPa)
#
#
# Indices 1 2 3 4 5 6 
#
# 1 0.012464 -0.003498 -0.001697 -0.001123 -0.006159 0.007744
# 2 -0.003498 0.015874 -0.002253 -0.003160 -0.001873 0.009904
# 3 -0.001697 -0.002253 0.012221 -0.001943 -0.000409 -0.002912
# 4 -0.001123 -0.003160 -0.001943 0.026242 0.004905 -0.004181
# 5 -0.006159 -0.001873 -0.000409 0.004905 0.028104 -0.010240
# 6 0.007744 0.009904 -0.002912 -0.004181 -0.010240 0.047982
#
#
# Mechanical properties :
#
#
# Convention : Reuss Voigt Hill
#
# Bulk Modulus (GPa) = 38.96864 53.96325 46.46595
# Shear Modulus (GPa) = 30.05922 37.36557 33.71240
#
# Velocity S-wave (km/s) = 3.47541 3.87483 3.68054
# Velocity P-wave (km/s) = 5.63587 6.45776 6.06076
#
# Compressibility (1/GPa) = 0.02566166
#
# Stress axis : x y z
#
# Youngs Moduli (GPa) = 80.23252 62.99716 81.82570
#
# Poissons Ratio (x) = 0.22035 0.13890
# Poissons Ratio (y) = 0.28064 0.18437
# Poissons Ratio (z) = 0.13619 0.14194
#
# Static dielectric constant tensor:
#      x y z
#    x 2.218510 -0.405300 -0.137850 
#    y -0.405300 2.595580 0.182710 
#    z -0.137850 0.182710 2.073240 
# 
# From -- ./inp_files/320670.got.cif
#   From: 2010.05.17/outbox.cif.g08.bks.cpg/sg2_161_cif.got.tgz:320670.got - 2010.06.03 11:33:40.
