data_PCOD9016506
_publ_section_title
;
Structure prediction by ZEFSAII (Michael W. Deem and Ramdas Pophale) SiO2 
 PCOD9016506
Probable space group: P -1
;
_chemical_formula_sum "Si O2"
_cell_formula_units_Z 14
_cell_length_a 13.614400
_cell_length_b 17.573293
_cell_length_c 6.323727
_cell_angle_alpha 64.477800
_cell_angle_beta 53.327251
_cell_angle_gamma 30.684648
_cell_volume 606.460824
_symmetry_space_group_name_H-M "P -1"
_symmetry_group_IT_number 2
_symmetry_cell_setting 'triclinic'
loop_
_space_group_symop_operation_xyz
x,y,z
-x,-y,-z
loop_
_atom_site_type_symbol
_atom_site_label
_atom_site_fract_x
_atom_site_fract_y
_atom_site_fract_z
Si Si1 0.025223 0.886694 0.568364
Si Si2 0.129110 0.395466 0.254493
Si Si3 0.679308 0.832574 0.391493
Si Si4 0.054818 0.171035 0.869304
Si Si5 0.382932 0.891548 0.472664
Si Si6 0.704429 0.389445 0.710058
Si Si7 0.288218 0.433574 0.675101
O O1 0.224955 0.737601 0.345110
O O2 0.789054 0.996569 0.631485
O O3 0.062313 0.820757 0.822336
O O4 0.000000 0.000000 0.500000
O O5 0.291172 0.238644 0.349135
O O6 0.000000 0.500000 0.500000
O O7 0.941067 0.459522 0.277124
O O8 0.254365 0.400933 0.974756
O O9 0.879434 0.780858 0.151195
O O10 0.599138 0.827247 0.296776
O O11 0.500000 0.000000 0.500000
O O12 0.912348 0.285345 0.720998
O O13 0.242938 0.002295 0.724880
O O14 0.495693 0.734958 0.507816
O O15 0.682570 0.482709 0.472563
O O16 0.500000 0.500000 0.000000
#
# Coordination Sequence:
#
# PCOD9016506 Si02
#       7
#     2   2   2   2   2   2   2
#     4  11  28  48  71 101 137 191 245 295 356 420
#     4  11  23  42  65 103 149 181 223 293 355 432
#     4  10  21  42  68 103 140 182 222 287 363 420
#     4  10  24  46  71 102 145 183 234 299 352 426
#     4  10  24  43  70 103 137 185 231 291 355 436
#     4  11  27  48  72 104 142 189 244 298 346 427
#     4  11  25  41  69 104 140 188 233 284 366 418
#
# _framework density 23.084755000000001
#
# number of rings (size 3 to 8) (size 9 to 14) (size 15 to 20)
#    0.000    1.429    2.857    0.000   10.000    2.286 
#    0.000    0.000    0.000    0.000    0.000    0.000 
#    0.000    0.000    0.000    0.000    0.000    0.000 
#
# Total GULP energy -78090.491829 kJ/mol
# GULP energy per Si atom -5577.892273 kJ/mol
# Density = 2.303221 g / cm^3
# Si number density = 23.084755 Si / 1000 Ang^3
#
#
#
# Elastic Constant Matrix: (Units=GPa)
#
#
# Indices 1 2 3 4 5 6 
#
# 1 55.2076 29.0269 18.6222 -1.8420 -0.1801 22.0590
# 2 29.0269 167.8621 53.4479 -11.8595 -1.2953 18.4241
# 3 18.6222 53.4479 111.3355 -11.2197 -10.4868 22.7470
# 4 -1.8420 -11.8595 -11.2197 44.9148 3.7462 -0.4192
# 5 -0.1801 -1.2953 -10.4868 3.7462 20.3212 -5.2696
# 6 22.0590 18.4241 22.7470 -0.4192 -5.2696 36.2418
#
#
#
# Elastic Compliance Matrix: (Units=1/GPa)
#
#
# Indices 1 2 3 4 5 6 
#
# 1 0.025427 -0.002705 -0.000327 0.000441 -0.003948 -0.014466
# 2 -0.002705 0.007532 -0.003088 0.001226 -0.001479 -0.000446
# 3 -0.000327 -0.003088 0.012181 0.001798 0.004402 -0.005215
# 4 0.000441 0.001226 0.001798 0.023359 -0.003897 -0.002317
# 5 -0.003948 -0.001479 0.004402 -0.003897 0.054204 0.008228
# 6 -0.014466 -0.000446 -0.005215 -0.002317 0.008228 0.041067
#
#
# Mechanical properties :
#
#
# Convention : Reuss Voigt Hill
#
# Bulk Modulus (GPa) = 30.39390 59.62213 45.00801
# Shear Modulus (GPa) = 26.74132 35.84943 31.29538
#
# Velocity S-wave (km/s) = 3.40722 3.94502 3.68594
# Velocity P-wave (km/s) = 5.35478 6.82894 6.13629
#
# Compressibility (1/GPa) = 0.03290134
#
# Stress axis : x y z
#
# Youngs Moduli (GPa) = 39.32750 132.76005 82.09843
#
# Poissons Ratio (x) = 0.35905 0.02681
# Poissons Ratio (y) = 0.10636 0.25356
# Poissons Ratio (z) = 0.01284 0.41002
#
# Static dielectric constant tensor:
#      x y z
#    x 2.042430 -0.037730 -0.143660 
#    y -0.037730 1.907910 0.075130 
#    z -0.143660 0.075130 1.922000 
# 
# From -- ./inp_files/99527.got.cif
#   From: 2010.05.17/outbox.cif.g08.bks.cpg/sg2_50_cif.got.tgz:99527.got - 2010.06.03 11:33:40.
