data_PCOD9016689
_publ_section_title
;
Structure prediction by ZEFSAII (Michael W. Deem and Ramdas Pophale) SiO2 
 PCOD9016689
Probable space group: P -1
;
_chemical_formula_sum "Si O2"
_cell_formula_units_Z 16
_cell_length_a 8.242642
_cell_length_b 8.669790
_cell_length_c 10.904131
_cell_angle_alpha 109.291452
_cell_angle_beta 110.107455
_cell_angle_gamma 73.309156
_cell_volume 677.267266
_symmetry_space_group_name_H-M "P -1"
_symmetry_group_IT_number 2
_symmetry_cell_setting 'triclinic'
loop_
_space_group_symop_operation_xyz
x,y,z
-x,-y,-z
loop_
_atom_site_type_symbol
_atom_site_label
_atom_site_fract_x
_atom_site_fract_y
_atom_site_fract_z
Si Si1 0.715412 0.606179 0.148321
Si Si2 0.837825 0.495786 0.549077
Si Si3 0.085230 0.700450 0.260502
Si Si4 0.277832 0.366655 0.188298
Si Si5 0.255488 0.978432 0.331849
Si Si6 0.804333 0.967449 0.950528
Si Si7 0.614300 0.746724 0.417369
Si Si8 0.408267 0.715615 0.898407
O O1 0.659233 0.721055 0.281214
O O2 0.715726 0.417225 0.143041
O O3 0.906385 0.636726 0.173738
O O4 0.570230 0.658505 0.020338
O O5 0.871625 0.324153 0.588575
O O6 0.806957 0.615218 0.692936
O O7 0.661978 0.566478 0.446198
O O8 0.000000 0.500000 0.500000
O O9 0.228352 0.561764 0.187474
O O10 0.090051 0.887748 0.275403
O O11 0.194106 0.223543 0.066425
O O12 0.486593 0.303748 0.207695
O O13 0.414984 0.842892 0.395817
O O14 0.281346 0.004706 0.200957
O O15 0.262677 0.142062 0.454763
O O16 0.692076 0.100051 0.047899
O O17 0.000000 0.000000 0.000000
#
# Coordination Sequence:
#
# PCOD9016689 Si02
#       8
#     2   2   2   2   2   2   2   2
#     4  11  23  42  69 100 138 181 225 299 333 407
#     4  10  21  42  68  99 136 178 221 281 341 407
#     4  10  23  41  68 101 132 179 227 273 350 407
#     4  10  23  44  66  99 137 179 229 279 337 414
#     4  11  24  42  68 103 131 185 230 281 351 405
#     4  12  25  44  69 100 143 183 226 295 343 403
#     4  11  21  44  70  92 143 177 226 287 341 405
#     4  11  25  42  68 102 135 182 245 270 351 410
#
# _framework density 23.624351000000001
#
# number of rings (size 3 to 8) (size 9 to 14) (size 15 to 20)
#    0.750    0.500    3.750    1.875    3.500    1.500 
#    0.000    0.000    0.000    0.000    0.000    0.000 
#    0.000    0.000    0.000    0.000    0.000    0.000 
#
# Total GULP energy -89285.017992 kJ/mol
# GULP energy per Si atom -5580.313624 kJ/mol
# Density = 2.357058 g / cm^3
# Si number density = 23.624351 Si / 1000 Ang^3
#
#
#
# Elastic Constant Matrix: (Units=GPa)
#
#
# Indices 1 2 3 4 5 6 
#
# 1 84.9950 15.3898 39.9743 19.1190 -14.8488 9.0436
# 2 15.3898 49.4399 36.0612 3.4825 -2.7452 14.8543
# 3 39.9743 36.0612 89.3096 20.5697 -3.1120 6.2959
# 4 19.1190 3.4825 20.5697 50.6719 1.9523 6.7926
# 5 -14.8488 -2.7452 -3.1120 1.9523 40.3738 9.0364
# 6 9.0436 14.8543 6.2959 6.7926 9.0364 35.1392
#
#
#
# Elastic Compliance Matrix: (Units=1/GPa)
#
#
# Indices 1 2 3 4 5 6 
#
# 1 0.017380 0.002097 -0.007228 -0.003339 0.007326 -0.005303
# 2 0.002097 0.034793 -0.014833 0.004626 0.005080 -0.014791
# 3 -0.007228 -0.014833 0.021151 -0.005552 -0.003162 0.006227
# 4 -0.003339 0.004626 -0.005552 0.023561 -0.001527 -0.004263
# 5 0.007326 0.005080 -0.003162 -0.001527 0.030080 -0.010907
# 6 -0.005303 -0.014791 0.006227 -0.004263 -0.010907 0.038588
#
#
# Mechanical properties :
#
#
# Convention : Reuss Voigt Hill
#
# Bulk Modulus (GPa) = 29.94300 45.17723 37.56011
# Shear Modulus (GPa) = 23.08266 34.05828 28.57047
#
# Velocity S-wave (km/s) = 3.12920 3.80104 3.48137
# Velocity P-wave (km/s) = 5.07524 6.19908 5.66509
#
# Compressibility (1/GPa) = 0.03339679
#
# Stress axis : x y z
#
# Youngs Moduli (GPa) = 57.53649 28.74149 47.27918
#
# Poissons Ratio (x) = -0.06027 0.34172
# Poissons Ratio (y) = -0.12066 0.70129
# Poissons Ratio (z) = 0.41586 0.42632
#
# Static dielectric constant tensor:
#      x y z
#    x 1.928620 0.013420 -0.008070 
#    y 0.013420 1.947980 -0.041400 
#    z -0.008070 -0.041400 1.946110 
# 
# From -- ./inp_files/380454.got.cif
#   From: 2010.05.17/outbox.cif.g08.bks.cpg/sg2_191_cif.got.tgz:380454.got - 2010.06.03 11:33:40.
