data_PCOD9016395
_publ_section_title
;
Structure prediction by ZEFSAII (Michael W. Deem and Ramdas Pophale) SiO2 
 PCOD9016395
Probable space group: P -1
;
_chemical_formula_sum "Si O2"
_cell_formula_units_Z 12
_cell_length_a 11.533334
_cell_length_b 14.815546
_cell_length_c 11.444426
_cell_angle_alpha 41.582617
_cell_angle_beta 118.736877
_cell_angle_gamma 151.270006
_cell_volume 521.470236
_symmetry_space_group_name_H-M "P -1"
_symmetry_group_IT_number 2
_symmetry_cell_setting 'triclinic'
loop_
_space_group_symop_operation_xyz
x,y,z
-x,-y,-z
loop_
_atom_site_type_symbol
_atom_site_label
_atom_site_fract_x
_atom_site_fract_y
_atom_site_fract_z
Si Si1 0.795376 0.896396 0.915558
Si Si2 0.642542 0.057132 0.697051
Si Si3 0.827229 0.707321 0.732754
Si Si4 0.737744 0.599517 0.529198
Si Si5 0.981813 0.572484 0.038804
Si Si6 0.752686 0.317663 0.722898
O O1 0.743964 0.000146 0.841491
O O2 0.475551 0.540004 0.108878
O O3 0.967332 0.076040 0.703390
O O4 0.000000 0.000000 0.000000
O O5 0.601230 0.113168 0.735695
O O6 0.910616 0.361230 0.463107
O O7 0.354831 0.767066 0.764363
O O8 0.769294 0.592896 0.686807
O O9 0.991488 0.741412 0.851309
O O10 0.000000 0.000000 0.500000
O O11 0.500000 0.500000 0.500000
O O12 0.657390 0.385003 0.635569
O O13 0.205887 0.733864 0.090444
O O14 0.000000 0.500000 0.000000
#
# Coordination Sequence:
#
# PCOD9016395 Si02
#       6
#     2   2   2   2   2   2
#     4  10  21  42  67  96 136 177 226 279 336 412
#     4   9  22  40  67  99 130 175 227 275 343 403
#     4  11  25  44  63 102 137 178 229 279 348 402
#     4  11  22  41  70  98 136 176 223 287 340 407
#     4  11  22  41  64  96 136 173 222 282 333 407
#     4  10  21  43  67  99 131 177 224 280 341 408
#
# _framework density 23.011859000000001
#
# number of rings (size 3 to 8) (size 9 to 14) (size 15 to 20)
#    0.000    1.667    3.333    0.500    0.000    4.000 
#    3.000    0.000    0.000    0.000    0.000    0.000 
#    0.000    0.000    0.000    0.000    0.000    0.000 
#
# Total GULP energy -67063.323906 kJ/mol
# GULP energy per Si atom -5588.610325 kJ/mol
# Density = 2.295948 g / cm^3
# Si number density = 23.011859 Si / 1000 Ang^3
#
#
#
# Elastic Constant Matrix: (Units=GPa)
#
#
# Indices 1 2 3 4 5 6 
#
# 1 124.6317 42.0750 43.1065 -0.5296 7.7574 9.1778
# 2 42.0750 122.5887 33.6752 6.0124 20.5183 17.8871
# 3 43.1065 33.6752 132.8105 -4.2111 -7.3620 16.4632
# 4 -0.5296 6.0124 -4.2111 37.3126 5.3440 1.8163
# 5 7.7574 20.5183 -7.3620 5.3440 41.9336 1.2998
# 6 9.1778 17.8871 16.4632 1.8163 1.2998 28.9903
#
#
#
# Elastic Compliance Matrix: (Units=1/GPa)
#
#
# Indices 1 2 3 4 5 6 
#
# 1 0.009839 -0.002485 -0.002602 0.000409 -0.001111 -0.000080
# 2 -0.002485 0.011063 -0.001716 -0.001067 -0.004971 -0.004775
# 3 -0.002602 -0.001716 0.009465 0.001063 0.002962 -0.003692
# 4 0.000409 -0.001067 0.001063 0.027585 -0.002830 -0.001676
# 5 -0.001111 -0.004971 0.002962 -0.002830 0.027344 0.000688
# 6 -0.000080 -0.004775 -0.003692 -0.001676 0.000688 0.039636
#
#
# Mechanical properties :
#
#
# Convention : Reuss Voigt Hill
#
# Bulk Modulus (GPa) = 59.66338 68.63824 64.15081
# Shear Modulus (GPa) = 34.69209 39.05893 36.87551
#
# Velocity S-wave (km/s) = 3.88696 4.12435 4.00741
# Velocity P-wave (km/s) = 6.79177 7.25068 7.02498
#
# Compressibility (1/GPa) = 0.01676070
#
# Stress axis : x y z
#
# Youngs Moduli (GPa) = 101.63366 90.39532 105.65517
#
# Poissons Ratio (x) = 0.22460 0.27494
# Poissons Ratio (y) = 0.25253 0.18131
# Poissons Ratio (z) = 0.26447 0.15512
#
# Static dielectric constant tensor:
#      x y z
#    x 2.064660 -0.151190 -0.030530 
#    y -0.151190 1.993200 -0.090650 
#    z -0.030530 -0.090650 1.963280 
# 
# From -- ./inp_files/183505.got.cif
#   From: 2010.05.17/outbox.cif.g08.bks.cpg/sg2_92_cif.got.tgz:183505.got - 2010.06.03 11:33:40.
