data_PCOD9016247
_publ_section_title
;
Structure prediction by ZEFSAII (Michael W. Deem and Ramdas Pophale) SiO2 
 PCOD9016247
Probable space group: P -1
;
_chemical_formula_sum "Si O2"
_cell_formula_units_Z 16
_cell_length_a 7.115344
_cell_length_b 15.942812
_cell_length_c 12.878470
_cell_angle_alpha 29.132192
_cell_angle_beta 61.886568
_cell_angle_gamma 73.864058
_cell_volume 596.120171
_symmetry_space_group_name_H-M "P -1"
_symmetry_group_IT_number 2
_symmetry_cell_setting 'triclinic'
loop_
_space_group_symop_operation_xyz
x,y,z
-x,-y,-z
loop_
_atom_site_type_symbol
_atom_site_label
_atom_site_fract_x
_atom_site_fract_y
_atom_site_fract_z
Si Si1 0.758771 0.630821 0.581679
Si Si2 0.766024 0.394329 0.534166
Si Si3 0.045923 0.811027 0.713033
Si Si4 0.438207 0.104397 0.522738
Si Si5 0.693226 0.857935 0.167437
Si Si6 0.830249 0.786463 0.007476
Si Si7 0.377064 0.832380 0.001855
Si Si8 0.406831 0.351215 0.094657
O O1 0.687713 0.772633 0.518857
O O2 0.754521 0.714622 0.379480
O O3 0.001678 0.618714 0.555661
O O4 0.573456 0.436990 0.863467
O O5 0.554249 0.241146 0.706142
O O6 0.747369 0.586197 0.295176
O O7 0.758608 0.353952 0.703812
O O8 0.294619 0.819148 0.607828
O O9 0.844246 0.669351 0.855442
O O10 0.007443 0.783372 0.876477
O O11 0.000000 0.000000 0.500000
O O12 0.409275 0.158824 0.351709
O O13 0.862584 0.908381 0.971255
O O14 0.682151 0.023136 0.062019
O O15 0.634972 0.840317 0.939999
O O16 0.348687 0.909555 0.812928
O O17 0.500000 0.500000 0.000000
#
# Coordination Sequence:
#
# PCOD9016247 Si02
#       8
#     2   2   2   2   2   2   2   2
#     4  10  23  42  68 104 136 178 241 291 347 429
#     4  11  22  39  66  98 139 183 226 288 364 410
#     4  12  25  46  72 102 145 189 237 294 365 422
#     4  10  23  44  69 103 143 187 237 299 350 427
#     4  10  22  41  68 100 141 183 234 295 350 427
#     4  11  22  42  68 101 138 185 231 291 361 420
#     4  10  21  42  67 104 141 179 243 289 348 436
#     4  10  24  45  70 103 143 186 242 291 350 425
#
# _framework density 26.840226000000001
#
# number of rings (size 3 to 8) (size 9 to 14) (size 15 to 20)
#    0.000    1.500    1.250    4.500    0.000    9.000 
#    6.750    1.250    0.000    0.000    0.000    0.000 
#    0.000    0.000    0.000    0.000    0.000    0.000 
#
# Total GULP energy -89636.075904 kJ/mol
# GULP energy per Si atom -5602.254744 kJ/mol
# Density = 2.677914 g / cm^3
# Si number density = 26.840226 Si / 1000 Ang^3
#
#
#
# Elastic Constant Matrix: (Units=GPa)
#
#
# Indices 1 2 3 4 5 6 
#
# 1 179.3859 43.3923 49.9907 5.2787 -8.3849 -9.2358
# 2 43.3923 119.0790 24.5617 9.5207 -3.2695 5.9333
# 3 49.9907 24.5617 140.9459 7.6652 29.9548 7.5632
# 4 5.2787 9.5207 7.6652 45.2708 -1.4930 8.1185
# 5 -8.3849 -3.2695 29.9548 -1.4930 69.1500 9.5744
# 6 -9.2358 5.9333 7.5632 8.1185 9.5744 46.4970
#
#
#
# Elastic Compliance Matrix: (Units=1/GPa)
#
#
# Indices 1 2 3 4 5 6 
#
# 1 0.006943 -0.002035 -0.002529 -0.000216 0.001593 0.001760
# 2 -0.002035 0.009534 -0.000959 -0.001330 0.000784 -0.001394
# 3 -0.002529 -0.000959 0.009159 -0.001047 -0.004229 -0.000816
# 4 -0.000216 -0.001330 -0.001047 0.023349 0.001433 -0.004075
# 5 0.001593 0.000784 -0.004229 0.001433 0.016947 -0.002836
# 6 0.001760 -0.001394 -0.000816 -0.004075 -0.002836 0.023462
#
#
# Mechanical properties :
#
#
# Convention : Reuss Voigt Hill
#
# Bulk Modulus (GPa) = 68.54271 75.03336 71.78803
# Shear Modulus (GPa) = 47.48112 53.61464 50.54788
#
# Velocity S-wave (km/s) = 4.21054 4.47424 4.34439
# Velocity P-wave (km/s) = 7.01648 7.39649 7.20899
#
# Compressibility (1/GPa) = 0.01458944
#
# Stress axis : x y z
#
# Youngs Moduli (GPa) = 144.02796 104.88240 109.18642
#
# Poissons Ratio (x) = 0.21344 0.27615
# Poissons Ratio (y) = 0.29310 0.10473
# Poissons Ratio (z) = 0.36427 0.10060
#
# Static dielectric constant tensor:
#      x y z
#    x 2.052380 0.038050 -0.021560 
#    y 0.038050 2.245180 -0.008550 
#    z -0.021560 -0.008550 2.131190 
# 
# From -- ./inp_files/485124.got.cif
#   From: 2010.05.17/outbox.cif.g08.bks.cpg/sg2_243_cif.got.tgz:485124.got - 2010.06.03 11:33:40.
