data_PCOD9016178
_publ_section_title
;
Structure prediction by ZEFSAII (Michael W. Deem and Ramdas Pophale) SiO2 
 PCOD9016178
Probable space group: P -1
;
_chemical_formula_sum "Si O2"
_cell_formula_units_Z 16
_cell_length_a 9.384541
_cell_length_b 13.325578
_cell_length_c 8.981441
_cell_angle_alpha 100.797643
_cell_angle_beta 46.979642
_cell_angle_gamma 98.351889
_cell_volume 806.385089
_symmetry_space_group_name_H-M "P -1"
_symmetry_group_IT_number 2
_symmetry_cell_setting 'triclinic'
loop_
_space_group_symop_operation_xyz
x,y,z
-x,-y,-z
loop_
_atom_site_type_symbol
_atom_site_label
_atom_site_fract_x
_atom_site_fract_y
_atom_site_fract_z
Si Si1 0.915784 0.905855 0.936256
Si Si2 0.894731 0.562090 0.458635
Si Si3 0.183443 0.776784 0.881349
Si Si4 0.449447 0.978651 0.702236
Si Si5 0.850703 0.058549 0.523761
Si Si6 0.705145 0.455187 0.288869
Si Si7 0.468724 0.570503 0.899026
Si Si8 0.812246 0.258620 0.789138
O O1 0.988344 0.804115 0.937383
O O2 0.033653 0.914698 0.702075
O O3 0.688793 0.933414 0.106801
O O4 0.000000 0.000000 0.000000
O O5 0.862365 0.505708 0.305181
O O6 0.677637 0.584179 0.676298
O O7 0.000000 0.500000 0.500000
O O8 0.021483 0.663856 0.367681
O O9 0.269279 0.667016 0.748582
O O10 0.339491 0.869205 0.766552
O O11 0.137802 0.776033 0.088936
O O12 0.660305 0.986328 0.626508
O O13 0.500000 0.000000 0.500000
O O14 0.790019 0.162867 0.672257
O O15 0.000000 0.000000 0.500000
O O16 0.500000 0.500000 0.500000
O O17 0.687152 0.471825 0.126623
O O18 0.500000 0.500000 0.000000
O O19 0.382953 0.676956 0.042167
#
# Coordination Sequence:
#
# PCOD9016178 Si02
#       8
#     2   2   2   2   2   2   2   2
#     4  10  21  42  66  98 131 170 223 274 330 410
#     4  11  23  42  70  91 138 181 220 276 341 392
#     4  10  22  43  70  96 139 169 229 283 330 409
#     4  11  23  44  71  96 131 179 219 275 344 396
#     4  12  26  42  69  98 139 175 223 279 336 397
#     4   9  22  41  66  99 132 179 223 274 340 400
#     4  10  21  44  66  97 136 170 224 284 327 407
#     4  11  26  43  63 101 137 173 224 278 334 394
#
# _framework density 19.841638
#
# number of rings (size 3 to 8) (size 9 to 14) (size 15 to 20)
#    0.000    1.500    3.750    1.500    1.750    8.000 
#    0.000    0.000    0.000    0.000    0.000    0.000 
#    0.000    0.000    0.000    0.000    0.000    0.000 
#
# Total GULP energy -89232.440542 kJ/mol
# GULP energy per Si atom -5577.027534 kJ/mol
# Density = 1.979648 g / cm^3
# Si number density = 19.841638 Si / 1000 Ang^3
#
#
#
# Elastic Constant Matrix: (Units=GPa)
#
#
# Indices 1 2 3 4 5 6 
#
# 1 111.6812 20.1353 19.4240 2.5699 -8.5503 -13.1566
# 2 20.1353 60.7294 16.3060 0.2303 5.6897 -2.3847
# 3 19.4240 16.3060 100.9275 7.7280 -6.4960 -7.3133
# 4 2.5699 0.2303 7.7280 46.3462 0.0771 0.0599
# 5 -8.5503 5.6897 -6.4960 0.0771 42.2596 -3.4261
# 6 -13.1566 -2.3847 -7.3133 0.0599 -3.4261 37.6219
#
#
#
# Elastic Compliance Matrix: (Units=1/GPa)
#
#
# Indices 1 2 3 4 5 6 
#
# 1 0.010339 -0.003269 -0.001010 -0.000398 0.002657 0.003455
# 2 -0.003269 0.018585 -0.002710 0.000548 -0.003648 -0.000825
# 3 -0.001010 -0.002710 0.010932 -0.001759 0.001989 0.001784
# 4 -0.000398 0.000548 -0.001759 0.021891 -0.000507 -0.000527
# 5 0.002657 -0.003648 0.001989 -0.000507 0.025273 0.003387
# 6 0.003455 -0.000825 0.001784 -0.000527 0.003387 0.028392
#
#
# Mechanical properties :
#
#
# Convention : Reuss Voigt Hill
#
# Bulk Modulus (GPa) = 38.64127 42.78542 40.71334
# Shear Modulus (GPa) = 36.22776 39.74374 37.98575
#
# Velocity S-wave (km/s) = 4.27763 4.48040 4.38019
# Velocity P-wave (km/s) = 6.62681 6.95525 6.79302
#
# Compressibility (1/GPa) = 0.02587907
#
# Stress axis : x y z
#
# Youngs Moduli (GPa) = 96.72533 53.80631 91.47221
#
# Poissons Ratio (x) = 0.17587 0.09237
# Poissons Ratio (y) = 0.31615 0.24790
# Poissons Ratio (z) = 0.09768 0.14582
#
# Static dielectric constant tensor:
#      x y z
#    x 1.748560 -0.001600 0.025420 
#    y -0.001600 1.666600 0.020710 
#    z 0.025420 0.020710 1.706170 
# 
# From -- ./inp_files/188201.got.cif
#   From: 2010.05.17/outbox.cif.g08.bks.cpg/sg2_95_cif.got.tgz:188201.got - 2010.06.03 11:33:40.
