data_PCOD9016363
_publ_section_title
;
Structure prediction by ZEFSAII (Michael W. Deem and Ramdas Pophale) SiO2 
 PCOD9016363
Probable space group: P -1
;
_chemical_formula_sum "Si O2"
_cell_formula_units_Z 13
_cell_length_a 7.012715
_cell_length_b 9.735081
_cell_length_c 9.696065
_cell_angle_alpha 82.370144
_cell_angle_beta 77.624244
_cell_angle_gamma 54.713976
_cell_volume 527.741681
_symmetry_space_group_name_H-M "P -1"
_symmetry_group_IT_number 2
_symmetry_cell_setting 'triclinic'
loop_
_space_group_symop_operation_xyz
x,y,z
-x,-y,-z
loop_
_atom_site_type_symbol
_atom_site_label
_atom_site_fract_x
_atom_site_fract_y
_atom_site_fract_z
Si Si1 0.611276 0.981195 0.338268
Si Si2 0.703387 0.640376 0.697920
Si Si3 0.780012 0.891746 0.974527
Si Si4 0.957047 0.079084 0.810794
Si Si5 0.519643 0.555833 0.180646
Si Si6 0.000000 0.500000 0.000000
Si Si7 0.245801 0.380693 0.640138
O O1 0.661923 0.806237 0.297927
O O2 0.867692 0.946743 0.333744
O O3 0.500000 0.000000 0.500000
O O4 0.427370 0.163314 0.274159
O O5 0.542902 0.580817 0.787665
O O6 0.735964 0.619980 0.528271
O O7 0.975884 0.509809 0.723970
O O8 0.873256 0.700768 0.986256
O O9 0.890208 0.945901 0.832653
O O10 0.871758 0.941057 0.087521
O O11 0.500000 0.000000 0.000000
O O12 0.721200 0.263695 0.835624
O O13 0.597424 0.565745 0.322089
O O14 0.733468 0.526077 0.059481
#
# Coordination Sequence:
#
# PCOD9016363 Si02
#       7
#     2   2   2   2   2   1   2
#     4  10  21  42  67  95 129 169 212 261 319 383
#     4  10  22  42  67  95 128 172 213 262 322 379
#     4  11  25  47  67  95 129 170 215 270 318 381
#     4  11  24  45  69  92 134 171 207 269 329 371
#     4  12  24  43  67  96 131 171 215 267 318 380
#     4  12  26  42  68  98 124 172 226 258 318 384
#     4  10  22  43  66  94 133 167 212 267 318 378
#
# _framework density 24.633262999999999
#
# number of rings (size 3 to 8) (size 9 to 14) (size 15 to 20)
#    0.000    1.231    3.077    2.308    0.000    1.846 
#    2.769    1.538    0.000    0.000    0.000    0.000 
#    0.000    0.000    0.000    0.000    0.000    0.000 
#
# Total GULP energy -72553.939487 kJ/mol
# GULP energy per Si atom -5581.072268 kJ/mol
# Density = 2.457720 g / cm^3
# Si number density = 24.633263 Si / 1000 Ang^3
#
#
#
# Elastic Constant Matrix: (Units=GPa)
#
#
# Indices 1 2 3 4 5 6 
#
# 1 165.5587 89.3191 57.1462 -7.6534 -32.9561 -17.6099
# 2 89.3191 241.2270 43.9703 -6.7966 -25.3157 -7.4041
# 3 57.1462 43.9703 76.2950 8.1481 -42.3860 1.6814
# 4 -7.6534 -6.7966 8.1481 35.8233 2.6055 -20.8656
# 5 -32.9561 -25.3157 -42.3860 2.6055 59.8081 -0.2808
# 6 -17.6099 -7.4041 1.6814 -20.8656 -0.2808 56.7690
#
#
#
# Elastic Compliance Matrix: (Units=1/GPa)
#
#
# Indices 1 2 3 4 5 6 
#
# 1 0.010937 -0.002225 -0.008557 0.007513 -0.001278 0.006111
# 2 -0.002225 0.005295 -0.001629 0.001198 -0.000189 0.000488
# 3 -0.008557 -0.001629 0.032704 -0.016667 0.018452 -0.009870
# 4 0.007513 0.001198 -0.016667 0.045688 -0.009062 0.019729
# 5 -0.001278 -0.000189 0.018452 -0.009062 0.029388 -0.004153
# 6 0.006111 0.000488 -0.009870 0.019729 -0.004153 0.027098
#
#
# Mechanical properties :
#
#
# Convention : Reuss Voigt Hill
#
# Bulk Modulus (GPa) = 41.46844 95.99468 68.73156
# Shear Modulus (GPa) = 27.17849 49.98976 38.58413
#
# Velocity S-wave (km/s) = 3.32524 4.50973 3.96200
# Velocity P-wave (km/s) = 5.62262 8.13456 6.99231
#
# Compressibility (1/GPa) = 0.02411473
#
# Stress axis : x y z
#
# Youngs Moduli (GPa) = 91.43327 188.85575 30.57768
#
# Poissons Ratio (x) = 0.42016 0.26165
# Poissons Ratio (y) = 0.20342 0.04981
# Poissons Ratio (z) = 0.78238 0.30762
#
# Static dielectric constant tensor:
#      x y z
#    x 1.957810 0.009210 -0.010270 
#    y 0.009210 1.892570 -0.056260 
#    z -0.010270 -0.056260 2.497880 
# 
# From -- ./inp_files/35621.got.cif
#   From: 2010.05.17/outbox.cif.g08.bks.cpg/sg2_18_cif.got.tgz:35621.got - 2010.06.03 11:33:40.
