data_PCOD9016861
_publ_section_title
;
Structure prediction by ZEFSAII (Michael W. Deem and Ramdas Pophale) SiO2 
 PCOD9016861
Probable space group: P -1
;
_chemical_formula_sum "Si O2"
_cell_formula_units_Z 13
_cell_length_a 8.068614
_cell_length_b 13.533592
_cell_length_c 11.314068
_cell_angle_alpha 34.522695
_cell_angle_beta 119.465073
_cell_angle_gamma 131.642243
_cell_volume 518.725771
_symmetry_space_group_name_H-M "P -1"
_symmetry_group_IT_number 2
_symmetry_cell_setting 'triclinic'
loop_
_space_group_symop_operation_xyz
x,y,z
-x,-y,-z
loop_
_atom_site_type_symbol
_atom_site_label
_atom_site_fract_x
_atom_site_fract_y
_atom_site_fract_z
Si Si1 0.304166 0.455312 0.566662
Si Si2 0.808811 0.098316 0.663078
Si Si3 0.024398 0.171481 0.092680
Si Si4 0.317226 0.877107 0.156761
Si Si5 0.613490 0.554619 0.794992
Si Si6 0.676542 0.362736 0.213449
Si Si7 0.000000 0.000000 0.500000
O O1 0.500000 0.500000 0.500000
O O2 0.277919 0.651414 0.372179
O O3 0.417070 0.448011 0.735786
O O4 0.063005 0.266058 0.629763
O O5 0.654892 0.045735 0.776239
O O6 0.729791 0.196822 0.439250
O O7 0.810922 0.909996 0.793017
O O8 0.922268 0.072407 0.281440
O O9 0.883635 0.113434 0.981397
O O10 0.123925 0.411234 0.902586
O O11 0.500000 0.000000 0.000000
O O12 0.526673 0.654134 0.764069
O O13 0.652516 0.394037 0.036313
O O14 0.845134 0.755694 0.640178
#
# Coordination Sequence:
#
# PCOD9016861 Si02
#       7
#     2   2   2   2   2   2   1
#     4  12  24  43  71 107 141 189 234 292 354 424
#     4  12  24  46  75 103 144 186 239 291 355 424
#     4  11  24  44  70 103 140 188 230 289 354 418
#     4  12  24  41  67 101 142 178 236 293 350 412
#     4  10  21  42  69  96 144 181 228 292 349 411
#     4  10  22  44  72  99 136 187 230 289 350 420
#     4  10  22  44  66  98 148 178 230 294 340 420
#
# _framework density 25.061411
#
# number of rings (size 3 to 8) (size 9 to 14) (size 15 to 20)
#    0.000    0.923    3.077    4.615    0.000    1.231 
#    2.769    9.231    3.385    0.000    0.000    0.000 
#    0.000    0.000    0.000    0.000    0.000    0.000 
#
# Total GULP energy -72492.705612 kJ/mol
# GULP energy per Si atom -5576.361970 kJ/mol
# Density = 2.500437 g / cm^3
# Si number density = 25.061411 Si / 1000 Ang^3
#
#
#
# Elastic Constant Matrix: (Units=GPa)
#
#
# Indices 1 2 3 4 5 6 
#
# 1 53.5439 2.9736 23.4423 10.9969 1.8283 1.3925
# 2 2.9736 107.1736 43.5695 20.9458 -8.4511 10.1247
# 3 23.4423 43.5695 160.8968 47.7771 21.3124 5.9629
# 4 10.9969 20.9458 47.7771 34.6242 5.8217 -2.4579
# 5 1.8283 -8.4511 21.3124 5.8217 37.5563 -0.5593
# 6 1.3925 10.1247 5.9629 -2.4579 -0.5593 15.4053
#
#
#
# Elastic Compliance Matrix: (Units=1/GPa)
#
#
# Indices 1 2 3 4 5 6 
#
# 1 0.020545 0.001618 -0.001917 -0.005277 0.001225 -0.002976
# 2 0.001618 0.012607 -0.001907 -0.006925 0.004786 -0.008625
# 3 -0.001917 -0.001907 0.012283 -0.014744 -0.005108 -0.005865
# 4 -0.005277 -0.006925 -0.014744 0.056734 -0.001435 0.019735
# 5 0.001225 0.004786 -0.005108 -0.001435 0.030759 -0.000391
# 6 -0.002976 -0.008625 -0.005865 0.019735 -0.000391 0.076255
#
#
# Mechanical properties :
#
#
# Convention : Reuss Voigt Hill
#
# Bulk Modulus (GPa) = 24.37670 51.28723 37.83197
# Shear Modulus (GPa) = 22.00035 34.29240 28.14638
#
# Velocity S-wave (km/s) = 2.96608 3.70311 3.35490
# Velocity P-wave (km/s) = 4.63445 6.22841 5.48959
#
# Compressibility (1/GPa) = 0.04102277
#
# Stress axis : x y z
#
# Youngs Moduli (GPa) = 48.67408 79.32250 81.41289
#
# Poissons Ratio (x) = -0.12836 0.15604
# Poissons Ratio (y) = -0.07876 0.15529
# Poissons Ratio (z) = 0.09329 0.15130
#
# Static dielectric constant tensor:
#      x y z
#    x 2.102180 0.123650 -0.048110 
#    y 0.123650 2.078310 0.018700 
#    z -0.048110 0.018700 1.914790 
# 
# From -- ./inp_files/233346.got.cif
#   From: 2010.05.17/outbox.cif.g08.bks.cpg/sg2_117_cif.got.tgz:233346.got - 2010.06.03 11:33:40.
