data_PCOD9016402
_publ_section_title
;
Structure prediction by ZEFSAII (Michael W. Deem and Ramdas Pophale) SiO2 
 PCOD9016402
Probable space group: P -1
;
_chemical_formula_sum "Si O2"
_cell_formula_units_Z 14
_cell_length_a 12.040836
_cell_length_b 8.541671
_cell_length_c 9.429236
_cell_angle_alpha 116.218690
_cell_angle_beta 113.736764
_cell_angle_gamma 108.525870
_cell_volume 635.054056
_symmetry_space_group_name_H-M "P -1"
_symmetry_group_IT_number 2
_symmetry_cell_setting 'triclinic'
loop_
_space_group_symop_operation_xyz
x,y,z
-x,-y,-z
loop_
_atom_site_type_symbol
_atom_site_label
_atom_site_fract_x
_atom_site_fract_y
_atom_site_fract_z
Si Si1 0.903405 0.131741 0.639331
Si Si2 0.363066 0.633616 0.985364
Si Si3 0.906945 0.075151 0.126283
Si Si4 0.892684 0.690623 0.911829
Si Si5 0.675462 0.203594 0.692029
Si Si6 0.085232 0.406596 0.571141
Si Si7 0.696659 0.816458 0.169504
O O1 0.779527 0.140408 0.660322
O O2 0.002314 0.307336 0.638030
O O3 0.806877 0.917898 0.404302
O O4 0.027726 0.206573 0.854411
O O5 0.261848 0.570215 0.767373
O O6 0.336685 0.418641 0.956736
O O7 0.314521 0.737507 0.114178
O O8 0.542244 0.786122 0.108706
O O9 0.773559 0.971801 0.133383
O O10 0.854982 0.858415 0.924044
O O11 0.975466 0.254985 0.107651
O O12 0.049445 0.219476 0.367678
O O13 0.751059 0.438434 0.746901
O O14 0.500000 0.000000 0.500000
O O15 0.000000 0.500000 0.500000
#
# Coordination Sequence:
#
# PCOD9016402 Si02
#       7
#     2   2   2   2   2   2   2
#     4  11  22  38  66  93 125 167 225 260 326 378
#     4  11  22  40  68  92 135 168 218 261 330 381
#     4  10  22  40  64  97 129 167 219 265 324 378
#     4  11  22  40  66  94 130 171 214 274 317 387
#     4  12  23  39  62 100 125 169 212 272 322 388
#     4  11  23  40  63  96 129 173 217 268 314 389
#     4  10  21  42  67  97 125 173 212 270 318 394
#
# _framework density 22.045366999999999
#
# number of rings (size 3 to 8) (size 9 to 14) (size 15 to 20)
#    0.000    1.143    4.286    2.143    2.000    2.286 
#    0.000    5.714    0.000    5.143    0.000    0.000 
#    0.000    0.000    0.000    0.000    0.000    0.000 
#
# Total GULP energy -77950.930879 kJ/mol
# GULP energy per Si atom -5567.923634 kJ/mol
# Density = 2.199519 g / cm^3
# Si number density = 22.045367 Si / 1000 Ang^3
#
#
#
# Elastic Constant Matrix: (Units=GPa)
#
#
# Indices 1 2 3 4 5 6 
#
# 1 76.9538 20.0073 12.8556 4.1864 -7.2538 23.5376
# 2 20.0073 78.3068 41.1047 12.5578 2.0545 31.6764
# 3 12.8556 41.1047 88.6983 12.1581 0.6237 17.8875
# 4 4.1864 12.5578 12.1581 40.6559 3.8668 -4.8415
# 5 -7.2538 2.0545 0.6237 3.8668 44.2275 0.1853
# 6 23.5376 31.6764 17.8875 -4.8415 0.1853 34.6422
#
#
#
# Elastic Compliance Matrix: (Units=1/GPa)
#
#
# Indices 1 2 3 4 5 6 
#
# 1 0.017376 0.001899 0.000042 -0.004383 0.003204 -0.014194
# 2 0.001899 0.026880 -0.006667 -0.009338 0.000073 -0.023732
# 3 0.000042 -0.006667 0.015170 -0.002772 0.000354 -0.002155
# 4 -0.004383 -0.009338 -0.002772 0.031112 -0.003039 0.017312
# 5 0.003204 0.000073 0.000354 -0.003039 0.023406 -0.002976
# 6 -0.014194 -0.023732 -0.002155 0.017312 -0.002976 0.063759
#
#
# Mechanical properties :
#
#
# Convention : Reuss Voigt Hill
#
# Bulk Modulus (GPa) = 20.01009 43.54377 31.77693
# Shear Modulus (GPa) = 24.53251 35.23789 29.88520
#
# Velocity S-wave (km/s) = 3.33951 4.00237 3.68587
# Velocity P-wave (km/s) = 4.89554 6.41509 5.70612
#
# Compressibility (1/GPa) = 0.04997480
#
# Stress axis : x y z
#
# Youngs Moduli (GPa) = 57.55078 37.20219 65.92150
#
# Poissons Ratio (x) = -0.07064 -0.00280
# Poissons Ratio (y) = -0.10928 0.43947
# Poissons Ratio (z) = -0.00244 0.24801
#
# Static dielectric constant tensor:
#      x y z
#    x 1.913900 -0.097240 0.013900 
#    y -0.097240 1.933180 -0.005290 
#    z 0.013900 -0.005290 1.828590 
# 
# From -- ./inp_files/158407.got.cif
#   From: 2010.05.17/outbox.cif.g08.bks.cpg/sg2_80_cif.got.tgz:158407.got - 2010.06.03 11:33:40.
