data_PCOD9016723
_publ_section_title
;
Structure prediction by ZEFSAII (Michael W. Deem and Ramdas Pophale) SiO2 
 PCOD9016723
Probable space group: P -1
;
_chemical_formula_sum "Si O2"
_cell_formula_units_Z 16
_cell_length_a 15.067066
_cell_length_b 5.420222
_cell_length_c 22.798296
_cell_angle_alpha 95.326029
_cell_angle_beta 158.994010
_cell_angle_gamma 89.053640
_cell_volume 651.575787
_symmetry_space_group_name_H-M "P -1"
_symmetry_group_IT_number 2
_symmetry_cell_setting 'triclinic'
loop_
_space_group_symop_operation_xyz
x,y,z
-x,-y,-z
loop_
_atom_site_type_symbol
_atom_site_label
_atom_site_fract_x
_atom_site_fract_y
_atom_site_fract_z
Si Si1 0.320669 0.578354 0.755149
Si Si2 0.156823 0.419634 0.849877
Si Si3 0.151809 0.949068 0.181759
Si Si4 0.752989 0.488871 0.426588
Si Si5 0.233352 0.917394 0.866436
Si Si6 0.329193 0.986523 0.062700
Si Si7 0.531284 0.086986 0.732866
Si Si8 0.735861 0.483002 0.684895
O O1 0.283293 0.460746 0.664570
O O2 0.397521 0.869782 0.787639
O O3 0.051882 0.514834 0.617736
O O4 0.561831 0.544742 0.943874
O O5 0.094020 0.145177 0.774670
O O6 0.956126 0.438290 0.776210
O O7 0.146997 0.623287 0.798154
O O8 0.236564 0.920387 0.167255
O O9 0.308242 0.768025 0.308355
O O10 0.201700 0.245862 0.237228
O O11 0.861358 0.851119 0.021430
O O12 0.636703 0.714902 0.388434
O O13 0.616313 0.204613 0.355046
O O14 0.223646 0.906447 0.931934
O O15 0.500000 0.000000 0.000000
O O16 0.359569 0.819527 0.133473
O O17 0.500000 0.500000 0.500000
#
# Coordination Sequence:
#
# PCOD9016723 Si02
#       8
#     2   2   2   2   2   2   2   2
#     4   9  20  39  68  93 131 187 221 274 339 402
#     4  11  21  43  64  93 127 167 222 280 341 392
#     4  12  24  45  71 102 136 181 232 277 343 413
#     4  10  22  39  61  98 141 179 227 268 332 409
#     4  11  22  39  65  97 129 168 225 278 330 393
#     4  10  21  42  69 101 139 177 226 279 339 407
#     4  11  24  41  66 104 144 182 221 275 338 413
#     4  12  25  46  71  96 133 182 229 289 342 396
#
# _framework density 24.555854
#
# number of rings (size 3 to 8) (size 9 to 14) (size 15 to 20)
#    0.000    1.250    3.750    2.625    0.000    6.500 
#    0.000   14.375    0.000    0.000    0.000    0.000 
#    0.000    0.000    0.000    0.000    0.000    0.000 
#
# Total GULP energy -89137.251936 kJ/mol
# GULP energy per Si atom -5571.078246 kJ/mol
# Density = 2.449996 g / cm^3
# Si number density = 24.555854 Si / 1000 Ang^3
#
#
#
# Elastic Constant Matrix: (Units=GPa)
#
#
# Indices 1 2 3 4 5 6 
#
# 1 115.8276 33.5166 12.2177 2.5829 17.1754 -0.2472
# 2 33.5166 144.2758 21.8620 -31.8974 4.8840 -4.4870
# 3 12.2177 21.8620 96.4551 -10.6264 11.6475 -5.0050
# 4 2.5829 -31.8974 -10.6264 28.5658 -3.3489 4.8902
# 5 17.1754 4.8840 11.6475 -3.3489 26.1597 -1.6021
# 6 -0.2472 -4.4870 -5.0050 4.8902 -1.6021 25.4021
#
#
#
# Elastic Compliance Matrix: (Units=1/GPa)
#
#
# Indices 1 2 3 4 5 6 
#
# 1 0.010876 -0.003536 -0.000369 -0.005915 -0.007067 0.000102
# 2 -0.003536 0.010451 -0.000900 0.012014 0.002276 -0.000535
# 3 -0.000369 -0.000900 0.011489 0.002570 -0.004294 0.001336
# 4 -0.005915 0.012014 0.002570 0.051897 0.006711 -0.006997
# 5 -0.007067 0.002276 -0.004294 0.006711 0.045277 0.001051
# 6 0.000102 -0.000535 0.001336 -0.006997 0.001051 0.040950
#
#
# Mechanical properties :
#
#
# Convention : Reuss Voigt Hill
#
# Bulk Modulus (GPa) = 43.09208 54.63900 48.86554
# Shear Modulus (GPa) = 26.55538 35.28966 30.92252
#
# Velocity S-wave (km/s) = 3.29207 3.79505 3.55247
# Velocity P-wave (km/s) = 5.66013 6.44223 6.06380
#
# Compressibility (1/GPa) = 0.02320612
#
# Stress axis : x y z
#
# Youngs Moduli (GPa) = 91.94845 95.68185 87.03744
#
# Poissons Ratio (x) = 0.33832 0.03213
# Poissons Ratio (y) = 0.32512 0.07834
# Poissons Ratio (z) = 0.03394 0.08612
#
# Static dielectric constant tensor:
#      x y z
#    x 1.972350 -0.034360 -0.049200 
#    y -0.034360 2.209150 0.049180 
#    z -0.049200 0.049180 2.010530 
# 
# From -- ./inp_files/611284.got.cif
#   From: 2010.05.17/outbox.cif.g08.bks.cpg/sg2_306_cif.got.tgz:611284.got - 2010.06.03 11:33:40.
