data_PCOD9016962
_publ_section_title
;
Structure prediction by ZEFSAII (Michael W. Deem and Ramdas Pophale) SiO2 
 PCOD9016962
Probable space group: P -1
;
_chemical_formula_sum "Si O2"
_cell_formula_units_Z 16
_cell_length_a 8.100583
_cell_length_b 19.387647
_cell_length_c 5.276612
_cell_angle_alpha 106.064395
_cell_angle_beta 122.529314
_cell_angle_gamma 55.282277
_cell_volume 573.778279
_symmetry_space_group_name_H-M "P -1"
_symmetry_group_IT_number 2
_symmetry_cell_setting 'triclinic'
loop_
_space_group_symop_operation_xyz
x,y,z
-x,-y,-z
loop_
_atom_site_type_symbol
_atom_site_label
_atom_site_fract_x
_atom_site_fract_y
_atom_site_fract_z
Si Si1 0.208390 0.667698 0.538958
Si Si2 0.402445 0.078770 0.684162
Si Si3 0.726864 0.740068 0.439217
Si Si4 0.868273 0.604784 0.763346
Si Si5 0.719532 0.232253 0.680738
Si Si6 0.680848 0.560593 0.050679
Si Si7 0.943436 0.150591 0.200435
Si Si8 0.226674 0.924298 0.729518
O O1 0.280961 0.686284 0.342108
O O2 0.169962 0.753908 0.709445
O O3 0.956431 0.681745 0.395919
O O4 0.417778 0.591558 0.790094
O O5 0.351156 0.164917 0.589124
O O6 0.144032 0.102645 0.516850
O O7 0.500000 0.000000 0.500000
O O8 0.561415 0.063589 0.039416
O O9 0.821659 0.695895 0.744740
O O10 0.486241 0.741788 0.257628
O O11 0.764744 0.577870 0.409419
O O12 0.138483 0.538438 0.941169
O O13 0.746085 0.601830 0.914119
O O14 0.687284 0.167907 0.411322
O O15 0.965171 0.167894 0.944985
O O16 0.831503 0.093557 0.053791
O O17 0.000000 0.000000 0.500000
#
# Coordination Sequence:
#
# PCOD9016962 Si02
#       8
#     2   2   2   2   2   2   2   2
#     4  10  23  41  66 106 141 181 244 297 358 441
#     4  11  25  44  66 100 143 182 241 305 358 440
#     4  11  23  44  69 103 135 192 240 297 368 446
#     4  10  22  41  72 104 142 195 244 295 387 438
#     4  11  22  45  71  94 140 192 234 307 367 435
#     4  10  21  42  70 105 147 189 240 312 363 454
#     4  10  23  45  65  97 140 185 239 299 368 436
#     4  11  25  42  68 100 133 187 241 301 379 439
#
# _framework density 27.885332999999999
#
# number of rings (size 3 to 8) (size 9 to 14) (size 15 to 20)
#    0.000    1.500    2.500    1.500    3.500    2.000 
#   18.000    0.000    0.000    4.500    0.000    0.000 
#    0.000    0.000    0.000    0.000    0.000    0.000 
#
# Total GULP energy -89096.262799 kJ/mol
# GULP energy per Si atom -5568.516425 kJ/mol
# Density = 2.782186 g / cm^3
# Si number density = 27.885333 Si / 1000 Ang^3
#
#
#
# Elastic Constant Matrix: (Units=GPa)
#
#
# Indices 1 2 3 4 5 6 
#
# 1 128.5030 15.5154 42.4149 -14.7382 5.8244 5.8726
# 2 15.5154 76.9406 26.6339 -35.6725 10.9520 -10.5035
# 3 42.4149 26.6339 142.1142 -34.4011 20.4154 -5.5676
# 4 -14.7382 -35.6725 -34.4011 48.9531 -1.4049 2.9444
# 5 5.8244 10.9520 20.4154 -1.4049 39.8709 -5.4848
# 6 5.8726 -10.5035 -5.5676 2.9444 -5.4848 47.5894
#
#
#
# Elastic Compliance Matrix: (Units=1/GPa)
#
#
# Indices 1 2 3 4 5 6 
#
# 1 0.008815 -0.001022 -0.002435 0.000296 0.000028 -0.001613
# 2 -0.001022 0.021255 0.000946 0.015495 -0.005164 0.003374
# 3 -0.002435 0.000946 0.009915 0.006747 -0.004645 0.000717
# 4 0.000296 0.015495 0.006747 0.036297 -0.006311 0.001200
# 5 0.000028 -0.005164 -0.004645 -0.006311 0.028931 0.002038
# 6 -0.001613 0.003374 0.000717 0.001200 0.002038 0.022201
#
#
# Mechanical properties :
#
#
# Convention : Reuss Voigt Hill
#
# Bulk Modulus (GPa) = 28.60064 57.40958 43.00511
# Shear Modulus (GPa) = 34.70036 44.81559 39.75798
#
# Velocity S-wave (km/s) = 3.53142 4.01326 3.78003
# Velocity P-wave (km/s) = 5.18717 6.48903 5.87427
#
# Compressibility (1/GPa) = 0.03496426
#
# Stress axis : x y z
#
# Youngs Moduli (GPa) = 113.43729 47.04716 100.86101
#
# Poissons Ratio (x) = 0.04807 0.24561
# Poissons Ratio (y) = 0.11590 -0.09544
# Poissons Ratio (z) = 0.27623 -0.04452
#
# Static dielectric constant tensor:
#      x y z
#    x 2.889670 -0.178560 -0.220560 
#    y -0.178560 2.280830 -0.108130 
#    z -0.220560 -0.108130 2.563260 
# 
# From -- ./inp_files/53350.got.cif
#   From: 2010.05.17/outbox.cif.g08.bks.cpg/sg2_27_cif.got.tgz:53350.got - 2010.06.03 11:33:40.
