data_PCOD9016981
_publ_section_title
;
Structure prediction by ZEFSAII (Michael W. Deem and Ramdas Pophale) SiO2 
 PCOD9016981
Probable space group: P -1
;
_chemical_formula_sum "Si O2"
_cell_formula_units_Z 16
_cell_length_a 9.024000
_cell_length_b 13.512521
_cell_length_c 9.026831
_cell_angle_alpha 100.366800
_cell_angle_beta 129.228838
_cell_angle_gamma 106.636224
_cell_volume 713.794273
_symmetry_space_group_name_H-M "P -1"
_symmetry_group_IT_number 2
_symmetry_cell_setting 'triclinic'
loop_
_space_group_symop_operation_xyz
x,y,z
-x,-y,-z
loop_
_atom_site_type_symbol
_atom_site_label
_atom_site_fract_x
_atom_site_fract_y
_atom_site_fract_z
Si Si1 0.717040 0.049786 0.249795
Si Si2 0.114051 0.120351 0.009785
Si Si3 0.349010 0.745134 0.656041
Si Si4 0.005453 0.199399 0.246753
Si Si5 0.326209 0.031446 0.479304
Si Si6 0.452798 0.299841 0.649166
Si Si7 0.162745 0.545018 0.257289
Si Si8 0.779462 0.336805 0.129925
O O1 0.747044 0.169510 0.366464
O O2 0.905471 0.081142 0.252993
O O3 0.679757 0.970950 0.346397
O O4 0.500000 0.000000 0.000000
O O5 0.376846 0.176388 0.155757
O O6 0.097473 0.204626 0.142775
O O7 0.923130 0.077321 0.752603
O O8 0.000000 0.000000 0.000000
O O9 0.225079 0.663797 0.415256
O O10 0.285686 0.664611 0.741663
O O11 0.214552 0.288724 0.504206
O O12 0.809403 0.225065 0.107823
O O13 0.396130 0.167690 0.522945
O O14 0.500000 0.000000 0.500000
O O15 0.597049 0.406624 0.654385
O O16 0.594354 0.326523 0.895884
O O17 0.023845 0.442478 0.260329
O O18 0.000000 0.500000 0.000000
#
# Coordination Sequence:
#
# PCOD9016981 Si02
#       8
#     2   2   2   2   2   2   2   2
#     4  11  24  40  63  95 136 172 213 259 322 392
#     4  12  22  38  61  92 132 170 211 262 321 387
#     4  11  22  42  64  96 131 165 214 271 319 386
#     4  11  23  41  61  93 133 167 214 269 320 383
#     4  12  23  37  64  94 130 174 213 259 327 388
#     4  11  22  40  63  93 129 166 220 264 319 394
#     4  10  21  42  70  93 118 174 217 274 328 379
#     4  10  24  41  68  89 126 167 221 266 332 374
#
# _framework density 22.415419
#
# number of rings (size 3 to 8) (size 9 to 14) (size 15 to 20)
#    0.000    1.000    2.500    5.625    1.750    2.000 
#    0.000    0.000    0.000    3.750    0.000    0.000 
#    0.000    0.000    0.000    0.000    0.000    0.000 
#
# Total GULP energy -89096.878069 kJ/mol
# GULP energy per Si atom -5568.554879 kJ/mol
# Density = 2.236440 g / cm^3
# Si number density = 22.415419 Si / 1000 Ang^3
#
#
#
# Elastic Constant Matrix: (Units=GPa)
#
#
# Indices 1 2 3 4 5 6 
#
# 1 85.6936 18.5907 26.1707 0.8358 8.3274 30.1941
# 2 18.5907 71.5823 27.1513 6.5461 6.5818 39.2894
# 3 26.1707 27.1513 122.5626 1.8651 4.9906 9.3650
# 4 0.8358 6.5461 1.8651 31.1917 6.7331 4.3042
# 5 8.3274 6.5818 4.9906 6.7331 33.5653 7.1328
# 6 30.1941 39.2894 9.3650 4.3042 7.1328 45.0664
#
#
#
# Elastic Compliance Matrix: (Units=1/GPa)
#
#
# Indices 1 2 3 4 5 6 
#
# 1 0.017136 0.005326 -0.003623 0.001115 -0.001750 -0.015201
# 2 0.005326 0.030983 -0.005741 -0.002300 0.000120 -0.029186
# 3 -0.003623 -0.005741 0.009809 0.000092 -0.000617 0.005483
# 4 0.001115 -0.002300 0.000092 0.034037 -0.006457 -0.000990
# 5 -0.001750 0.000120 -0.000617 -0.006457 0.032291 -0.003298
# 6 -0.015201 -0.029186 0.005483 -0.000990 -0.003298 0.057296
#
#
# Mechanical properties :
#
#
# Convention : Reuss Voigt Hill
#
# Bulk Modulus (GPa) = 20.05927 47.07377 33.56652
# Shear Modulus (GPa) = 24.24305 35.82640 30.03473
#
# Velocity S-wave (km/s) = 3.29224 4.00220 3.66445
# Velocity P-wave (km/s) = 4.83943 6.51176 5.73686
#
# Compressibility (1/GPa) = 0.04985226
#
# Stress axis : x y z
#
# Youngs Moduli (GPa) = 58.35775 32.27607 101.94434
#
# Poissons Ratio (x) = -0.17190 0.36935
# Poissons Ratio (y) = -0.31082 0.58523
# Poissons Ratio (z) = 0.21143 0.18529
#
# Static dielectric constant tensor:
#      x y z
#    x 1.925900 -0.003560 -0.020250 
#    y -0.003560 1.942780 -0.007290 
#    z -0.020250 -0.007290 1.899520 
# 
# From -- ./inp_files/188002.got.cif
#   From: 2010.05.17/outbox.cif.g08.bks.cpg/sg2_95_cif.got.tgz:188002.got - 2010.06.03 11:33:40.
