data_PCOD9016016
_publ_section_title
;
Structure prediction by ZEFSAII (Michael W. Deem and Ramdas Pophale) SiO2 
 PCOD9016016
Probable space group: P -1
;
_chemical_formula_sum "Si O2"
_cell_formula_units_Z 16
_cell_length_a 4.970286
_cell_length_b 24.503514
_cell_length_c 27.846143
_cell_angle_alpha 12.799648
_cell_angle_beta 71.718469
_cell_angle_gamma 67.941161
_cell_volume 673.150476
_symmetry_space_group_name_H-M "P -1"
_symmetry_group_IT_number 2
_symmetry_cell_setting 'triclinic'
loop_
_space_group_symop_operation_xyz
x,y,z
-x,-y,-z
loop_
_atom_site_type_symbol
_atom_site_label
_atom_site_fract_x
_atom_site_fract_y
_atom_site_fract_z
Si Si1 0.747550 0.190350 0.517483
Si Si2 0.833767 0.922158 0.501923
Si Si3 0.635079 0.756516 0.081605
Si Si4 0.301675 0.090313 0.733790
Si Si5 0.715856 0.093877 0.208014
Si Si6 0.344152 0.670285 0.761635
Si Si7 0.914695 0.335731 0.777038
Si Si8 0.179587 0.517832 0.521745
O O1 0.682491 0.489954 0.277917
O O2 0.969222 0.115280 0.524174
O O3 0.457005 0.107262 0.594995
O O4 0.942568 0.014915 0.700294
O O5 0.543657 0.834390 0.587175
O O6 0.042605 0.735995 0.690895
O O7 0.737301 0.210438 0.283073
O O8 0.900941 0.707714 0.146648
O O9 0.323270 0.814908 0.078914
O O10 0.557975 0.974086 0.857995
O O11 0.299884 0.896067 0.857671
O O12 0.300052 0.361849 0.477257
O O13 0.987967 0.204735 0.681677
O O14 0.538002 0.369776 0.004515
O O15 0.142678 0.312363 0.739964
O O16 0.500000 0.500000 0.500000
O O17 0.000000 0.500000 0.500000
#
# Coordination Sequence:
#
# PCOD9016016 Si02
#       8
#     2   2   2   2   2   2   2   2
#     4  12  22  38  62  91 129 160 217 267 321 375
#     4  10  22  40  61  87 121 167 212 268 308 390
#     4  12  22  43  65  96 127 174 210 269 318 379
#     4  10  25  42  70  92 132 170 214 260 334 372
#     4  12  24  40  62  93 127 166 208 274 319 383
#     4  10  22  41  60  86 124 163 216 258 324 378
#     4  10  24  42  65  93 134 159 217 268 304 388
#     4  10  21  42  66  90 131 169 204 264 320 372
#
# _framework density 23.768832
#
# number of rings (size 3 to 8) (size 9 to 14) (size 15 to 20)
#    0.750    0.500    2.500    3.000    0.000    6.000 
#    0.000    3.750    0.000    0.000    0.000    0.000 
#    0.000    0.000    0.000    0.000    0.000    0.000 
#
# Total GULP energy -89471.867842 kJ/mol
# GULP energy per Si atom -5591.991740 kJ/mol
# Density = 2.371473 g / cm^3
# Si number density = 23.768832 Si / 1000 Ang^3
#
#
#
# Elastic Constant Matrix: (Units=GPa)
#
#
# Indices 1 2 3 4 5 6 
#
# 1 97.5431 23.1320 16.9155 4.2439 15.2313 4.4906
# 2 23.1320 138.6551 22.1113 -3.5230 -4.7258 -11.4338
# 3 16.9155 22.1113 79.2326 4.3567 15.3620 12.3971
# 4 4.2439 -3.5230 4.3567 40.8221 7.4270 10.5800
# 5 15.2313 -4.7258 15.3620 7.4270 24.5831 0.9349
# 6 4.4906 -11.4338 12.3971 10.5800 0.9349 35.1570
#
#
#
# Elastic Compliance Matrix: (Units=1/GPa)
#
#
# Indices 1 2 3 4 5 6 
#
# 1 0.012192 -0.002487 -0.000002 0.000600 -0.008123 -0.002330
# 2 -0.002487 0.008756 -0.003662 -0.000788 0.005578 0.004545
# 3 -0.000002 -0.003662 0.016948 0.001910 -0.011588 -0.007434
# 4 0.000600 -0.000788 0.001910 0.028376 -0.009937 -0.009281
# 5 -0.008123 0.005578 -0.011588 -0.009937 0.056707 0.008420
# 6 -0.002330 0.004545 -0.007434 -0.009281 0.008420 0.035410
#
#
# Mechanical properties :
#
#
# Convention : Reuss Voigt Hill
#
# Bulk Modulus (GPa) = 39.07271 48.86094 43.96683
# Shear Modulus (GPa) = 27.89835 36.99725 32.44780
#
# Velocity S-wave (km/s) = 3.42970 3.94959 3.69879
# Velocity P-wave (km/s) = 5.67081 6.43431 6.06459
#
# Compressibility (1/GPa) = 0.02559331
#
# Stress axis : x y z
#
# Youngs Moduli (GPa) = 82.02282 114.20799 59.00332
#
# Poissons Ratio (x) = 0.28408 0.00013
# Poissons Ratio (y) = 0.20402 0.21606
# Poissons Ratio (z) = 0.00017 0.41820
#
# Static dielectric constant tensor:
#      x y z
#    x 1.850100 -0.034430 -0.019690 
#    y -0.034430 1.922260 -0.002500 
#    z -0.019690 -0.002500 1.928030 
# 
# From -- ./inp_files/605098.got.cif
#   From: 2010.05.17/outbox.cif.g08.bks.cpg/sg2_303_cif.got.tgz:605098.got - 2010.06.03 11:33:40.
