data_PCOD9016640
_publ_section_title
;
Structure prediction by ZEFSAII (Michael W. Deem and Ramdas Pophale) SiO2 
 PCOD9016640
Probable space group: P -1
;
_chemical_formula_sum "Si O2"
_cell_formula_units_Z 16
_cell_length_a 16.604702
_cell_length_b 9.687577
_cell_length_c 14.812038
_cell_angle_alpha 132.043913
_cell_angle_beta 47.842381
_cell_angle_gamma 151.491268
_cell_volume 821.242565
_symmetry_space_group_name_H-M "P -1"
_symmetry_group_IT_number 2
_symmetry_cell_setting 'triclinic'
loop_
_space_group_symop_operation_xyz
x,y,z
-x,-y,-z
loop_
_atom_site_type_symbol
_atom_site_label
_atom_site_fract_x
_atom_site_fract_y
_atom_site_fract_z
Si Si1 0.496626 0.338909 0.510179
Si Si2 0.021545 0.509360 0.732412
Si Si3 0.091307 0.780699 0.614292
Si Si4 0.881662 0.221789 0.029966
Si Si5 0.492355 0.281621 0.868405
Si Si6 0.402286 0.906876 0.625863
Si Si7 0.831252 0.882405 0.616929
Si Si8 0.142522 0.199475 0.230704
O O1 0.500000 0.500000 0.500000
O O2 0.541943 0.182450 0.385998
O O3 0.652007 0.596989 0.575603
O O4 0.299923 0.063860 0.575628
O O5 0.022859 0.647493 0.707567
O O6 0.048348 0.656665 0.868847
O O7 0.198739 0.627162 0.639273
O O8 0.871162 0.155887 0.696284
O O9 0.000000 0.500000 0.500000
O O10 0.017958 0.877632 0.678153
O O11 0.681526 0.024990 0.087386
O O12 0.000000 0.500000 0.000000
O O13 0.892905 0.027566 0.902118
O O14 0.691325 0.481742 0.802981
O O15 0.441499 0.161422 0.750388
O O16 0.500000 0.500000 0.000000
O O17 0.500000 0.000000 0.500000
O O18 0.816680 0.810360 0.702120
O O19 0.000000 0.000000 0.500000
#
# Coordination Sequence:
#
# PCOD9016640 Si02
#       8
#     2   2   2   2   2   2   2   2
#     4  12  25  39  62  99 138 169 213 276 335 390
#     4  11  23  40  65  94 132 172 218 272 326 395
#     4  12  26  42  63  98 138 170 216 274 338 387
#     4  10  21  42  68  97 124 170 228 270 320 393
#     4   9  21  37  63  94 122 164 217 263 321 385
#     4  11  20  38  66  95 125 169 217 267 325 396
#     4  12  23  39  65  97 131 171 220 263 335 392
#     4  11  23  42  67  93 132 174 217 273 323 397
#
# _framework density 19.482671
#
# number of rings (size 3 to 8) (size 9 to 14) (size 15 to 20)
#    0.000    1.000    3.750    3.750    1.750    0.500 
#    0.000    0.000    0.000    1.500    0.000    0.000 
#    0.000    0.000    0.000    0.000    0.000    0.000 
#
# Total GULP energy -89144.888682 kJ/mol
# GULP energy per Si atom -5571.555543 kJ/mol
# Density = 1.943833 g / cm^3
# Si number density = 19.482671 Si / 1000 Ang^3
#
#
#
# Elastic Constant Matrix: (Units=GPa)
#
#
# Indices 1 2 3 4 5 6 
#
# 1 89.2691 35.3356 25.2718 5.8392 17.7508 -6.6206
# 2 35.3356 149.6242 47.4680 6.0177 11.9848 14.3305
# 3 25.2718 47.4680 110.0691 9.8261 23.1611 5.3016
# 4 5.8392 6.0177 9.8261 30.8575 2.5285 2.6460
# 5 17.7508 11.9848 23.1611 2.5285 30.3614 -6.1512
# 6 -6.6206 14.3305 5.3016 2.6460 -6.1512 35.7025
#
#
#
# Elastic Compliance Matrix: (Units=1/GPa)
#
#
# Indices 1 2 3 4 5 6 
#
# 1 0.014010 -0.002818 -0.000793 -0.001635 -0.005734 0.002980
# 2 -0.002818 0.008618 -0.002833 0.000093 -0.000336 -0.003626
# 3 -0.000793 -0.002833 0.012534 -0.002436 -0.008203 -0.002104
# 4 -0.001635 0.000093 -0.002436 0.033740 -0.000554 -0.002575
# 5 -0.005734 -0.000336 -0.008203 -0.000554 0.044341 0.007970
# 6 0.002980 -0.003626 -0.002104 -0.002575 0.007970 0.031894
#
#
# Mechanical properties :
#
#
# Convention : Reuss Voigt Hill
#
# Bulk Modulus (GPa) = 44.89084 62.79035 53.84059
# Shear Modulus (GPa) = 30.22127 35.44341 32.83234
#
# Velocity S-wave (km/s) = 3.94278 4.26987 4.10958
# Velocity P-wave (km/s) = 6.61958 7.52382 7.08614
#
# Compressibility (1/GPa) = 0.02227626
#
# Stress axis : x y z
#
# Youngs Moduli (GPa) = 71.37816 116.03808 79.78487
#
# Poissons Ratio (x) = 0.32694 0.06323
# Poissons Ratio (y) = 0.20111 0.22600
# Poissons Ratio (z) = 0.05657 0.32869
#
# Static dielectric constant tensor:
#      x y z
#    x 1.684400 -0.018680 -0.022030 
#    y -0.018680 1.736970 0.009420 
#    z -0.022030 0.009420 1.668520 
# 
# From -- ./inp_files/176100.got.cif
#   From: 2010.05.17/outbox.cif.g08.bks.cpg/sg2_89_cif.got.tgz:176100.got - 2010.06.03 11:33:40.
