data_PCOD9016335
_publ_section_title
;
Structure prediction by ZEFSAII (Michael W. Deem and Ramdas Pophale) SiO2 
 PCOD9016335
Probable space group: P -1
;
_chemical_formula_sum "Si O2"
_cell_formula_units_Z 16
_cell_length_a 18.139079
_cell_length_b 12.420236
_cell_length_c 21.382824
_cell_angle_alpha 37.534767
_cell_angle_beta 17.910408
_cell_angle_gamma 29.330366
_cell_volume 703.980030
_symmetry_space_group_name_H-M "P -1"
_symmetry_group_IT_number 2
_symmetry_cell_setting 'triclinic'
loop_
_space_group_symop_operation_xyz
x,y,z
-x,-y,-z
loop_
_atom_site_type_symbol
_atom_site_label
_atom_site_fract_x
_atom_site_fract_y
_atom_site_fract_z
Si Si1 0.561167 0.691533 0.569065
Si Si2 0.534950 0.714787 0.927403
Si Si3 0.121841 0.109029 0.978710
Si Si4 0.757193 0.217594 0.636505
Si Si5 0.931220 0.562577 0.953917
Si Si6 0.405041 0.986855 0.678873
Si Si7 0.937228 0.375892 0.657046
Si Si8 0.309511 0.986166 0.106384
O O1 0.766736 0.423082 0.528750
O O2 0.470840 0.809764 0.655247
O O3 0.710412 0.782528 0.367765
O O4 0.223654 0.787856 0.771921
O O5 0.334893 0.629944 0.139176
O O6 0.521250 0.829504 0.949798
O O7 0.838477 0.506460 0.743183
O O8 0.355355 0.916201 0.928101
O O9 0.132858 0.317723 0.871206
O O10 0.208398 0.009288 0.885006
O O11 0.801361 0.134459 0.710715
O O12 0.420644 0.320864 0.833950
O O13 0.000000 0.000000 0.500000
O O14 0.949960 0.758199 0.827151
O O15 0.000000 0.500000 0.000000
O O16 0.746335 0.875481 0.478746
O O17 0.000000 0.500000 0.500000
O O18 0.500000 0.000000 0.000000
#
# Coordination Sequence:
#
# PCOD9016335 Si02
#       8
#     2   2   2   2   2   2   2   2
#     4  10  24  43  62  96 134 173 222 276 338 408
#     4  11  23  42  68  95 141 176 220 283 342 408
#     4  11  21  41  67  93 131 175 218 279 336 401
#     4  10  24  44  66  95 133 172 226 283 336 405
#     4  10  21  42  67  94 127 170 222 272 339 403
#     4  11  23  41  65  97 131 175 224 272 335 407
#     4  11  24  41  65 101 133 173 221 276 344 405
#     4  10  23  44  65  96 132 181 227 275 351 404
#
# _framework density 22.727916
#
# number of rings (size 3 to 8) (size 9 to 14) (size 15 to 20)
#    0.000    1.500    3.750    0.375    3.500    2.000 
#   13.500    0.625    0.000    0.000    0.000    0.000 
#    0.000    0.000    0.000    0.000    0.000    0.000 
#
# Total GULP energy -89396.268580 kJ/mol
# GULP energy per Si atom -5587.266786 kJ/mol
# Density = 2.267619 g / cm^3
# Si number density = 22.727916 Si / 1000 Ang^3
#
#
#
# Elastic Constant Matrix: (Units=GPa)
#
#
# Indices 1 2 3 4 5 6 
#
# 1 108.5702 41.4017 13.5732 -10.4770 29.0287 -3.6160
# 2 41.4017 166.1927 33.0920 -8.1764 18.7707 -13.2817
# 3 13.5732 33.0920 63.8519 -1.1702 13.4567 -9.1964
# 4 -10.4770 -8.1764 -1.1702 10.6492 0.5644 0.7947
# 5 29.0287 18.7707 13.4567 0.5644 30.1094 -2.0000
# 6 -3.6160 -13.2817 -9.1964 0.7947 -2.0000 40.2922
#
#
#
# Elastic Compliance Matrix: (Units=1/GPa)
#
#
# Indices 1 2 3 4 5 6 
#
# 1 0.014802 -0.001588 0.000878 0.014176 -0.013936 0.000034
# 2 -0.001588 0.007503 -0.002877 0.003867 -0.001833 0.001507
# 3 0.000878 -0.002877 0.018973 0.000900 -0.007346 0.003079
# 4 0.014176 0.003867 0.000900 0.111933 -0.018603 -0.000379
# 5 -0.013936 -0.001833 -0.007346 -0.018603 0.051382 -0.000614
# 6 0.000034 0.001507 0.003079 -0.000379 -0.000614 0.025998
#
#
# Mechanical properties :
#
#
# Convention : Reuss Voigt Hill
#
# Bulk Modulus (GPa) = 29.32086 57.19431 43.25758
# Shear Modulus (GPa) = 20.06957 32.91333 26.49145
#
# Velocity S-wave (km/s) = 2.97482 3.80958 3.41778
# Velocity P-wave (km/s) = 4.97274 6.67607 5.88635
#
# Compressibility (1/GPa) = 0.03410541
#
# Stress axis : x y z
#
# Youngs Moduli (GPa) = 67.55963 133.27448 52.70531
#
# Poissons Ratio (x) = 0.21165 -0.04630
# Poissons Ratio (y) = 0.10729 0.15162
# Poissons Ratio (z) = -0.05934 0.38341
#
# Static dielectric constant tensor:
#      x y z
#    x 1.867630 0.007370 -0.034070 
#    y 0.007370 1.904340 -0.044010 
#    z -0.034070 -0.044010 1.863840 
# 
# From -- ./inp_files/600058.got.cif
#   From: 2010.05.17/outbox.cif.g08.bks.cpg/sg2_301_cif.got.tgz:600058.got - 2010.06.03 11:33:40.
