data_PCOD9016858
_publ_section_title
;
Structure prediction by ZEFSAII (Michael W. Deem and Ramdas Pophale) SiO2 
 PCOD9016858
Probable space group: P -1
;
_chemical_formula_sum "Si O2"
_cell_formula_units_Z 14
_cell_length_a 5.117265
_cell_length_b 5.247987
_cell_length_c 19.005696
_cell_angle_alpha 88.106334
_cell_angle_beta 88.233578
_cell_angle_gamma 86.696449
_cell_volume 509.064013
_symmetry_space_group_name_H-M "P -1"
_symmetry_group_IT_number 2
_symmetry_cell_setting 'triclinic'
loop_
_space_group_symop_operation_xyz
x,y,z
-x,-y,-z
loop_
_atom_site_type_symbol
_atom_site_label
_atom_site_fract_x
_atom_site_fract_y
_atom_site_fract_z
Si Si1 0.106507 0.024060 0.905039
Si Si2 0.794444 0.382687 0.297851
Si Si3 0.588014 0.308405 0.939449
Si Si4 0.205607 0.320126 0.175728
Si Si5 0.455633 0.500718 0.416676
Si Si6 0.384796 0.108520 0.766213
Si Si7 0.747214 0.991446 0.550922
O O1 0.380290 0.090760 0.935871
O O2 0.155227 0.138881 0.825898
O O3 0.875806 0.175490 0.947145
O O4 0.003791 0.752984 0.883307
O O5 0.736236 0.450456 0.378592
O O6 0.593501 0.608823 0.266146
O O7 0.050682 0.398333 0.247498
O O8 0.711908 0.093385 0.288713
O O9 0.616958 0.479645 0.866904
O O10 0.500000 0.500000 0.000000
O O11 0.379941 0.061582 0.196981
O O12 0.500000 0.500000 0.500000
O O13 0.279477 0.266083 0.403400
O O14 0.298012 0.766522 0.400762
O O15 0.500000 0.000000 0.500000
O O16 0.000000 0.000000 0.500000
#
# Coordination Sequence:
#
# PCOD9016858 Si02
#       7
#     2   2   2   2   2   2   2
#     4  11  24  46  73 105 152 197 256 312 382 449
#     4  11  24  45  74 108 146 199 254 316 386 455
#     4  12  26  46  75 113 153 201 257 318 387 461
#     4  11  26  46  77 103 157 198 261 319 383 460
#     4  10  22  44  70 106 147 189 244 310 379 457
#     4  11  23  45  74 108 144 200 258 311 377 458
#     4  10  21  42  69  96 139 186 230 289 366 441
#
# _framework density 27.501455
#
# number of rings (size 3 to 8) (size 9 to 14) (size 15 to 20)
#    0.000    1.143    2.857    2.571    2.000    1.143 
#   15.429    0.000    0.000    0.000    0.000    0.000 
#    0.000    0.000    0.000    0.000    0.000    0.000 
#
# Total GULP energy -78332.593679 kJ/mol
# GULP energy per Si atom -5595.185263 kJ/mol
# Density = 2.743886 g / cm^3
# Si number density = 27.501455 Si / 1000 Ang^3
#
#
#
# Elastic Constant Matrix: (Units=GPa)
#
#
# Indices 1 2 3 4 5 6 
#
# 1 150.6010 32.4007 44.2586 4.7345 -48.2732 -13.2961
# 2 32.4007 161.9431 28.4139 6.7828 -31.4481 -6.1871
# 3 44.2586 28.4139 185.2901 37.0884 -51.6456 -17.6333
# 4 4.7345 6.7828 37.0884 43.4977 -17.8945 -7.8686
# 5 -48.2732 -31.4481 -51.6456 -17.8945 46.5213 6.1816
# 6 -13.2961 -6.1871 -17.6333 -7.8686 6.1816 40.6176
#
#
#
# Elastic Compliance Matrix: (Units=1/GPa)
#
#
# Indices 1 2 3 4 5 6 
#
# 1 0.010756 0.000236 0.000438 0.004279 0.013110 0.002581
# 2 0.000236 0.007172 0.000288 0.001089 0.005748 0.000631
# 3 0.000438 0.000288 0.008494 -0.003502 0.008478 0.001906
# 4 0.004279 0.001089 -0.003502 0.031360 0.012797 0.004174
# 5 0.013110 0.005748 0.008478 0.012797 0.052883 0.003278
# 6 0.002581 0.000631 0.001906 0.004174 0.003278 0.026698
#
#
# Mechanical properties :
#
#
# Convention : Reuss Voigt Hill
#
# Bulk Modulus (GPa) = 35.27856 78.66451 56.97153
# Shear Modulus (GPa) = 34.50961 52.31139 43.41050
#
# Velocity S-wave (km/s) = 3.54620 4.36607 3.97732
# Velocity P-wave (km/s) = 5.44271 7.35409 6.46938
#
# Compressibility (1/GPa) = 0.02834583
#
# Stress axis : x y z
#
# Youngs Moduli (GPa) = 92.97005 139.43202 117.73594
#
# Poissons Ratio (x) = -0.03296 -0.05153
# Poissons Ratio (y) = -0.02198 -0.03390
# Poissons Ratio (z) = -0.04069 -0.04015
#
# Static dielectric constant tensor:
#      x y z
#    x 2.173830 0.039270 0.011480 
#    y 0.039270 2.280070 -0.043130 
#    z 0.011480 -0.043130 2.198130 
# 
# From -- ./inp_files/580719.got.cif
#   From: 2010.05.17/outbox.cif.g08.bks.cpg/sg2_291_cif.got.tgz:580719.got - 2010.06.03 11:33:40.
