data_PCOD9016435
_publ_section_title
;
Structure prediction by ZEFSAII (Michael W. Deem and Ramdas Pophale) SiO2 
 PCOD9016435
Probable space group: P -1
;
_chemical_formula_sum "Si O2"
_cell_formula_units_Z 10
_cell_length_a 14.725205
_cell_length_b 9.425643
_cell_length_c 6.731884
_cell_angle_alpha 89.613969
_cell_angle_beta 97.804489
_cell_angle_gamma 153.243821
_cell_volume 402.772554
_symmetry_space_group_name_H-M "P -1"
_symmetry_group_IT_number 2
_symmetry_cell_setting 'triclinic'
loop_
_space_group_symop_operation_xyz
x,y,z
-x,-y,-z
loop_
_atom_site_type_symbol
_atom_site_label
_atom_site_fract_x
_atom_site_fract_y
_atom_site_fract_z
Si Si1 0.821257 0.197842 0.294714
Si Si2 0.680013 0.190353 0.913599
Si Si3 0.132044 0.053020 0.369497
Si Si4 0.966521 0.781029 0.728737
Si Si5 0.423712 0.207693 0.400845
O O1 0.000000 0.500000 0.500000
O O2 0.852062 0.085805 0.204753
O O3 0.621225 0.902430 0.383292
O O4 0.824691 0.312912 0.116284
O O5 0.786989 0.458987 0.808959
O O6 0.597987 0.956347 0.743290
O O7 0.500000 0.000000 0.000000
O O8 0.035110 0.053360 0.228865
O O9 0.242765 0.073018 0.298934
O O10 0.341738 0.403121 0.542903
O O11 0.957838 0.767084 0.483671
#
# Coordination Sequence:
#
# PCOD9016435 Si02
#       5
#     2   2   2   2   2
#     4  11  23  41  71  96 130 171 216 278 326 378
#     4  12  26  41  69 102 128 172 229 270 319 388
#     4   9  21  42  70  96 134 181 203 274 341 385
#     4  10  21  42  67  98 130 168 226 263 329 391
#     4  10  22  44  68  94 136 171 220 269 327 393
#
# _framework density 24.827908999999998
#
# number of rings (size 3 to 8) (size 9 to 14) (size 15 to 20)
#    0.000    1.600    2.000    1.800    2.800    1.600 
#    0.000   18.000    0.000    0.000    0.000    0.000 
#    0.000    0.000    0.000    0.000    0.000    0.000 
#
# Total GULP energy -55810.301921 kJ/mol
# GULP energy per Si atom -5581.030192 kJ/mol
# Density = 2.477140 g / cm^3
# Si number density = 24.827909 Si / 1000 Ang^3
#
#
#
# Elastic Constant Matrix: (Units=GPa)
#
#
# Indices 1 2 3 4 5 6 
#
# 1 155.9180 30.1947 68.3912 -38.7200 -8.2253 -3.7206
# 2 30.1947 95.0771 71.7422 -46.6022 1.8120 -13.0918
# 3 68.3912 71.7422 123.5779 -34.3570 -13.5356 -5.9901
# 4 -38.7200 -46.6022 -34.3570 28.8586 9.9677 7.3855
# 5 -8.2253 1.8120 -13.5356 9.9677 39.2153 -17.8004
# 6 -3.7206 -13.0918 -5.9901 7.3855 -17.8004 35.8617
#
#
#
# Elastic Compliance Matrix: (Units=1/GPa)
#
#
# Indices 1 2 3 4 5 6 
#
# 1 -0.002711 -0.029234 0.006514 -0.053971 0.022352 0.012344
# 2 -0.029234 -0.063890 0.020393 -0.147215 0.057600 0.035957
# 3 0.006514 0.020393 0.006364 0.058152 -0.017333 -0.011396
# 4 -0.053971 -0.147215 0.058152 -0.257458 0.106538 0.056274
# 5 0.022352 0.057600 -0.017333 0.106538 -0.008018 -0.005469
# 6 0.012344 0.035957 -0.011396 0.056274 -0.005469 0.026085
#
#
# Mechanical properties :
#
#
# Convention : Reuss Voigt Hill
#
# Bulk Modulus (GPa) = -15.41038 79.46989 32.02975
# Shear Modulus (GPa) = -15.79258 34.40346 9.30544
#
# Velocity S-wave (km/s) = -2.52480 3.72651 1.93807
# Velocity P-wave (km/s) = 3.83665 7.11292 4.23519
#
# Compressibility (1/GPa) = -0.06489132
#
# Stress axis : x y z
#
# Youngs Moduli (GPa) = -368.80658 -15.65190 157.12630
#
# Poissons Ratio (x) = -0.45758 -1.02351
# Poissons Ratio (y) = -10.78187 -3.20435
# Poissons Ratio (z) = 2.40239 0.31920
#
# Static dielectric constant tensor:
#      x y z
#    x 2.115950 0.000760 0.071790 
#    y 0.000760 2.016880 0.005680 
#    z 0.071790 0.005680 1.957730 
# 
# From -- ./inp_files/15721.got.cif
#   From: 2010.05.17/outbox.cif.g08.bks.cpg/sg2_8_cif.got.tgz:15721.got - 2010.06.03 11:33:40.
