data_PCOD9016795
_publ_section_title
;
Structure prediction by ZEFSAII (Michael W. Deem and Ramdas Pophale) SiO2 
 PCOD9016795
Probable space group: P -1
;
_chemical_formula_sum "Si O2"
_cell_formula_units_Z 12
_cell_length_a 5.496203
_cell_length_b 15.313976
_cell_length_c 16.218504
_cell_angle_alpha 155.739419
_cell_angle_beta 97.779286
_cell_angle_gamma 74.997976
_cell_volume 524.074810
_symmetry_space_group_name_H-M "P -1"
_symmetry_group_IT_number 2
_symmetry_cell_setting 'triclinic'
loop_
_space_group_symop_operation_xyz
x,y,z
-x,-y,-z
loop_
_atom_site_type_symbol
_atom_site_label
_atom_site_fract_x
_atom_site_fract_y
_atom_site_fract_z
Si Si1 0.233185 0.463145 0.043855
Si Si2 0.067763 0.727809 0.419930
Si Si3 0.361777 0.869903 0.324380
Si Si4 0.546561 0.823298 0.775113
Si Si5 0.106222 0.730755 0.753487
Si Si6 0.619358 0.695890 0.494858
O O1 0.123341 0.520071 0.179373
O O2 0.350339 0.658756 0.194543
O O3 0.458056 0.229571 0.832705
O O4 0.000000 0.500000 0.000000
O O5 0.344572 0.725977 0.465185
O O6 0.851651 0.715006 0.464866
O O7 0.920986 0.962460 0.568269
O O8 0.500000 0.000000 0.500000
O O9 0.310950 0.725237 0.686091
O O10 0.566990 0.870710 0.720106
O O11 0.842355 0.675223 0.680501
O O12 0.500000 0.000000 0.000000
O O13 0.273974 0.557927 0.680482
O O14 0.000000 0.000000 0.000000
#
# Coordination Sequence:
#
# PCOD9016795 Si02
#       6
#     2   2   2   2   2   2
#     4  11  25  46  77 104 142 199 254 285 347 458
#     4  12  27  46  69 111 147 180 233 312 371 406
#     4  11  24  48  77 103 145 200 248 288 357 448
#     4  10  21  42  69  93 127 182 237 273 345 441
#     4  10  21  42  69  93 127 184 233 276 344 441
#     4  12  25  44  67 104 144 175 231 310 365 409
#
# _framework density 22.897493000000001
#
# number of rings (size 3 to 8) (size 9 to 14) (size 15 to 20)
#    0.000    1.000    1.667    4.500    4.667    0.000 
#   18.000    0.000    0.000    0.000    0.000    0.000 
#    0.000    0.000    0.000    0.000    0.000    0.000 
#
# Total GULP energy -66985.426469 kJ/mol
# GULP energy per Si atom -5582.118872 kJ/mol
# Density = 2.284538 g / cm^3
# Si number density = 22.897493 Si / 1000 Ang^3
#
#
#
# Elastic Constant Matrix: (Units=GPa)
#
#
# Indices 1 2 3 4 5 6 
#
# 1 185.7824 39.6844 46.2096 -23.1012 -14.8343 -10.8631
# 2 39.6844 78.6663 30.2308 -18.5584 -10.9542 -14.3903
# 3 46.2096 30.2308 138.8776 -33.5758 -25.6332 -2.2019
# 4 -23.1012 -18.5584 -33.5758 44.9160 3.6614 -9.0550
# 5 -14.8343 -10.9542 -25.6332 3.6614 53.6825 -1.9215
# 6 -10.8631 -14.3903 -2.2019 -9.0550 -1.9215 64.0646
#
#
#
# Elastic Compliance Matrix: (Units=1/GPa)
#
#
# Indices 1 2 3 4 5 6 
#
# 1 0.006439 -0.002170 -0.001116 0.001689 0.000718 0.000826
# 2 -0.002170 0.016595 -0.001096 0.005597 0.002031 0.004174
# 3 -0.001116 -0.001096 0.010085 0.006383 0.003881 0.000930
# 4 0.001689 0.005597 0.006383 0.031255 0.002749 0.006263
# 5 0.000718 0.002031 0.003881 0.002749 0.020969 0.001729
# 6 0.000826 0.004174 0.000930 0.006263 0.001729 0.017656
#
#
# Mechanical properties :
#
#
# Convention : Reuss Voigt Hill
#
# Bulk Modulus (GPa) = 41.06062 70.61952 55.84007
# Shear Modulus (GPa) = 41.70806 51.67937 46.69372
#
# Velocity S-wave (km/s) = 4.27255 4.75593 4.52070
# Velocity P-wave (km/s) = 6.50468 7.81454 7.18950
#
# Compressibility (1/GPa) = 0.02435423
#
# Stress axis : x y z
#
# Youngs Moduli (GPa) = 155.29201 60.26092 99.15836
#
# Poissons Ratio (x) = 0.13076 0.11069
# Poissons Ratio (y) = 0.33697 0.10869
# Poissons Ratio (z) = 0.17336 0.06605
#
# Static dielectric constant tensor:
#      x y z
#    x 2.082420 0.003140 0.123580 
#    y 0.003140 1.867990 -0.021560 
#    z 0.123580 -0.021560 2.013930 
# 
# From -- ./inp_files/484645.got.cif
#   From: 2010.05.17/outbox.cif.g08.bks.cpg/sg2_243_cif.got.tgz:484645.got - 2010.06.03 11:33:40.
