data_PCOD9016853
_publ_section_title
;
Structure prediction by ZEFSAII (Michael W. Deem and Ramdas Pophale) SiO2 
 PCOD9016853
Probable space group: P -1
;
_chemical_formula_sum "Si O2"
_cell_formula_units_Z 16
_cell_length_a 22.160892
_cell_length_b 5.156300
_cell_length_c 5.344744
_cell_angle_alpha 87.363572
_cell_angle_beta 95.395325
_cell_angle_gamma 91.742373
_cell_volume 607.176073
_symmetry_space_group_name_H-M "P -1"
_symmetry_group_IT_number 2
_symmetry_cell_setting 'triclinic'
loop_
_space_group_symop_operation_xyz
x,y,z
-x,-y,-z
loop_
_atom_site_type_symbol
_atom_site_label
_atom_site_fract_x
_atom_site_fract_y
_atom_site_fract_z
Si Si1 0.725633 0.815408 0.575868
Si Si2 0.928624 0.553865 0.479748
Si Si3 0.230953 0.569016 0.990417
Si Si4 0.956597 0.747663 0.981138
Si Si5 0.822438 0.219997 0.525440
Si Si6 0.650086 0.160416 0.852459
Si Si7 0.394363 0.479908 0.546093
Si Si8 0.439196 0.997453 0.818920
O O1 0.749763 0.693021 0.851087
O O2 0.677047 0.613038 0.442459
O O3 0.784599 0.954643 0.470768
O O4 0.680751 0.043186 0.624372
O O5 0.917771 0.723123 0.715173
O O6 0.893362 0.279780 0.509601
O O7 0.000000 0.500000 0.500000
O O8 0.916400 0.708050 0.213669
O O9 0.192581 0.702704 0.195809
O O10 0.293369 0.730787 0.978779
O O11 0.201582 0.581328 0.706066
O O12 0.000000 0.500000 0.000000
O O13 0.000000 0.000000 0.000000
O O14 0.607518 0.388442 0.733692
O O15 0.613542 0.948826 0.003198
O O16 0.421182 0.713609 0.716325
O O17 0.434974 0.227689 0.605929
O O18 0.500000 0.000000 0.000000
#
# Coordination Sequence:
#
# PCOD9016853 Si02
#       8
#     2   2   2   2   2   2   2   2
#     4  10  23  45  72 101 136 192 243 303 371 434
#     4  10  22  43  70 101 143 191 236 293 365 440
#     4  10  24  40  71 103 140 187 241 306 366 435
#     4  10  21  42  69  96 134 183 237 278 341 423
#     4  11  23  46  66 107 148 183 244 306 369 439
#     4  10  24  43  72  95 136 189 236 298 361 433
#     4  11  24  46  68 100 139 187 240 293 361 430
#     4  12  27  43  70 106 146 188 239 299 364 436
#
# _framework density 26.351500000000001
#
# number of rings (size 3 to 8) (size 9 to 14) (size 15 to 20)
#    0.000    1.500    1.250    2.250    7.000    3.000 
#   13.500    0.000    0.000    0.000    0.000    0.000 
#    0.000    0.000    0.000    0.000    0.000    0.000 
#
# Total GULP energy -89461.066425 kJ/mol
# GULP energy per Si atom -5591.316652 kJ/mol
# Density = 2.629152 g / cm^3
# Si number density = 26.351500 Si / 1000 Ang^3
#
#
#
# Elastic Constant Matrix: (Units=GPa)
#
#
# Indices 1 2 3 4 5 6 
#
# 1 34.0974 14.4936 12.0651 -18.5317 2.4210 18.4925
# 2 14.4936 166.6713 27.0558 6.8747 2.7930 10.6140
# 3 12.0651 27.0558 108.6663 5.6892 -17.0492 8.1430
# 4 -18.5317 6.8747 5.6892 26.0116 -3.2794 -2.7775
# 5 2.4210 2.7930 -17.0492 -3.2794 31.6783 -6.4489
# 6 18.4925 10.6140 8.1430 -2.7775 -6.4489 35.6419
#
#
#
# Elastic Compliance Matrix: (Units=1/GPa)
#
#
# Indices 1 2 3 4 5 6 
#
# 1 0.097152 -0.006269 -0.011858 0.066925 -0.015152 -0.043357
# 2 -0.006269 0.006924 -0.000936 -0.006156 -0.001126 0.000721
# 3 -0.011858 -0.000936 0.012086 -0.009457 0.007383 0.004269
# 4 0.066925 -0.006156 -0.009457 0.086412 -0.005815 -0.025048
# 5 -0.015152 -0.001126 0.007383 -0.005815 0.038861 0.013088
# 6 -0.043357 0.000721 0.004269 -0.025048 0.013088 0.049778
#
#
# Mechanical properties :
#
#
# Convention : Reuss Voigt Hill
#
# Bulk Modulus (GPa) = 12.81471 46.29601 29.55536
# Shear Modulus (GPa) = 14.07059 35.72104 24.89582
#
# Velocity S-wave (km/s) = 2.31326 3.68579 3.07703
# Velocity P-wave (km/s) = 3.46532 5.97663 4.88511
#
# Compressibility (1/GPa) = 0.07803533
#
# Stress axis : x y z
#
# Youngs Moduli (GPa) = 10.29316 144.42895 82.74160
#
# Poissons Ratio (x) = 0.90541 0.98115
# Poissons Ratio (y) = 0.06453 0.07746
# Poissons Ratio (z) = 0.12206 0.13522
#
# Static dielectric constant tensor:
#      x y z
#    x 2.063010 -0.031910 -0.054770 
#    y -0.031910 2.081860 0.041240 
#    z -0.054770 0.041240 2.197310 
# 
# From -- ./inp_files/121584.got.cif
#   From: 2010.05.17/outbox.cif.g08.bks.cpg/sg2_61_cif.got.tgz:121584.got - 2010.06.03 11:33:40.
