data_PCOD9016924
_publ_section_title
;
Structure prediction by ZEFSAII (Michael W. Deem and Ramdas Pophale) SiO2 
 PCOD9016924
Probable space group: P -1
;
_chemical_formula_sum "Si O2"
_cell_formula_units_Z 14
_cell_length_a 19.693951
_cell_length_b 6.081616
_cell_length_c 11.606293
_cell_angle_alpha 56.004728
_cell_angle_beta 146.985816
_cell_angle_gamma 110.928298
_cell_volume 608.458328
_symmetry_space_group_name_H-M "P -1"
_symmetry_group_IT_number 2
_symmetry_cell_setting 'triclinic'
loop_
_space_group_symop_operation_xyz
x,y,z
-x,-y,-z
loop_
_atom_site_type_symbol
_atom_site_label
_atom_site_fract_x
_atom_site_fract_y
_atom_site_fract_z
Si Si1 0.527165 0.551432 0.715199
Si Si2 0.873111 0.196048 0.002981
Si Si3 0.384845 0.705946 0.845016
Si Si4 0.073359 0.685970 0.703013
Si Si5 0.303925 0.280747 0.455427
Si Si6 0.317388 0.097519 0.289269
Si Si7 0.892078 0.297027 0.519890
O O1 0.425479 0.403353 0.556997
O O2 0.631555 0.650340 0.759647
O O3 0.438742 0.839042 0.550413
O O4 0.587518 0.365059 0.961720
O O5 0.856281 0.313662 0.074522
O O6 0.811820 0.455501 0.757221
O O7 0.018572 0.013624 0.248227
O O8 0.782698 0.987073 0.914675
O O9 0.246489 0.652091 0.634781
O O10 0.360726 0.031636 0.694813
O O11 0.500000 0.500000 0.000000
O O12 0.129373 0.635528 0.667571
O O13 0.974780 0.494875 0.628952
O O14 0.000000 0.000000 0.500000
O O15 0.259705 0.144784 0.319966
#
# Coordination Sequence:
#
# PCOD9016924 Si02
#       7
#     2   2   2   2   2   2   2
#     4  10  23  42  66  99 130 183 224 274 331 395
#     4  10  22  41  70 102 133 169 224 283 337 392
#     4  12  26  47  66  95 142 184 219 273 335 406
#     4   9  20  42  69 108 130 170 221 283 343 386
#     4  11  23  44  67  95 138 178 226 270 337 403
#     4  10  21  42  70 100 135 169 226 286 330 387
#     4  10  23  43  67 102 139 171 222 280 336 394
#
# _framework density 23.008970999999999
#
# number of rings (size 3 to 8) (size 9 to 14) (size 15 to 20)
#    0.000    1.714    1.429    1.714    8.000    0.571 
#   10.286    2.857    0.000    0.000    0.000    0.000 
#    0.000    0.000    0.000    0.000    0.000    0.000 
#
# Total GULP energy -78109.078183 kJ/mol
# GULP energy per Si atom -5579.219870 kJ/mol
# Density = 2.295660 g / cm^3
# Si number density = 23.008971 Si / 1000 Ang^3
#
#
#
# Elastic Constant Matrix: (Units=GPa)
#
#
# Indices 1 2 3 4 5 6 
#
# 1 54.3441 39.1947 50.1152 -7.0609 7.4609 10.7250
# 2 39.1947 109.0628 56.6060 -5.2536 -4.6540 11.6422
# 3 50.1152 56.6060 160.0014 -29.3447 0.6102 5.4660
# 4 -7.0609 -5.2536 -29.3447 55.2417 -2.4561 -6.6264
# 5 7.4609 -4.6540 0.6102 -2.4561 51.7867 -3.6459
# 6 10.7250 11.6422 5.4660 -6.6264 -3.6459 26.1257
#
#
#
# Elastic Compliance Matrix: (Units=1/GPa)
#
#
# Indices 1 2 3 4 5 6 
#
# 1 0.033557 -0.007181 -0.007988 -0.002151 -0.006214 -0.010317
# 2 -0.007181 0.013421 -0.002652 -0.001261 0.002035 -0.002514
# 3 -0.007988 -0.002652 0.010434 0.004766 0.001274 0.003665
# 4 -0.002151 -0.001261 0.004766 0.021028 0.001560 0.005999
# 5 -0.006214 0.002035 0.001274 0.001560 0.020776 0.004673
# 6 -0.010317 -0.002514 0.003665 0.005999 0.004673 0.045039
#
#
# Mechanical properties :
#
#
# Convention : Reuss Voigt Hill
#
# Bulk Modulus (GPa) = 45.93687 68.36001 57.14844
# Shear Modulus (GPa) = 26.71603 38.46366 32.58985
#
# Velocity S-wave (km/s) = 3.41121 4.09306 3.76759
# Velocity P-wave (km/s) = 5.96014 7.21887 6.61949
#
# Compressibility (1/GPa) = 0.02176901
#
# Stress axis : x y z
#
# Youngs Moduli (GPa) = 29.80016 74.51271 95.83763
#
# Poissons Ratio (x) = 0.53506 0.76560
# Poissons Ratio (y) = 0.21399 0.25416
# Poissons Ratio (z) = 0.23806 0.19761
#
# Static dielectric constant tensor:
#      x y z
#    x 1.841280 0.021710 0.000840 
#    y 0.021710 1.843550 -0.024800 
#    z 0.000840 -0.024800 1.942320 
# 
# From -- ./inp_files/468306.got.cif
#   From: 2010.05.17/outbox.cif.g08.bks.cpg/sg2_235_cif.got.tgz:468306.got - 2010.06.03 11:33:40.
