data_PCOD9016742
_publ_section_title
;
Structure prediction by ZEFSAII (Michael W. Deem and Ramdas Pophale) SiO2 
 PCOD9016742
Probable space group: P -1
;
_chemical_formula_sum "Si O2"
_cell_formula_units_Z 16
_cell_length_a 8.966946
_cell_length_b 12.299985
_cell_length_c 15.778627
_cell_angle_alpha 151.639337
_cell_angle_beta 80.793828
_cell_angle_gamma 108.191862
_cell_volume 759.537596
_symmetry_space_group_name_H-M "P -1"
_symmetry_group_IT_number 2
_symmetry_cell_setting 'triclinic'
loop_
_space_group_symop_operation_xyz
x,y,z
-x,-y,-z
loop_
_atom_site_type_symbol
_atom_site_label
_atom_site_fract_x
_atom_site_fract_y
_atom_site_fract_z
Si Si1 0.808620 0.936074 0.453280
Si Si2 0.673687 0.521821 0.035706
Si Si3 0.269435 0.819762 0.073654
Si Si4 0.924054 0.794813 0.060634
Si Si5 0.885850 0.394956 0.655760
Si Si6 0.762931 0.570462 0.333349
Si Si7 0.446896 0.708403 0.687966
Si Si8 0.840034 0.281676 0.397060
O O1 0.737935 0.741946 0.250221
O O2 0.729234 0.802523 0.456539
O O3 0.798400 0.186337 0.590239
O O4 0.000000 0.000000 0.500000
O O5 0.804604 0.602114 0.004209
O O6 0.500000 0.500000 0.000000
O O7 0.668732 0.271667 0.910165
O O8 0.105917 0.874895 0.136000
O O9 0.402153 0.039555 0.162779
O O10 0.222280 0.583907 0.855363
O O11 0.871221 0.027705 0.219454
O O12 0.914730 0.655905 0.876184
O O13 0.798681 0.346128 0.539869
O O14 0.058568 0.364278 0.597926
O O15 0.624474 0.394919 0.285087
O O16 0.500000 0.500000 0.500000
O O17 0.302978 0.738144 0.667301
O O18 0.000000 0.500000 0.500000
#
# Coordination Sequence:
#
# PCOD9016742 Si02
#       8
#     2   2   2   2   2   2   2   2
#     4   9  19  38  70  95 133 176 222 282 335 401
#     4  11  22  42  69 102 143 177 223 290 351 399
#     4  10  23  40  66  99 130 180 229 274 338 412
#     4  11  24  44  72  98 133 182 226 278 343 414
#     4  10  21  42  69 103 129 174 232 271 344 399
#     4   9  20  41  64  96 132 175 224 281 328 400
#     4  12  25  42  63  95 134 180 226 277 344 405
#     4  12  24  44  68  95 142 177 222 290 336 405
#
# _framework density 21.065446999999999
#
# number of rings (size 3 to 8) (size 9 to 14) (size 15 to 20)
#    0.000    1.500    2.500    3.000    0.000    1.500 
#    9.000    0.625    0.000    0.000    0.000    0.000 
#    0.000    0.000    0.000    0.000    0.000    0.000 
#
# Total GULP energy -89347.815340 kJ/mol
# GULP energy per Si atom -5584.238459 kJ/mol
# Density = 2.101750 g / cm^3
# Si number density = 21.065447 Si / 1000 Ang^3
#
#
#
# Elastic Constant Matrix: (Units=GPa)
#
#
# Indices 1 2 3 4 5 6 
#
# 1 91.0335 40.1801 11.9568 -4.0858 8.9671 0.1281
# 2 40.1801 139.4883 13.6941 16.1664 0.1105 -1.5872
# 3 11.9568 13.6941 76.1476 0.0436 0.6465 -12.9468
# 4 -4.0858 16.1664 0.0436 32.4235 1.4022 5.4582
# 5 8.9671 0.1105 0.6465 1.4022 29.8381 6.6292
# 6 0.1281 -1.5872 -12.9468 5.4582 6.6292 30.6742
#
#
#
# Elastic Compliance Matrix: (Units=1/GPa)
#
#
# Indices 1 2 3 4 5 6 
#
# 1 0.013656 -0.004277 -0.001472 0.004159 -0.004083 -0.000757
# 2 -0.004277 0.009102 -0.000841 -0.005265 0.001344 0.000780
# 3 -0.001472 -0.000841 0.014643 -0.000836 -0.001293 0.006571
# 4 0.004159 -0.005265 -0.000836 0.035163 -0.001399 -0.006597
# 5 -0.004083 0.001344 -0.001293 -0.001399 0.036636 -0.008128
# 6 -0.000757 0.000780 0.006571 -0.006597 -0.008128 0.038348
#
#
# Mechanical properties :
#
#
# Convention : Reuss Voigt Hill
#
# Bulk Modulus (GPa) = 41.28390 48.70349 44.99369
# Shear Modulus (GPa) = 29.62070 34.64305 32.13187
#
# Velocity S-wave (km/s) = 3.75390 4.05970 3.90979
# Velocity P-wave (km/s) = 6.19916 6.71901 6.46431
#
# Compressibility (1/GPa) = 0.02422252
#
# Stress axis : x y z
#
# Youngs Moduli (GPa) = 73.22901 109.87152 68.28991
#
# Poissons Ratio (x) = 0.46987 0.10050
# Poissons Ratio (y) = 0.31317 0.05743
# Poissons Ratio (z) = 0.10776 0.09240
#
# Static dielectric constant tensor:
#      x y z
#    x 2.040070 0.123500 0.284260 
#    y 0.123500 1.847290 0.135600 
#    z 0.284260 0.135600 2.116590 
# 
# From -- ./inp_files/283208.got.cif
#   From: 2010.05.17/outbox.cif.g08.bks.cpg/sg2_142_cif.got.tgz:283208.got - 2010.06.03 11:33:40.
