data_PCOD9016305
_publ_section_title
;
Structure prediction by ZEFSAII (Michael W. Deem and Ramdas Pophale) SiO2 
 PCOD9016305
Probable space group: P -1
;
_chemical_formula_sum "Si O2"
_cell_formula_units_Z 16
_cell_length_a 6.857732
_cell_length_b 14.625701
_cell_length_c 11.484997
_cell_angle_alpha 47.056014
_cell_angle_beta 86.979153
_cell_angle_gamma 66.150202
_cell_volume 727.289330
_symmetry_space_group_name_H-M "P -1"
_symmetry_group_IT_number 2
_symmetry_cell_setting 'triclinic'
loop_
_space_group_symop_operation_xyz
x,y,z
-x,-y,-z
loop_
_atom_site_type_symbol
_atom_site_label
_atom_site_fract_x
_atom_site_fract_y
_atom_site_fract_z
Si Si1 0.689793 0.798944 0.626616
Si Si2 0.334271 0.941390 0.086590
Si Si3 0.375422 0.405263 0.591138
Si Si4 0.785156 0.047848 0.385345
Si Si5 0.117789 0.881481 0.932288
Si Si6 0.537779 0.579835 0.180810
Si Si7 0.777191 0.529917 0.711134
Si Si8 0.866669 0.630194 0.980955
O O1 0.432818 0.846705 0.622748
O O2 0.781554 0.663830 0.655174
O O3 0.734728 0.919366 0.468682
O O4 0.798758 0.765281 0.782584
O O5 0.468866 0.770907 0.268148
O O6 0.201446 0.958341 0.955348
O O7 0.147680 0.044046 0.097827
O O8 0.500000 0.000000 0.000000
O O9 0.500000 0.500000 0.500000
O O10 0.300110 0.439611 0.698281
O O11 0.212119 0.460320 0.437093
O O12 0.827259 0.103460 0.214721
O O13 0.000000 0.000000 0.500000
O O14 0.291045 0.714705 0.103303
O O15 0.467056 0.459690 0.266375
O O16 0.651248 0.619497 0.038920
O O17 0.971693 0.394081 0.894597
O O18 0.000000 0.500000 0.000000
#
# Coordination Sequence:
#
# PCOD9016305 Si02
#       8
#     2   2   2   2   2   2   2   2
#     4  10  24  42  61  98 129 169 228 268 322 393
#     4  10  23  42  73  98 131 172 218 276 331 400
#     4   9  21  43  65 100 134 168 216 272 335 393
#     4  11  25  41  66  92 131 175 215 275 328 390
#     4  10  23  43  64  99 130 170 221 266 332 400
#     4  10  21  42  67  92 134 173 214 272 326 397
#     4  10  23  40  67  92 130 171 215 275 327 388
#     4  10  22  40  60  93 127 170 220 265 321 387
#
# _framework density 21.999499
#
# number of rings (size 3 to 8) (size 9 to 14) (size 15 to 20)
#    0.000    2.000    1.250    0.000    5.250    7.500 
#    4.500    2.500    0.000    0.000    0.000    0.000 
#    0.000    0.000    0.000    0.000    0.000    0.000 
#
# Total GULP energy -89167.902496 kJ/mol
# GULP energy per Si atom -5572.993906 kJ/mol
# Density = 2.194943 g / cm^3
# Si number density = 21.999499 Si / 1000 Ang^3
#
#
#
# Elastic Constant Matrix: (Units=GPa)
#
#
# Indices 1 2 3 4 5 6 
#
# 1 94.2317 29.9350 28.5064 7.1348 5.1130 -8.0077
# 2 29.9350 57.0669 13.6824 -0.9332 -2.7590 7.3193
# 3 28.5064 13.6824 103.1175 16.1184 15.6359 7.7266
# 4 7.1348 -0.9332 16.1184 28.8803 5.0722 4.9070
# 5 5.1130 -2.7590 15.6359 5.0722 37.1984 3.3838
# 6 -8.0077 7.3193 7.7266 4.9070 3.3838 21.2713
#
#
#
# Elastic Compliance Matrix: (Units=1/GPa)
#
#
# Indices 1 2 3 4 5 6 
#
# 1 0.015884 -0.009244 -0.003075 -0.004107 -0.002067 0.011553
# 2 -0.009244 0.024654 -0.001157 0.005287 0.004084 -0.013412
# 3 -0.003075 -0.001157 0.012310 -0.004878 -0.003855 -0.003493
# 4 -0.004107 0.005287 -0.004878 0.040628 -0.001558 -0.010718
# 5 -0.002067 0.004084 -0.003855 -0.001558 0.029772 -0.005160
# 6 0.011553 -0.013412 -0.003493 -0.010718 -0.005160 0.060538
#
#
# Mechanical properties :
#
#
# Convention : Reuss Voigt Hill
#
# Bulk Modulus (GPa) = 38.61463 44.29597 41.45530
# Shear Modulus (GPa) = 22.79283 29.62283 26.20783
#
# Velocity S-wave (km/s) = 3.22228 3.67348 3.45525
# Velocity P-wave (km/s) = 5.60667 6.17829 5.89941
#
# Compressibility (1/GPa) = 0.02589692
#
# Stress axis : x y z
#
# Youngs Moduli (GPa) = 62.95790 40.56201 81.23641
#
# Poissons Ratio (x) = 0.37494 0.24978
# Poissons Ratio (y) = 0.58196 0.09396
# Poissons Ratio (z) = 0.19358 0.04692
#
# Static dielectric constant tensor:
#      x y z
#    x 1.864740 -0.006100 0.029030 
#    y -0.006100 1.818220 -0.027100 
#    z 0.029030 -0.027100 1.889970 
# 
# From -- ./inp_files/367491.got.cif
#   From: 2010.05.17/outbox.cif.g08.bks.cpg/sg2_184_cif.got.tgz:367491.got - 2010.06.03 11:33:40.
