data_PCOD9016909
_publ_section_title
;
Structure prediction by ZEFSAII (Michael W. Deem and Ramdas Pophale) SiO2 
 PCOD9016909
Probable space group: P -1
;
_chemical_formula_sum "Si O2"
_cell_formula_units_Z 16
_cell_length_a 13.915299
_cell_length_b 10.669859
_cell_length_c 8.622782
_cell_angle_alpha 104.952857
_cell_angle_beta 58.136555
_cell_angle_gamma 57.188262
_cell_volume 591.551660
_symmetry_space_group_name_H-M "P -1"
_symmetry_group_IT_number 2
_symmetry_cell_setting 'triclinic'
loop_
_space_group_symop_operation_xyz
x,y,z
-x,-y,-z
loop_
_atom_site_type_symbol
_atom_site_label
_atom_site_fract_x
_atom_site_fract_y
_atom_site_fract_z
Si Si1 0.617192 0.802887 0.966873
Si Si2 0.097484 0.788446 0.192800
Si Si3 0.276467 0.740678 0.324843
Si Si4 0.246449 0.905084 0.934279
Si Si5 0.389021 0.350727 0.629637
Si Si6 0.721676 0.820361 0.419175
Si Si7 0.654710 0.542351 0.626753
Si Si8 0.070289 0.336372 0.130885
O O1 0.787914 0.717923 0.887885
O O2 0.442858 0.934084 0.280959
O O3 0.701286 0.600212 0.738994
O O4 0.500000 0.000000 0.000000
O O5 0.152375 0.776991 0.315676
O O6 0.160656 0.847075 0.040258
O O7 0.241344 0.533755 0.947660
O O8 0.856704 0.004494 0.461332
O O9 0.278203 0.664240 0.459259
O O10 0.500000 0.500000 0.000000
O O11 0.402455 0.769642 0.611482
O O12 0.410661 0.780301 0.890323
O O13 0.090777 0.170173 0.130542
O O14 0.405881 0.182299 0.538435
O O15 0.269076 0.498211 0.621138
O O16 0.840354 0.760190 0.151139
O O17 0.877367 0.612021 0.346689
#
# Coordination Sequence:
#
# PCOD9016909 Si02
#       8
#     2   2   2   2   2   2   2   2
#     4  12  21  44  67  99 136 182 224 283 347 395
#     4  11  25  43  72  98 135 183 221 281 350 401
#     4  11  24  48  66  99 136 173 230 284 341 414
#     4  10  21  42  69  99 136 178 228 278 340 404
#     4  10  22  45  66  99 139 176 231 276 336 411
#     4  11  25  45  64 104 137 182 236 276 345 401
#     4  10  23  41  66  98 136 175 225 281 341 403
#     4  11  25  44  68  96 139 182 231 290 329 413
#
# _framework density 27.047512000000001
#
# number of rings (size 3 to 8) (size 9 to 14) (size 15 to 20)
#    0.750    0.500    5.000    0.750    3.500    1.000 
#    9.000    0.000    0.000    0.000    0.000    0.000 
#    0.000    0.000    0.000    0.000    0.000    0.000 
#
# Total GULP energy -89402.214238 kJ/mol
# GULP energy per Si atom -5587.638390 kJ/mol
# Density = 2.698595 g / cm^3
# Si number density = 27.047512 Si / 1000 Ang^3
#
#
#
# Elastic Constant Matrix: (Units=GPa)
#
#
# Indices 1 2 3 4 5 6 
#
# 1 95.4614 28.8191 19.5473 11.2899 2.9141 -9.6510
# 2 28.8191 124.2141 14.5537 29.7666 -13.5775 -16.9269
# 3 19.5473 14.5537 127.7377 22.0957 3.7527 -13.9168
# 4 11.2899 29.7666 22.0957 49.0729 -5.0135 -13.2133
# 5 2.9141 -13.5775 3.7527 -5.0135 39.2664 -6.4352
# 6 -9.6510 -16.9269 -13.9168 -13.2133 -6.4352 31.1985
#
#
#
# Elastic Compliance Matrix: (Units=1/GPa)
#
#
# Indices 1 2 3 4 5 6 
#
# 1 0.011694 -0.002447 -0.001254 -0.000456 -0.001449 0.001238
# 2 -0.002447 0.010651 0.000269 -0.004533 0.003920 0.004031
# 3 -0.001254 0.000269 0.008822 -0.003351 -0.000737 0.002122
# 4 -0.000456 -0.004533 -0.003351 0.027326 0.003624 0.008225
# 5 -0.001449 0.003920 -0.000737 0.003624 0.028913 0.008849
# 6 0.001238 0.004031 0.002122 0.008225 0.008849 0.040878
#
#
# Mechanical properties :
#
#
# Convention : Reuss Voigt Hill
#
# Bulk Modulus (GPa) = 41.14643 52.58373 46.86508
# Shear Modulus (GPa) = 34.90394 42.87377 38.88886
#
# Velocity S-wave (km/s) = 3.59621 3.98569 3.79594
# Velocity P-wave (km/s) = 5.69994 6.37686 6.04788
#
# Compressibility (1/GPa) = 0.02430344
#
# Stress axis : x y z
#
# Youngs Moduli (GPa) = 85.51181 93.88949 113.34883
#
# Poissons Ratio (x) = 0.22971 0.14218
# Poissons Ratio (y) = 0.20921 -0.03049
# Poissons Ratio (z) = 0.10726 -0.02525
#
# Static dielectric constant tensor:
#      x y z
#    x 2.101030 0.001310 -0.183870 
#    y 0.001310 2.121040 -0.070900 
#    z -0.183870 -0.070900 2.169820 
# 
# From -- ./inp_files/307952.got.cif
#   From: 2010.05.17/outbox.cif.g08.bks.cpg/sg2_154_cif.got.tgz:307952.got - 2010.06.03 11:33:40.
