data_PCOD9016953
_publ_section_title
;
Structure prediction by ZEFSAII (Michael W. Deem and Ramdas Pophale) SiO2 
 PCOD9016953
Probable space group: P -1
;
_chemical_formula_sum "Si O2"
_cell_formula_units_Z 14
_cell_length_a 21.159129
_cell_length_b 9.084641
_cell_length_c 9.592442
_cell_angle_alpha 147.417694
_cell_angle_beta 144.429872
_cell_angle_gamma 36.455763
_cell_volume 534.354922
_symmetry_space_group_name_H-M "P -1"
_symmetry_group_IT_number 2
_symmetry_cell_setting 'triclinic'
loop_
_space_group_symop_operation_xyz
x,y,z
-x,-y,-z
loop_
_atom_site_type_symbol
_atom_site_label
_atom_site_fract_x
_atom_site_fract_y
_atom_site_fract_z
Si Si1 0.827299 0.516311 0.269273
Si Si2 0.250823 0.073953 0.992758
Si Si3 0.448858 0.778198 0.303164
Si Si4 0.368115 0.668048 0.340614
Si Si5 0.004899 0.710001 0.853015
Si Si6 0.951888 0.926552 0.209143
Si Si7 0.690201 0.348561 0.477156
O O1 0.873664 0.715835 0.608959
O O2 0.895996 0.522592 0.251851
O O3 0.887417 0.215726 0.228803
O O4 0.698699 0.527077 0.006931
O O5 0.231578 0.905937 0.688559
O O6 0.145750 0.188491 0.004558
O O7 0.347837 0.800701 0.032242
O O8 0.290322 0.342451 0.239244
O O9 0.385758 0.875743 0.417607
O O10 0.553914 0.465893 0.272456
O O11 0.500000 0.000000 0.500000
O O12 0.500000 0.500000 0.500000
O O13 0.299607 0.779916 0.451408
O O14 0.034473 0.711867 0.069130
O O15 0.000000 0.000000 0.000000
O O16 0.000000 0.000000 0.500000
#
# Coordination Sequence:
#
# PCOD9016953 Si02
#       7
#     2   2   2   2   2   2   2
#     4  10  21  44  70  94 140 182 233 297 357 430
#     4  11  23  43  65  99 138 185 226 300 350 424
#     4   9  19  42  69  99 138 180 233 291 356 426
#     4  10  21  42  70 104 138 186 237 290 362 436
#     4   9  22  42  66  98 132 182 234 291 357 422
#     4  11  25  40  65  99 131 179 239 294 362 420
#     4  10  24  41  66 100 139 181 235 283 355 429
#
# _framework density 26.199814
#
# number of rings (size 3 to 8) (size 9 to 14) (size 15 to 20)
#    0.000    2.000    1.429    0.429    4.000    4.000 
#    2.571   15.714    0.000    0.000    0.000    0.000 
#    0.000    0.000    0.000    0.000    0.000    0.000 
#
# Total GULP energy -78135.069413 kJ/mol
# GULP energy per Si atom -5581.076387 kJ/mol
# Density = 2.614018 g / cm^3
# Si number density = 26.199814 Si / 1000 Ang^3
#
#
#
# Elastic Constant Matrix: (Units=GPa)
#
#
# Indices 1 2 3 4 5 6 
#
# 1 193.2927 32.4087 56.7983 -6.1940 -29.6698 47.7869
# 2 32.4087 112.8556 39.4313 -21.9411 -0.2256 24.2001
# 3 56.7983 39.4313 140.8104 -29.9508 -6.9222 14.3418
# 4 -6.1940 -21.9411 -29.9508 42.6281 -1.5301 2.0419
# 5 -29.6698 -0.2256 -6.9222 -1.5301 53.7150 -11.8403
# 6 47.7869 24.2001 14.3418 2.0419 -11.8403 35.9817
#
#
#
# Elastic Compliance Matrix: (Units=1/GPa)
#
#
# Indices 1 2 3 4 5 6 
#
# 1 0.008678 0.000659 -0.002428 0.000468 0.002228 -0.010295
# 2 0.000659 0.012372 -0.001642 0.005700 -0.001712 -0.009428
# 3 -0.002428 -0.001642 0.009727 0.005632 0.000103 0.000165
# 4 0.000468 0.005700 0.005632 0.030823 0.000026 -0.008441
# 5 0.002228 -0.001712 0.000103 0.000026 0.020967 0.005050
# 6 -0.010295 -0.009428 0.000165 -0.008441 0.005050 0.049880
#
#
# Mechanical properties :
#
#
# Convention : Reuss Voigt Hill
#
# Bulk Modulus (GPa) = 41.74231 78.24837 59.99534
# Shear Modulus (GPa) = 33.95496 47.68631 40.82063
#
# Velocity S-wave (km/s) = 3.60391 4.27089 3.95150
# Velocity P-wave (km/s) = 5.76926 7.36556 6.61574
#
# Compressibility (1/GPa) = 0.02395651
#
# Stress axis : x y z
#
# Youngs Moduli (GPa) = 115.22863 80.82872 102.80814
#
# Poissons Ratio (x) = -0.05326 0.24958
# Poissons Ratio (y) = -0.07593 0.16877
# Poissons Ratio (z) = 0.27973 0.13269
#
# Static dielectric constant tensor:
#      x y z
#    x 2.123770 -0.131270 -0.047060 
#    y -0.131270 2.176730 0.024540 
#    z -0.047060 0.024540 2.131970 
# 
# From -- ./inp_files/142158.got.cif
#   From: 2010.05.17/outbox.cif.g08.bks.cpg/sg2_72_cif.got.tgz:142158.got - 2010.06.03 11:33:40.
