data_PCOD9016223
_publ_section_title
;
Structure prediction by ZEFSAII (Michael W. Deem and Ramdas Pophale) SiO2 
 PCOD9016223
Probable space group: P -1
;
_chemical_formula_sum "Si O2"
_cell_formula_units_Z 13
_cell_length_a 9.554327
_cell_length_b 5.036891
_cell_length_c 11.435081
_cell_angle_alpha 64.633532
_cell_angle_beta 68.557558
_cell_angle_gamma 83.779419
_cell_volume 462.067037
_symmetry_space_group_name_H-M "P -1"
_symmetry_group_IT_number 2
_symmetry_cell_setting 'triclinic'
loop_
_space_group_symop_operation_xyz
x,y,z
-x,-y,-z
loop_
_atom_site_type_symbol
_atom_site_label
_atom_site_fract_x
_atom_site_fract_y
_atom_site_fract_z
Si Si1 0.775736 0.939910 0.974423
Si Si2 0.500000 0.500000 0.500000
Si Si3 0.857832 0.584050 0.654830
Si Si4 0.091556 0.801683 0.875931
Si Si5 0.600805 0.755039 0.860216
Si Si6 0.616402 0.341918 0.248414
Si Si7 0.822758 0.251568 0.490817
O O1 0.659189 0.987705 0.895644
O O2 0.942869 0.968854 0.859443
O O3 0.697924 0.629230 0.106724
O O4 0.818266 0.100587 0.052133
O O5 0.508515 0.429556 0.368152
O O6 0.669375 0.385589 0.477483
O O7 0.743205 0.595849 0.794901
O O8 0.841738 0.340757 0.605389
O O9 0.029141 0.602931 0.643236
O O10 0.830267 0.901832 0.544372
O O11 0.230912 0.823596 0.738909
O O12 0.000000 0.500000 0.000000
O O13 0.494188 0.851069 0.768931
O O14 0.500000 0.500000 0.000000
#
# Coordination Sequence:
#
# PCOD9016223 Si02
#       7
#     2   1   2   2   2   2   2
#     4   9  20  40  65  93 131 181 229 292 362 427
#     4  12  24  44  68 106 142 194 236 310 362 438
#     4  10  22  49  69 105 142 192 249 304 366 446
#     4   9  19  40  61  91 128 170 228 290 353 427
#     4  10  21  42  67 101 140 186 239 297 361 442
#     4  10  22  40  60 100 137 178 234 291 357 434
#     4  10  24  45  73  99 146 192 248 305 366 438
#
# _framework density 28.134443000000001
#
# number of rings (size 3 to 8) (size 9 to 14) (size 15 to 20)
#    0.000    2.154    1.538    0.000    2.154    2.462 
#   11.077    4.615    0.000    0.000    0.000    0.000 
#    0.000    0.000    0.000    0.000    0.000    0.000 
#
# Total GULP energy -72454.425465 kJ/mol
# GULP energy per Si atom -5573.417343 kJ/mol
# Density = 2.807041 g / cm^3
# Si number density = 28.134443 Si / 1000 Ang^3
#
#
#
# Elastic Constant Matrix: (Units=GPa)
#
#
# Indices 1 2 3 4 5 6 
#
# 1 225.5087 45.8642 65.6731 32.1768 -22.9338 3.2344
# 2 45.8642 104.6647 17.3008 13.6944 4.5062 31.9477
# 3 65.6731 17.3008 87.0943 26.2961 -45.2869 -4.3221
# 4 32.1768 13.6944 26.2961 44.8304 -8.9842 -11.6536
# 5 -22.9338 4.5062 -45.2869 -8.9842 59.3305 33.5759
# 6 3.2344 31.9477 -4.3221 -11.6536 33.5759 49.5399
#
#
#
# Elastic Compliance Matrix: (Units=1/GPa)
#
#
# Indices 1 2 3 4 5 6 
#
# 1 0.006302 -0.002626 -0.006133 -0.000028 -0.004006 0.003456
# 2 -0.002626 0.017700 0.010597 -0.012755 0.018388 -0.025782
# 3 -0.006133 0.010597 0.051632 -0.030012 0.059660 -0.049424
# 4 -0.000028 -0.012755 -0.030012 0.047219 -0.039355 0.043389
# 5 -0.004006 0.018388 0.059660 -0.039355 0.101136 -0.084195
# 6 0.003456 -0.025782 -0.049424 0.043389 -0.084195 0.099545
#
#
# Mechanical properties :
#
#
# Convention : Reuss Voigt Hill
#
# Bulk Modulus (GPa) = 12.60880 74.99375 43.80127
# Shear Modulus (GPa) = 14.43857 49.96879 32.20368
#
# Velocity S-wave (km/s) = 2.26785 4.21892 3.38692
# Velocity P-wave (km/s) = 3.36881 7.10252 5.55853
#
# Compressibility (1/GPa) = 0.07930971
#
# Stress axis : x y z
#
# Youngs Moduli (GPa) = 158.68815 56.49655 19.36777
#
# Poissons Ratio (x) = 0.14838 0.11879
# Poissons Ratio (y) = 0.41676 -0.20525
# Poissons Ratio (z) = 0.97326 -0.59871
#
# Static dielectric constant tensor:
#      x y z
#    x 2.198340 -0.119080 0.057460 
#    y -0.119080 2.401550 -0.037790 
#    z 0.057460 -0.037790 2.240670 
# 
# From -- ./inp_files/361732.got.cif
#   From: 2010.05.17/outbox.cif.g08.bks.cpg/sg2_181_cif.got.tgz:361732.got - 2010.06.03 11:33:40.
