data_PCOD9016659
_publ_section_title
;
Structure prediction by ZEFSAII (Michael W. Deem and Ramdas Pophale) SiO2 
 PCOD9016659
Probable space group: P -1
;
_chemical_formula_sum "Si O2"
_cell_formula_units_Z 16
_cell_length_a 16.603656
_cell_length_b 9.475940
_cell_length_c 12.144224
_cell_angle_alpha 36.953115
_cell_angle_beta 53.120075
_cell_angle_gamma 80.581680
_cell_volume 692.642446
_symmetry_space_group_name_H-M "P -1"
_symmetry_group_IT_number 2
_symmetry_cell_setting 'triclinic'
loop_
_space_group_symop_operation_xyz
x,y,z
-x,-y,-z
loop_
_atom_site_type_symbol
_atom_site_label
_atom_site_fract_x
_atom_site_fract_y
_atom_site_fract_z
Si Si1 0.920043 0.935399 0.403866
Si Si2 0.183054 0.537672 0.898459
Si Si3 0.910090 0.680904 0.338798
Si Si4 0.765792 0.870220 0.753774
Si Si5 0.522096 0.958964 0.690254
Si Si6 0.476341 0.348956 0.338826
Si Si7 0.026947 0.456932 0.266396
Si Si8 0.390164 0.706477 0.194503
O O1 0.897714 0.782621 0.402812
O O2 0.792228 0.862651 0.607965
O O3 0.947468 0.759867 0.571831
O O4 0.053319 0.295954 0.080625
O O5 0.320359 0.791980 0.564906
O O6 0.213252 0.340755 0.062916
O O7 0.139998 0.659432 0.953027
O O8 0.757271 0.411543 0.594675
O O9 0.000272 0.587719 0.307555
O O10 0.000000 0.000000 0.000000
O O11 0.616452 0.703853 0.008175
O O12 0.884640 0.223428 0.468361
O O13 0.475839 0.130304 0.560505
O O14 0.520233 0.762280 0.716312
O O15 0.437621 0.798809 0.970048
O O16 0.374155 0.399732 0.417665
O O17 0.500000 0.000000 0.000000
#
# Coordination Sequence:
#
# PCOD9016659 Si02
#       8
#     2   2   2   2   2   2   2   2
#     4   9  18  37  64  89 120 159 205 259 313 372
#     4   8  17  34  66  97 115 151 207 268 314 370
#     4  12  27  41  55  89 131 166 209 248 307 380
#     4   8  15  35  64  94 119 147 209 262 316 369
#     4  10  22  41  71  98 124 168 220 269 327 378
#     4  10  21  42  68  98 127 165 219 275 316 381
#     4   9  18  38  63  89 120 160 202 257 315 373
#     4  12  28  46  64  94 138 177 212 262 323 391
#
# _framework density 23.099938999999999
#
# number of rings (size 3 to 8) (size 9 to 14) (size 15 to 20)
#    0.000    2.250    0.000    3.750    3.500    1.500 
#    2.250    1.250    0.000    0.000    0.000    0.000 
#    0.000    0.000    0.000    0.000    0.000    0.000 
#
# Total GULP energy -89295.304713 kJ/mol
# GULP energy per Si atom -5580.956545 kJ/mol
# Density = 2.304736 g / cm^3
# Si number density = 23.099939 Si / 1000 Ang^3
#
#
#
# Elastic Constant Matrix: (Units=GPa)
#
#
# Indices 1 2 3 4 5 6 
#
# 1 44.5093 20.8339 18.5809 1.8366 1.2426 -8.6527
# 2 20.8339 96.6310 3.6984 7.6647 7.3644 -2.7041
# 3 18.5809 3.6984 76.4407 9.6942 -9.0317 -0.6522
# 4 1.8366 7.6647 9.6942 24.4234 -4.7987 -7.3033
# 5 1.2426 7.3644 -9.0317 -4.7987 26.9110 -1.9846
# 6 -8.6527 -2.7041 -0.6522 -7.3033 -1.9846 38.3088
#
#
#
# Elastic Compliance Matrix: (Units=1/GPa)
#
#
# Indices 1 2 3 4 5 6 
#
# 1 0.029726 -0.006227 -0.007555 0.004637 -0.000862 0.006985
# 2 -0.006227 0.012288 0.001106 -0.005062 -0.003730 -0.001678
# 3 -0.007555 0.001106 0.016107 -0.006029 0.004208 -0.002285
# 4 0.004637 -0.005062 -0.006029 0.049421 0.008732 0.010462
# 5 -0.000862 -0.003730 0.004208 0.008732 0.041442 0.003425
# 6 0.006985 -0.001678 -0.002285 0.010462 0.003425 0.029696
#
#
# Mechanical properties :
#
#
# Convention : Reuss Voigt Hill
#
# Bulk Modulus (GPa) = 30.51553 33.75640 32.13596
# Shear Modulus (GPa) = 23.26073 29.55983 26.41028
#
# Velocity S-wave (km/s) = 3.17671 3.58110 3.38495
# Velocity P-wave (km/s) = 5.16664 5.63418 5.40547
#
# Compressibility (1/GPa) = 0.03277020
#
# Stress axis : x y z
#
# Youngs Moduli (GPa) = 33.64028 81.38289 62.08392
#
# Poissons Ratio (x) = 0.50673 0.46903
# Poissons Ratio (y) = 0.20946 -0.06866
# Poissons Ratio (z) = 0.25415 -0.09000
#
# Static dielectric constant tensor:
#      x y z
#    x 1.914520 0.004400 0.011010 
#    y 0.004400 1.758880 -0.086950 
#    z 0.011010 -0.086950 1.863220 
# 
# From -- ./inp_files/346491.got.cif
#   From: 2010.05.17/outbox.cif.g08.bks.cpg/sg2_174_cif.got.tgz:346491.got - 2010.06.03 11:33:40.
