data_PCOD9016996
_publ_section_title
;
Structure prediction by ZEFSAII (Michael W. Deem and Ramdas Pophale) SiO2 
 PCOD9016996
Probable space group: P -1
;
_chemical_formula_sum "Si O2"
_cell_formula_units_Z 16
_cell_length_a 8.374860
_cell_length_b 11.139916
_cell_length_c 6.903745
_cell_angle_alpha 108.253958
_cell_angle_beta 110.721181
_cell_angle_gamma 90.280045
_cell_volume 567.231842
_symmetry_space_group_name_H-M "P -1"
_symmetry_group_IT_number 2
_symmetry_cell_setting 'triclinic'
loop_
_space_group_symop_operation_xyz
x,y,z
-x,-y,-z
loop_
_atom_site_type_symbol
_atom_site_label
_atom_site_fract_x
_atom_site_fract_y
_atom_site_fract_z
Si Si1 0.756372 0.910017 0.331074
Si Si2 0.280165 0.220393 0.158481
Si Si3 0.834499 0.394747 0.377457
Si Si4 0.080620 0.796578 0.452460
Si Si5 0.891232 0.209423 0.053992
Si Si6 0.574380 0.001863 0.814156
Si Si7 0.475715 0.482147 0.207949
Si Si8 0.842210 0.385259 0.856997
O O1 0.758892 0.870865 0.088734
O O2 0.558646 0.916675 0.308741
O O3 0.878497 0.810763 0.412674
O O4 0.835150 0.056728 0.460389
O O5 0.363647 0.353520 0.173587
O O6 0.097111 0.222838 0.176934
O O7 0.411745 0.146041 0.298720
O O8 0.868290 0.352737 0.608989
O O9 0.664576 0.466485 0.357668
O O10 0.000000 0.500000 0.500000
O O11 0.824008 0.356422 0.093704
O O12 0.154396 0.768768 0.707718
O O13 0.763040 0.078420 0.912657
O O14 0.902985 0.237751 0.817703
O O15 0.500000 0.000000 0.000000
O O16 0.355319 0.589882 0.249398
O O17 0.500000 0.500000 0.000000
O O18 0.000000 0.500000 0.000000
#
# Coordination Sequence:
#
# PCOD9016996 Si02
#       8
#     2   2   2   2   2   2   2   2
#     4  10  21  42  70  94 134 186 222 288 355 406
#     4  11  22  43  74 101 136 179 244 288 339 420
#     4  12  27  43  67 104 147 182 231 290 359 413
#     4  11  24  43  68  98 146 182 225 290 362 406
#     4  12  23  43  71 101 136 188 237 288 343 422
#     4  10  22  39  69 101 134 177 241 282 340 417
#     4  12  26  44  78 102 136 190 241 286 348 426
#     4  12  24  45  73 101 140 186 245 287 340 425
#
# _framework density 28.207159999999998
#
# number of rings (size 3 to 8) (size 9 to 14) (size 15 to 20)
#    0.000    0.750    3.750    4.875    1.750    0.500 
#    2.250    0.625    0.000    0.000    0.000    0.000 
#    0.000    0.000    0.000    0.000    0.000    0.000 
#
# Total GULP energy -89323.957794 kJ/mol
# GULP energy per Si atom -5582.747362 kJ/mol
# Density = 2.814296 g / cm^3
# Si number density = 28.207160 Si / 1000 Ang^3
#
#
#
# Elastic Constant Matrix: (Units=GPa)
#
#
# Indices 1 2 3 4 5 6 
#
# 1 155.7843 87.0418 33.5162 -11.4115 27.1115 -8.9646
# 2 87.0418 146.9168 64.6314 -31.8260 12.2165 -10.0736
# 3 33.5162 64.6314 158.1000 -30.7268 -22.0616 -9.0317
# 4 -11.4115 -31.8260 -30.7268 75.4477 -3.1602 -3.8033
# 5 27.1115 12.2165 -22.0616 -3.1602 68.0899 -15.0071
# 6 -8.9646 -10.0736 -9.0317 -3.8033 -15.0071 58.9868
#
#
#
# Elastic Compliance Matrix: (Units=1/GPa)
#
#
# Indices 1 2 3 4 5 6 
#
# 1 0.010295 -0.005906 -0.000520 -0.001311 -0.003371 -0.000466
# 2 -0.005906 0.012540 -0.003331 0.003050 -0.000668 0.000760
# 3 -0.000520 -0.003331 0.008981 0.002452 0.004262 0.001970
# 4 -0.001311 0.003050 0.002452 0.015535 0.001975 0.002201
# 5 -0.003371 -0.000668 0.004262 0.001975 0.018704 0.004912
# 6 -0.000466 0.000760 0.001970 0.002201 0.004912 0.018705
#
#
# Mechanical properties :
#
#
# Convention : Reuss Voigt Hill
#
# Bulk Modulus (GPa) = 81.29392 92.35335 86.82363
# Shear Modulus (GPa) = 46.13668 58.87899 52.50783
#
# Velocity S-wave (km/s) = 4.04869 4.57374 4.31920
# Velocity P-wave (km/s) = 7.12311 7.79130 7.46468
#
# Compressibility (1/GPa) = 0.01230104
#
# Stress axis : x y z
#
# Youngs Moduli (GPa) = 97.13638 79.74789 111.34781
#
# Poissons Ratio (x) = 0.47100 0.05788
# Poissons Ratio (y) = 0.57369 0.37092
# Poissons Ratio (z) = 0.05049 0.26565
#
# Static dielectric constant tensor:
#      x y z
#    x 2.239560 -0.011160 -0.249480 
#    y -0.011160 2.043890 -0.218400 
#    z -0.249480 -0.218400 2.724520 
# 
# From -- ./inp_files/179474.got.cif
#   From: 2010.05.17/outbox.cif.g08.bks.cpg/sg2_90_cif.got.tgz:179474.got - 2010.06.03 11:33:40.
