data_PCOD9016793
_publ_section_title
;
Structure prediction by ZEFSAII (Michael W. Deem and Ramdas Pophale) SiO2 
 PCOD9016793
Probable space group: P -1
;
_chemical_formula_sum "Si O2"
_cell_formula_units_Z 16
_cell_length_a 19.588415
_cell_length_b 6.646714
_cell_length_c 9.022965
_cell_angle_alpha 94.645405
_cell_angle_beta 128.229827
_cell_angle_gamma 57.162234
_cell_volume 715.371886
_symmetry_space_group_name_H-M "P -1"
_symmetry_group_IT_number 2
_symmetry_cell_setting 'triclinic'
loop_
_space_group_symop_operation_xyz
x,y,z
-x,-y,-z
loop_
_atom_site_type_symbol
_atom_site_label
_atom_site_fract_x
_atom_site_fract_y
_atom_site_fract_z
Si Si1 0.330893 0.143331 0.721570
Si Si2 0.441813 0.264831 0.128008
Si Si3 0.114790 0.295453 0.947799
Si Si4 0.889322 0.076241 0.278215
Si Si5 0.674296 0.292013 0.195451
Si Si6 0.940333 0.882393 0.854655
Si Si7 0.246892 0.582446 0.455638
Si Si8 0.741735 0.549104 0.880181
O O1 0.230323 0.401242 0.516033
O O2 0.428390 0.975498 0.719708
O O3 0.309211 0.960216 0.751832
O O4 0.379170 0.207345 0.924144
O O5 0.376057 0.332430 0.195624
O O6 0.420953 0.514495 0.040446
O O7 0.023061 0.602670 0.873808
O O8 0.087268 0.178004 0.775133
O O9 0.117525 0.155899 0.091653
O O10 0.226302 0.260707 0.062578
O O11 0.786319 0.205816 0.260016
O O12 0.836567 0.293855 0.089657
O O13 0.000000 0.000000 0.500000
O O14 0.652725 0.455694 0.324583
O O15 0.849105 0.111253 0.639770
O O16 0.000000 0.000000 0.000000
O O17 0.257507 0.520257 0.293762
#
# Coordination Sequence:
#
# PCOD9016793 Si02
#       8
#     2   2   2   2   2   2   2   2
#     4  10  21  42  69  93 122 167 212 262 331 377
#     4   9  21  43  67  92 127 163 209 270 318 381
#     4  11  23  39  68  87 122 183 210 254 322 378
#     4  11  25  43  61  94 136 168 215 269 308 379
#     4  10  23  39  65  93 128 168 214 258 317 388
#     4  11  23  41  61  92 127 173 216 257 311 377
#     4  11  24  39  63  93 131 160 211 276 308 378
#     4  11  23  43  63  95 131 163 215 265 321 378
#
# _framework density 22.365988000000002
#
# number of rings (size 3 to 8) (size 9 to 14) (size 15 to 20)
#    0.000    1.500    2.500    1.125    5.250    1.000 
#    4.500    0.625    0.000    0.000    0.000    0.000 
#    0.000    0.000    0.000    0.000    0.000    0.000 
#
# Total GULP energy -89372.673922 kJ/mol
# GULP energy per Si atom -5585.792120 kJ/mol
# Density = 2.231508 g / cm^3
# Si number density = 22.365988 Si / 1000 Ang^3
#
#
#
# Elastic Constant Matrix: (Units=GPa)
#
#
# Indices 1 2 3 4 5 6 
#
# 1 86.2209 41.9277 27.9999 -6.1950 -10.8015 26.9159
# 2 41.9277 125.5240 31.8773 -8.0277 -10.1337 25.6779
# 3 27.9999 31.8773 60.4395 5.3680 -16.9184 9.8265
# 4 -6.1950 -8.0277 5.3680 35.1522 2.0405 -3.8686
# 5 -10.8015 -10.1337 -16.9184 2.0405 28.4271 -6.0212
# 6 26.9159 25.6779 9.8265 -3.8686 -6.0212 38.0327
#
#
#
# Elastic Compliance Matrix: (Units=1/GPa)
#
#
# Indices 1 2 3 4 5 6 
#
# 1 0.017637 -0.002450 -0.005476 0.002356 0.000473 -0.009098
# 2 -0.002450 0.010852 -0.004273 0.002258 -0.000693 -0.004369
# 3 -0.005476 -0.004273 0.025018 -0.006289 0.012069 0.001567
# 4 0.002356 0.002258 -0.006289 0.030675 -0.004052 0.000911
# 5 0.000473 -0.000693 0.012069 -0.004052 0.043317 0.003461
# 6 -0.009098 -0.004369 0.001567 0.000911 0.003461 0.035917
#
#
# Mechanical properties :
#
#
# Convention : Reuss Voigt Hill
#
# Bulk Modulus (GPa) = 34.35389 52.86601 43.60995
# Shear Modulus (GPa) = 25.31426 31.68103 28.49764
#
# Velocity S-wave (km/s) = 3.36790 3.76770 3.57340
# Velocity P-wave (km/s) = 5.52421 6.52806 6.04700
#
# Compressibility (1/GPa) = 0.02910878
#
# Stress axis : x y z
#
# Youngs Moduli (GPa) = 56.70030 92.14529 39.97110
#
# Poissons Ratio (x) = 0.22580 0.21888
# Poissons Ratio (y) = 0.13894 0.17079
# Poissons Ratio (z) = 0.31048 0.39372
#
# Static dielectric constant tensor:
#      x y z
#    x 1.862170 -0.008950 0.038430 
#    y -0.008950 1.880810 -0.027350 
#    z 0.038430 -0.027350 1.925260 
# 
# From -- ./inp_files/340505.got.cif
#   From: 2010.05.17/outbox.cif.g08.bks.cpg/sg2_171_cif.got.tgz:340505.got - 2010.06.03 11:33:40.
