data_PCOD9016181
_publ_section_title
;
Structure prediction by ZEFSAII (Michael W. Deem and Ramdas Pophale) SiO2 
 PCOD9016181
Probable space group: P -1
;
_chemical_formula_sum "Si O2"
_cell_formula_units_Z 14
_cell_length_a 20.282313
_cell_length_b 5.046389
_cell_length_c 5.514551
_cell_angle_alpha 99.368352
_cell_angle_beta 108.811124
_cell_angle_gamma 87.864171
_cell_volume 527.083689
_symmetry_space_group_name_H-M "P -1"
_symmetry_group_IT_number 2
_symmetry_cell_setting 'triclinic'
loop_
_space_group_symop_operation_xyz
x,y,z
-x,-y,-z
loop_
_atom_site_type_symbol
_atom_site_label
_atom_site_fract_x
_atom_site_fract_y
_atom_site_fract_z
Si Si1 0.133092 0.276627 0.536096
Si Si2 0.155296 0.948020 0.001489
Si Si3 0.432021 0.106525 0.306594
Si Si4 0.012381 0.715642 0.842435
Si Si5 0.575892 0.423969 0.970333
Si Si6 0.271618 0.575560 0.632929
Si Si7 0.710478 0.967513 0.630457
O O1 0.144956 0.096844 0.275434
O O2 0.193697 0.505795 0.626188
O O3 0.050074 0.325247 0.428298
O O4 0.144715 0.127648 0.780095
O O5 0.236721 0.880461 0.102374
O O6 0.094004 0.727125 0.878600
O O7 0.424549 0.898245 0.046064
O O8 0.368466 0.018058 0.386383
O O9 0.500000 0.000000 0.500000
O O10 0.428543 0.413079 0.266171
O O11 0.000000 0.500000 0.000000
O O12 0.000000 0.000000 0.000000
O O13 0.500000 0.500000 0.000000
O O14 0.655051 0.497084 0.160588
O O15 0.277178 0.876504 0.583037
O O16 0.273999 0.348361 0.389583
#
# Coordination Sequence:
#
# PCOD9016181 Si02
#       7
#     2   2   2   2   2   2   2
#     4  10  22  42  67  98 135 178 226 280 338 402
#     4  10  22  42  67  98 135 178 226 280 338 402
#     4  12  24  41  64  93 128 172 220 278 336 402
#     4  10  21  42  66  98 134 178 226 280 338 402
#     4  12  24  41  64  93 128 172 220 278 336 402
#     4  11  23  42  64  94 129 171 220 278 336 401
#     4  11  23  42  64  94 129 171 220 278 336 401
#
# _framework density 26.561250000000001
#
# number of rings (size 3 to 8) (size 9 to 14) (size 15 to 20)
#    0.000    1.143    0.000    6.429    0.000    2.286 
#    0.000   22.857    0.000    0.000    0.000    0.000 
#    0.000    0.000    0.000    0.000    0.000    0.000 
#
# Total GULP energy -78204.106105 kJ/mol
# GULP energy per Si atom -5586.007579 kJ/mol
# Density = 2.650080 g / cm^3
# Si number density = 26.561250 Si / 1000 Ang^3
#
#
#
# Elastic Constant Matrix: (Units=GPa)
#
#
# Indices 1 2 3 4 5 6 
#
# 1 215.3301 30.0730 52.7149 -11.7772 43.3541 44.8052
# 2 30.0730 118.8139 26.7822 -13.6876 1.5744 18.5448
# 3 52.7149 26.7822 154.4167 -18.7778 42.8840 22.2733
# 4 -11.7772 -13.6876 -18.7778 57.8664 7.4907 -4.1286
# 5 43.3541 1.5744 42.8840 7.4907 62.6320 8.2565
# 6 44.8052 18.5448 22.2733 -4.1286 8.2565 53.1621
#
#
#
# Elastic Compliance Matrix: (Units=1/GPa)
#
#
# Indices 1 2 3 4 5 6 
#
# 1 0.006605 -0.000716 -0.000223 0.001294 -0.003962 -0.004508
# 2 -0.000716 0.009364 -0.001239 0.001347 0.001242 -0.002232
# 3 -0.000223 -0.001239 0.009191 0.003309 -0.006239 -0.002005
# 4 0.001294 0.001347 0.003309 0.019603 -0.005464 -0.000576
# 5 -0.003962 0.001242 -0.006239 -0.005464 0.023411 0.001460
# 6 -0.004508 -0.002232 -0.002005 -0.000576 0.001460 0.023957
#
#
# Mechanical properties :
#
#
# Convention : Reuss Voigt Hill
#
# Bulk Modulus (GPa) = 48.06586 78.63344 63.34965
# Shear Modulus (GPa) = 48.34590 59.99814 54.17202
#
# Velocity S-wave (km/s) = 4.27097 4.75790 4.52100
# Velocity P-wave (km/s) = 6.51591 7.73643 7.15225
#
# Compressibility (1/GPa) = 0.02080479
#
# Stress axis : x y z
#
# Youngs Moduli (GPa) = 151.39961 106.78973 108.79986
#
# Poissons Ratio (x) = 0.07651 0.02423
# Poissons Ratio (y) = 0.10847 0.13476
# Poissons Ratio (z) = 0.03372 0.13227
#
# Static dielectric constant tensor:
#      x y z
#    x 2.284910 -0.088300 0.007650 
#    y -0.088300 2.082900 0.198260 
#    z 0.007650 0.198260 2.252480 
# 
# From -- ./inp_files/8163.got.cif
#   From: 2010.05.17/outbox.cif.g08.bks.cpg/sg2_5_cif.got.tgz:8163.got - 2010.06.03 11:33:40.
