data_PCOD9016097
_publ_section_title
;
Structure prediction by ZEFSAII (Michael W. Deem and Ramdas Pophale) SiO2 
 PCOD9016097
Probable space group: P -1
;
_chemical_formula_sum "Si O2"
_cell_formula_units_Z 16
_cell_length_a 6.515022
_cell_length_b 29.424026
_cell_length_c 7.414751
_cell_angle_alpha 42.599640
_cell_angle_beta 67.561676
_cell_angle_gamma 45.183477
_cell_volume 654.051495
_symmetry_space_group_name_H-M "P -1"
_symmetry_group_IT_number 2
_symmetry_cell_setting 'triclinic'
loop_
_space_group_symop_operation_xyz
x,y,z
-x,-y,-z
loop_
_atom_site_type_symbol
_atom_site_label
_atom_site_fract_x
_atom_site_fract_y
_atom_site_fract_z
Si Si1 0.266215 0.895025 0.276066
Si Si2 0.028707 0.536067 0.570405
Si Si3 0.915339 0.718616 0.462023
Si Si4 0.746054 0.012187 0.662323
Si Si5 0.110924 0.147636 0.338386
Si Si6 0.182649 0.279381 0.907740
Si Si7 0.130790 0.812923 0.106017
Si Si8 0.773046 0.478591 0.071557
O O1 0.573633 0.816813 0.297229
O O2 0.363512 0.912858 0.372392
O O3 0.114808 0.854724 0.478204
O O4 0.000000 0.000000 0.000000
O O5 0.274356 0.501184 0.753808
O O6 0.000000 0.500000 0.500000
O O7 0.942170 0.625950 0.257180
O O8 0.814516 0.540560 0.772532
O O9 0.990546 0.695971 0.293482
O O10 0.113186 0.741155 0.401145
O O11 0.960778 0.630681 0.753259
O O12 0.454732 0.053078 0.524894
O O13 0.000000 0.000000 0.500000
O O14 0.908398 0.913131 0.978022
O O15 0.116362 0.222797 0.188130
O O16 0.007605 0.163948 0.117384
O O17 0.536891 0.222854 0.917350
O O18 0.500000 0.500000 0.000000
#
# Coordination Sequence:
#
# PCOD9016097 Si02
#       8
#     2   2   2   2   2   2   2   2
#     4  12  26  41  61  95 133 172 220 275 328 389
#     4  10  23  43  69 102 138 172 225 286 351 427
#     4  10  24  41  65  97 134 173 223 275 335 405
#     4  12  23  39  61  89 125 175 217 267 331 389
#     4  11  23  39  63  89 126 170 224 267 326 394
#     4  10  21  42  66  95 125 174 219 268 339 406
#     4  11  21  39  66  88 126 173 221 268 325 398
#     4  10  22  46  73 100 139 184 226 289 355 415
#
# _framework density 24.462903000000001
#
# number of rings (size 3 to 8) (size 9 to 14) (size 15 to 20)
#    0.000    1.250    2.500    2.625    1.750    5.500 
#    0.000    5.000    0.000    0.000    0.000    0.000 
#    0.000    0.000    0.000    0.000    0.000    0.000 
#
# Total GULP energy -89118.903485 kJ/mol
# GULP energy per Si atom -5569.931468 kJ/mol
# Density = 2.440722 g / cm^3
# Si number density = 24.462903 Si / 1000 Ang^3
#
#
#
# Elastic Constant Matrix: (Units=GPa)
#
#
# Indices 1 2 3 4 5 6 
#
# 1 129.1773 21.4940 31.4623 -4.5226 -19.4722 24.5977
# 2 21.4940 60.1436 30.9517 -6.6108 -9.7632 37.5838
# 3 31.4623 30.9517 66.9081 -10.1891 -25.0085 18.8537
# 4 -4.5226 -6.6108 -10.1891 32.3391 15.5498 -5.4212
# 5 -19.4722 -9.7632 -25.0085 15.5498 60.4964 1.6222
# 6 24.5977 37.5838 18.8537 -5.4212 1.6222 43.9654
#
#
#
# Elastic Compliance Matrix: (Units=1/GPa)
#
#
# Indices 1 2 3 4 5 6 
#
# 1 0.009685 0.002464 -0.003034 -0.001554 0.002835 -0.006520
# 2 0.002464 0.042677 -0.009677 -0.002189 0.005159 -0.034171
# 3 -0.003034 -0.009677 0.023738 0.001751 0.006832 -0.000246
# 4 -0.001554 -0.002189 0.001751 0.036639 -0.009732 0.006867
# 5 0.002835 0.005159 0.006832 -0.009732 0.023896 -0.011008
# 6 -0.006520 -0.034171 -0.000246 0.006867 -0.011008 0.056963
#
#
# Mechanical properties :
#
#
# Convention : Reuss Voigt Hill
#
# Bulk Modulus (GPa) = 17.98348 47.11611 32.54979
# Shear Modulus (GPa) = 21.49360 38.84825 30.17093
#
# Velocity S-wave (km/s) = 2.96737 3.98935 3.51570
# Velocity P-wave (km/s) = 4.37123 6.36569 5.46029
#
# Compressibility (1/GPa) = 0.05560660
#
# Stress axis : x y z
#
# Youngs Moduli (GPa) = 103.25627 23.43180 42.12574
#
# Poissons Ratio (x) = -0.05773 0.12779
# Poissons Ratio (y) = -0.25439 0.40765
# Poissons Ratio (z) = 0.31323 0.22675
#
# Static dielectric constant tensor:
#      x y z
#    x 1.927920 0.064860 -0.047430 
#    y 0.064860 1.948060 0.018670 
#    z -0.047430 0.018670 2.068230 
# 
# From -- ./inp_files/143363.got.cif
#   From: 2010.05.17/outbox.cif.g08.bks.cpg/sg2_72_cif.got.tgz:143363.got - 2010.06.03 11:33:40.
