data_PCOD9016602
_publ_section_title
;
Structure prediction by ZEFSAII (Michael W. Deem and Ramdas Pophale) SiO2 
 PCOD9016602
Probable space group: P -1
;
_chemical_formula_sum "Si O2"
_cell_formula_units_Z 14
_cell_length_a 9.134300
_cell_length_b 11.471142
_cell_length_c 12.571263
_cell_angle_alpha 35.572502
_cell_angle_beta 101.264031
_cell_angle_gamma 79.097443
_cell_volume 595.505096
_symmetry_space_group_name_H-M "P -1"
_symmetry_group_IT_number 2
_symmetry_cell_setting 'triclinic'
loop_
_space_group_symop_operation_xyz
x,y,z
-x,-y,-z
loop_
_atom_site_type_symbol
_atom_site_label
_atom_site_fract_x
_atom_site_fract_y
_atom_site_fract_z
Si Si1 0.139792 0.007814 0.087658
Si Si2 0.459237 0.210468 0.668076
Si Si3 0.827166 0.607532 0.317916
Si Si4 0.423707 0.396580 0.304718
Si Si5 0.144511 0.099224 0.253911
Si Si6 0.598391 0.637805 0.094420
Si Si7 0.798962 0.480229 0.032143
O O1 0.364001 0.783162 0.295786
O O2 0.075043 0.064236 0.158532
O O3 0.155146 0.210628 0.885654
O O4 0.000000 0.000000 0.000000
O O5 0.344000 0.283117 0.705567
O O6 0.353714 0.375700 0.424796
O O7 0.525194 0.926917 0.862936
O O8 0.780126 0.481341 0.315026
O O9 0.000000 0.500000 0.500000
O O10 0.439864 0.623154 0.130530
O O11 0.304855 0.420266 0.170072
O O12 0.641475 0.142552 0.514435
O O13 0.150066 0.335507 0.062524
O O14 0.988835 0.199004 0.248470
O O15 0.662550 0.513277 0.080118
#
# Coordination Sequence:
#
# PCOD9016602 Si02
#       7
#     2   2   2   2   2   2   2
#     4  10  21  42  68  95 134 176 222 280 336 392
#     4  10  24  46  66  96 141 176 224 287 333 406
#     4  11  25  42  65  98 136 180 223 277 348 401
#     4  11  24  42  71  98 128 181 228 271 349 399
#     4  10  23  40  67  99 134 178 223 279 332 407
#     4  11  23  45  65  99 133 173 231 279 334 408
#     4  11  22  43  68  96 140 176 221 279 338 402
#
# _framework density 23.509452
#
# number of rings (size 3 to 8) (size 9 to 14) (size 15 to 20)
#    0.000    1.429    4.286    2.571    6.000    3.429 
#    0.000    0.000    0.000    0.000    0.000    0.000 
#    0.000    0.000    0.000    0.000    0.000    0.000 
#
# Total GULP energy -78175.428046 kJ/mol
# GULP energy per Si atom -5583.959146 kJ/mol
# Density = 2.345594 g / cm^3
# Si number density = 23.509452 Si / 1000 Ang^3
#
#
#
# Elastic Constant Matrix: (Units=GPa)
#
#
# Indices 1 2 3 4 5 6 
#
# 1 71.3672 28.1991 3.6179 -5.0099 -8.8053 11.6013
# 2 28.1991 77.9218 22.7767 11.0845 9.3729 6.4356
# 3 3.6179 22.7767 64.9269 17.6976 -7.4245 0.4827
# 4 -5.0099 11.0845 17.6976 25.4637 5.0266 11.0206
# 5 -8.8053 9.3729 -7.4245 5.0266 41.3408 8.8586
# 6 11.6013 6.4356 0.4827 11.0206 8.8586 42.7138
#
#
#
# Elastic Compliance Matrix: (Units=1/GPa)
#
#
# Indices 1 2 3 4 5 6 
#
# 1 0.020488 -0.009049 0.000153 0.010053 0.006987 -0.008246
# 2 -0.009049 0.019184 -0.005374 -0.006163 -0.007068 0.002684
# 3 0.000153 -0.005374 0.022309 -0.015824 0.006484 0.003254
# 4 0.010053 -0.006163 -0.015824 0.063023 -0.003280 -0.017204
# 5 0.006987 -0.007068 0.006484 -0.003280 0.030198 -0.006323
# 6 -0.008246 0.002684 0.003254 -0.017204 -0.006323 0.030960
#
#
# Mechanical properties :
#
#
# Convention : Reuss Voigt Hill
#
# Bulk Modulus (GPa) = 29.90306 35.93369 32.91838
# Shear Modulus (GPa) = 22.13863 32.54514 27.34188
#
# Velocity S-wave (km/s) = 3.07203 3.72471 3.41400
# Velocity P-wave (km/s) = 5.03293 5.81515 5.43812
#
# Compressibility (1/GPa) = 0.03344139
#
# Stress axis : x y z
#
# Youngs Moduli (GPa) = 48.80926 52.12711 44.82435
#
# Poissons Ratio (x) = 0.47167 -0.00684
# Poissons Ratio (y) = 0.44165 0.24088
# Poissons Ratio (z) = -0.00745 0.28013
#
# Static dielectric constant tensor:
#      x y z
#    x 1.925280 -0.014090 0.008520 
#    y -0.014090 1.931830 0.059780 
#    z 0.008520 0.059780 2.362090 
# 
# From -- ./inp_files/388849.got.cif
#   From: 2010.05.17/outbox.cif.g08.bks.cpg/sg2_195_cif.got.tgz:388849.got - 2010.06.03 11:33:40.
