data_PCOD9016104
_publ_section_title
;
Structure prediction by ZEFSAII (Michael W. Deem and Ramdas Pophale) SiO2 
 PCOD9016104
Probable space group: P -1
;
_chemical_formula_sum "Si O2"
_cell_formula_units_Z 16
_cell_length_a 13.767122
_cell_length_b 18.679467
_cell_length_c 7.501187
_cell_angle_alpha 75.244922
_cell_angle_beta 73.322270
_cell_angle_gamma 22.004464
_cell_volume 692.011725
_symmetry_space_group_name_H-M "P -1"
_symmetry_group_IT_number 2
_symmetry_cell_setting 'triclinic'
loop_
_space_group_symop_operation_xyz
x,y,z
-x,-y,-z
loop_
_atom_site_type_symbol
_atom_site_label
_atom_site_fract_x
_atom_site_fract_y
_atom_site_fract_z
Si Si1 0.939510 0.746810 0.652413
Si Si2 0.112969 0.416921 0.694965
Si Si3 0.364323 0.904288 0.515816
Si Si4 0.571792 0.523824 0.339436
Si Si5 0.141908 0.228034 0.905942
Si Si6 0.967868 0.086917 0.819651
Si Si7 0.368772 0.177930 0.267118
Si Si8 0.787249 0.341127 0.979408
O O1 0.252120 0.539677 0.596060
O O2 0.774925 0.798610 0.590973
O O3 0.831146 0.901686 0.578451
O O4 0.887118 0.755230 0.876359
O O5 0.394215 0.268207 0.638170
O O6 0.158272 0.301034 0.789355
O O7 0.000000 0.500000 0.500000
O O8 0.880009 0.609118 0.812021
O O9 0.493710 0.859555 0.643724
O O10 0.200779 0.943861 0.646003
O O11 0.500000 0.500000 0.500000
O O12 0.311280 0.730924 0.251734
O O13 0.773367 0.358060 0.188073
O O14 0.401372 0.007298 0.860744
O O15 0.895058 0.350233 0.869027
O O16 0.962346 0.165222 0.892870
O O17 0.000000 0.000000 0.000000
O O18 0.500000 0.500000 0.000000
#
# Coordination Sequence:
#
# PCOD9016104 Si02
#       8
#     2   2   2   2   2   2   2   2
#     4  11  23  40  68  97 131 177 219 275 334 401
#     4  10  25  39  63 101 131 167 225 276 328 404
#     4  11  22  42  65  93 132 175 225 274 332 403
#     4  10  21  42  66  95 130 172 224 269 330 400
#     4  11  22  43  66  92 136 173 216 274 337 402
#     4  11  23  43  69  96 130 177 223 277 332 395
#     4  11  23  41  68  96 133 179 217 270 342 394
#     4   9  21  40  65  93 125 176 221 262 331 404
#
# _framework density 23.120996999999999
#
# number of rings (size 3 to 8) (size 9 to 14) (size 15 to 20)
#    0.000    1.500    3.750    0.750    1.750    6.500 
#    2.250    1.875    0.000    0.000    0.000    0.000 
#    0.000    0.000    0.000    0.000    0.000    0.000 
#
# Total GULP energy -89244.257177 kJ/mol
# GULP energy per Si atom -5577.766074 kJ/mol
# Density = 2.306837 g / cm^3
# Si number density = 23.120997 Si / 1000 Ang^3
#
#
#
# Elastic Constant Matrix: (Units=GPa)
#
#
# Indices 1 2 3 4 5 6 
#
# 1 67.8257 44.1006 9.4758 8.8103 -11.1602 -23.6803
# 2 44.1006 148.1165 48.0319 2.1794 -16.2066 -19.3891
# 3 9.4758 48.0319 85.2559 -5.7825 -26.4691 -7.1216
# 4 8.8103 2.1794 -5.7825 38.0246 -4.5058 -1.7805
# 5 -11.1602 -16.2066 -26.4691 -4.5058 28.9694 6.3604
# 6 -23.6803 -19.3891 -7.1216 -1.7805 6.3604 48.4092
#
#
#
# Elastic Compliance Matrix: (Units=1/GPa)
#
#
# Indices 1 2 3 4 5 6 
#
# 1 0.022400 -0.005926 0.003129 -0.003297 0.005870 0.008152
# 2 -0.005926 0.010227 -0.005665 -0.000273 -0.001913 0.000605
# 3 0.003129 -0.005665 0.020263 0.004733 0.017254 0.000150
# 4 -0.003297 -0.000273 0.004733 0.028650 0.007570 -0.000967
# 5 0.005870 -0.001913 0.017254 0.007570 0.053104 -0.002055
# 6 0.008152 0.000605 0.000150 -0.000967 -0.002055 0.025144
#
#
# Mechanical properties :
#
#
# Convention : Reuss Voigt Hill
#
# Bulk Modulus (GPa) = 27.80410 56.04608 41.92509
# Shear Modulus (GPa) = 26.49705 36.38663 31.44184
#
# Velocity S-wave (km/s) = 3.38896 3.97135 3.69166
# Velocity P-wave (km/s) = 5.23115 6.73215 6.02855
#
# Compressibility (1/GPa) = 0.03596592
#
# Stress axis : x y z
#
# Youngs Moduli (GPa) = 44.64297 97.78187 49.35012
#
# Poissons Ratio (x) = 0.57947 -0.15441
# Poissons Ratio (y) = 0.26456 0.27956
# Poissons Ratio (z) = -0.13968 0.55392
#
# Static dielectric constant tensor:
#      x y z
#    x 2.003620 -0.052550 0.054770 
#    y -0.052550 1.937600 0.048170 
#    z 0.054770 0.048170 1.934340 
# 
# From -- ./inp_files/319274.got.cif
#   From: 2010.05.17/outbox.cif.g08.bks.cpg/sg2_160_cif.got.tgz:319274.got - 2010.06.03 11:33:40.
