data_PCOD9016974
_publ_section_title
;
Structure prediction by ZEFSAII (Michael W. Deem and Ramdas Pophale) SiO2 
 PCOD9016974
Probable space group: P -1
;
_chemical_formula_sum "Si O2"
_cell_formula_units_Z 16
_cell_length_a 14.621214
_cell_length_b 16.881844
_cell_length_c 22.154066
_cell_angle_alpha 22.892285
_cell_angle_beta 20.768786
_cell_angle_gamma 34.200148
_cell_volume 730.610365
_symmetry_space_group_name_H-M "P -1"
_symmetry_group_IT_number 2
_symmetry_cell_setting 'triclinic'
loop_
_space_group_symop_operation_xyz
x,y,z
-x,-y,-z
loop_
_atom_site_type_symbol
_atom_site_label
_atom_site_fract_x
_atom_site_fract_y
_atom_site_fract_z
Si Si1 0.096152 0.689779 0.854448
Si Si2 0.318961 0.062705 0.016177
Si Si3 0.089481 0.356317 0.434931
Si Si4 0.026605 0.406279 0.776988
Si Si5 0.479163 0.124977 0.287243
Si Si6 0.467437 0.194823 0.700377
Si Si7 0.073819 0.383090 0.187171
Si Si8 0.444346 0.758823 0.979506
O O1 0.858863 0.799055 0.939782
O O2 0.340230 0.878603 0.550220
O O3 0.162737 0.585440 0.948056
O O4 0.000000 0.500000 0.000000
O O5 0.461254 0.183842 0.784761
O O6 0.128746 0.841525 0.266842
O O7 0.500000 0.000000 0.000000
O O8 0.314836 0.254648 0.337741
O O9 0.964206 0.468191 0.379502
O O10 0.229973 0.536239 0.268396
O O11 0.292095 0.343177 0.678244
O O12 0.939994 0.541312 0.788870
O O13 0.786877 0.196201 0.066280
O O14 0.470332 0.201722 0.170527
O O15 0.771400 0.265104 0.440854
O O16 0.344397 0.958576 0.920217
O O17 0.291737 0.249943 0.140258
#
# Coordination Sequence:
#
# PCOD9016974 Si02
#       8
#     2   2   2   2   2   2   2   2
#     4  11  26  43  64  95 124 166 215 258 312 372
#     4  11  26  43  63  92 131 168 203 262 321 370
#     4  10  21  42  70  90 126 170 209 252 313 381
#     4  11  21  42  67  94 125 164 211 258 314 372
#     4  10  21  43  68  94 124 166 212 256 312 374
#     4  12  27  40  62 100 129 164 210 262 319 364
#     4  12  23  42  67  90 127 172 211 257 305 384
#     4  11  23  43  67  94 125 169 214 254 310 377
#
# _framework density 21.899498999999999
#
# number of rings (size 3 to 8) (size 9 to 14) (size 15 to 20)
#    0.000    1.000    3.750    3.000    5.250    4.000 
#    2.250    0.000    0.000    0.000    0.000    0.000 
#    0.000    0.000    0.000    0.000    0.000    0.000 
#
# Total GULP energy -89511.670780 kJ/mol
# GULP energy per Si atom -5594.479424 kJ/mol
# Density = 2.184965 g / cm^3
# Si number density = 21.899499 Si / 1000 Ang^3
#
#
#
# Elastic Constant Matrix: (Units=GPa)
#
#
# Indices 1 2 3 4 5 6 
#
# 1 41.6452 14.0098 16.9208 3.4377 -6.8194 -20.1220
# 2 14.0098 65.7432 23.2586 -24.5387 -2.3539 -15.1087
# 3 16.9208 23.2586 129.6176 -25.3965 -3.0295 -3.4769
# 4 3.4377 -24.5387 -25.3965 27.5388 6.8463 -10.9117
# 5 -6.8194 -2.3539 -3.0295 6.8463 21.5707 -8.5157
# 6 -20.1220 -15.1087 -3.4769 -10.9117 -8.5157 37.1997
#
#
#
# Elastic Compliance Matrix: (Units=1/GPa)
#
#
# Indices 1 2 3 4 5 6 
#
# 1 0.045720 -0.007103 -0.006533 -0.015691 0.026722 0.022750
# 2 -0.007103 0.042442 0.004947 0.055696 -0.002942 0.029522
# 3 -0.006533 0.004947 0.011250 0.018184 -0.004175 0.003905
# 4 -0.015691 0.055696 0.018184 0.128680 -0.017610 0.049547
# 5 0.026722 -0.002942 -0.004175 -0.017610 0.068743 0.023440
# 6 0.022750 0.029522 0.003905 0.049547 0.023440 0.071442
#
#
# Mechanical properties :
#
#
# Convention : Reuss Voigt Hill
#
# Bulk Modulus (GPa) = 12.19009 38.37603 25.28306
# Shear Modulus (GPa) = 12.10657 29.44964 20.77810
#
# Velocity S-wave (km/s) = 2.35377 3.67108 3.08359
# Velocity P-wave (km/s) = 3.60076 5.96078 4.92424
#
# Compressibility (1/GPa) = 0.08203384
#
# Stress axis : x y z
#
# Youngs Moduli (GPa) = 21.87249 23.56162 88.88707
#
# Poissons Ratio (x) = 0.16736 0.58073
# Poissons Ratio (y) = 0.15536 -0.43976
# Poissons Ratio (z) = 0.14290 -0.11657
#
# Static dielectric constant tensor:
#      x y z
#    x 1.790490 0.005110 -0.030260 
#    y 0.005110 1.770340 -0.000720 
#    z -0.030260 -0.000720 1.823810 
# 
# From -- ./inp_files/189912.got.cif
#   From: 2010.05.17/outbox.cif.g08.bks.cpg/sg2_95_cif.got.tgz:189912.got - 2010.06.03 11:33:40.
