data_PCOD9016510
_publ_section_title
;
Structure prediction by ZEFSAII (Michael W. Deem and Ramdas Pophale) SiO2 
 PCOD9016510
Probable space group: P -1
;
_chemical_formula_sum "Si O2"
_cell_formula_units_Z 15
_cell_length_a 14.467825
_cell_length_b 8.388740
_cell_length_c 14.756298
_cell_angle_alpha 111.223548
_cell_angle_beta 33.644237
_cell_angle_gamma 133.437009
_cell_volume 614.125816
_symmetry_space_group_name_H-M "P -1"
_symmetry_group_IT_number 2
_symmetry_cell_setting 'triclinic'
loop_
_space_group_symop_operation_xyz
x,y,z
-x,-y,-z
loop_
_atom_site_type_symbol
_atom_site_label
_atom_site_fract_x
_atom_site_fract_y
_atom_site_fract_z
Si Si1 0.508404 0.951257 0.270882
Si Si2 0.257626 0.473995 0.043666
Si Si3 0.016605 0.373468 0.541316
Si Si4 0.101340 0.921200 0.585391
Si Si5 0.058036 0.573145 0.074776
Si Si6 0.277665 0.174217 0.844401
Si Si7 0.675231 0.559504 0.447063
Si Si8 0.500000 0.000000 0.000000
O O1 0.365311 0.021770 0.409667
O O2 0.705899 0.015846 0.190134
O O3 0.295114 0.642410 0.396975
O O4 0.677437 0.110876 0.075142
O O5 0.119079 0.464723 0.070413
O O6 0.085063 0.304747 0.236485
O O7 0.324117 0.336296 0.924568
O O8 0.474161 0.772542 0.955292
O O9 0.980477 0.175853 0.470995
O O10 0.000000 0.500000 0.500000
O O11 0.795970 0.226455 0.763533
O O12 0.133510 0.144362 0.622310
O O13 0.830679 0.511795 0.284330
O O14 0.000000 0.500000 0.000000
O O15 0.479968 0.377479 0.647434
O O16 0.000000 0.000000 0.000000
O O17 0.500000 0.500000 0.500000
#
# Coordination Sequence:
#
# PCOD9016510 Si02
#       8
#     2   2   2   2   2   2   2   1
#     4  11  22  44  69 101 141 183 235 295 357 426
#     4  12  24  43  72 103 140 195 235 298 366 429
#     4  10  21  42  68 104 143 184 235 297 355 432
#     4  11  23  45  71 103 145 185 237 300 364 429
#     4  12  26  44  71 104 142 189 242 299 363 435
#     4  12  26  46  69 102 142 186 249 300 364 433
#     4  12  25  44  67 102 137 186 241 299 363 431
#     4  12  22  42  74 102 144 190 242 288 374 424
#
# _framework density 24.424963000000002
#
# number of rings (size 3 to 8) (size 9 to 14) (size 15 to 20)
#    0.000    0.533    2.667    8.800    0.000    0.000 
#    2.400    6.667    0.000    0.000    0.000    0.000 
#    0.000    0.000    0.000    0.000    0.000    0.000 
#
# Total GULP energy -83544.859596 kJ/mol
# GULP energy per Si atom -5569.657306 kJ/mol
# Density = 2.436937 g / cm^3
# Si number density = 24.424963 Si / 1000 Ang^3
#
#
#
# Elastic Constant Matrix: (Units=GPa)
#
#
# Indices 1 2 3 4 5 6 
#
# 1 53.8206 -8.0895 16.5267 -6.9501 5.8824 -14.5676
# 2 -8.0895 99.6473 24.2996 -14.0998 15.7163 4.2500
# 3 16.5267 24.2996 167.3495 -17.1652 23.6446 -2.4072
# 4 -6.9501 -14.0998 -17.1652 50.9091 -6.8376 7.8303
# 5 5.8824 15.7163 23.6446 -6.8376 36.8855 0.1022
# 6 -14.5676 4.2500 -2.4072 7.8303 0.1022 28.1473
#
#
#
# Elastic Compliance Matrix: (Units=1/GPa)
#
#
# Indices 1 2 3 4 5 6 
#
# 1 0.023057 0.002543 -0.001902 0.001049 -0.003378 0.011107
# 2 0.002543 0.011615 -0.001081 0.002846 -0.004131 -0.001307
# 3 -0.001902 -0.001081 0.006940 0.001415 -0.003421 -0.000609
# 4 0.001049 0.002846 0.001415 0.022215 0.001848 -0.005953
# 5 -0.003378 -0.004131 -0.003421 0.001848 0.031951 -0.002047
# 6 0.011107 -0.001307 -0.000609 -0.005953 -0.002047 0.043085
#
#
# Mechanical properties :
#
#
# Convention : Reuss Voigt Hill
#
# Bulk Modulus (GPa) = 24.54982 42.92122 33.73552
# Shear Modulus (GPa) = 32.61146 42.39375 37.50260
#
# Velocity S-wave (km/s) = 3.65796 4.17066 3.92270
# Velocity P-wave (km/s) = 5.28336 6.38775 5.86162
#
# Compressibility (1/GPa) = 0.04073349
#
# Stress axis : x y z
#
# Youngs Moduli (GPa) = 43.36987 86.09304 144.09200
#
# Poissons Ratio (x) = -0.21894 0.27402
# Poissons Ratio (y) = -0.11029 0.15576
# Poissons Ratio (z) = 0.08248 0.09307
#
# Static dielectric constant tensor:
#      x y z
#    x 1.660430 0.137650 -0.043630 
#    y 0.137650 1.989470 -0.082760 
#    z -0.043630 -0.082760 1.952440 
# 
# From -- ./inp_files/529980.got.cif
#   From: 2010.05.17/outbox.cif.g08.bks.cpg/sg2_265_cif.got.tgz:529980.got - 2010.06.03 11:33:40.
