data_PCOD9016710
_publ_section_title
;
Structure prediction by ZEFSAII (Michael W. Deem and Ramdas Pophale) SiO2 
 PCOD9016710
Probable space group: P -1
;
_chemical_formula_sum "Si O2"
_cell_formula_units_Z 12
_cell_length_a 14.753438
_cell_length_b 4.804311
_cell_length_c 8.798811
_cell_angle_alpha 84.428512
_cell_angle_beta 135.916352
_cell_angle_gamma 103.102889
_cell_volume 420.594566
_symmetry_space_group_name_H-M "P -1"
_symmetry_group_IT_number 2
_symmetry_cell_setting 'triclinic'
loop_
_space_group_symop_operation_xyz
x,y,z
-x,-y,-z
loop_
_atom_site_type_symbol
_atom_site_label
_atom_site_fract_x
_atom_site_fract_y
_atom_site_fract_z
Si Si1 0.964646 0.770612 0.102041
Si Si2 0.861285 0.815042 0.284710
Si Si3 0.352924 0.713743 0.943760
Si Si4 0.245906 0.959902 0.557207
Si Si5 0.705531 0.561410 0.671026
Si Si6 0.456370 0.244227 0.254273
O O1 0.883043 0.891310 0.129692
O O2 0.849821 0.520356 0.903044
O O3 0.105413 0.742508 0.348482
O O4 0.000000 0.000000 0.000000
O O5 0.802101 0.471001 0.218681
O O6 0.773506 0.886456 0.314259
O O7 0.000000 0.000000 0.500000
O O8 0.361134 0.815820 0.772626
O O9 0.442673 0.492514 0.105735
O O10 0.388612 0.947752 0.108240
O O11 0.274432 0.201378 0.450806
O O12 0.605425 0.281672 0.497578
O O13 0.627904 0.676562 0.708168
#
# Coordination Sequence:
#
# PCOD9016710 Si02
#       6
#     2   2   2   2   2   2
#     4   9  18  39  70 100 137 178 231 285 346 407
#     4  10  21  42  69 100 140 179 224 286 348 408
#     4  12  23  48  69 107 134 187 231 286 348 409
#     4  10  22  41  74 104 139 177 235 290 350 404
#     4  10  22  46  67 105 138 190 230 285 342 418
#     4  11  26  46  73  97 144 188 233 281 341 414
#
# _framework density 28.531037000000001
#
# number of rings (size 3 to 8) (size 9 to 14) (size 15 to 20)
#    0.000    1.667    3.333    0.000    0.000    6.667 
#    6.000    0.000    0.000   11.000    0.000    0.000 
#    0.000    0.000    0.000    0.000    0.000    0.000 
#
# Total GULP energy -67069.708002 kJ/mol
# GULP energy per Si atom -5589.142333 kJ/mol
# Density = 2.846610 g / cm^3
# Si number density = 28.531037 Si / 1000 Ang^3
#
#
#
# Elastic Constant Matrix: (Units=GPa)
#
#
# Indices 1 2 3 4 5 6 
#
# 1 95.1350 30.0549 60.6024 0.4743 -30.4672 12.4470
# 2 30.0549 106.1505 73.2688 16.1861 -10.3442 -11.7771
# 3 60.6024 73.2688 279.3655 38.2776 18.0883 11.6901
# 4 0.4743 16.1861 38.2776 75.2589 19.6223 -1.3293
# 5 -30.4672 -10.3442 18.0883 19.6223 72.7652 3.6856
# 6 12.4470 -11.7771 11.6901 -1.3293 3.6856 36.9953
#
#
#
# Elastic Compliance Matrix: (Units=1/GPa)
#
#
# Indices 1 2 3 4 5 6 
#
# 1 0.016583 -0.002396 -0.003203 -0.000084 0.007731 -0.006103
# 2 -0.002396 0.013311 -0.003106 -0.001638 0.001810 0.005786
# 3 -0.003203 -0.003106 0.005521 -0.001443 -0.002693 -0.001440
# 4 -0.000084 -0.001638 -0.001443 0.015467 -0.004127 0.000930
# 5 0.007731 0.001810 -0.002693 -0.004127 0.019183 -0.003233
# 6 -0.006103 0.005786 -0.001440 0.000930 -0.003233 0.031736
#
#
# Mechanical properties :
#
#
# Convention : Reuss Voigt Hill
#
# Bulk Modulus (GPa) = 55.53677 89.83369 72.68523
# Shear Modulus (GPa) = 39.93207 58.11888 49.02548
#
# Velocity S-wave (km/s) = 3.74518 4.51826 4.14976
# Velocity P-wave (km/s) = 6.18138 7.66643 6.96361
#
# Compressibility (1/GPa) = 0.01800609
#
# Stress axis : x y z
#
# Youngs Moduli (GPa) = 60.30236 75.12626 181.11540
#
# Poissons Ratio (x) = 0.17997 0.58007
# Poissons Ratio (y) = 0.14446 0.56260
# Poissons Ratio (z) = 0.19313 0.23336
#
# Static dielectric constant tensor:
#      x y z
#    x 2.337010 -0.098100 0.083840 
#    y -0.098100 2.377690 0.018560 
#    z 0.083840 0.018560 2.230510 
# 
# From -- ./inp_files/321887.got.cif
#   From: 2010.05.17/outbox.cif.g08.bks.cpg/sg2_161_cif.got.tgz:321887.got - 2010.06.03 11:33:40.
