data_PCOD9016623
_publ_section_title
;
Structure prediction by ZEFSAII (Michael W. Deem and Ramdas Pophale) SiO2 
 PCOD9016623
Probable space group: P -1
;
_chemical_formula_sum "Si O2"
_cell_formula_units_Z 16
_cell_length_a 16.093549
_cell_length_b 7.755380
_cell_length_c 20.233677
_cell_angle_alpha 32.730499
_cell_angle_beta 27.908633
_cell_angle_gamma 47.653735
_cell_volume 614.346406
_symmetry_space_group_name_H-M "P -1"
_symmetry_group_IT_number 2
_symmetry_cell_setting 'triclinic'
loop_
_space_group_symop_operation_xyz
x,y,z
-x,-y,-z
loop_
_atom_site_type_symbol
_atom_site_label
_atom_site_fract_x
_atom_site_fract_y
_atom_site_fract_z
Si Si1 0.181956 0.528073 0.113937
Si Si2 0.721554 0.191048 0.293131
Si Si3 0.146056 0.187488 0.565535
Si Si4 0.828234 0.088400 0.124773
Si Si5 0.757442 0.097954 0.791016
Si Si6 0.228225 0.916341 0.468662
Si Si7 0.334959 0.615931 0.111665
Si Si8 0.511954 0.473924 0.578648
O O1 0.226355 0.695478 0.099601
O O2 0.961687 0.364593 0.317784
O O3 0.264944 0.222277 0.135702
O O4 0.257388 0.780070 0.920224
O O5 0.842141 0.338541 0.095710
O O6 0.677872 0.490698 0.269376
O O7 0.500000 0.000000 0.500000
O O8 0.820295 0.963254 0.339828
O O9 0.223153 0.582889 0.372668
O O10 0.943632 0.115479 0.697790
O O11 0.253076 0.999165 0.501935
O O12 0.697847 0.781601 0.353911
O O13 0.000000 0.000000 0.000000
O O14 0.627528 0.136929 0.931804
O O15 0.409786 0.814466 0.352689
O O16 0.209165 0.259678 0.341729
O O17 0.500000 0.500000 0.000000
O O18 0.500000 0.500000 0.500000
#
# Coordination Sequence:
#
# PCOD9016623 Si02
#       8
#     2   2   2   2   2   2   2   2
#     4  11  24  45  67  96 134 179 230 277 333 411
#     4  10  23  37  64  98 133 176 220 275 345 395
#     4   9  18  40  66  96 128 168 229 278 326 417
#     4  11  25  43  61  97 135 178 228 274 330 406
#     4   9  22  41  68  94 129 175 219 283 340 393
#     4  10  21  42  68  96 132 177 227 267 346 408
#     4  11  26  41  67 103 131 174 224 285 343 401
#     4  11  22  41  68  97 132 178 214 280 341 394
#
# _framework density 26.043938000000001
#
# number of rings (size 3 to 8) (size 9 to 14) (size 15 to 20)
#    0.000    1.750    2.500    1.125    3.500    4.500 
#    0.000    3.125    0.000    0.000    0.000    0.000 
#    0.000    0.000    0.000    0.000    0.000    0.000 
#
# Total GULP energy -89278.383678 kJ/mol
# GULP energy per Si atom -5579.898980 kJ/mol
# Density = 2.598466 g / cm^3
# Si number density = 26.043938 Si / 1000 Ang^3
#
#
#
# Elastic Constant Matrix: (Units=GPa)
#
#
# Indices 1 2 3 4 5 6 
#
# 1 83.0404 14.9055 29.1759 1.8044 31.9435 -10.0253
# 2 14.9055 123.8565 25.2758 35.3138 6.6653 -21.0039
# 3 29.1759 25.2758 70.5420 14.9628 12.0461 -2.8637
# 4 1.8044 35.3138 14.9628 51.1511 5.1095 11.2116
# 5 31.9435 6.6653 12.0461 5.1095 43.9518 5.0765
# 6 -10.0253 -21.0039 -2.8637 11.2116 5.0765 38.3577
#
#
#
# Elastic Compliance Matrix: (Units=1/GPa)
#
#
# Indices 1 2 3 4 5 6 
#
# 1 0.020266 0.000537 -0.006027 0.000581 -0.014015 0.006826
# 2 0.000537 0.013454 -0.001971 -0.010910 -0.001869 0.010797
# 3 -0.006027 -0.001971 0.018119 -0.003690 0.000171 -0.000246
# 4 0.000581 -0.010910 -0.003690 0.031468 0.000357 -0.015343
# 5 -0.014015 -0.001869 0.000171 0.000357 0.034208 -0.009305
# 6 0.006826 0.010797 -0.000246 -0.015343 -0.009305 0.039464
#
#
# Mechanical properties :
#
#
# Convention : Reuss Voigt Hill
#
# Bulk Modulus (GPa) = 27.08877 46.23927 36.66402
# Shear Modulus (GPa) = 27.14346 40.56422 33.85384
#
# Velocity S-wave (km/s) = 3.23184 3.95084 3.60929
# Velocity P-wave (km/s) = 4.93459 6.21329 5.61049
#
# Compressibility (1/GPa) = 0.03691567
#
# Stress axis : x y z
#
# Youngs Moduli (GPa) = 49.34338 74.32922 55.19194
#
# Poissons Ratio (x) = -0.03992 0.33267
# Poissons Ratio (y) = -0.02650 0.10879
# Poissons Ratio (z) = 0.29742 0.14651
#
# Static dielectric constant tensor:
#      x y z
#    x 8.976530 6.804980 -2.184780 
#    y 6.804980 8.776860 -2.111990 
#    z -2.184780 -2.111990 2.726800 
# 
# From -- ./inp_files/599323.got.cif
#   From: 2010.05.17/outbox.cif.g08.bks.cpg/sg2_300_cif.got.tgz:599323.got - 2010.06.03 11:33:40.
