data_PCOD9016790
_publ_section_title
;
Structure prediction by ZEFSAII (Michael W. Deem and Ramdas Pophale) SiO2 
 PCOD9016790
Probable space group: P -1
;
_chemical_formula_sum "Si O2"
_cell_formula_units_Z 16
_cell_length_a 16.322032
_cell_length_b 7.324024
_cell_length_c 9.112171
_cell_angle_alpha 75.759725
_cell_angle_beta 72.685297
_cell_angle_gamma 39.440864
_cell_volume 660.416626
_symmetry_space_group_name_H-M "P -1"
_symmetry_group_IT_number 2
_symmetry_cell_setting 'triclinic'
loop_
_space_group_symop_operation_xyz
x,y,z
-x,-y,-z
loop_
_atom_site_type_symbol
_atom_site_label
_atom_site_fract_x
_atom_site_fract_y
_atom_site_fract_z
Si Si1 0.430126 0.202367 0.354580
Si Si2 0.695209 0.780327 0.142921
Si Si3 0.760352 0.994624 0.258753
Si Si4 0.852324 0.183560 0.023802
Si Si5 0.239495 0.109001 0.198911
Si Si6 0.911477 0.830793 0.501429
Si Si7 0.847178 0.383405 0.700484
Si Si8 0.525692 0.448385 0.668773
O O1 0.281858 0.380391 0.376770
O O2 0.417264 0.446003 0.336309
O O3 0.500000 0.000000 0.500000
O O4 0.540968 0.995484 0.209938
O O5 0.764969 0.472255 0.113144
O O6 0.752350 0.788740 0.257987
O O7 0.720170 0.904202 0.984744
O O8 0.852907 0.966866 0.115659
O O9 0.618562 0.317615 0.234455
O O10 0.800775 0.981273 0.406015
O O11 0.818915 0.264839 0.854792
O O12 0.000000 0.000000 0.000000
O O13 0.153415 0.081054 0.320606
O O14 0.158530 0.425740 0.228141
O O15 0.375954 0.869952 0.262871
O O16 0.000000 0.500000 0.500000
O O17 0.011169 0.835369 0.409391
O O18 0.500000 0.500000 0.500000
#
# Coordination Sequence:
#
# PCOD9016790 Si02
#       8
#     2   2   2   2   2   2   2   2
#     4  11  26  43  68 100 138 176 228 291 344 400
#     4  10  27  44  69 106 135 180 229 285 343 404
#     4  11  24  43  70  98 139 181 228 283 338 411
#     4  11  24  45  69 103 141 179 227 281 347 410
#     4  10  22  42  67  98 133 181 226 281 347 398
#     4  10  21  42  69  92 135 186 225 275 345 409
#     4  10  23  43  65  98 136 176 226 283 344 409
#     4  11  23  40  69  97 131 181 232 278 340 408
#
# _framework density 24.227129999999999
#
# number of rings (size 3 to 8) (size 9 to 14) (size 15 to 20)
#    0.000    1.500    2.500    0.750   12.250    2.500 
#    0.000    0.625    0.000    0.000    0.000    0.000 
#    0.000    0.000    0.000    0.000    0.000    0.000 
#
# Total GULP energy -89283.572060 kJ/mol
# GULP energy per Si atom -5580.223254 kJ/mol
# Density = 2.417199 g / cm^3
# Si number density = 24.227130 Si / 1000 Ang^3
#
#
#
# Elastic Constant Matrix: (Units=GPa)
#
#
# Indices 1 2 3 4 5 6 
#
# 1 95.4447 17.8937 25.6393 18.0147 -1.2002 -11.5520
# 2 17.8937 77.7960 12.9754 4.0157 16.3881 -4.3644
# 3 25.6393 12.9754 109.5028 7.6934 -6.1211 -9.2211
# 4 18.0147 4.0157 7.6934 34.0572 -2.9049 -2.4147
# 5 -1.2002 16.3881 -6.1211 -2.9049 30.4877 5.6308
# 6 -11.5520 -4.3644 -9.2211 -2.4147 5.6308 37.1239
#
#
#
# Elastic Compliance Matrix: (Units=1/GPa)
#
#
# Indices 1 2 3 4 5 6 
#
# 1 0.012907 -0.002195 -0.002101 -0.005878 0.000184 0.002826
# 2 -0.002195 0.015777 -0.001632 -0.000980 -0.009381 0.002125
# 3 -0.002101 -0.001632 0.010111 -0.000677 0.002531 0.001238
# 4 -0.005878 -0.000980 -0.000677 0.032995 0.003392 -0.000481
# 5 0.000184 -0.009381 0.002531 0.003392 0.039833 -0.006238
# 6 0.002826 0.002125 0.001238 -0.000481 -0.006238 0.029288
#
#
# Mechanical properties :
#
#
# Convention : Reuss Voigt Hill
#
# Bulk Modulus (GPa) = 37.12107 43.97339 40.54723
# Shear Modulus (GPa) = 30.91243 35.41608 33.16426
#
# Velocity S-wave (km/s) = 3.57591 3.82754 3.70386
# Velocity P-wave (km/s) = 5.69253 6.14193 5.92149
#
# Compressibility (1/GPa) = 0.02693888
#
# Stress axis : x y z
#
# Youngs Moduli (GPa) = 77.47796 63.38274 98.90494
#
# Poissons Ratio (x) = 0.13914 0.20777
# Poissons Ratio (y) = 0.17008 0.16142
# Poissons Ratio (z) = 0.16276 0.10344
#
# Static dielectric constant tensor:
#      x y z
#    x 2.005270 -0.012080 -0.000100 
#    y -0.012080 1.923340 0.022990 
#    z -0.000100 0.022990 2.004370 
# 
# From -- ./inp_files/328709.got.cif
#   From: 2010.05.17/outbox.cif.g08.bks.cpg/sg2_165_cif.got.tgz:328709.got - 2010.06.03 11:33:40.
