data_PCOD9016145
_publ_section_title
;
Structure prediction by ZEFSAII (Michael W. Deem and Ramdas Pophale) SiO2 
 PCOD9016145
Probable space group: P -1
;
_chemical_formula_sum "Si O2"
_cell_formula_units_Z 14
_cell_length_a 9.267298
_cell_length_b 11.492507
_cell_length_c 8.288666
_cell_angle_alpha 125.204163
_cell_angle_beta 71.693491
_cell_angle_gamma 80.159402
_cell_volume 610.264983
_symmetry_space_group_name_H-M "P -1"
_symmetry_group_IT_number 2
_symmetry_cell_setting 'triclinic'
loop_
_space_group_symop_operation_xyz
x,y,z
-x,-y,-z
loop_
_atom_site_type_symbol
_atom_site_label
_atom_site_fract_x
_atom_site_fract_y
_atom_site_fract_z
Si Si1 0.485125 0.344757 0.444781
Si Si2 0.581194 0.616772 0.116792
Si Si3 0.236082 0.860872 0.361806
Si Si4 0.130854 0.297841 0.990481
Si Si5 0.819033 0.029806 0.160338
Si Si6 0.052572 0.202105 0.603176
Si Si7 0.870119 0.579135 0.464876
O O1 0.500000 0.500000 0.500000
O O2 0.427821 0.370057 0.674573
O O3 0.659421 0.177209 0.247942
O O4 0.331779 0.346143 0.392494
O O5 0.437022 0.783197 0.227792
O O6 0.754161 0.608299 0.976615
O O7 0.500000 0.500000 0.000000
O O8 0.185909 0.913047 0.606790
O O9 0.145694 0.750487 0.262504
O O10 0.149946 0.012429 0.399061
O O11 0.132565 0.241121 0.762406
O O12 0.187895 0.140384 0.956259
O O13 0.938132 0.427759 0.198841
O O14 0.000000 0.000000 0.000000
O O15 0.084813 0.286699 0.510667
O O16 0.000000 0.500000 0.500000
#
# Coordination Sequence:
#
# PCOD9016145 Si02
#       7
#     2   2   2   2   2   2   2
#     4  11  26  45  68  98 138 184 219 283 348 400
#     4  11  24  42  69 100 137 173 234 284 337 409
#     4   9  22  39  70  97 130 172 224 286 338 400
#     4  11  24  43  71  98 131 184 230 283 343 401
#     4  10  23  45  71 100 138 177 228 286 348 408
#     4  10  21  42  66  97 128 176 228 278 338 395
#     4  12  27  42  66  96 142 179 229 279 336 404
#
# _framework density 22.940856
#
# number of rings (size 3 to 8) (size 9 to 14) (size 15 to 20)
#    0.000    1.429    1.429    2.143   12.000    1.714 
#    2.571    0.714    0.000    0.000    0.000    0.000 
#    0.000    0.000    0.000    0.000    0.000    0.000 
#
# Total GULP energy -78186.158443 kJ/mol
# GULP energy per Si atom -5584.725603 kJ/mol
# Density = 2.288864 g / cm^3
# Si number density = 22.940856 Si / 1000 Ang^3
#
#
#
# Elastic Constant Matrix: (Units=GPa)
#
#
# Indices 1 2 3 4 5 6 
#
# 1 132.0499 71.6921 23.5623 9.5656 -20.4630 -9.5432
# 2 71.6921 188.3400 14.6262 13.9693 -21.3635 -2.7372
# 3 23.5623 14.6262 42.7514 7.9160 -20.9758 1.2936
# 4 9.5656 13.9693 7.9160 22.2961 -4.7422 -2.4270
# 5 -20.4630 -21.3635 -20.9758 -4.7422 35.8939 10.8261
# 6 -9.5432 -2.7372 1.2936 -2.4270 10.8261 42.4823
#
#
#
# Elastic Compliance Matrix: (Units=1/GPa)
#
#
# Indices 1 2 3 4 5 6 
#
# 1 0.010542 -0.003537 -0.004203 -0.000427 0.000775 0.002046
# 2 -0.003537 0.007091 0.001698 -0.002994 0.003217 -0.001380
# 3 -0.004203 0.001698 0.037796 -0.008888 0.021968 -0.008092
# 4 -0.000427 -0.002994 -0.008888 0.050083 -0.001582 0.003246
# 5 0.000775 0.003217 0.021968 -0.001582 0.046536 -0.012237
# 6 0.002046 -0.001380 -0.008092 0.003246 -0.012237 0.027460
#
#
# Mechanical properties :
#
#
# Convention : Reuss Voigt Hill
#
# Bulk Modulus (GPa) = 23.07049 64.76694 43.91872
# Shear Modulus (GPa) = 24.26715 37.01851 30.64283
#
# Velocity S-wave (km/s) = 3.25593 4.02138 3.65873
# Velocity P-wave (km/s) = 4.92068 7.06084 6.08558
#
# Compressibility (1/GPa) = 0.04334541
#
# Stress axis : x y z
#
# Youngs Moduli (GPa) = 94.85759 141.02316 26.45809
#
# Poissons Ratio (x) = 0.49882 0.11119
# Poissons Ratio (y) = 0.33553 -0.04493
# Poissons Ratio (z) = 0.39865 -0.23947
#
# Static dielectric constant tensor:
#      x y z
#    x 1.938510 -0.017910 0.074160 
#    y -0.017910 1.855510 0.008370 
#    z 0.074160 0.008370 2.008850 
# 
# From -- ./inp_files/182255.got.cif
#   From: 2010.05.17/outbox.cif.g08.bks.cpg/sg2_92_cif.got.tgz:182255.got - 2010.06.03 11:33:40.
