data_PCOD9016977
_publ_section_title
;
Structure prediction by ZEFSAII (Michael W. Deem and Ramdas Pophale) SiO2 
 PCOD9016977
Probable space group: P -1
;
_chemical_formula_sum "Si O2"
_cell_formula_units_Z 16
_cell_length_a 9.057608
_cell_length_b 17.516388
_cell_length_c 9.110596
_cell_angle_alpha 132.001454
_cell_angle_beta 57.191881
_cell_angle_gamma 90.662613
_cell_volume 746.776553
_symmetry_space_group_name_H-M "P -1"
_symmetry_group_IT_number 2
_symmetry_cell_setting 'triclinic'
loop_
_space_group_symop_operation_xyz
x,y,z
-x,-y,-z
loop_
_atom_site_type_symbol
_atom_site_label
_atom_site_fract_x
_atom_site_fract_y
_atom_site_fract_z
Si Si1 0.344485 0.292110 0.401325
Si Si2 0.942570 0.908581 0.478398
Si Si3 0.521444 0.959284 0.105739
Si Si4 0.983546 0.340601 0.890108
Si Si5 0.488500 0.443904 0.587174
Si Si6 0.031133 0.099605 0.191441
Si Si7 0.729527 0.397240 0.676008
Si Si8 0.005081 0.502300 0.673757
O O1 0.512728 0.312000 0.410447
O O2 0.172740 0.300267 0.618217
O O3 0.233844 0.402801 0.487361
O O4 0.445846 0.171702 0.095222
O O5 0.068993 0.762135 0.190565
O O6 0.951908 0.917593 0.662480
O O7 0.000000 0.000000 0.500000
O O8 0.712567 0.949406 0.590039
O O9 0.733216 0.938033 0.030570
O O10 0.500000 0.000000 0.000000
O O11 0.758697 0.459513 0.107079
O O12 0.056458 0.376324 0.044653
O O13 0.500000 0.500000 0.500000
O O14 0.672188 0.423157 0.568032
O O15 0.853630 0.248352 0.449994
O O16 0.000000 0.000000 0.000000
O O17 0.873744 0.443767 0.709188
O O18 0.500000 0.500000 0.000000
O O19 0.000000 0.500000 0.500000
#
# Coordination Sequence:
#
# PCOD9016977 Si02
#       8
#     2   2   2   2   2   2   2   2
#     4  11  20  42  67  88 125 176 225 261 318 420
#     4  11  25  45  71  98 133 177 229 287 334 410
#     4  10  21  42  70  91 128 177 233 263 334 410
#     4  11  22  44  67  93 126 176 235 259 330 421
#     4  11  25  37  64 100 129 169 218 273 340 391
#     4  11  25  44  68 102 136 180 231 278 343 407
#     4  12  23  41  63  97 137 169 218 282 332 394
#     4  11  23  40  62  94 130 168 208 282 336 388
#
# _framework density 21.425419000000002
#
# number of rings (size 3 to 8) (size 9 to 14) (size 15 to 20)
#    0.000    1.000    3.750    5.250    5.250    2.000 
#    2.250    0.625    0.000    0.000    0.000    0.000 
#    0.000    0.000    0.000    0.000    0.000    0.000 
#
# Total GULP energy -89123.597170 kJ/mol
# GULP energy per Si atom -5570.224823 kJ/mol
# Density = 2.137665 g / cm^3
# Si number density = 21.425419 Si / 1000 Ang^3
#
#
#
# Elastic Constant Matrix: (Units=GPa)
#
#
# Indices 1 2 3 4 5 6 
#
# 1 124.1808 40.0540 36.6360 17.7142 16.1592 12.3249
# 2 40.0540 111.8965 29.1677 7.9636 16.1907 1.6817
# 3 36.6360 29.1677 60.3252 18.7069 13.5672 -5.4090
# 4 17.7142 7.9636 18.7069 34.4468 5.0131 13.7562
# 5 16.1592 16.1907 13.5672 5.0131 37.4195 5.6713
# 6 12.3249 1.6817 -5.4090 13.7562 5.6713 40.9621
#
#
#
# Elastic Compliance Matrix: (Units=1/GPa)
#
#
# Indices 1 2 3 4 5 6 
#
# 1 0.010976 -0.002241 -0.005469 -0.000555 -0.001170 -0.003584
# 2 -0.002241 0.011014 -0.003780 0.001153 -0.002534 -0.000313
# 3 -0.005469 -0.003780 0.029147 -0.015980 -0.006230 0.011878
# 4 -0.000555 0.001153 -0.015980 0.044258 0.002206 -0.017159
# 5 -0.001170 -0.002534 -0.006230 0.002206 0.031110 -0.005415
# 6 -0.003584 -0.000313 0.011878 -0.017159 -0.005415 0.033585
#
#
# Mechanical properties :
#
#
# Convention : Reuss Voigt Hill
#
# Bulk Modulus (GPa) = 35.51371 56.45753 45.98562
# Shear Modulus (GPa) = 25.98017 35.26867 30.62442
#
# Velocity S-wave (km/s) = 3.48600 4.06163 3.78478
# Velocity P-wave (km/s) = 5.72839 6.95728 6.37253
#
# Compressibility (1/GPa) = 0.02815814
#
# Stress axis : x y z
#
# Youngs Moduli (GPa) = 91.10765 90.79693 34.30873
#
# Poissons Ratio (x) = 0.20346 0.18762
# Poissons Ratio (y) = 0.20416 0.12968
# Poissons Ratio (z) = 0.49823 0.34321
#
# Static dielectric constant tensor:
#      x y z
#    x 1.919640 0.038000 -0.013040 
#    y 0.038000 1.876140 0.062160 
#    z -0.013040 0.062160 1.982980 
# 
# From -- ./inp_files/215732.got.cif
#   From: 2010.05.17/outbox.cif.g08.bks.cpg/sg2_108_cif.got.tgz:215732.got - 2010.06.03 11:33:40.
