data_PCOD9016999
_publ_section_title
;
Structure prediction by ZEFSAII (Michael W. Deem and Ramdas Pophale) SiO2 
 PCOD9016999
Probable space group: P -1
;
_chemical_formula_sum "Si O2"
_cell_formula_units_Z 16
_cell_length_a 16.013654
_cell_length_b 21.081978
_cell_length_c 13.415122
_cell_angle_alpha 155.772481
_cell_angle_beta 144.835031
_cell_angle_gamma 21.147105
_cell_volume 653.594758
_symmetry_space_group_name_H-M "P -1"
_symmetry_group_IT_number 2
_symmetry_cell_setting 'triclinic'
loop_
_space_group_symop_operation_xyz
x,y,z
-x,-y,-z
loop_
_atom_site_type_symbol
_atom_site_label
_atom_site_fract_x
_atom_site_fract_y
_atom_site_fract_z
Si Si1 0.109575 0.526082 0.564439
Si Si2 0.976307 0.688532 0.291579
Si Si3 0.244150 0.697923 0.478664
Si Si4 0.709022 0.948817 0.613650
Si Si5 0.800356 0.792553 0.937622
Si Si6 0.497856 0.534101 0.815054
Si Si7 0.876213 0.270922 0.957774
Si Si8 0.342324 0.370073 0.338717
O O1 0.911559 0.737194 0.590726
O O2 0.000000 0.500000 0.500000
O O3 0.298164 0.252978 0.303780
O O4 0.190298 0.598935 0.815095
O O5 0.798836 0.861897 0.460442
O O6 0.002974 0.790100 0.375558
O O7 0.234093 0.521999 0.348576
O O8 0.000000 0.500000 0.000000
O O9 0.500000 0.500000 0.500000
O O10 0.335815 0.605713 0.321186
O O11 0.108143 0.971316 0.767587
O O12 0.500000 0.000000 0.500000
O O13 0.628691 0.192993 0.905621
O O14 0.811972 0.659002 0.845299
O O15 0.036857 0.667452 0.946444
O O16 0.607615 0.084641 0.186119
O O17 0.658957 0.374727 0.840531
O O18 0.328563 0.528068 0.624766
#
# Coordination Sequence:
#
# PCOD9016999 Si02
#       8
#     2   2   2   2   2   2   2   2
#     4  10  22  41  72 102 137 186 238 298 362 432
#     4  12  28  45  72 106 145 194 248 302 368 442
#     4  12  24  46  72 108 148 192 243 303 367 437
#     4  12  26  49  76 105 149 195 247 307 373 441
#     4  10  21  42  70  94 143 180 240 289 363 426
#     4  12  26  45  74 106 151 191 247 300 375 436
#     4  11  24  43  73 107 138 195 243 302 364 435
#     4  11  24  42  68 105 139 192 234 301 364 432
#
# _framework density 24.480001000000001
#
# number of rings (size 3 to 8) (size 9 to 14) (size 15 to 20)
#    0.000    0.750    3.750    3.375    1.750    6.500 
#    0.000    1.250    0.000    0.000    0.000    0.000 
#    0.000    0.000    0.000    0.000    0.000    0.000 
#
# Total GULP energy -89109.786152 kJ/mol
# GULP energy per Si atom -5569.361634 kJ/mol
# Density = 2.442428 g / cm^3
# Si number density = 24.480001 Si / 1000 Ang^3
#
#
#
# Elastic Constant Matrix: (Units=GPa)
#
#
# Indices 1 2 3 4 5 6 
#
# 1 21.2661 0.8862 27.8821 -20.8426 -40.1506 -81.1493
# 2 0.8862 92.1570 48.3623 -18.0960 -11.4563 -3.8007
# 3 27.8821 48.3623 185.8168 -4.5345 -14.1771 -11.2650
# 4 -20.8426 -18.0960 -4.5345 47.0813 -1.6690 -2.5575
# 5 -40.1506 -11.4563 -14.1771 -1.6690 41.7267 -30.8069
# 6 -81.1493 -3.8007 -11.2650 -2.5575 -30.8069 12.7859
#
#
#
# Elastic Compliance Matrix: (Units=1/GPa)
#
#
# Indices 1 2 3 4 5 6 
#
# 1 0.001125 -0.000748 -0.001020 -0.000605 -0.006243 -0.009142
# 2 -0.000748 0.013430 -0.003410 0.004377 0.000185 -0.002437
# 3 -0.001020 -0.003410 0.006597 -0.000994 0.001408 0.001521
# 4 -0.000605 0.004377 -0.000994 0.022203 -0.002472 -0.004932
# 5 -0.006243 0.000185 0.001408 -0.002472 0.013190 -0.007041
# 6 -0.009142 -0.002437 0.001521 -0.004932 -0.007041 0.002851
#
#
# Mechanical properties :
#
#
# Convention : Reuss Voigt Hill
#
# Bulk Modulus (GPa) = 92.61085 50.38902 71.49994
# Shear Modulus (GPa) = 68.16682 35.12606 51.64644
#
# Velocity S-wave (km/s) = 5.28265 3.79210 4.59817
# Velocity P-wave (km/s) = 8.66729 6.30887 7.58036
#
# Compressibility (1/GPa) = 0.01079787
#
# Stress axis : x y z
#
# Youngs Moduli (GPa) = 888.72668 74.46245 151.57299
#
# Poissons Ratio (x) = 0.05568 0.15453
# Poissons Ratio (y) = 0.66457 0.51685
# Poissons Ratio (z) = 0.90609 0.25391
#
# Static dielectric constant tensor:
#      x y z
#    x 10.163200 2.769580 1.663370 
#    y 2.769580 2.911580 0.503800 
#    z 1.663370 0.503800 2.385470 
# 
# From -- ./inp_files/539314.got.cif
#   From: 2010.05.17/outbox.cif.g08.bks.cpg/sg2_270_cif.got.tgz:539314.got - 2010.06.03 11:33:40.
