data_PCOD9016628
_publ_section_title
;
Structure prediction by ZEFSAII (Michael W. Deem and Ramdas Pophale) SiO2 
 PCOD9016628
Probable space group: P -1
;
_chemical_formula_sum "Si O2"
_cell_formula_units_Z 16
_cell_length_a 14.861869
_cell_length_b 8.073459
_cell_length_c 8.437269
_cell_angle_alpha 64.072836
_cell_angle_beta 128.018753
_cell_angle_gamma 98.737199
_cell_volume 707.359575
_symmetry_space_group_name_H-M "P -1"
_symmetry_group_IT_number 2
_symmetry_cell_setting 'triclinic'
loop_
_space_group_symop_operation_xyz
x,y,z
-x,-y,-z
loop_
_atom_site_type_symbol
_atom_site_label
_atom_site_fract_x
_atom_site_fract_y
_atom_site_fract_z
Si Si1 0.792067 0.749820 0.417812
Si Si2 0.137814 0.948181 0.176445
Si Si3 0.175831 0.613985 0.581945
Si Si4 0.241984 0.890937 0.980118
Si Si5 0.585458 0.311649 0.216003
Si Si6 0.466642 0.694989 0.470667
Si Si7 0.344476 0.101489 0.515592
Si Si8 0.039049 0.775823 0.658265
O O1 0.793580 0.599448 0.344720
O O2 0.697457 0.753747 0.449533
O O3 0.925714 0.714785 0.635991
O O4 0.763913 0.954873 0.225830
O O5 0.153910 0.736318 0.347281
O O6 0.181862 0.980053 0.036527
O O7 0.223942 0.047153 0.339556
O O8 0.000000 0.000000 0.000000
O O9 0.295080 0.669081 0.750160
O O10 0.073636 0.676978 0.568969
O O11 0.370312 0.808474 0.204667
O O12 0.157016 0.746978 0.897697
O O13 0.587131 0.316850 0.408232
O O14 0.576318 0.094902 0.263440
O O15 0.500000 0.500000 0.000000
O O16 0.500000 0.500000 0.500000
O O17 0.577878 0.799312 0.559960
O O18 0.000000 0.000000 0.500000
#
# Coordination Sequence:
#
# PCOD9016628 Si02
#       8
#     2   2   2   2   2   2   2   2
#     4  11  24  43  68 102 134 179 227 281 339 413
#     4  11  22  43  69  97 133 178 222 285 341 401
#     4  11  23  43  66 103 133 172 235 277 341 412
#     4  11  23  42  67  95 138 177 226 276 342 399
#     4  11  25  44  70  98 134 179 227 280 341 407
#     4  12  27  45  66 101 139 178 233 282 335 409
#     4  11  25  46  70  96 143 179 227 279 344 403
#     4  10  21  42  68  96 135 177 222 277 338 401
#
# _framework density 22.619329
#
# number of rings (size 3 to 8) (size 9 to 14) (size 15 to 20)
#    0.000    1.000    2.500    6.750    5.250    0.500 
#    2.250    1.250    0.000    0.000    0.000    0.000 
#    0.000    0.000    0.000    0.000    0.000    0.000 
#
# Total GULP energy -89280.068555 kJ/mol
# GULP energy per Si atom -5580.004285 kJ/mol
# Density = 2.256785 g / cm^3
# Si number density = 22.619329 Si / 1000 Ang^3
#
#
#
# Elastic Constant Matrix: (Units=GPa)
#
#
# Indices 1 2 3 4 5 6 
#
# 1 109.1897 20.6673 24.8175 -9.2532 19.7049 -20.8956
# 2 20.6673 86.3615 2.4540 -3.3771 13.6228 -12.6584
# 3 24.8175 2.4540 74.4850 -0.8217 18.6455 9.4281
# 4 -9.2532 -3.3771 -0.8217 17.5613 -8.3294 3.4753
# 5 19.7049 13.6228 18.6455 -8.3294 26.1677 5.3908
# 6 -20.8956 -12.6584 9.4281 3.4753 5.3908 38.8764
#
#
#
# Elastic Compliance Matrix: (Units=1/GPa)
#
#
# Indices 1 2 3 4 5 6 
#
# 1 0.013452 -0.000287 -0.003294 0.000645 -0.009318 0.009170
# 2 -0.000287 0.013958 0.001467 -0.003473 -0.010393 0.005787
# 3 -0.003294 0.001467 0.017883 -0.005688 -0.012128 -0.003440
# 4 0.000645 -0.003473 -0.005688 0.072916 0.030682 -0.010178
# 5 -0.009318 -0.010393 -0.012128 0.030682 0.072818 -0.018291
# 6 0.009170 0.005787 -0.003440 -0.010178 -0.018291 0.036816
#
#
# Mechanical properties :
#
#
# Convention : Reuss Voigt Hill
#
# Bulk Modulus (GPa) = 24.35126 40.65709 32.50417
# Shear Modulus (GPa) = 20.34502 31.32755 25.83629
#
# Velocity S-wave (km/s) = 3.00234 3.72558 3.38334
# Velocity P-wave (km/s) = 4.77575 6.04319 5.44646
#
# Compressibility (1/GPa) = 0.04106564
#
# Stress axis : x y z
#
# Youngs Moduli (GPa) = 74.33616 71.64367 55.91849
#
# Poissons Ratio (x) = 0.02053 0.18419
# Poissons Ratio (y) = 0.02130 -0.08201
# Poissons Ratio (z) = 0.24486 -0.10507
#
# Static dielectric constant tensor:
#      x y z
#    x 1.789700 -0.008750 0.019920 
#    y -0.008750 1.865020 0.017990 
#    z 0.019920 0.017990 1.862170 
# 
# From -- ./inp_files/291963.got.cif
#   From: 2010.05.17/outbox.cif.g08.bks.cpg/sg2_146_cif.got.tgz:291963.got - 2010.06.03 11:33:40.
