data_PCOD9016918
_publ_section_title
;
Structure prediction by ZEFSAII (Michael W. Deem and Ramdas Pophale) SiO2 
 PCOD9016918
Probable space group: P -1
;
_chemical_formula_sum "Si O2"
_cell_formula_units_Z 16
_cell_length_a 21.105493
_cell_length_b 7.742326
_cell_length_c 9.107853
_cell_angle_alpha 96.196195
_cell_angle_beta 142.455446
_cell_angle_gamma 60.105587
_cell_volume 659.880129
_symmetry_space_group_name_H-M "P -1"
_symmetry_group_IT_number 2
_symmetry_cell_setting 'triclinic'
loop_
_space_group_symop_operation_xyz
x,y,z
-x,-y,-z
loop_
_atom_site_type_symbol
_atom_site_label
_atom_site_fract_x
_atom_site_fract_y
_atom_site_fract_z
Si Si1 0.347662 0.147261 0.660162
Si Si2 0.161209 0.497964 0.779768
Si Si3 0.648380 0.376075 0.588892
Si Si4 0.921683 0.391250 0.662246
Si Si5 0.934434 0.973434 0.587215
Si Si6 0.666748 0.362414 0.958126
Si Si7 0.849868 0.926914 0.725175
Si Si8 0.640164 0.800116 0.647859
O O1 0.228855 0.425527 0.512345
O O2 0.270585 0.059744 0.560670
O O3 0.360464 0.115612 0.505232
O O4 0.500000 0.000000 0.000000
O O5 0.097162 0.485250 0.514831
O O6 0.047672 0.751493 0.672454
O O7 0.284785 0.490388 0.948335
O O8 0.230585 0.301479 0.014595
O O9 0.673665 0.287909 0.795693
O O10 0.493696 0.480912 0.270288
O O11 0.646811 0.585870 0.610290
O O12 0.768621 0.170250 0.684154
O O13 0.955419 0.156016 0.654605
O O14 0.050645 0.288808 0.996981
O O15 0.941536 0.892062 0.756361
O O16 0.778729 0.135833 0.244219
O O17 0.500000 0.000000 0.500000
#
# Coordination Sequence:
#
# PCOD9016918 Si02
#       8
#     2   2   2   2   2   2   2   2
#     4  12  29  45  64  95 142 180 221 275 341 393
#     4  10  21  42  70 100 127 170 224 274 331 393
#     4  10  22  40  68  98 131 167 229 270 334 387
#     4  11  22  45  69  98 135 175 219 277 337 391
#     4  11  22  40  71  98 133 169 229 268 333 394
#     4   9  20  36  66  99 129 162 218 277 325 383
#     4  12  26  42  69  99 136 179 224 274 328 401
#     4  11  24  44  67  95 134 176 217 273 336 393
#
# _framework density 24.246828000000001
#
# number of rings (size 3 to 8) (size 9 to 14) (size 15 to 20)
#    0.000    1.250    0.000    6.750   10.500    0.500 
#    0.000    1.250    0.000    0.000    0.000    0.000 
#    0.000    0.000    0.000    0.000    0.000    0.000 
#
# Total GULP energy -89611.794079 kJ/mol
# GULP energy per Si atom -5600.737130 kJ/mol
# Density = 2.419164 g / cm^3
# Si number density = 24.246828 Si / 1000 Ang^3
#
#
#
# Elastic Constant Matrix: (Units=GPa)
#
#
# Indices 1 2 3 4 5 6 
#
# 1 80.3650 18.8550 21.2988 2.1539 -5.2367 -21.4760
# 2 18.8550 96.5364 12.6263 -15.0109 5.2655 -26.3415
# 3 21.2988 12.6263 150.7835 -0.1259 8.9124 -1.2850
# 4 2.1539 -15.0109 -0.1259 23.8766 -2.6119 7.5121
# 5 -5.2367 5.2655 8.9124 -2.6119 38.7848 -0.9660
# 6 -21.4760 -26.3415 -1.2850 7.5121 -0.9660 34.0706
#
#
#
# Elastic Compliance Matrix: (Units=1/GPa)
#
#
# Indices 1 2 3 4 5 6 
#
# 1 0.016488 -0.000923 -0.002330 -0.005175 0.002808 0.010812
# 2 -0.000923 0.014089 -0.000897 0.005998 -0.001205 0.008920
# 3 -0.002330 -0.000897 0.007130 0.000098 -0.001874 -0.001968
# 4 -0.005175 0.005998 0.000098 0.049259 0.001547 -0.009438
# 5 0.002808 -0.001205 -0.001874 0.001547 0.026890 0.001189
# 6 0.010812 0.008920 -0.001968 -0.009438 0.001189 0.045103
#
#
# Mechanical properties :
#
#
# Convention : Reuss Voigt Hill
#
# Bulk Modulus (GPa) = 34.00544 48.13836 41.07190
# Shear Modulus (GPa) = 28.23863 37.67338 32.95601
#
# Velocity S-wave (km/s) = 3.41637 3.94603 3.69072
# Velocity P-wave (km/s) = 5.44218 6.37637 5.92771
#
# Compressibility (1/GPa) = 0.02940706
#
# Stress axis : x y z
#
# Youngs Moduli (GPa) = 60.64914 70.97821 140.24635
#
# Poissons Ratio (x) = 0.06553 0.32676
# Poissons Ratio (y) = 0.05599 0.12582
# Poissons Ratio (z) = 0.14130 0.06367
#
# Static dielectric constant tensor:
#      x y z
#    x 1.922250 0.034580 -0.034710 
#    y 0.034580 1.925420 0.031300 
#    z -0.034710 0.031300 1.972940 
# 
# From -- ./inp_files/335646.got.cif
#   From: 2010.05.17/outbox.cif.g08.bks.cpg/sg2_168_cif.got.tgz:335646.got - 2010.06.03 11:33:40.
