data_PCOD9016560
_publ_section_title
;
Structure prediction by ZEFSAII (Michael W. Deem and Ramdas Pophale) SiO2 
 PCOD9016560
Probable space group: P -1
;
_chemical_formula_sum "Si O2"
_cell_formula_units_Z 16
_cell_length_a 18.787188
_cell_length_b 11.710152
_cell_length_c 20.728932
_cell_angle_alpha 158.366874
_cell_angle_beta 27.326891
_cell_angle_gamma 142.435959
_cell_volume 756.847090
_symmetry_space_group_name_H-M "P -1"
_symmetry_group_IT_number 2
_symmetry_cell_setting 'triclinic'
loop_
_space_group_symop_operation_xyz
x,y,z
-x,-y,-z
loop_
_atom_site_type_symbol
_atom_site_label
_atom_site_fract_x
_atom_site_fract_y
_atom_site_fract_z
Si Si1 0.526337 0.494255 0.183864
Si Si2 0.935063 0.688509 0.215545
Si Si3 0.121809 0.747065 0.224606
Si Si4 0.563112 0.785012 0.009084
Si Si5 0.535421 0.163153 0.456777
Si Si6 0.639985 0.450083 0.310949
Si Si7 0.750189 0.353747 0.742406
Si Si8 0.134530 0.181182 0.009986
O O1 0.474365 0.587455 0.346838
O O2 0.526141 0.828823 0.322218
O O3 0.692507 0.239134 0.918888
O O4 0.413095 0.355880 0.155226
O O5 0.796436 0.503711 0.248676
O O6 0.056690 0.712502 0.187408
O O7 0.850837 0.053097 0.467531
O O8 0.000000 0.500000 0.000000
O O9 0.138537 0.404375 0.062639
O O10 0.000000 0.000000 0.500000
O O11 0.378563 0.774537 0.174142
O O12 0.632317 0.100528 0.112170
O O13 0.655445 0.579940 0.884150
O O14 0.405518 0.299098 0.579187
O O15 0.707931 0.081908 0.243564
O O16 0.500000 0.500000 0.500000
O O17 0.857572 0.560128 0.803740
O O18 0.000000 0.000000 0.000000
#
# Coordination Sequence:
#
# PCOD9016560 Si02
#       8
#     2   2   2   2   2   2   2   2
#     4  10  21  42  68  93 130 175 219 274 339 405
#     4  12  26  45  67  97 140 180 218 279 346 400
#     4  11  22  41  66  94 129 176 226 264 335 402
#     4  11  22  40  69  96 129 169 230 278 330 393
#     4  10  22  42  66  99 127 172 225 272 340 395
#     4  12  25  40  69 102 130 172 231 284 319 396
#     4  11  22  44  66  95 131 180 225 273 336 412
#     4  11  24  40  66  96 128 172 220 279 329 399
#
# _framework density 21.140332999999998
#
# number of rings (size 3 to 8) (size 9 to 14) (size 15 to 20)
#    0.000    1.000    5.000    2.250    3.500    2.500 
#    2.250    0.625    0.000    0.000    0.000    0.000 
#    0.000    0.000    0.000    0.000    0.000    0.000 
#
# Total GULP energy -89095.498251 kJ/mol
# GULP energy per Si atom -5568.468641 kJ/mol
# Density = 2.109222 g / cm^3
# Si number density = 21.140333 Si / 1000 Ang^3
#
#
#
# Elastic Constant Matrix: (Units=GPa)
#
#
# Indices 1 2 3 4 5 6 
#
# 1 125.6200 15.2039 35.9944 13.5371 9.8752 11.2631
# 2 15.2039 35.4052 15.8678 11.0179 3.2318 20.0621
# 3 35.9944 15.8678 104.0852 10.6547 14.6724 5.3537
# 4 13.5371 11.0179 10.6547 15.6589 -2.7284 9.5721
# 5 9.8752 3.2318 14.6724 -2.7284 33.9203 8.0475
# 6 11.2631 20.0621 5.3537 9.5721 8.0475 34.5952
#
#
#
# Elastic Compliance Matrix: (Units=1/GPa)
#
#
# Indices 1 2 3 4 5 6 
#
# 1 0.009582 -0.000946 -0.002169 -0.006634 -0.002328 0.000142
# 2 -0.000946 0.048582 -0.004532 -0.015756 0.001852 -0.023235
# 3 -0.002169 -0.004532 0.012411 -0.007416 -0.006058 0.004875
# 4 -0.006634 -0.015756 -0.007416 0.101488 0.019595 -0.020194
# 5 -0.002328 0.001852 -0.006058 0.019595 0.037381 -0.013496
# 6 0.000142 -0.023235 0.004875 -0.020194 -0.013496 0.050306
#
#
# Mechanical properties :
#
#
# Convention : Reuss Voigt Hill
#
# Bulk Modulus (GPa) = 18.08976 44.36030 31.22503
# Shear Modulus (GPa) = 17.03745 30.03782 23.53764
#
# Velocity S-wave (km/s) = 2.84196 3.77354 3.34038
# Velocity P-wave (km/s) = 4.39824 6.32578 5.44793
#
# Compressibility (1/GPa) = 0.05527990
#
# Stress axis : x y z
#
# Youngs Moduli (GPa) = 104.36434 20.58379 80.57322
#
# Poissons Ratio (x) = 0.01947 0.17479
# Poissons Ratio (y) = 0.09869 0.36520
# Poissons Ratio (z) = 0.22640 0.09330
#
# Static dielectric constant tensor:
#      x y z
#    x 1.710100 -0.008180 -0.073460 
#    y -0.008180 1.838600 -0.092730 
#    z -0.073460 -0.092730 1.740860 
# 
# From -- ./inp_files/600155.got.cif
#   From: 2010.05.17/outbox.cif.g08.bks.cpg/sg2_301_cif.got.tgz:600155.got - 2010.06.03 11:33:40.
