data_PCOD9016082
_publ_section_title
;
Structure prediction by ZEFSAII (Michael W. Deem and Ramdas Pophale) SiO2 
 PCOD9016082
Probable space group: P -1
;
_chemical_formula_sum "Si O2"
_cell_formula_units_Z 14
_cell_length_a 8.546795
_cell_length_b 20.475403
_cell_length_c 5.505586
_cell_angle_alpha 122.910521
_cell_angle_beta 58.296952
_cell_angle_gamma 123.781216
_cell_volume 636.901939
_symmetry_space_group_name_H-M "P -1"
_symmetry_group_IT_number 2
_symmetry_cell_setting 'triclinic'
loop_
_space_group_symop_operation_xyz
x,y,z
-x,-y,-z
loop_
_atom_site_type_symbol
_atom_site_label
_atom_site_fract_x
_atom_site_fract_y
_atom_site_fract_z
Si Si1 0.293903 0.504290 0.258711
Si Si2 0.269152 0.593271 0.961770
Si Si3 0.694010 0.208219 0.237587
Si Si4 0.428131 0.218431 0.852771
Si Si5 0.984200 0.795059 0.650721
Si Si6 0.996281 0.656461 0.052122
Si Si7 0.624214 0.093357 0.669274
O O1 0.296794 0.540179 0.599609
O O2 0.500000 0.500000 0.000000
O O3 0.254819 0.557742 0.174969
O O4 0.133811 0.409898 0.169310
O O5 0.451389 0.683736 0.986054
O O6 0.066134 0.606710 0.097038
O O7 0.494562 0.214087 0.512722
O O8 0.869057 0.226059 0.326672
O O9 0.642092 0.115785 0.984196
O O10 0.800667 0.279155 0.098260
O O11 0.515637 0.154264 0.778316
O O12 0.198001 0.192677 0.045935
O O13 0.900322 0.716859 0.374631
O O14 0.147352 0.874436 0.542898
O O15 0.500000 0.000000 0.500000
#
# Coordination Sequence:
#
# PCOD9016082 Si02
#       7
#     2   2   2   2   2   2   2
#     4  12  28  41  65 102 139 184 241 294 341 404
#     4  12  24  43  66  97 138 189 232 289 348 404
#     4  10  21  42  66  94 133 173 222 274 350 401
#     4  11  23  41  67  98 133 175 229 277 345 410
#     4  10  23  40  67  98 132 176 223 278 343 412
#     4  11  23  43  64  95 136 182 231 280 344 407
#     4  10  23  45  68  96 135 171 219 280 347 420
#
# _framework density 21.981404000000001
#
# number of rings (size 3 to 8) (size 9 to 14) (size 15 to 20)
#    0.000    1.143    4.286    3.000    4.000    5.143 
#    0.000    1.429    0.000    0.000    0.000    0.000 
#    0.000    0.000    0.000    0.000    0.000    0.000 
#
# Total GULP energy -78161.617532 kJ/mol
# GULP energy per Si atom -5582.972681 kJ/mol
# Density = 2.193137 g / cm^3
# Si number density = 21.981404 Si / 1000 Ang^3
#
#
#
# Elastic Constant Matrix: (Units=GPa)
#
#
# Indices 1 2 3 4 5 6 
#
# 1 18.1946 12.3576 26.8743 -2.8832 -10.7064 12.4036
# 2 12.3576 97.0360 68.6891 24.8265 0.4173 29.3189
# 3 26.8743 68.6891 161.7138 -5.0366 -6.6551 29.7070
# 4 -2.8832 24.8265 -5.0366 39.6370 18.9370 6.3693
# 5 -10.7064 0.4173 -6.6551 18.9370 45.3193 -7.5290
# 6 12.4036 29.3189 29.7070 6.3693 -7.5290 32.0562
#
#
#
# Elastic Compliance Matrix: (Units=1/GPa)
#
#
# Indices 1 2 3 4 5 6 
#
# 1 0.098914 0.004959 -0.013070 -0.001907 0.017860 -0.026123
# 2 0.004959 0.023383 -0.009108 -0.015869 0.004479 -0.010659
# 3 -0.013070 -0.009108 0.012513 0.008981 -0.005118 -0.001195
# 4 -0.001907 -0.015869 0.008981 0.046675 -0.019645 -0.006959
# 5 0.017860 0.004479 -0.005118 -0.019645 0.034661 0.005780
# 6 -0.026123 -0.010659 -0.001195 -0.006959 0.005780 0.054900
#
#
# Mechanical properties :
#
#
# Convention : Reuss Voigt Hill
#
# Bulk Modulus (GPa) = 9.96291 54.75406 32.35848
# Shear Modulus (GPa) = 14.75184 34.67072 24.71128
#
# Velocity S-wave (km/s) = 2.59338 3.97580 3.35653
# Velocity P-wave (km/s) = 3.67556 6.78523 5.45661
#
# Compressibility (1/GPa) = 0.10037224
#
# Stress axis : x y z
#
# Youngs Moduli (GPa) = 10.10979 42.76678 79.91628
#
# Poissons Ratio (x) = -0.21208 1.04450
# Poissons Ratio (y) = -0.05014 0.72787
# Poissons Ratio (z) = 0.13213 0.38951
#
# Static dielectric constant tensor:
#      x y z
#    x 1.860760 -0.053400 0.064100 
#    y -0.053400 1.844450 -0.014200 
#    z 0.064100 -0.014200 1.867370 
# 
# From -- ./inp_files/39127.got.cif
#   From: 2010.05.17/outbox.cif.g08.bks.cpg/sg2_20_cif.got.tgz:39127.got - 2010.06.03 11:33:40.
