data_PCOD9016903
_publ_section_title
;
Structure prediction by ZEFSAII (Michael W. Deem and Ramdas Pophale) SiO2 
 PCOD9016903
Probable space group: P -1
;
_chemical_formula_sum "Si O2"
_cell_formula_units_Z 15
_cell_length_a 11.892487
_cell_length_b 14.858138
_cell_length_c 15.730366
_cell_angle_alpha 151.817830
_cell_angle_beta 54.264590
_cell_angle_gamma 142.398513
_cell_volume 735.265905
_symmetry_space_group_name_H-M "P -1"
_symmetry_group_IT_number 2
_symmetry_cell_setting 'triclinic'
loop_
_space_group_symop_operation_xyz
x,y,z
-x,-y,-z
loop_
_atom_site_type_symbol
_atom_site_label
_atom_site_fract_x
_atom_site_fract_y
_atom_site_fract_z
Si Si1 0.918495 0.411233 0.759239
Si Si2 0.992575 0.079808 0.779536
Si Si3 0.994120 0.705793 0.214152
Si Si4 0.355908 0.845744 0.852114
Si Si5 0.464236 0.605223 0.838959
Si Si6 0.602099 0.504918 0.540310
Si Si7 0.569875 0.633071 0.172936
Si Si8 0.500000 0.000000 0.500000
O O1 0.727833 0.229903 0.632779
O O2 0.899567 0.228725 0.688553
O O3 0.129973 0.583704 0.763495
O O4 0.946413 0.650995 0.987317
O O5 0.921940 0.061383 0.698723
O O6 0.188937 0.144883 0.745239
O O7 0.827159 0.811996 0.686743
O O8 0.762869 0.540163 0.191327
O O9 0.000000 0.500000 0.000000
O O10 0.414756 0.735463 0.670564
O O11 0.500000 0.000000 0.000000
O O12 0.385703 0.075971 0.985629
O O13 0.505788 0.479456 0.648781
O O14 0.498384 0.572580 0.892468
O O15 0.500000 0.500000 0.500000
O O16 0.487441 0.760476 0.328592
O O17 0.500000 0.500000 0.000000
#
# Coordination Sequence:
#
# PCOD9016903 Si02
#       8
#     2   2   2   2   2   2   2   1
#     4  11  20  41  67 101 141 183 231 289 342 424
#     4  10  21  42  69  99 135 178 230 296 353 397
#     4   9  20  37  69 102 134 179 226 292 354 407
#     4  12  22  42  70 102 148 181 228 291 360 417
#     4  11  24  43  70 107 136 183 232 288 359 410
#     4  12  23  38  67 103 143 179 220 285 357 424
#     4  11  25  48  69  97 136 182 238 294 338 416
#     4  12  26  42  70  98 136 188 234 276 352 414
#
# _framework density 20.400783000000001
#
# number of rings (size 3 to 8) (size 9 to 14) (size 15 to 20)
#    0.000    1.067    5.333    0.800    1.867    2.133 
#    0.000    6.000    0.000    3.200    0.000    0.000 
#    0.000    0.000    0.000    0.000    0.000    0.000 
#
# Total GULP energy -83577.307134 kJ/mol
# GULP energy per Si atom -5571.820476 kJ/mol
# Density = 2.035435 g / cm^3
# Si number density = 20.400783 Si / 1000 Ang^3
#
#
#
# Elastic Constant Matrix: (Units=GPa)
#
#
# Indices 1 2 3 4 5 6 
#
# 1 148.1144 44.3363 41.2851 -8.0455 8.3656 -0.5567
# 2 44.3363 96.9265 35.5835 -13.5557 13.1534 -2.9787
# 3 41.2851 35.5835 93.2052 -5.5390 3.0269 -1.0672
# 4 -8.0455 -13.5557 -5.5390 27.1857 9.3181 -3.3751
# 5 8.3656 13.1534 3.0269 9.3181 37.0921 0.5204
# 6 -0.5567 -2.9787 -1.0672 -3.3751 0.5204 26.6702
#
#
#
# Elastic Compliance Matrix: (Units=1/GPa)
#
#
# Indices 1 2 3 4 5 6 
#
# 1 0.008370 -0.002593 -0.002627 0.000981 -0.000999 -0.000076
# 2 -0.002593 0.015109 -0.003862 0.008595 -0.006655 0.002696
# 3 -0.002627 -0.003862 0.013317 -0.000319 0.000956 -0.000012
# 4 0.000981 0.008595 -0.000319 0.047428 -0.015260 0.007267
# 5 -0.000999 -0.006655 0.000956 -0.015260 0.033347 -0.003308
# 6 -0.000076 0.002696 -0.000012 0.007267 -0.003308 0.038778
#
#
# Mechanical properties :
#
#
# Convention : Reuss Voigt Hill
#
# Bulk Modulus (GPa) = 53.67452 64.51733 59.09592
# Shear Modulus (GPa) = 27.66638 32.65903 30.16270
#
# Velocity S-wave (km/s) = 3.68658 4.00543 3.84931
# Velocity P-wave (km/s) = 6.66996 7.28594 6.98474
#
# Compressibility (1/GPa) = 0.01863081
#
# Stress axis : x y z
#
# Youngs Moduli (GPa) = 119.47961 66.18475 75.09212
#
# Poissons Ratio (x) = 0.17165 0.19729
# Poissons Ratio (y) = 0.30986 0.28999
# Poissons Ratio (z) = 0.31391 0.25559
#
# Static dielectric constant tensor:
#      x y z
#    x 1.736010 0.020080 -0.083320 
#    y 0.020080 1.751410 -0.034220 
#    z -0.083320 -0.034220 1.893140 
# 
# From -- ./inp_files/522614.got.cif
#   From: 2010.05.17/outbox.cif.g08.bks.cpg/sg2_262_cif.got.tgz:522614.got - 2010.06.03 11:33:40.
