data_PCOD9016573
_publ_section_title
;
Structure prediction by ZEFSAII (Michael W. Deem and Ramdas Pophale) SiO2 
 PCOD9016573
Probable space group: P -1
;
_chemical_formula_sum "Si O2"
_cell_formula_units_Z 16
_cell_length_a 15.893316
_cell_length_b 19.390796
_cell_length_c 9.431780
_cell_angle_alpha 138.929868
_cell_angle_beta 143.611480
_cell_angle_gamma 23.170383
_cell_volume 677.316967
_symmetry_space_group_name_H-M "P -1"
_symmetry_group_IT_number 2
_symmetry_cell_setting 'triclinic'
loop_
_space_group_symop_operation_xyz
x,y,z
-x,-y,-z
loop_
_atom_site_type_symbol
_atom_site_label
_atom_site_fract_x
_atom_site_fract_y
_atom_site_fract_z
Si Si1 0.609191 0.178580 0.219918
Si Si2 0.174507 0.802772 0.887995
Si Si3 0.612547 0.684551 0.349496
Si Si4 0.438784 0.141984 0.718914
Si Si5 0.239314 0.703896 0.492802
Si Si6 0.901756 0.426126 0.849660
Si Si7 0.566204 0.843469 0.800227
Si Si8 0.041806 0.649141 0.513069
O O1 0.767462 0.187791 0.441416
O O2 0.337613 0.376082 0.117965
O O3 0.588089 0.140820 0.285726
O O4 0.649913 0.066387 0.981992
O O5 0.196852 0.767697 0.695153
O O6 0.088649 0.744521 0.750992
O O7 0.427550 0.698403 0.115411
O O8 0.000000 0.000000 0.000000
O O9 0.634890 0.727251 0.294879
O O10 0.527687 0.826512 0.562447
O O11 0.842169 0.493557 0.432133
O O12 0.229521 0.225754 0.667086
O O13 0.500000 0.000000 0.500000
O O14 0.500000 0.500000 0.500000
O O15 0.072736 0.702677 0.240546
O O16 0.855102 0.431145 0.628279
O O17 0.150682 0.335900 0.065987
O O18 0.500000 0.000000 0.000000
#
# Coordination Sequence:
#
# PCOD9016573 Si02
#       8
#     2   2   2   2   2   2   2   2
#     4  11  20  43  68  90 127 174 219 259 329 398
#     4  11  24  43  71 100 135 174 221 279 349 394
#     4  12  25  43  64 102 134 171 226 277 330 402
#     4  12  24  40  64  97 136 173 219 272 335 385
#     4   9  21  40  71  93 123 174 224 261 318 414
#     4  10  21  42  68  94 122 175 221 260 329 392
#     4  12  25  40  65  97 134 171 221 275 325 392
#     4  11  23  42  68  95 132 176 223 269 326 407
#
# _framework density 23.622617000000002
#
# number of rings (size 3 to 8) (size 9 to 14) (size 15 to 20)
#    0.000    1.000    3.750    3.375    3.500    0.000 
#    0.000    0.625    0.000    0.000    0.000    0.000 
#    0.000    0.000    0.000    0.000    0.000    0.000 
#
# Total GULP energy -89458.901699 kJ/mol
# GULP energy per Si atom -5591.181356 kJ/mol
# Density = 2.356885 g / cm^3
# Si number density = 23.622617 Si / 1000 Ang^3
#
#
#
# Elastic Constant Matrix: (Units=GPa)
#
#
# Indices 1 2 3 4 5 6 
#
# 1 106.6034 4.8426 20.3605 18.2251 3.2595 16.6544
# 2 4.8426 58.2816 2.7593 16.8468 0.9689 7.1958
# 3 20.3605 2.7593 88.1293 31.0771 10.1044 5.7300
# 4 18.2251 16.8468 31.0771 34.4319 2.0295 -1.6897
# 5 3.2595 0.9689 10.1044 2.0295 51.0017 6.6876
# 6 16.6544 7.1958 5.7300 -1.6897 6.6876 19.5684
#
#
#
# Elastic Compliance Matrix: (Units=1/GPa)
#
#
# Indices 1 2 3 4 5 6 
#
# 1 0.012935 0.003679 0.001472 -0.010731 0.001086 -0.014090
# 2 0.003679 0.024548 0.006677 -0.020836 0.000933 -0.016231
# 3 0.001472 0.006677 0.019471 -0.022039 -0.001799 -0.010698
# 4 -0.010731 -0.020836 -0.022039 0.066310 -0.001036 0.029328
# 5 0.001086 0.000933 -0.001799 -0.001036 0.020966 -0.007996
# 6 -0.014090 -0.016231 -0.010698 0.029328 -0.007996 0.077461
#
#
# Mechanical properties :
#
#
# Convention : Reuss Voigt Hill
#
# Bulk Modulus (GPa) = 12.40534 34.32657 23.36596
# Shear Modulus (GPa) = 22.23166 36.00387 29.11776
#
# Velocity S-wave (km/s) = 3.07109 3.90824 3.51468
# Velocity P-wave (km/s) = 4.22355 5.91004 5.13648
#
# Compressibility (1/GPa) = 0.08061043
#
# Stress axis : x y z
#
# Youngs Moduli (GPa) = 77.30993 40.73719 51.35745
#
# Poissons Ratio (x) = -0.14987 -0.07560
# Poissons Ratio (y) = -0.28442 -0.34293
# Poissons Ratio (z) = -0.11380 -0.27201
#
# Static dielectric constant tensor:
#      x y z
#    x 1.866290 -0.004670 0.031030 
#    y -0.004670 1.992080 0.006780 
#    z 0.031030 0.006780 1.875630 
# 
# From -- ./inp_files/263071.got.cif
#   From: 2010.05.17/outbox.cif.g08.bks.cpg/sg2_132_cif.got.tgz:263071.got - 2010.06.03 11:33:40.
