data_PCOD9016645
_publ_section_title
;
Structure prediction by ZEFSAII (Michael W. Deem and Ramdas Pophale) SiO2 
 PCOD9016645
Probable space group: P -1
;
_chemical_formula_sum "Si O2"
_cell_formula_units_Z 16
_cell_length_a 9.359350
_cell_length_b 10.056403
_cell_length_c 15.820040
_cell_angle_alpha 113.271546
_cell_angle_beta 34.390043
_cell_angle_gamma 110.977010
_cell_volume 771.134143
_symmetry_space_group_name_H-M "P -1"
_symmetry_group_IT_number 2
_symmetry_cell_setting 'triclinic'
loop_
_space_group_symop_operation_xyz
x,y,z
-x,-y,-z
loop_
_atom_site_type_symbol
_atom_site_label
_atom_site_fract_x
_atom_site_fract_y
_atom_site_fract_z
Si Si1 0.693673 0.135224 0.457716
Si Si2 0.896191 0.899529 0.601613
Si Si3 0.624402 0.416101 0.640574
Si Si4 0.221224 0.616790 0.945847
Si Si5 0.961124 0.183010 0.159702
Si Si6 0.686836 0.079897 0.101265
Si Si7 0.216804 0.505189 0.104567
Si Si8 0.982379 0.398414 0.604563
O O1 0.531218 0.265046 0.606536
O O2 0.834991 0.181049 0.313150
O O3 0.906563 0.103287 0.416942
O O4 0.500000 0.000000 0.500000
O O5 0.613286 0.938122 0.773381
O O6 0.880692 0.740513 0.527543
O O7 0.000000 0.000000 0.500000
O O8 0.452597 0.550362 0.765893
O O9 0.712875 0.385648 0.685020
O O10 0.866804 0.464067 0.476866
O O11 0.198745 0.782310 0.973302
O O12 0.242614 0.597172 0.030187
O O13 0.000000 0.500000 0.000000
O O14 0.753830 0.126856 0.176998
O O15 0.085465 0.342898 0.116368
O O16 0.175446 0.065889 0.022554
O O17 0.052683 0.581662 0.274854
O O18 0.500000 0.500000 0.000000
#
# Coordination Sequence:
#
# PCOD9016645 Si02
#       8
#     2   2   2   2   2   2   2   2
#     4  11  25  44  71 100 133 180 227 279 346 413
#     4  11  25  44  70  99 135 178 229 281 344 408
#     4  10  21  42  70  91 134 174 221 275 341 396
#     4  12  25  44  67 105 137 179 226 283 341 405
#     4  11  26  47  67  98 140 184 229 282 350 403
#     4  11  26  47  68  96 142 183 226 286 344 408
#     4  12  25  42  71 103 138 179 232 277 343 414
#     4  10  21  42  68  97 128 176 223 279 332 401
#
# _framework density 20.748657999999999
#
# number of rings (size 3 to 8) (size 9 to 14) (size 15 to 20)
#    0.000    1.000    5.000    0.750    5.250    1.500 
#    2.250    1.875    0.000    0.000    0.000    0.000 
#    0.000    0.000    0.000    0.000    0.000    0.000 
#
# Total GULP energy -89364.763740 kJ/mol
# GULP energy per Si atom -5585.297734 kJ/mol
# Density = 2.070143 g / cm^3
# Si number density = 20.748658 Si / 1000 Ang^3
#
#
#
# Elastic Constant Matrix: (Units=GPa)
#
#
# Indices 1 2 3 4 5 6 
#
# 1 83.9172 22.0342 35.4026 -1.5777 22.3355 -7.8547
# 2 22.0342 106.3000 21.6690 2.4699 14.4217 3.7150
# 3 35.4026 21.6690 72.1176 2.1565 15.2298 3.5537
# 4 -1.5777 2.4699 2.1565 36.5643 -1.8194 5.9904
# 5 22.3355 14.4217 15.2298 -1.8194 35.9530 -2.2713
# 6 -7.8547 3.7150 3.5537 5.9904 -2.2713 33.7510
#
#
#
# Elastic Compliance Matrix: (Units=1/GPa)
#
#
# Indices 1 2 3 4 5 6 
#
# 1 0.017505 -0.001420 -0.006893 0.000176 -0.007096 0.004447
# 2 -0.001420 0.010494 -0.001806 -0.000572 -0.002678 -0.001374
# 3 -0.006893 -0.001806 0.018654 -0.000871 -0.003156 -0.003427
# 4 0.000176 -0.000572 -0.000871 0.028300 0.001623 -0.004718
# 5 -0.007096 -0.002678 -0.003156 0.001623 0.034781 0.001028
# 6 0.004447 -0.001374 -0.003427 -0.004718 0.001028 0.032082
#
#
# Mechanical properties :
#
#
# Convention : Reuss Voigt Hill
#
# Bulk Modulus (GPa) = 37.85500 46.72738 42.29119
# Shear Modulus (GPa) = 29.26373 33.46892 31.36632
#
# Velocity S-wave (km/s) = 3.75959 4.02065 3.89231
# Velocity P-wave (km/s) = 6.09346 6.64257 6.37393
#
# Compressibility (1/GPa) = 0.02641659
#
# Stress axis : x y z
#
# Youngs Moduli (GPa) = 57.12494 95.28818 53.60842
#
# Poissons Ratio (x) = 0.13535 0.36950
# Poissons Ratio (y) = 0.08114 0.09680
# Poissons Ratio (z) = 0.39374 0.17205
#
# Static dielectric constant tensor:
#      x y z
#    x 1.715540 -0.045910 -0.043900 
#    y -0.045910 1.714900 0.007450 
#    z -0.043900 0.007450 1.699250 
# 
# From -- ./inp_files/314186.got.cif
#   From: 2010.05.17/outbox.cif.g08.bks.cpg/sg2_158_cif.got.tgz:314186.got - 2010.06.03 11:33:40.
