data_PCOD9016883
_publ_section_title
;
Structure prediction by ZEFSAII (Michael W. Deem and Ramdas Pophale) SiO2 
 PCOD9016883
Probable space group: P -1
;
_chemical_formula_sum "Si O2"
_cell_formula_units_Z 14
_cell_length_a 13.680031
_cell_length_b 8.081983
_cell_length_c 5.817415
_cell_angle_alpha 111.759669
_cell_angle_beta 75.419402
_cell_angle_gamma 108.559287
_cell_volume 559.717269
_symmetry_space_group_name_H-M "P -1"
_symmetry_group_IT_number 2
_symmetry_cell_setting 'triclinic'
loop_
_space_group_symop_operation_xyz
x,y,z
-x,-y,-z
loop_
_atom_site_type_symbol
_atom_site_label
_atom_site_fract_x
_atom_site_fract_y
_atom_site_fract_z
Si Si1 0.077332 0.373564 0.457922
Si Si2 0.225656 0.191890 0.109960
Si Si3 0.782714 0.365678 0.142418
Si Si4 0.709099 0.048656 0.395682
Si Si5 0.571026 0.608575 0.716993
Si Si6 0.596200 0.279631 0.864152
Si Si7 0.104757 0.859981 0.305090
O O1 0.146987 0.321613 0.184715
O O2 0.164405 0.473273 0.637412
O O3 0.000000 0.500000 0.500000
O O4 0.006958 0.196447 0.539686
O O5 0.311248 0.266312 0.297293
O O6 0.145236 0.010923 0.163310
O O7 0.290401 0.142704 0.830097
O O8 0.727596 0.196753 0.255351
O O9 0.693418 0.370867 0.016761
O O10 0.877181 0.320019 0.923021
O O11 0.619334 0.101740 0.632389
O O12 0.811408 0.092426 0.515530
O O13 0.500000 0.500000 0.500000
O O14 0.585560 0.439228 0.777842
O O15 0.506580 0.744212 0.934907
#
# Coordination Sequence:
#
# PCOD9016883 Si02
#       7
#     2   2   2   2   2   2   2
#     4  12  23  42  70 101 132 188 231 277 330 397
#     4  11  26  42  65  99 141 173 221 290 336 404
#     4  10  21  42  69  98 135 175 230 279 328 403
#     4  10  21  43  64  95 140 176 219 276 341 400
#     4  11  24  44  70 105 132 175 231 279 338 410
#     4  10  22  41  73  98 132 179 223 282 338 402
#     4  10  23  43  64  98 139 182 220 277 345 391
#
# _framework density 25.012630000000001
#
# number of rings (size 3 to 8) (size 9 to 14) (size 15 to 20)
#    0.000    1.429    1.429    3.429    2.000    4.571 
#    2.571   10.000    0.000    0.000    0.000    0.000 
#    0.000    0.000    0.000    0.000    0.000    0.000 
#
# Total GULP energy -78204.203786 kJ/mol
# GULP energy per Si atom -5586.014556 kJ/mol
# Density = 2.495570 g / cm^3
# Si number density = 25.012630 Si / 1000 Ang^3
#
#
#
# Elastic Constant Matrix: (Units=GPa)
#
#
# Indices 1 2 3 4 5 6 
#
# 1 103.9238 14.9907 76.7277 31.4378 -35.6412 -13.6798
# 2 14.9907 52.6066 14.1917 6.8618 -9.7415 -1.2651
# 3 76.7277 14.1917 151.8925 32.4404 -30.4859 -15.4562
# 4 31.4378 6.8618 32.4404 27.8073 -9.6020 3.8278
# 5 -35.6412 -9.7415 -30.4859 -9.6020 56.5896 -11.0216
# 6 -13.6798 -1.2651 -15.4562 3.8278 -11.0216 26.4937
#
#
#
# Elastic Compliance Matrix: (Units=1/GPa)
#
#
# Indices 1 2 3 4 5 6 
#
# 1 0.028678 -0.000284 -0.003152 -0.026240 0.016458 0.023593
# 2 -0.000284 0.020257 0.000012 -0.003971 0.003171 0.002721
# 3 -0.003152 0.000012 0.012198 -0.010315 0.004567 0.008880
# 4 -0.026240 -0.003971 -0.010315 0.078032 -0.016943 -0.038078
# 5 0.016458 0.003171 0.004567 -0.016943 0.033568 0.027726
# 6 0.023593 0.002721 0.008880 -0.038078 0.027726 0.072273
#
#
# Mechanical properties :
#
#
# Convention : Reuss Voigt Hill
#
# Bulk Modulus (GPa) = 18.42102 57.80478 38.11290
# Shear Modulus (GPa) = 18.52192 35.67897 27.10044
#
# Velocity S-wave (km/s) = 2.72417 3.78092 3.29518
# Velocity P-wave (km/s) = 4.15638 6.49776 5.45419
#
# Compressibility (1/GPa) = 0.05428580
#
# Stress axis : x y z
#
# Youngs Moduli (GPa) = 34.86958 49.36498 81.98085
#
# Poissons Ratio (x) = 0.01403 0.25840
# Poissons Ratio (y) = 0.00991 -0.00101
# Poissons Ratio (z) = 0.10991 -0.00061
#
# Static dielectric constant tensor:
#      x y z
#    x 1.917610 -0.042880 -0.040030 
#    y -0.042880 2.044810 0.028710 
#    z -0.040030 0.028710 2.085100 
# 
# From -- ./inp_files/46190.got.cif
#   From: 2010.05.17/outbox.cif.g08.bks.cpg/sg2_24_cif.got.tgz:46190.got - 2010.06.03 11:33:40.
