data_PCOD9016935
_publ_section_title
;
Structure prediction by ZEFSAII (Michael W. Deem and Ramdas Pophale) SiO2 
 PCOD9016935
Probable space group: P -1
;
_chemical_formula_sum "Si O2"
_cell_formula_units_Z 16
_cell_length_a 14.827853
_cell_length_b 5.631649
_cell_length_c 8.872167
_cell_angle_alpha 76.375771
_cell_angle_beta 67.507109
_cell_angle_gamma 64.130943
_cell_volume 613.817221
_symmetry_space_group_name_H-M "P -1"
_symmetry_group_IT_number 2
_symmetry_cell_setting 'triclinic'
loop_
_space_group_symop_operation_xyz
x,y,z
-x,-y,-z
loop_
_atom_site_type_symbol
_atom_site_label
_atom_site_fract_x
_atom_site_fract_y
_atom_site_fract_z
Si Si1 0.092645 0.582605 0.362610
Si Si2 0.251303 0.785616 0.237539
Si Si3 0.006453 0.277636 0.904169
Si Si4 0.300834 0.109104 0.359048
Si Si5 0.661250 0.680414 0.237908
Si Si6 0.432155 0.347479 0.374509
Si Si7 0.241582 0.946781 0.731223
Si Si8 0.587656 0.478786 0.072525
O O1 0.126925 0.837750 0.327881
O O2 0.201257 0.387316 0.396688
O O3 0.000000 0.500000 0.500000
O O4 0.077499 0.584690 0.193254
O O5 0.337995 0.611508 0.333741
O O6 0.272026 0.045389 0.221824
O O7 0.302354 0.667123 0.063916
O O8 0.120446 0.149615 0.770927
O O9 0.000000 0.500000 0.000000
O O10 0.000000 0.000000 0.000000
O O11 0.410159 0.140171 0.309849
O O12 0.290884 0.956801 0.536539
O O13 0.590951 0.697803 0.431542
O O14 0.714938 0.888971 0.203660
O O15 0.598304 0.725024 0.114281
O O16 0.740325 0.365255 0.217112
O O17 0.543412 0.359364 0.260247
O O18 0.500000 0.500000 0.000000
#
# Coordination Sequence:
#
# PCOD9016935 Si02
#       8
#     2   2   2   2   2   2   2   2
#     4  11  25  44  69 101 138 195 240 297 355 430
#     4  10  22  40  66  98 142 177 235 298 361 421
#     4  12  29  47  69 107 150 186 245 303 365 429
#     4  10  21  42  70 101 137 183 246 292 350 426
#     4  11  23  45  73 100 139 189 238 289 363 427
#     4   9  20  42  66  98 135 181 234 290 349 434
#     4  11  24  45  73 102 142 188 238 298 355 431
#     4  10  23  44  65 100 141 181 233 293 365 429
#
# _framework density 26.066392
#
# number of rings (size 3 to 8) (size 9 to 14) (size 15 to 20)
#    0.000    1.500    2.500    1.125    5.250    2.000 
#    9.000    1.875    0.000    0.000    0.000    0.000 
#    0.000    0.000    0.000    0.000    0.000    0.000 
#
# Total GULP energy -89073.224221 kJ/mol
# GULP energy per Si atom -5567.076514 kJ/mol
# Density = 2.600706 g / cm^3
# Si number density = 26.066392 Si / 1000 Ang^3
#
#
#
# Elastic Constant Matrix: (Units=GPa)
#
#
# Indices 1 2 3 4 5 6 
#
# 1 110.3351 37.8856 38.8935 6.0176 -6.4412 27.5471
# 2 37.8856 101.9320 31.7119 15.0121 9.2616 11.2049
# 3 38.8935 31.7119 95.0551 7.5468 15.8093 30.2093
# 4 6.0176 15.0121 7.5468 45.1836 0.4582 13.3910
# 5 -6.4412 9.2616 15.8093 0.4582 51.6199 -2.3528
# 6 27.5471 11.2049 30.2093 13.3910 -2.3528 47.5661
#
#
#
# Elastic Compliance Matrix: (Units=1/GPa)
#
#
# Indices 1 2 3 4 5 6 
#
# 1 0.012710 -0.003734 -0.003029 0.001452 0.002951 -0.004820
# 2 -0.003734 0.012534 -0.002651 -0.003758 -0.001785 0.001863
# 3 -0.003029 -0.002651 0.016101 0.001146 -0.005228 -0.008428
# 4 0.001452 -0.003758 0.001146 0.025312 -0.000076 -0.007813
# 5 0.002951 -0.001785 -0.005228 -0.000076 0.021805 0.003132
# 6 -0.004820 0.001863 -0.008428 -0.007813 0.003132 0.031083
#
#
# Mechanical properties :
#
#
# Convention : Reuss Voigt Hill
#
# Bulk Modulus (GPa) = 44.40928 58.25602 51.33265
# Shear Modulus (GPa) = 34.27536 42.12932 38.20234
#
# Velocity S-wave (km/s) = 3.63012 4.02460 3.83244
# Velocity P-wave (km/s) = 5.88595 6.63281 6.27051
#
# Compressibility (1/GPa) = 0.02251782
#
# Stress axis : x y z
#
# Youngs Moduli (GPa) = 78.68113 79.78506 62.10812
#
# Poissons Ratio (x) = 0.29789 0.18812
# Poissons Ratio (y) = 0.29377 0.16462
# Poissons Ratio (z) = 0.23832 0.21148
#
# Static dielectric constant tensor:
#      x y z
#    x 2.125320 0.151640 -0.079530 
#    y 0.151640 2.810440 -0.153270 
#    z -0.079530 -0.153270 2.097490 
# 
# From -- ./inp_files/78231.got.cif
#   From: 2010.05.17/outbox.cif.g08.bks.cpg/sg2_40_cif.got.tgz:78231.got - 2010.06.03 11:33:40.
