data_PCOD9016313
_publ_section_title
;
Structure prediction by ZEFSAII (Michael W. Deem and Ramdas Pophale) SiO2 
 PCOD9016313
Probable space group: P -1
;
_chemical_formula_sum "Si O2"
_cell_formula_units_Z 16
_cell_length_a 11.913651
_cell_length_b 15.185499
_cell_length_c 14.474867
_cell_angle_alpha 133.281869
_cell_angle_beta 39.320828
_cell_angle_gamma 153.515311
_cell_volume 739.799138
_symmetry_space_group_name_H-M "P -1"
_symmetry_group_IT_number 2
_symmetry_cell_setting 'triclinic'
loop_
_space_group_symop_operation_xyz
x,y,z
-x,-y,-z
loop_
_atom_site_type_symbol
_atom_site_label
_atom_site_fract_x
_atom_site_fract_y
_atom_site_fract_z
Si Si1 0.112364 0.014948 0.235850
Si Si2 0.385830 0.132405 0.644719
Si Si3 0.999522 0.323891 0.896775
Si Si4 0.975484 0.444778 0.702409
Si Si5 0.553596 0.396083 0.351866
Si Si6 0.356180 0.533695 0.167316
Si Si7 0.374421 0.719328 0.024357
Si Si8 0.941647 0.292452 0.421979
O O1 0.282346 0.177584 0.325323
O O2 0.300291 0.135692 0.108326
O O3 0.079883 0.854884 0.158136
O O4 0.795464 0.899415 0.341295
O O5 0.414139 0.238246 0.789107
O O6 0.710393 0.264694 0.508676
O O7 0.216520 0.920765 0.626763
O O8 0.232928 0.460701 0.765562
O O9 0.161556 0.487630 0.990558
O O10 0.731004 0.253062 0.974142
O O11 0.890921 0.531160 0.780384
O O12 0.994418 0.366434 0.545820
O O13 0.269132 0.588092 0.676097
O O14 0.711975 0.267886 0.814016
O O15 0.500000 0.500000 0.500000
O O16 0.217302 0.427008 0.278119
O O17 0.500000 0.500000 0.000000
#
# Coordination Sequence:
#
# PCOD9016313 Si02
#       8
#     2   2   2   2   2   2   2   2
#     4  11  22  37  64  96 131 169 218 263 318 386
#     4  10  23  42  66  98 125 175 213 267 329 377
#     4   9  20  38  57  87 132 172 215 256 315 382
#     4  10  21  42  67  93 129 176 216 264 329 381
#     4  10  22  40  62  94 133 175 213 267 322 388
#     4  11  26  45  69  96 126 169 222 273 329 389
#     4   9  20  38  59  89 131 171 208 262 322 378
#     4  10  23  48  68  89 134 169 219 274 326 383
#
# _framework density 21.627490999999999
#
# number of rings (size 3 to 8) (size 9 to 14) (size 15 to 20)
#    0.000    2.000    0.000    3.375    3.500    4.000 
#    4.500    7.500    0.000    0.000    0.000    0.000 
#    0.000    0.000    0.000    0.000    0.000    0.000 
#
# Total GULP energy -89337.113758 kJ/mol
# GULP energy per Si atom -5583.569610 kJ/mol
# Density = 2.157827 g / cm^3
# Si number density = 21.627491 Si / 1000 Ang^3
#
#
#
# Elastic Constant Matrix: (Units=GPa)
#
#
# Indices 1 2 3 4 5 6 
#
# 1 89.7583 45.7729 46.5215 11.2849 2.0903 16.4845
# 2 45.7729 88.0394 42.9777 24.1788 -1.1200 -5.8258
# 3 46.5215 42.9777 142.0877 25.9980 9.8027 3.2578
# 4 11.2849 24.1788 25.9980 29.5528 -8.8470 -8.1794
# 5 2.0903 -1.1200 9.8027 -8.8470 35.0899 1.1276
# 6 16.4845 -5.8258 3.2578 -8.1794 1.1276 26.1959
#
#
#
# Elastic Compliance Matrix: (Units=1/GPa)
#
#
# Indices 1 2 3 4 5 6 
#
# 1 0.020867 -0.009918 -0.003168 -0.001491 -0.000556 -0.015384
# 2 -0.009918 0.020340 -0.001167 -0.010023 -0.001213 0.007832
# 3 -0.003168 -0.001167 0.010511 -0.009207 -0.005035 -0.002231
# 4 -0.001491 -0.010023 -0.009207 0.060839 0.017098 0.018115
# 5 -0.000556 -0.001213 -0.005035 0.017098 0.034063 0.004579
# 6 -0.015384 0.007832 -0.002231 0.018115 0.004579 0.055333
#
#
# Mechanical properties :
#
#
# Convention : Reuss Voigt Hill
#
# Bulk Modulus (GPa) = 43.08186 65.60327 54.34257
# Shear Modulus (GPa) = 20.99108 30.47526 25.73317
#
# Velocity S-wave (km/s) = 3.11878 3.75787 3.45314
# Velocity P-wave (km/s) = 5.73867 7.01626 6.40937
#
# Compressibility (1/GPa) = 0.02321162
#
# Stress axis : x y z
#
# Youngs Moduli (GPa) = 47.92361 49.16381 95.13502
#
# Poissons Ratio (x) = 0.48760 0.30141
# Poissons Ratio (y) = 0.47530 0.11104
# Poissons Ratio (z) = 0.15183 0.05739
#
# Static dielectric constant tensor:
#      x y z
#    x 1.845500 0.025140 -0.013490 
#    y 0.025140 1.776740 0.016810 
#    z -0.013490 0.016810 1.873600 
# 
# From -- ./inp_files/521657.got.cif
#   From: 2010.05.17/outbox.cif.g08.bks.cpg/sg2_261_cif.got.tgz:521657.got - 2010.06.03 11:33:40.
