data_PCOD9016976
_publ_section_title
;
Structure prediction by ZEFSAII (Michael W. Deem and Ramdas Pophale) SiO2 
 PCOD9016976
Probable space group: P -1
;
_chemical_formula_sum "Si O2"
_cell_formula_units_Z 16
_cell_length_a 9.246232
_cell_length_b 8.725531
_cell_length_c 15.282997
_cell_angle_alpha 74.534951
_cell_angle_beta 79.932189
_cell_angle_gamma 132.088996
_cell_volume 766.615953
_symmetry_space_group_name_H-M "P -1"
_symmetry_group_IT_number 2
_symmetry_cell_setting 'triclinic'
loop_
_space_group_symop_operation_xyz
x,y,z
-x,-y,-z
loop_
_atom_site_type_symbol
_atom_site_label
_atom_site_fract_x
_atom_site_fract_y
_atom_site_fract_z
Si Si1 0.374652 0.638604 0.279773
Si Si2 0.986888 0.546740 0.395561
Si Si3 0.648443 0.695246 0.377250
Si Si4 0.335971 0.092746 0.241029
Si Si5 0.645166 0.120215 0.094016
Si Si6 0.965312 0.500900 0.862838
Si Si7 0.123329 0.229316 0.255471
Si Si8 0.704465 0.424670 0.303494
O O1 0.158415 0.570023 0.325960
O O2 0.510452 0.723251 0.340978
O O3 0.274917 0.390077 0.298837
O O4 0.536209 0.858284 0.160245
O O5 0.000000 0.500000 0.500000
O O6 0.748923 0.362907 0.398934
O O7 0.108597 0.816417 0.334067
O O8 0.500000 0.500000 0.500000
O O9 0.698372 0.600919 0.312386
O O10 0.880673 0.961122 0.343663
O O11 0.464267 0.098667 0.152208
O O12 0.263701 0.206253 0.196711
O O13 0.495406 0.225598 0.290620
O O14 0.850304 0.306001 0.112446
O O15 0.749671 0.246828 0.970407
O O16 0.083931 0.468476 0.791860
O O17 0.904040 0.622344 0.810208
#
# Coordination Sequence:
#
# PCOD9016976 Si02
#       8
#     2   2   2   2   2   2   2   2
#     4  11  23  41  64  96 128 164 216 263 315 384
#     4  11  23  40  63  91 125 167 213 262 321 379
#     4  12  26  43  64  92 131 170 210 267 320 371
#     4  10  23  40  64  93 130 162 211 265 311 385
#     4   9  21  43  66  96 127 169 211 264 323 377
#     4  10  21  42  70  91 128 171 213 262 321 381
#     4  12  23  41  65  93 128 167 212 262 314 379
#     4  11  22  44  62  90 128 168 209 265 315 375
#
# _framework density 20.870947000000001
#
# number of rings (size 3 to 8) (size 9 to 14) (size 15 to 20)
#    0.000    1.250    5.000    0.750    0.000    3.000 
#    0.000    1.875    0.000    0.000    0.000    0.000 
#    0.000    0.000    0.000    0.000    0.000    0.000 
#
# Total GULP energy -89220.016431 kJ/mol
# GULP energy per Si atom -5576.251027 kJ/mol
# Density = 2.082344 g / cm^3
# Si number density = 20.870947 Si / 1000 Ang^3
#
#
#
# Elastic Constant Matrix: (Units=GPa)
#
#
# Indices 1 2 3 4 5 6 
#
# 1 112.5319 23.2371 28.4244 -5.9569 7.0984 4.0427
# 2 23.2371 93.9273 41.3933 -11.4330 -10.1473 2.1617
# 3 28.4244 41.3933 96.4466 -8.9567 10.5696 1.1935
# 4 -5.9569 -11.4330 -8.9567 22.6839 -0.0813 -2.9554
# 5 7.0984 -10.1473 10.5696 -0.0813 16.2109 -1.7464
# 6 4.0427 2.1617 1.1935 -2.9554 -1.7464 30.7869
#
#
#
# Elastic Compliance Matrix: (Units=1/GPa)
#
#
# Indices 1 2 3 4 5 6 
#
# 1 0.010122 -0.002365 -0.001312 0.000756 -0.005197 -0.001334
# 2 -0.002365 0.017292 -0.008163 0.005048 0.017302 0.000879
# 3 -0.001312 -0.008163 0.016081 0.001763 -0.015072 -0.000564
# 4 0.000756 0.005048 0.001763 0.048083 0.002376 0.004228
# 5 -0.005197 0.017302 -0.015072 0.002376 0.085182 0.005112
# 6 -0.001334 0.000879 -0.000564 0.004228 0.005112 0.033313
#
#
# Mechanical properties :
#
#
# Convention : Reuss Voigt Hill
#
# Bulk Modulus (GPa) = 50.46417 54.33504 52.39961
# Shear Modulus (GPa) = 20.80247 27.92642 24.36444
#
# Velocity S-wave (km/s) = 3.16051 3.66191 3.42041
# Velocity P-wave (km/s) = 6.12781 6.63097 6.38435
#
# Compressibility (1/GPa) = 0.01981604
#
# Stress axis : x y z
#
# Youngs Moduli (GPa) = 98.79669 57.82936 62.18567
#
# Poissons Ratio (x) = 0.13675 0.08159
# Poissons Ratio (y) = 0.23362 0.50761
# Poissons Ratio (z) = 0.12962 0.47205
#
# Static dielectric constant tensor:
#      x y z
#    x 1.784420 -0.016990 0.001610 
#    y -0.016990 1.819910 0.046830 
#    z 0.001610 0.046830 1.754940 
# 
# From -- ./inp_files/316184.got.cif
#   From: 2010.05.17/outbox.cif.g08.bks.cpg/sg2_159_cif.got.tgz:316184.got - 2010.06.03 11:33:40.
