data_PCOD9016098
_publ_section_title
;
Structure prediction by ZEFSAII (Michael W. Deem and Ramdas Pophale) SiO2 
 PCOD9016098
Probable space group: P -1
;
_chemical_formula_sum "Si O2"
_cell_formula_units_Z 16
_cell_length_a 22.474107
_cell_length_b 5.297000
_cell_length_c 17.657353
_cell_angle_alpha 90.983397
_cell_angle_beta 158.562971
_cell_angle_gamma 96.378936
_cell_volume 720.188725
_symmetry_space_group_name_H-M "P -1"
_symmetry_group_IT_number 2
_symmetry_cell_setting 'triclinic'
loop_
_space_group_symop_operation_xyz
x,y,z
-x,-y,-z
loop_
_atom_site_type_symbol
_atom_site_label
_atom_site_fract_x
_atom_site_fract_y
_atom_site_fract_z
Si Si1 0.819617 0.926113 0.179083
Si Si2 0.383540 0.242802 0.506132
Si Si3 0.757549 0.379432 0.007599
Si Si4 0.208095 0.260871 0.687865
Si Si5 0.186627 0.636854 0.259337
Si Si6 0.877608 0.380923 0.636205
Si Si7 0.310912 0.219268 0.598905
Si Si8 0.457295 0.745909 0.000771
O O1 0.781182 0.645518 0.087638
O O2 0.753934 0.854450 0.187593
O O3 0.748280 0.121912 0.046849
O O4 0.025263 0.088489 0.437040
O O5 0.311100 0.465782 0.388992
O O6 0.334971 0.225892 0.537579
O O7 0.282602 0.947390 0.351920
O O8 0.589945 0.318940 0.754972
O O9 0.930041 0.451289 0.161457
O O10 0.370140 0.320029 0.823688
O O11 0.250008 0.578599 0.753924
O O12 0.149542 0.629020 0.305727
O O13 0.000000 0.500000 0.000000
O O14 0.752151 0.532284 0.456586
O O15 0.825517 0.074759 0.544381
O O16 0.488923 0.228002 0.848047
O O17 0.500000 0.000000 0.000000
#
# Coordination Sequence:
#
# PCOD9016098 Si02
#       8
#     2   2   2   2   2   2   2   2
#     4  11  26  40  62  79 124 165 203 263 315 369
#     4  10  22  38  64  93 121 158 202 241 297 364
#     4  12  23  41  62  90 120 159 209 251 303 357
#     4  10  25  40  52  87 112 160 214 259 329 364
#     4  10  21  42  66  95 127 158 190 239 300 367
#     4  10  22  39  64  89 118 160 202 242 300 367
#     4  10  22  39  59  83 117 160 206 254 303 357
#     4  11  24  36  60  82 118 156 215 269 310 352
#
# _framework density 22.2164
#
# number of rings (size 3 to 8) (size 9 to 14) (size 15 to 20)
#    0.000    1.500    0.000    4.125   10.500    2.000 
#    0.000    1.250    0.000    0.000    0.000    0.000 
#    0.000    0.000    0.000    0.000    0.000    0.000 
#
# Total GULP energy -89264.592521 kJ/mol
# GULP energy per Si atom -5579.037033 kJ/mol
# Density = 2.216583 g / cm^3
# Si number density = 22.216400 Si / 1000 Ang^3
#
#
#
# Elastic Constant Matrix: (Units=GPa)
#
#
# Indices 1 2 3 4 5 6 
#
# 1 38.2624 -16.9854 -2.6410 10.5116 32.9333 5.4090
# 2 -16.9854 123.0641 -5.8548 -2.2010 -33.1952 -7.8319
# 3 -2.6410 -5.8548 89.8868 13.8486 0.9952 0.4882
# 4 10.5116 -2.2010 13.8486 40.6486 11.0061 5.2601
# 5 32.9333 -33.1952 0.9952 11.0061 53.7080 11.0335
# 6 5.4090 -7.8319 0.4882 5.2601 11.0335 17.7673
#
#
#
# Elastic Compliance Matrix: (Units=1/GPa)
#
#
# Indices 1 2 3 4 5 6 
#
# 1 0.058114 -0.001370 0.003084 -0.007121 -0.036378 0.006318
# 2 -0.001370 0.009904 0.000734 -0.001374 0.007069 0.000779
# 3 0.003084 0.000734 0.011997 -0.004733 -0.000898 0.001014
# 4 -0.007121 -0.001374 -0.004733 0.029079 -0.001070 -0.006253
# 5 -0.036378 0.007069 -0.000898 -0.001070 0.048767 -0.015752
# 6 0.006318 0.000779 0.001014 -0.006253 -0.015752 0.066308
#
#
# Mechanical properties :
#
#
# Convention : Reuss Voigt Hill
#
# Bulk Modulus (GPa) = 11.77711 22.25010 17.01361
# Shear Modulus (GPa) = 20.19566 40.87110 30.53338
#
# Velocity S-wave (km/s) = 3.01830 4.29380 3.71126
# Velocity P-wave (km/s) = 4.17845 5.88381 5.10288
#
# Compressibility (1/GPa) = 0.08491046
#
# Stress axis : x y z
#
# Youngs Moduli (GPa) = 17.20746 100.97431 83.35300
#
# Poissons Ratio (x) = 0.13835 -0.25704
# Poissons Ratio (y) = 0.02358 -0.06119
# Poissons Ratio (z) = -0.05306 -0.07412
#
# Static dielectric constant tensor:
#      x y z
#    x 1.730130 0.069200 0.050710 
#    y 0.069200 1.734900 -0.052070 
#    z 0.050710 -0.052070 1.779160 
# 
# From -- ./inp_files/38645.got.cif
#   From: 2010.05.17/outbox.cif.g08.bks.cpg/sg2_20_cif.got.tgz:38645.got - 2010.06.03 11:33:40.
