data_PCOD9016971
_publ_section_title
;
Structure prediction by ZEFSAII (Michael W. Deem and Ramdas Pophale) SiO2 
 PCOD9016971
Probable space group: P -1
;
_chemical_formula_sum "Si O2"
_cell_formula_units_Z 16
_cell_length_a 14.406921
_cell_length_b 30.873783
_cell_length_c 9.054457
_cell_angle_alpha 143.734692
_cell_angle_beta 131.364584
_cell_angle_gamma 19.496660
_cell_volume 687.418597
_symmetry_space_group_name_H-M "P -1"
_symmetry_group_IT_number 2
_symmetry_cell_setting 'triclinic'
loop_
_space_group_symop_operation_xyz
x,y,z
-x,-y,-z
loop_
_atom_site_type_symbol
_atom_site_label
_atom_site_fract_x
_atom_site_fract_y
_atom_site_fract_z
Si Si1 0.616791 0.779461 0.632589
Si Si2 0.245814 0.173109 0.549287
Si Si3 0.847017 0.183345 0.469686
Si Si4 0.695466 0.195178 0.629240
Si Si5 0.432260 0.452091 0.267809
Si Si6 0.740887 0.484310 0.441892
Si Si7 0.357875 0.955087 0.168566
Si Si8 0.802446 0.899140 0.163726
O O1 0.581429 0.712724 0.379188
O O2 0.985086 0.604582 0.534752
O O3 0.394138 0.946918 0.742222
O O4 0.473527 0.869158 0.892633
O O5 0.184691 0.129482 0.447355
O O6 0.934183 0.361218 0.647495
O O7 0.345692 0.182553 0.793154
O O8 0.536894 0.004139 0.275604
O O9 0.773861 0.158536 0.438527
O O10 0.505227 0.390068 0.606012
O O11 0.118670 0.030747 0.208689
O O12 0.003297 0.157676 0.672637
O O13 0.622369 0.313375 0.950888
O O14 0.000000 0.000000 0.500000
O O15 0.500000 0.500000 0.500000
O O16 0.479952 0.383561 0.282893
O O17 0.048266 0.704185 0.827809
#
# Coordination Sequence:
#
# PCOD9016971 Si02
#       8
#     2   2   2   2   2   2   2   2
#     4  12  25  47  74 103 153 203 241 296 373 451
#     4  10  21  42  70 111 147 189 243 304 366 435
#     4  11  26  45  70 110 148 196 250 311 359 438
#     4  12  30  51  73 103 152 205 246 299 381 447
#     4  12  27  46  76 109 147 190 255 310 364 437
#     4  12  25  42  76 116 145 188 255 310 367 429
#     4  10  23  42  74 110 149 190 244 304 371 431
#     4  11  21  45  76 108 151 196 241 306 370 437
#
# _framework density 23.275483000000001
#
# number of rings (size 3 to 8) (size 9 to 14) (size 15 to 20)
#    0.000    0.750    3.750    3.000    5.250    1.500 
#    0.000    0.000    0.000    0.000    0.000    0.000 
#    0.000    0.000    0.000    0.000    0.000    0.000 
#
# Total GULP energy -89496.755892 kJ/mol
# GULP energy per Si atom -5593.547243 kJ/mol
# Density = 2.322251 g / cm^3
# Si number density = 23.275483 Si / 1000 Ang^3
#
#
#
# Elastic Constant Matrix: (Units=GPa)
#
#
# Indices 1 2 3 4 5 6 
#
# 1 137.1486 36.8090 36.5269 -15.0198 -22.6837 -3.5052
# 2 36.8090 146.3921 28.9449 -15.3648 -6.7005 4.1343
# 3 36.5269 28.9449 79.6509 -23.1348 -13.4973 -1.3934
# 4 -15.0198 -15.3648 -23.1348 23.3004 -2.8133 -3.0326
# 5 -22.6837 -6.7005 -13.4973 -2.8133 36.9985 -12.2651
# 6 -3.5052 4.1343 -1.3934 -3.0326 -12.2651 38.8422
#
#
#
# Elastic Compliance Matrix: (Units=1/GPa)
#
#
# Indices 1 2 3 4 5 6 
#
# 1 0.009841 -0.001449 -0.001105 0.005612 0.007006 0.003653
# 2 -0.001449 0.007775 -0.001406 0.002683 -0.000061 -0.000819
# 3 -0.001105 -0.001406 0.021956 0.022234 0.010746 0.005967
# 4 0.005612 0.002683 0.022234 0.074891 0.022348 0.013922
# 5 0.007006 -0.000061 0.010746 0.022348 0.042275 0.016118
# 6 0.003653 -0.000819 0.005967 0.013922 0.016118 0.032553
#
#
# Mechanical properties :
#
#
# Convention : Reuss Voigt Hill
#
# Bulk Modulus (GPa) = 31.59493 63.08368 47.33930
# Shear Modulus (GPa) = 24.06581 37.22228 30.64404
#
# Velocity S-wave (km/s) = 3.21901 4.00334 3.63241
# Velocity P-wave (km/s) = 5.23639 6.96641 6.16242
#
# Compressibility (1/GPa) = 0.03165065
#
# Stress axis : x y z
#
# Youngs Moduli (GPa) = 101.61103 128.61111 45.54551
#
# Poissons Ratio (x) = 0.18642 0.05034
# Poissons Ratio (y) = 0.14728 0.06405
# Poissons Ratio (z) = 0.11231 0.18086
#
# Static dielectric constant tensor:
#      x y z
#    x 2.097060 0.136450 -0.271830 
#    y 0.136450 1.958550 -0.244590 
#    z -0.271830 -0.244590 2.313460 
# 
# From -- ./inp_files/320967.got.cif
#   From: 2010.05.17/outbox.cif.g08.bks.cpg/sg2_161_cif.got.tgz:320967.got - 2010.06.03 11:33:40.
