data_PCOD9016397
_publ_section_title
;
Structure prediction by ZEFSAII (Michael W. Deem and Ramdas Pophale) SiO2 
 PCOD9016397
Probable space group: P -1
;
_chemical_formula_sum "Si O2"
_cell_formula_units_Z 16
_cell_length_a 11.779789
_cell_length_b 11.102425
_cell_length_c 8.257684
_cell_angle_alpha 51.828098
_cell_angle_beta 101.648347
_cell_angle_gamma 124.337695
_cell_volume 682.932611
_symmetry_space_group_name_H-M "P -1"
_symmetry_group_IT_number 2
_symmetry_cell_setting 'triclinic'
loop_
_space_group_symop_operation_xyz
x,y,z
-x,-y,-z
loop_
_atom_site_type_symbol
_atom_site_label
_atom_site_fract_x
_atom_site_fract_y
_atom_site_fract_z
Si Si1 0.585770 0.540284 0.746731
Si Si2 0.624277 0.242891 0.160158
Si Si3 0.319887 0.874077 0.398569
Si Si4 0.934953 0.068307 0.187994
Si Si5 0.138275 0.519418 0.464315
Si Si6 0.888482 0.369159 0.945089
Si Si7 0.282859 0.325549 0.688538
Si Si8 0.806041 0.932216 0.624954
O O1 0.416937 0.413294 0.773115
O O2 0.652518 0.591709 0.541753
O O3 0.658138 0.735886 0.701040
O O4 0.626324 0.418804 0.957420
O O5 0.665163 0.240063 0.359327
O O6 0.735670 0.234835 0.090643
O O7 0.469665 0.058245 0.247957
O O8 0.259459 0.736432 0.345527
O O9 0.224007 0.937951 0.388999
O O10 0.821930 0.895595 0.186069
O O11 0.875561 0.021620 0.395577
O O12 0.940788 0.248810 0.986863
O O13 0.084546 0.094234 0.225110
O O14 0.186203 0.395911 0.651406
O O15 0.000000 0.500000 0.500000
O O16 0.117234 0.490908 0.291645
O O17 0.000000 0.500000 0.000000
#
# Coordination Sequence:
#
# PCOD9016397 Si02
#       8
#     2   2   2   2   2   2   2   2
#     4  10  22  42  69  99 133 182 231 282 338 412
#     4  11  24  44  69  98 139 182 234 273 344 415
#     4  11  26  43  67 103 142 180 226 289 348 399
#     4  10  22  40  71  96 130 180 233 280 334 414
#     4  12  27  46  68 100 144 177 223 295 345 405
#     4  12  25  45  74 100 132 184 241 275 340 426
#     4  10  23  42  68 101 136 174 230 287 344 401
#     4  10  21  42  67  96 137 179 227 283 342 403
#
# _framework density 23.428372
#
# number of rings (size 3 to 8) (size 9 to 14) (size 15 to 20)
#    0.000    1.250    2.500    2.250    8.750    2.000 
#    2.250    1.250    0.000    0.000    0.000    0.000 
#    0.000    0.000    0.000    0.000    0.000    0.000 
#
# Total GULP energy -89552.083689 kJ/mol
# GULP energy per Si atom -5597.005231 kJ/mol
# Density = 2.337505 g / cm^3
# Si number density = 23.428372 Si / 1000 Ang^3
#
#
#
# Elastic Constant Matrix: (Units=GPa)
#
#
# Indices 1 2 3 4 5 6 
#
# 1 100.3733 37.7975 1.1810 -17.8425 12.0736 12.2058
# 2 37.7975 94.3225 6.8633 -7.2602 17.9237 1.3615
# 3 1.1810 6.8633 50.7892 -12.4042 13.5625 3.0925
# 4 -17.8425 -7.2602 -12.4042 11.4971 -10.9820 11.1985
# 5 12.0736 17.9237 13.5625 -10.9820 37.9436 -0.6520
# 6 12.2058 1.3615 3.0925 11.1985 -0.6520 28.1873
#
#
#
# Elastic Compliance Matrix: (Units=1/GPa)
#
#
# Indices 1 2 3 4 5 6 
#
# 1 -0.008194 0.000328 -0.019249 -0.085805 -0.014825 0.039390
# 2 0.000328 0.012176 0.004344 0.020404 -0.001664 -0.009351
# 3 -0.019249 0.004344 0.001815 -0.084644 -0.020368 0.041083
# 4 -0.085805 0.020404 -0.084644 -0.353383 -0.051186 0.184667
# 5 -0.014825 -0.001664 -0.020368 -0.051186 0.024833 0.029645
# 6 0.039390 -0.009351 0.041083 0.184667 0.029645 -0.058316
#
#
# Mechanical properties :
#
#
# Convention : Reuss Voigt Hill
#
# Bulk Modulus (GPa) = -42.81225 37.46319 -2.67453
# Shear Modulus (GPa) = -13.90047 28.83515 7.46734
#
# Velocity S-wave (km/s) = -2.43845 3.51205 1.78724
# Velocity P-wave (km/s) = 5.12264 5.69835 1.76491
#
# Compressibility (1/GPa) = -0.02335780
#
# Stress axis : x y z
#
# Youngs Moduli (GPa) = -122.04322 82.12815 550.99975
#
# Poissons Ratio (x) = -0.02694 10.60643
# Poissons Ratio (y) = 0.04004 -2.39348
# Poissons Ratio (z) = -2.34926 -0.35676
#
# Static dielectric constant tensor:
#      x y z
#    x 1.893520 -0.058600 -0.055960 
#    y -0.058600 1.815450 0.008820 
#    z -0.055960 0.008820 1.889120 
# 
# From -- ./inp_files/205079.got.cif
#   From: 2010.05.17/outbox.cif.g08.bks.cpg/sg2_103_cif.got.tgz:205079.got - 2010.06.03 11:33:40.
