data_PCOD9016900
_publ_section_title
;
Structure prediction by ZEFSAII (Michael W. Deem and Ramdas Pophale) SiO2 
 PCOD9016900
Probable space group: P -1
;
_chemical_formula_sum "Si O2"
_cell_formula_units_Z 12
_cell_length_a 7.182839
_cell_length_b 6.870583
_cell_length_c 14.588331
_cell_angle_alpha 122.340574
_cell_angle_beta 129.535576
_cell_angle_gamma 79.127007
_cell_volume 456.187189
_symmetry_space_group_name_H-M "P -1"
_symmetry_group_IT_number 2
_symmetry_cell_setting 'triclinic'
loop_
_space_group_symop_operation_xyz
x,y,z
-x,-y,-z
loop_
_atom_site_type_symbol
_atom_site_label
_atom_site_fract_x
_atom_site_fract_y
_atom_site_fract_z
Si Si1 0.721078 0.429058 0.764037
Si Si2 0.426785 0.236124 0.451208
Si Si3 0.396170 0.095873 0.207602
Si Si4 0.243970 0.588870 0.941577
Si Si5 0.930250 0.147686 0.382446
Si Si6 0.779417 0.632641 0.299500
O O1 0.609598 0.253354 0.600481
O O2 0.746928 0.700026 0.805110
O O3 0.504603 0.401583 0.764618
O O4 0.002748 0.421609 0.872789
O O5 0.500000 0.500000 0.500000
O O6 0.433715 0.076139 0.324153
O O7 0.150219 0.179777 0.388232
O O8 0.673171 0.195299 0.280456
O O9 0.289189 0.847608 0.063954
O O10 0.181994 0.567890 0.808525
O O11 0.500000 0.500000 0.000000
O O12 0.038163 0.316765 0.544070
O O13 0.857278 0.878563 0.328794
#
# Coordination Sequence:
#
# PCOD9016900 Si02
#       6
#     2   2   2   2   2   2
#     4  10  24  43  69  97 132 173 221 273 324 387
#     4   9  21  41  69 102 131 165 217 277 324 387
#     4  11  23  42  69 101 129 174 218 271 330 388
#     4  12  25  44  64  95 137 178 218 270 330 388
#     4  10  21  42  69  99 131 172 218 270 329 386
#     4  10  23  43  66  97 135 173 218 269 326 395
#
# _framework density 26.304991999999999
#
# number of rings (size 3 to 8) (size 9 to 14) (size 15 to 20)
#    0.000    1.667    1.667    1.500    0.000   12.667 
#    0.000    5.000    0.000    0.000    0.000    0.000 
#    0.000    0.000    0.000    0.000    0.000    0.000 
#
# Total GULP energy -67292.073871 kJ/mol
# GULP energy per Si atom -5607.672823 kJ/mol
# Density = 2.624512 g / cm^3
# Si number density = 26.304992 Si / 1000 Ang^3
#
#
#
# Elastic Constant Matrix: (Units=GPa)
#
#
# Indices 1 2 3 4 5 6 
#
# 1 219.9948 34.9027 103.2812 10.7354 22.6682 4.9874
# 2 34.9027 76.4783 36.4398 16.3622 -5.4980 -8.3597
# 3 103.2812 36.4398 196.5112 49.4632 -10.8463 -8.1981
# 4 10.7354 16.3622 49.4632 36.3080 -17.1934 -2.7565
# 5 22.6682 -5.4980 -10.8463 -17.1934 74.4811 -2.7724
# 6 4.9874 -8.3597 -8.1981 -2.7565 -2.7724 42.0612
#
#
#
# Elastic Compliance Matrix: (Units=1/GPa)
#
#
# Indices 1 2 3 4 5 6 
#
# 1 0.007097 -0.002313 -0.004479 0.003862 -0.002168 -0.002064
# 2 -0.002313 0.015791 -0.000100 -0.005762 0.000639 0.003058
# 3 -0.004479 -0.000100 0.010899 -0.013384 -0.000081 0.001753
# 4 0.003862 -0.005762 -0.013384 0.051106 0.008236 -0.000320
# 5 -0.002168 0.000639 -0.000081 0.008236 0.016096 0.001969
# 6 -0.002064 0.003058 0.001753 -0.000320 0.001969 0.025078
#
#
# Mechanical properties :
#
#
# Convention : Reuss Voigt Hill
#
# Bulk Modulus (GPa) = 49.98823 93.58128 71.78475
# Shear Modulus (GPa) = 34.12564 51.79411 42.95988
#
# Velocity S-wave (km/s) = 3.60572 4.44214 4.04560
# Velocity P-wave (km/s) = 6.03155 7.87165 7.01222
#
# Compressibility (1/GPa) = 0.02000471
#
# Stress axis : x y z
#
# Youngs Moduli (GPa) = 140.90482 63.32552 91.75306
#
# Poissons Ratio (x) = 0.14644 0.41097
# Poissons Ratio (y) = 0.32584 0.00914
# Poissons Ratio (z) = 0.63113 0.00631
#
# Static dielectric constant tensor:
#      x y z
#    x 2.029240 0.028850 -0.005600 
#    y 0.028850 2.160890 -0.031990 
#    z -0.005600 -0.031990 2.047130 
# 
# From -- ./inp_files/480899.got.cif
#   From: 2010.05.17/outbox.cif.g08.bks.cpg/sg2_241_cif.got.tgz:480899.got - 2010.06.03 11:33:40.
