data_PCOD9016457
_publ_section_title
;
Structure prediction by ZEFSAII (Michael W. Deem and Ramdas Pophale) SiO2 
 PCOD9016457
Probable space group: P -1
;
_chemical_formula_sum "Si O2"
_cell_formula_units_Z 16
_cell_length_a 8.233147
_cell_length_b 15.165642
_cell_length_c 8.563172
_cell_angle_alpha 42.825936
_cell_angle_beta 69.812676
_cell_angle_gamma 77.573344
_cell_volume 680.963705
_symmetry_space_group_name_H-M "P -1"
_symmetry_group_IT_number 2
_symmetry_cell_setting 'triclinic'
loop_
_space_group_symop_operation_xyz
x,y,z
-x,-y,-z
loop_
_atom_site_type_symbol
_atom_site_label
_atom_site_fract_x
_atom_site_fract_y
_atom_site_fract_z
Si Si1 0.365389 0.623929 0.552247
Si Si2 0.223757 0.889988 0.722676
Si Si3 0.842028 0.353338 0.086106
Si Si4 0.592870 0.875882 0.064708
Si Si5 0.384163 0.146525 0.285800
Si Si6 0.510811 0.414119 0.952658
Si Si7 0.965505 0.423677 0.448853
Si Si8 0.034175 0.142146 0.880817
O O1 0.245813 0.631838 0.736868
O O2 0.486070 0.752254 0.330331
O O3 0.482553 0.504216 0.698839
O O4 0.236666 0.606789 0.474049
O O5 0.121805 0.798747 0.747799
O O6 0.432573 0.879244 0.655930
O O7 0.225151 0.046344 0.510308
O O8 0.133586 0.846732 0.968916
O O9 0.699933 0.363912 0.979833
O O10 0.974374 0.472075 0.841808
O O11 0.790401 0.870009 0.062876
O O12 0.585342 0.868009 0.890074
O O13 0.500000 0.000000 0.000000
O O14 0.366613 0.296012 0.143190
O O15 0.500000 0.500000 0.000000
O O16 0.000000 0.500000 0.500000
O O17 0.049096 0.281889 0.603626
O O18 0.000000 0.000000 0.000000
#
# Coordination Sequence:
#
# PCOD9016457 Si02
#       8
#     2   2   2   2   2   2   2   2
#     4  11  24  42  70  98 140 180 233 284 346 418
#     4  10  21  42  67  99 134 183 226 285 350 420
#     4  10  21  42  69  98 138 179 230 283 352 411
#     4  12  26  45  68 100 135 180 236 290 354 419
#     4  10  22  39  69  97 138 180 232 282 344 418
#     4   9  21  39  63 100 133 179 229 283 337 414
#     4  12  25  43  69 101 140 181 228 290 352 415
#     4  12  27  45  69 100 141 184 232 293 354 419
#
# _framework density 23.496113000000001
#
# number of rings (size 3 to 8) (size 9 to 14) (size 15 to 20)
#    0.000    1.250    1.250    4.125    3.500    7.000 
#    0.000    1.250    0.000    0.000    0.000    0.000 
#    0.000    0.000    0.000    0.000    0.000    0.000 
#
# Total GULP energy -89315.017672 kJ/mol
# GULP energy per Si atom -5582.188605 kJ/mol
# Density = 2.344264 g / cm^3
# Si number density = 23.496113 Si / 1000 Ang^3
#
#
#
# Elastic Constant Matrix: (Units=GPa)
#
#
# Indices 1 2 3 4 5 6 
#
# 1 70.4324 17.6972 25.3462 -18.9156 9.1747 14.6414
# 2 17.6972 111.1929 42.7040 -19.1100 -9.7454 21.6641
# 3 25.3462 42.7040 139.4882 -29.2219 -28.8517 14.2251
# 4 -18.9156 -19.1100 -29.2219 52.9051 4.2225 -6.2201
# 5 9.1747 -9.7454 -28.8517 4.2225 39.1227 0.7035
# 6 14.6414 21.6641 14.2251 -6.2201 0.7035 24.9460
#
#
#
# Elastic Compliance Matrix: (Units=1/GPa)
#
#
# Indices 1 2 3 4 5 6 
#
# 1 0.019238 -0.000111 -0.003147 0.004734 -0.007227 -0.008016
# 2 -0.000111 0.011960 -0.002032 0.002020 0.001445 -0.008700
# 3 -0.003147 -0.002032 0.010902 0.003292 0.007953 -0.002009
# 4 0.004734 0.002020 0.003292 0.023122 -0.000664 -0.000626
# 5 -0.007227 0.001445 0.007953 -0.000664 0.033600 -0.002662
# 6 -0.008016 -0.008700 -0.002009 -0.000626 -0.002662 0.053411
#
#
# Mechanical properties :
#
#
# Convention : Reuss Voigt Hill
#
# Bulk Modulus (GPa) = 31.72660 54.73428 43.23044
# Shear Modulus (GPa) = 28.84836 39.08585 33.96711
#
# Velocity S-wave (km/s) = 3.50779 4.08303 3.80629
# Velocity P-wave (km/s) = 5.47159 6.75084 6.14460
#
# Compressibility (1/GPa) = 0.03151929
#
# Stress axis : x y z
#
# Youngs Moduli (GPa) = 51.98165 83.60952 91.72220
#
# Poissons Ratio (x) = 0.00930 0.28867
# Poissons Ratio (y) = 0.00578 0.18639
# Poissons Ratio (z) = 0.16360 0.16991
#
# Static dielectric constant tensor:
#      x y z
#    x 1.934030 -0.091150 0.071790 
#    y -0.091150 1.940860 -0.096710 
#    z 0.071790 -0.096710 1.988040 
# 
# From -- ./inp_files/205064.got.cif
#   From: 2010.05.17/outbox.cif.g08.bks.cpg/sg2_103_cif.got.tgz:205064.got - 2010.06.03 11:33:40.
