data_PCOD9016231
_publ_section_title
;
Structure prediction by ZEFSAII (Michael W. Deem and Ramdas Pophale) SiO2 
 PCOD9016231
Probable space group: P -1
;
_chemical_formula_sum "Si O2"
_cell_formula_units_Z 16
_cell_length_a 9.084554
_cell_length_b 15.838688
_cell_length_c 12.122589
_cell_angle_alpha 121.843990
_cell_angle_beta 119.365059
_cell_angle_gamma 110.932497
_cell_volume 716.340767
_symmetry_space_group_name_H-M "P -1"
_symmetry_group_IT_number 2
_symmetry_cell_setting 'triclinic'
loop_
_space_group_symop_operation_xyz
x,y,z
-x,-y,-z
loop_
_atom_site_type_symbol
_atom_site_label
_atom_site_fract_x
_atom_site_fract_y
_atom_site_fract_z
Si Si1 0.155941 0.841476 0.528723
Si Si2 0.309896 0.614807 0.086366
Si Si3 0.282858 0.320766 0.571636
Si Si4 0.403962 0.341786 0.388964
Si Si5 0.989124 0.113960 0.879146
Si Si6 0.340110 0.724645 0.467317
Si Si7 0.342851 0.862284 0.247788
Si Si8 0.330096 0.314364 0.930442
O O1 0.250337 0.774974 0.545159
O O2 0.027155 0.834685 0.581283
O O3 0.889572 0.726145 0.257499
O O4 0.451834 0.029991 0.710673
O O5 0.484482 0.646063 0.270609
O O6 0.328467 0.741340 0.184819
O O7 0.476856 0.657649 0.064777
O O8 0.953528 0.416569 0.816133
O O9 0.227239 0.274252 0.391833
O O10 0.442367 0.503365 0.790898
O O11 0.500000 0.500000 0.500000
O O12 0.643151 0.372974 0.532961
O O13 0.215132 0.202702 0.123140
O O14 0.956421 0.218923 0.937048
O O15 0.120499 0.154676 0.833704
O O16 0.661168 0.909162 0.653499
O O17 0.500000 0.000000 0.500000
#
# Coordination Sequence:
#
# PCOD9016231 Si02
#       8
#     2   2   2   2   2   2   2   2
#     4  10  21  42  67 102 135 173 214 290 337 395
#     4  11  24  42  72 106 130 180 219 278 355 394
#     4  11  23  41  71 100 143 173 227 276 341 407
#     4  12  26  43  65  97 137 185 229 274 336 405
#     4  11  25  45  66  98 140 179 226 279 330 397
#     4  11  24  43  69  96 131 176 237 274 330 400
#     4  11  24  42  70 106 142 164 224 287 338 403
#     4  11  20  43  70  99 144 171 220 281 340 404
#
# _framework density 22.335737999999999
#
# number of rings (size 3 to 8) (size 9 to 14) (size 15 to 20)
#    0.000    1.000    5.000    1.875    3.500    3.500 
#    0.000    6.250    0.000    0.000    0.000    0.000 
#    0.000    0.000    0.000    0.000    0.000    0.000 
#
# Total GULP energy -89423.434273 kJ/mol
# GULP energy per Si atom -5588.964642 kJ/mol
# Density = 2.228490 g / cm^3
# Si number density = 22.335738 Si / 1000 Ang^3
#
#
#
# Elastic Constant Matrix: (Units=GPa)
#
#
# Indices 1 2 3 4 5 6 
#
# 1 121.4202 74.3311 37.4171 0.1176 10.9603 6.8162
# 2 74.3311 115.4797 23.5455 -5.9639 5.9618 4.5395
# 3 37.4171 23.5455 39.5402 -2.8482 3.1725 7.2103
# 4 0.1176 -5.9639 -2.8482 32.9951 1.7307 -8.7075
# 5 10.9603 5.9618 3.1725 1.7307 27.9123 7.5314
# 6 6.8162 4.5395 7.2103 -8.7075 7.5314 53.3822
#
#
#
# Elastic Compliance Matrix: (Units=1/GPa)
#
#
# Indices 1 2 3 4 5 6 
#
# 1 0.017417 -0.008893 -0.011099 -0.002403 -0.003568 0.000143
# 2 -0.008893 0.014527 -0.000112 0.002730 0.000141 0.000341
# 3 -0.011099 -0.000112 0.036542 0.002258 0.000973 -0.003278
# 4 -0.002403 0.002730 0.002258 0.032657 -0.003427 0.005580
# 5 -0.003568 0.000141 0.000973 -0.003427 0.038845 -0.005727
# 6 0.000143 0.000341 -0.003278 0.005580 -0.005727 0.020847
#
#
# Mechanical properties :
#
#
# Convention : Reuss Voigt Hill
#
# Bulk Modulus (GPa) = 35.36198 60.78082 48.07140
# Shear Modulus (GPa) = 23.75669 32.26766 28.01218
#
# Velocity S-wave (km/s) = 3.26485 3.80500 3.54523
# Velocity P-wave (km/s) = 5.48441 6.82462 6.19089
#
# Compressibility (1/GPa) = 0.02827896
#
# Stress axis : x y z
#
# Youngs Moduli (GPa) = 57.41641 68.83764 27.36563
#
# Poissons Ratio (x) = 0.61219 0.30372
# Poissons Ratio (y) = 0.51062 0.00305
# Poissons Ratio (z) = 0.63724 0.00768
#
# Static dielectric constant tensor:
#      x y z
#    x 1.849690 -0.005810 -0.030030 
#    y -0.005810 1.859820 0.030960 
#    z -0.030030 0.030960 1.890130 
# 
# From -- ./inp_files/399476.got.cif
#   From: 2010.05.17/outbox.cif.g08.bks.cpg/sg2_200_cif.got.tgz:399476.got - 2010.06.03 11:33:40.
