data_PCOD9016399
_publ_section_title
;
Structure prediction by ZEFSAII (Michael W. Deem and Ramdas Pophale) SiO2 
 PCOD9016399
Probable space group: P -1
;
_chemical_formula_sum "Si O2"
_cell_formula_units_Z 16
_cell_length_a 19.296461
_cell_length_b 5.192591
_cell_length_c 25.587215
_cell_angle_alpha 58.904919
_cell_angle_beta 19.265665
_cell_angle_gamma 58.971816
_cell_volume 720.828287
_symmetry_space_group_name_H-M "P -1"
_symmetry_group_IT_number 2
_symmetry_cell_setting 'triclinic'
loop_
_space_group_symop_operation_xyz
x,y,z
-x,-y,-z
loop_
_atom_site_type_symbol
_atom_site_label
_atom_site_fract_x
_atom_site_fract_y
_atom_site_fract_z
Si Si1 0.044333 0.830015 0.913416
Si Si2 0.400366 0.096160 0.115114
Si Si3 0.636033 0.032422 0.242137
Si Si4 0.188338 0.747305 0.164685
Si Si5 0.106619 0.125508 0.729139
Si Si6 0.621478 0.364881 0.477556
Si Si7 0.965553 0.978948 0.464534
Si Si8 0.191202 0.329160 0.488668
O O1 0.254107 0.903872 0.787273
O O2 0.064873 0.900911 0.830144
O O3 0.000000 0.500000 0.000000
O O4 0.833236 0.030833 0.062778
O O5 0.288899 0.435510 0.151935
O O6 0.208587 0.904850 0.282491
O O7 0.606264 0.070820 0.007267
O O8 0.500000 0.000000 0.000000
O O9 0.539523 0.714338 0.354419
O O10 0.429907 0.235087 0.347214
O O11 0.092282 0.731656 0.177335
O O12 0.991707 0.845443 0.333449
O O13 0.223571 0.398922 0.639020
O O14 0.253413 0.937610 0.602352
O O15 0.500000 0.500000 0.500000
O O16 0.862657 0.322470 0.491878
O O17 0.839246 0.754938 0.542352
O O18 0.000000 0.000000 0.500000
#
# Coordination Sequence:
#
# PCOD9016399 Si02
#       8
#     2   2   2   2   2   2   2   2
#     4  11  27  48  69 100 150 192 225 295 364 418
#     4  10  21  42  67  96 140 178 218 285 353 403
#     4  11  26  45  70 101 142 190 233 285 363 416
#     4  10  23  41  68 104 134 177 232 290 342 408
#     4  12  27  44  72 109 136 181 248 289 342 420
#     4  12  25  44  73 103 137 182 237 294 338 414
#     4  11  25  45  70 101 137 180 227 280 346 418
#     4  11  24  43  72 101 134 179 233 283 343 415
#
# _framework density 22.196688999999999
#
# number of rings (size 3 to 8) (size 9 to 14) (size 15 to 20)
#    0.000    1.000    3.750    1.500   10.500    1.000 
#    2.250    0.000    0.000    0.000    0.000    0.000 
#    0.000    0.000    0.000    0.000    0.000    0.000 
#
# Total GULP energy -89211.961553 kJ/mol
# GULP energy per Si atom -5575.747597 kJ/mol
# Density = 2.214617 g / cm^3
# Si number density = 22.196689 Si / 1000 Ang^3
#
#
#
# Elastic Constant Matrix: (Units=GPa)
#
#
# Indices 1 2 3 4 5 6 
#
# 1 134.9964 10.1846 58.3065 4.7807 -28.3988 0.5475
# 2 10.1846 125.2078 11.9217 -7.5105 -10.6897 18.3661
# 3 58.3065 11.9217 116.8364 21.4647 -23.6666 -6.7330
# 4 4.7807 -7.5105 21.4647 35.8004 -2.9247 1.1379
# 5 -28.3988 -10.6897 -23.6666 -2.9247 52.9268 3.9948
# 6 0.5475 18.3661 -6.7330 1.1379 3.9948 30.6475
#
#
#
# Elastic Compliance Matrix: (Units=1/GPa)
#
#
# Indices 1 2 3 4 5 6 
#
# 1 0.010182 0.000359 -0.004866 0.001993 0.003622 -0.002012
# 2 0.000359 0.009433 -0.001719 0.003329 0.001998 -0.006421
# 3 -0.004866 -0.001719 0.013244 -0.007596 0.002241 0.004016
# 4 0.001993 0.003329 -0.007596 0.033123 0.000553 -0.005001
# 5 0.003622 0.001998 0.002241 0.000553 0.022555 -0.003730
# 6 -0.002012 -0.006421 0.004016 -0.005001 -0.003730 0.038067
#
#
# Mechanical properties :
#
#
# Convention : Reuss Voigt Hill
#
# Bulk Modulus (GPa) = 49.00255 59.76291 54.38273
# Shear Modulus (GPa) = 34.27987 43.65013 38.96500
#
# Velocity S-wave (km/s) = 3.93411 4.43935 4.19434
# Velocity P-wave (km/s) = 6.53917 7.29793 6.92894
#
# Compressibility (1/GPa) = 0.02040710
#
# Stress axis : x y z
#
# Youngs Moduli (GPa) = 98.21444 106.00751 75.50782
#
# Poissons Ratio (x) = -0.03807 0.36744
# Poissons Ratio (y) = -0.03527 0.12977
# Poissons Ratio (z) = 0.47794 0.18218
#
# Static dielectric constant tensor:
#      x y z
#    x 2.192850 -0.040780 -0.402070 
#    y -0.040780 1.881020 0.020780 
#    z -0.402070 0.020780 2.321270 
# 
# From -- ./inp_files/122969.got.cif
#   From: 2010.05.17/outbox.cif.g08.bks.cpg/sg2_62_cif.got.tgz:122969.got - 2010.06.03 11:33:40.
