data_PCOD9016048
_publ_section_title
;
Structure prediction by ZEFSAII (Michael W. Deem and Ramdas Pophale) SiO2 
 PCOD9016048
Probable space group: P -1
;
_chemical_formula_sum "Si O2"
_cell_formula_units_Z 16
_cell_length_a 10.408174
_cell_length_b 21.758944
_cell_length_c 5.265874
_cell_angle_alpha 104.950144
_cell_angle_beta 118.908364
_cell_angle_gamma 46.457732
_cell_volume 751.426078
_symmetry_space_group_name_H-M "P -1"
_symmetry_group_IT_number 2
_symmetry_cell_setting 'triclinic'
loop_
_space_group_symop_operation_xyz
x,y,z
-x,-y,-z
loop_
_atom_site_type_symbol
_atom_site_label
_atom_site_fract_x
_atom_site_fract_y
_atom_site_fract_z
Si Si1 0.471597 0.390328 0.485067
Si Si2 0.287812 0.781360 0.659576
Si Si3 0.578774 0.942509 0.265039
Si Si4 0.992438 0.771906 0.567377
Si Si5 0.094923 0.677124 0.065956
Si Si6 0.926962 0.072458 0.708681
Si Si7 0.339421 0.494858 0.944806
Si Si8 0.690719 0.089739 0.900814
O O1 0.514729 0.304753 0.361591
O O2 0.689458 0.352368 0.729988
O O3 0.334187 0.446504 0.654397
O O4 0.408160 0.444557 0.223709
O O5 0.191377 0.756647 0.723860
O O6 0.125152 0.843573 0.353877
O O7 0.302456 0.845146 0.875988
O O8 0.491186 0.897061 0.160238
O O9 0.812073 0.869415 0.428813
O O10 0.500000 0.000000 0.500000
O O11 0.500000 0.000000 0.000000
O O12 0.004544 0.714739 0.297546
O O13 0.977588 0.745965 0.803139
O O14 0.144971 0.591546 0.929258
O O15 0.723705 0.103767 0.661424
O O16 0.000000 0.000000 0.500000
O O17 0.118196 0.013329 0.007188
O O18 0.500000 0.500000 0.000000
#
# Coordination Sequence:
#
# PCOD9016048 Si02
#       8
#     2   2   2   2   2   2   2   2
#     4  10  19  29  51  87 116 149 185 236 293 339
#     4  10  21  33  58  82 118 145 190 241 288 348
#     4  12  28  44  61  86 120 155 200 246 288 344
#     4  11  23  37  58  87 115 156 197 238 290 341
#     4  10  19  35  54  81 120 158 190 231 289 356
#     4   9  20  36  58  82 109 148 198 234 297 339
#     4  10  17  30  50  80 121 153 181 230 293 349
#     4  10  23  38  60  80 113 156 194 238 298 343
#
# _framework density 21.292846000000001
#
# number of rings (size 3 to 8) (size 9 to 14) (size 15 to 20)
#    0.000    1.750    0.000    6.750   14.000    0.000 
#    0.000    0.000    0.000    0.000    0.000    5.250 
#    0.000    0.000    0.000    0.000    0.000    0.000 
#
# Total GULP energy -89173.757966 kJ/mol
# GULP energy per Si atom -5573.359873 kJ/mol
# Density = 2.124438 g / cm^3
# Si number density = 21.292846 Si / 1000 Ang^3
#
#
#
# Elastic Constant Matrix: (Units=GPa)
#
#
# Indices 1 2 3 4 5 6 
#
# 1 47.0012 6.5079 25.3144 10.8772 -10.0049 2.8690
# 2 6.5079 121.7281 48.7982 21.4439 -12.4977 10.2847
# 3 25.3144 48.7982 97.4964 9.1111 -36.0093 3.9780
# 4 10.8772 21.4439 9.1111 42.2339 3.7195 -10.2541
# 5 -10.0049 -12.4977 -36.0093 3.7195 30.1360 -1.7423
# 6 2.8690 10.2847 3.9780 -10.2541 -1.7423 20.7578
#
#
#
# Elastic Compliance Matrix: (Units=1/GPa)
#
#
# Indices 1 2 3 4 5 6 
#
# 1 0.028136 0.004231 -0.006534 -0.010690 0.004048 -0.009674
# 2 0.004231 0.012931 -0.006583 -0.008619 -0.000615 -0.010039
# 3 -0.006534 -0.006583 0.024639 -0.002395 0.024857 0.000346
# 4 -0.010690 -0.008619 -0.002395 0.038330 -0.013327 0.024022
# 5 0.004048 -0.000615 0.024857 -0.013327 0.065264 -0.006123
# 6 -0.009674 -0.010039 0.000346 0.024022 -0.006123 0.065772
#
#
# Mechanical properties :
#
#
# Convention : Reuss Voigt Hill
#
# Bulk Modulus (GPa) = 20.86230 47.49629 34.17929
# Shear Modulus (GPa) = 18.59975 30.99922 24.79948
#
# Velocity S-wave (km/s) = 2.95875 3.81970 3.41645
# Velocity P-wave (km/s) = 4.63587 6.46592 5.62581
#
# Compressibility (1/GPa) = 0.04793336
#
# Stress axis : x y z
#
# Youngs Moduli (GPa) = 35.54199 77.33275 40.58669
#
# Poissons Ratio (x) = -0.32723 0.26521
# Poissons Ratio (y) = -0.15040 0.26719
# Poissons Ratio (z) = 0.23225 0.50909
#
# Static dielectric constant tensor:
#      x y z
#    x 1.826440 0.002030 -0.021020 
#    y 0.002030 1.800750 -0.001630 
#    z -0.021020 -0.001630 1.880990 
# 
# From -- ./inp_files/84092.got.cif
#   From: 2010.05.17/outbox.cif.g08.bks.cpg/sg2_43_cif.got.tgz:84092.got - 2010.06.03 11:33:40.
