data_PCOD9016632
_publ_section_title
;
Structure prediction by ZEFSAII (Michael W. Deem and Ramdas Pophale) SiO2 
 PCOD9016632
Probable space group: P -1
;
_chemical_formula_sum "Si O2"
_cell_formula_units_Z 16
_cell_length_a 9.128327
_cell_length_b 8.928480
_cell_length_c 19.187077
_cell_angle_alpha 122.065626
_cell_angle_beta 36.433762
_cell_angle_gamma 134.450987
_cell_volume 661.013445
_symmetry_space_group_name_H-M "P -1"
_symmetry_group_IT_number 2
_symmetry_cell_setting 'triclinic'
loop_
_space_group_symop_operation_xyz
x,y,z
-x,-y,-z
loop_
_atom_site_type_symbol
_atom_site_label
_atom_site_fract_x
_atom_site_fract_y
_atom_site_fract_z
Si Si1 0.473791 0.217756 0.081299
Si Si2 0.127188 0.194407 0.444078
Si Si3 0.694293 0.351974 0.486847
Si Si4 0.900523 0.030553 0.338281
Si Si5 0.795650 0.088543 0.012455
Si Si6 0.647014 0.264716 0.330798
Si Si7 0.665967 0.499197 0.867607
Si Si8 0.354592 0.067107 0.816331
O O1 0.457650 0.418410 0.123861
O O2 0.163222 0.056161 0.198006
O O3 0.445052 0.119139 0.991086
O O4 0.740953 0.250375 0.033299
O O5 0.106971 0.401419 0.508538
O O6 0.478809 0.306215 0.346468
O O7 0.011407 0.080357 0.387227
O O8 0.000000 0.000000 0.500000
O O9 0.848734 0.219101 0.389163
O O10 0.592896 0.338240 0.442465
O O11 0.403588 0.196912 0.605503
O O12 0.093686 0.090504 0.894364
O O13 0.751182 0.082129 0.111065
O O14 0.990967 0.364438 0.215091
O O15 0.532934 0.018221 0.307607
O O16 0.600159 0.281996 0.809860
O O17 0.500000 0.500000 0.000000
#
# Coordination Sequence:
#
# PCOD9016632 Si02
#       8
#     2   2   2   2   2   2   2   2
#     4  11  22  43  67 103 138 183 229 289 350 408
#     4  12  27  45  74 105 140 178 241 294 349 420
#     4  11  25  48  71 100 143 182 235 290 354 415
#     4  11  24  46  71 100 143 186 232 285 352 421
#     4  10  21  42  68  96 141 175 228 286 341 416
#     4  12  25  44  70 101 137 182 231 285 348 411
#     4  12  24  43  70 100 138 185 233 286 350 411
#     4  11  22  42  71  97 136 184 230 280 346 415
#
# _framework density 24.205257
#
# number of rings (size 3 to 8) (size 9 to 14) (size 15 to 20)
#    0.000    0.750    5.000    2.250    1.750    1.500 
#    6.750    0.000    0.000    0.000    0.000    0.000 
#    0.000    0.000    0.000    0.000    0.000    0.000 
#
# Total GULP energy -89327.096900 kJ/mol
# GULP energy per Si atom -5582.943556 kJ/mol
# Density = 2.415017 g / cm^3
# Si number density = 24.205257 Si / 1000 Ang^3
#
#
#
# Elastic Constant Matrix: (Units=GPa)
#
#
# Indices 1 2 3 4 5 6 
#
# 1 130.1001 17.9049 14.8756 -8.5965 -15.7926 -5.4947
# 2 17.9049 86.8950 7.9886 2.6820 3.0098 -5.9979
# 3 14.8756 7.9886 61.8181 1.2169 -6.5485 -15.8436
# 4 -8.5965 2.6820 1.2169 14.6949 1.7766 2.9066
# 5 -15.7926 3.0098 -6.5485 1.7766 42.9307 13.6457
# 6 -5.4947 -5.9979 -15.8436 2.9066 13.6457 24.5799
#
#
#
# Elastic Compliance Matrix: (Units=1/GPa)
#
#
# Indices 1 2 3 4 5 6 
#
# 1 0.008974 -0.002141 -0.002318 0.005932 0.003738 -0.002787
# 2 -0.002141 0.012511 -0.000155 -0.004075 -0.002986 0.004614
# 3 -0.002318 -0.000155 0.020325 -0.005600 -0.002074 0.014358
# 4 0.005932 -0.004075 -0.005600 0.075101 0.002878 -0.013757
# 5 0.003738 -0.002986 -0.002074 0.002878 0.030286 -0.018383
# 6 -0.002787 0.004614 0.014358 -0.013757 -0.018383 0.062274
#
#
# Mechanical properties :
#
#
# Convention : Reuss Voigt Hill
#
# Bulk Modulus (GPa) = 30.69182 40.03905 35.36543
# Shear Modulus (GPa) = 21.78082 32.31073 27.04577
#
# Velocity S-wave (km/s) = 3.00299 3.65754 3.34631
# Velocity P-wave (km/s) = 4.97305 5.86636 5.43808
#
# Compressibility (1/GPa) = 0.03258197
#
# Stress axis : x y z
#
# Youngs Moduli (GPa) = 111.43201 79.92813 49.20098
#
# Poissons Ratio (x) = 0.17112 0.11404
# Poissons Ratio (y) = 0.23857 0.00764
# Poissons Ratio (z) = 0.25829 0.01240
#
# Static dielectric constant tensor:
#      x y z
#    x 1.956510 -0.041530 -0.022970 
#    y -0.041530 2.016650 -0.021740 
#    z -0.022970 -0.021740 1.941170 
# 
# From -- ./inp_files/588023.got.cif
#   From: 2010.05.17/outbox.cif.g08.bks.cpg/sg2_295_cif.got.tgz:588023.got - 2010.06.03 11:33:40.
