data_PCOD9016170
_publ_section_title
;
Structure prediction by ZEFSAII (Michael W. Deem and Ramdas Pophale) SiO2 
 PCOD9016170
Probable space group: P -1
;
_chemical_formula_sum "Si O2"
_cell_formula_units_Z 16
_cell_length_a 15.336249
_cell_length_b 26.384948
_cell_length_c 5.387536
_cell_angle_alpha 118.681448
_cell_angle_beta 59.683713
_cell_angle_gamma 157.826977
_cell_volume 709.726474
_symmetry_space_group_name_H-M "P -1"
_symmetry_group_IT_number 2
_symmetry_cell_setting 'triclinic'
loop_
_space_group_symop_operation_xyz
x,y,z
-x,-y,-z
loop_
_atom_site_type_symbol
_atom_site_label
_atom_site_fract_x
_atom_site_fract_y
_atom_site_fract_z
Si Si1 0.169743 0.056506 0.201549
Si Si2 0.313369 0.037943 0.335337
Si Si3 0.792736 0.498425 0.754039
Si Si4 0.983526 0.852323 0.753300
Si Si5 0.455840 0.040285 0.750677
Si Si6 0.360823 0.646664 0.868782
Si Si7 0.276344 0.726706 0.344667
Si Si8 0.495313 0.458403 0.157447
O O1 0.312301 0.083548 0.225520
O O2 0.360672 0.197500 0.145195
O O3 0.000000 0.000000 0.500000
O O4 0.013509 0.935218 0.968638
O O5 0.478930 0.151311 0.570141
O O6 0.051158 0.887518 0.448304
O O7 0.427061 0.037446 0.076290
O O8 0.681115 0.408892 0.460020
O O9 0.067519 0.633093 0.612562
O O10 0.727686 0.433346 0.951372
O O11 0.700146 0.516124 0.962854
O O12 0.744597 0.702206 0.838713
O O13 0.205156 0.931952 0.740860
O O14 0.672027 0.192333 0.713775
O O15 0.500000 0.000000 0.500000
O O16 0.243078 0.649686 0.065480
O O17 0.500000 0.500000 0.500000
O O18 0.500000 0.500000 0.000000
#
# Coordination Sequence:
#
# PCOD9016170 Si02
#       8
#     2   2   2   2   2   2   2   2
#     4  11  23  39  71 100 142 182 231 292 350 425
#     4  10  21  42  66  97 141 174 238 286 357 401
#     4  12  29  44  74 104 145 195 239 285 364 431
#     4  10  24  43  68  99 133 181 230 294 352 408
#     4  10  23  40  70  99 134 179 243 289 352 417
#     4  12  24  46  68 111 143 188 238 293 355 430
#     4  11  24  43  67 104 141 191 227 299 356 425
#     4  12  30  52  74 103 144 189 242 297 353 429
#
# _framework density 22.543899
#
# number of rings (size 3 to 8) (size 9 to 14) (size 15 to 20)
#    0.000    1.000    3.750    3.000    8.750    3.500 
#    0.000    0.000    0.000    0.000    0.000    0.000 
#    0.000    0.000    0.000    0.000    0.000    0.000 
#
# Total GULP energy -89363.080274 kJ/mol
# GULP energy per Si atom -5585.192517 kJ/mol
# Density = 2.249259 g / cm^3
# Si number density = 22.543899 Si / 1000 Ang^3
#
#
#
# Elastic Constant Matrix: (Units=GPa)
#
#
# Indices 1 2 3 4 5 6 
#
# 1 50.0498 12.6275 28.5937 -0.0562 -12.1599 -9.0212
# 2 12.6275 125.2742 26.9217 -31.8709 1.9062 -7.0479
# 3 28.5937 26.9217 159.6762 -2.6747 -17.3423 -13.3145
# 4 -0.0562 -31.8709 -2.6747 45.2829 0.0802 3.4220
# 5 -12.1599 1.9062 -17.3423 0.0802 45.3035 -4.0411
# 6 -9.0212 -7.0479 -13.3145 3.4220 -4.0411 30.5923
#
#
#
# Elastic Compliance Matrix: (Units=1/GPa)
#
#
# Indices 1 2 3 4 5 6 
#
# 1 0.024898 -0.002162 -0.002895 -0.002176 0.006263 0.006655
# 2 -0.002162 0.010364 -0.001397 0.007202 -0.001552 0.000131
# 3 -0.002895 -0.001397 0.007467 -0.000737 0.002361 0.002468
# 4 -0.002176 0.007202 -0.000737 0.027301 -0.001445 -0.002548
# 5 0.006263 -0.001552 0.002361 -0.001445 0.025263 0.006016
# 6 0.006655 0.000131 0.002468 -0.002548 0.006016 0.036834
#
#
# Mechanical properties :
#
#
# Convention : Reuss Voigt Hill
#
# Bulk Modulus (GPa) = 33.53482 52.36512 42.94997
# Shear Modulus (GPa) = 32.26298 42.02623 37.14460
#
# Velocity S-wave (km/s) = 3.78712 4.32232 4.06354
# Velocity P-wave (km/s) = 5.83358 6.94179 6.41167
#
# Compressibility (1/GPa) = 0.02981975
#
# Stress axis : x y z
#
# Youngs Moduli (GPa) = 40.16328 96.48853 133.92811
#
# Poissons Ratio (x) = 0.20860 0.38778
# Poissons Ratio (y) = 0.08683 0.18713
# Poissons Ratio (z) = 0.11629 0.13482
#
# Static dielectric constant tensor:
#      x y z
#    x 1.916230 0.010080 0.033670 
#    y 0.010080 1.836210 -0.002920 
#    z 0.033670 -0.002920 1.957340 
# 
# From -- ./inp_files/113274.got.cif
#   From: 2010.05.17/outbox.cif.g08.bks.cpg/sg2_57_cif.got.tgz:113274.got - 2010.06.03 11:33:40.
