data_PCOD9016643
_publ_section_title
;
Structure prediction by ZEFSAII (Michael W. Deem and Ramdas Pophale) SiO2 
 PCOD9016643
Probable space group: P -1
;
_chemical_formula_sum "Si O2"
_cell_formula_units_Z 12
_cell_length_a 9.977510
_cell_length_b 8.540097
_cell_length_c 12.107225
_cell_angle_alpha 36.972762
_cell_angle_beta 70.316735
_cell_angle_gamma 82.289687
_cell_volume 567.386842
_symmetry_space_group_name_H-M "P -1"
_symmetry_group_IT_number 2
_symmetry_cell_setting 'triclinic'
loop_
_space_group_symop_operation_xyz
x,y,z
-x,-y,-z
loop_
_atom_site_type_symbol
_atom_site_label
_atom_site_fract_x
_atom_site_fract_y
_atom_site_fract_z
Si Si1 0.084529 0.094129 0.035525
Si Si2 0.950923 0.586457 0.792469
Si Si3 0.595641 0.795034 0.056537
Si Si4 0.338027 0.321554 0.131839
Si Si5 0.391455 0.197110 0.422337
Si Si6 0.073598 0.136722 0.580544
O O1 0.259025 0.155277 0.938167
O O2 0.040879 0.371987 0.918568
O O3 0.024406 0.889871 0.267431
O O4 0.000000 0.000000 0.000000
O O5 0.783495 0.506620 0.928269
O O6 0.017377 0.861405 0.683032
O O7 0.943146 0.639874 0.632056
O O8 0.493127 0.493147 0.252186
O O9 0.661554 0.839600 0.888960
O O10 0.500000 0.000000 0.000000
O O11 0.317476 0.158610 0.342315
O O12 0.500000 0.500000 0.000000
O O13 0.500000 0.000000 0.500000
O O14 0.243135 0.160503 0.555093
#
# Coordination Sequence:
#
# PCOD9016643 Si02
#       6
#     2   2   2   2   2   2
#     4  12  27  41  68  97 138 183 218 270 338 407
#     4  10  21  42  68  97 127 169 233 276 327 388
#     4  11  25  45  63  97 140 176 216 273 345 400
#     4   9  20  37  67  91 127 175 216 275 328 395
#     4  10  22  40  69  99 127 169 229 278 329 394
#     4  10  22  41  68  97 125 168 228 284 320 390
#
# _framework density 21.149591999999998
#
# number of rings (size 3 to 8) (size 9 to 14) (size 15 to 20)
#    0.000    1.667    1.667    1.500   11.667    0.667 
#    0.000    1.667    0.000    0.000    0.000    0.000 
#    0.000    0.000    0.000    0.000    0.000    0.000 
#
# Total GULP energy -66943.402560 kJ/mol
# GULP energy per Si atom -5578.616880 kJ/mol
# Density = 2.110145 g / cm^3
# Si number density = 21.149592 Si / 1000 Ang^3
#
#
#
# Elastic Constant Matrix: (Units=GPa)
#
#
# Indices 1 2 3 4 5 6 
#
# 1 160.7503 32.2646 25.5896 -7.9869 -21.0210 -11.2973
# 2 32.2646 75.3846 20.5279 -2.3920 1.9732 1.1479
# 3 25.5896 20.5279 54.8401 5.1763 -11.0297 -4.3922
# 4 -7.9869 -2.3920 5.1763 27.0984 -1.2591 8.6953
# 5 -21.0210 1.9732 -11.0297 -1.2591 38.1303 -2.3435
# 6 -11.2973 1.1479 -4.3922 8.6953 -2.3435 46.3200
#
#
#
# Elastic Compliance Matrix: (Units=1/GPa)
#
#
# Indices 1 2 3 4 5 6 
#
# 1 0.007855 -0.002940 -0.001797 0.002065 0.004132 0.001640
# 2 -0.002940 0.016384 -0.006025 0.002282 -0.004280 -0.002339
# 3 -0.001797 -0.006025 0.023431 -0.006356 0.006100 0.003434
# 4 0.002065 0.002282 -0.006356 0.041477 0.000063 -0.007939
# 5 0.004132 -0.004280 0.006100 0.000063 0.030690 0.003233
# 6 0.001640 -0.002339 0.003434 -0.007939 0.003233 0.024026
#
#
# Mechanical properties :
#
#
# Convention : Reuss Voigt Hill
#
# Bulk Modulus (GPa) = 38.24744 49.74877 43.99810
# Shear Modulus (GPa) = 28.71860 36.48263 32.60061
#
# Velocity S-wave (km/s) = 3.68894 4.15779 3.93036
# Velocity P-wave (km/s) = 6.02228 6.82811 6.43782
#
# Compressibility (1/GPa) = 0.02614554
#
# Stress axis : x y z
#
# Youngs Moduli (GPa) = 127.30402 61.03391 42.67941
#
# Poissons Ratio (x) = 0.17945 0.07671
# Poissons Ratio (y) = 0.37430 0.25713
# Poissons Ratio (z) = 0.22882 0.36771
#
# Static dielectric constant tensor:
#      x y z
#    x 1.800340 -0.003560 -0.011440 
#    y -0.003560 1.772100 0.069610 
#    z -0.011440 0.069610 1.864100 
# 
# From -- ./inp_files/240304.got.cif
#   From: 2010.05.17/outbox.cif.g08.bks.cpg/sg2_121_cif.got.tgz:240304.got - 2010.06.03 11:33:40.
