data_PCOD9016641
_publ_section_title
;
Structure prediction by ZEFSAII (Michael W. Deem and Ramdas Pophale) SiO2 
 PCOD9016641
Probable space group: P -1
;
_chemical_formula_sum "Si O2"
_cell_formula_units_Z 16
_cell_length_a 7.522975
_cell_length_b 17.686184
_cell_length_c 7.672543
_cell_angle_alpha 100.748328
_cell_angle_beta 106.365478
_cell_angle_gamma 39.180510
_cell_volume 617.950911
_symmetry_space_group_name_H-M "P -1"
_symmetry_group_IT_number 2
_symmetry_cell_setting 'triclinic'
loop_
_space_group_symop_operation_xyz
x,y,z
-x,-y,-z
loop_
_atom_site_type_symbol
_atom_site_label
_atom_site_fract_x
_atom_site_fract_y
_atom_site_fract_z
Si Si1 0.861383 0.335444 0.659800
Si Si2 0.829090 0.669283 0.753224
Si Si3 0.477947 0.767754 0.366818
Si Si4 0.873137 0.898506 0.408185
Si Si5 0.620314 0.082888 0.121367
Si Si6 0.591984 0.574574 0.721063
Si Si7 0.453743 0.411474 0.879944
Si Si8 0.822131 0.992550 0.783850
O O1 0.127723 0.192078 0.666700
O O2 0.851045 0.430791 0.699262
O O3 0.657693 0.372256 0.458276
O O4 0.703295 0.365740 0.809971
O O5 0.717730 0.719976 0.548365
O O6 0.687986 0.778784 0.884392
O O7 0.698973 0.626319 0.738541
O O8 0.166790 0.550514 0.815573
O O9 0.199103 0.825514 0.424044
O O10 0.578606 0.665142 0.231940
O O11 0.356312 0.875413 0.265168
O O12 0.686964 0.012374 0.281071
O O13 0.801335 0.936624 0.604506
O O14 0.711345 0.003063 0.946253
O O15 0.848453 0.081128 0.162045
O O16 0.495022 0.603395 0.907064
#
# Coordination Sequence:
#
# PCOD9016641 Si02
#       8
#     2   2   2   2   2   2   2   2
#     4  10  23  40  61  83 116 157 194 237 279 344
#     4  12  20  37  58  90 125 147 184 240 296 345
#     4  10  18  32  53  82 120 151 180 234 296 335
#     4  10  17  34  53  79 114 144 191 240 279 325
#     4  10  19  30  53  86 112 145 185 239 290 334
#     4  11  22  39  57  86 119 151 198 234 282 342
#     4  11  23  37  58  86 121 157 184 235 294 348
#     4  10  17  30  51  78 116 145 184 239 291 324
#
# _framework density 25.892022000000001
#
# number of rings (size 3 to 8) (size 9 to 14) (size 15 to 20)
#    0.000    1.500    5.000    2.625    0.000    4.000 
#    0.000    0.000    0.000    0.750    0.000   14.000 
#    0.000    0.000    0.000    0.000    0.000    0.000 
#
# Total GULP energy -89725.555569 kJ/mol
# GULP energy per Si atom -5607.847223 kJ/mol
# Density = 2.583309 g / cm^3
# Si number density = 25.892022 Si / 1000 Ang^3
#
#
#
# Elastic Constant Matrix: (Units=GPa)
#
#
# Indices 1 2 3 4 5 6 
#
# 1 55.7539 17.7841 32.4211 4.3612 2.4948 -12.5145
# 2 17.7841 141.0163 24.5024 39.1329 -6.0818 1.6360
# 3 32.4211 24.5024 149.6342 30.9380 -29.0693 -11.9115
# 4 4.3612 39.1329 30.9380 46.2790 -1.6394 -3.4779
# 5 2.4948 -6.0818 -29.0693 -1.6394 30.9568 -3.7520
# 6 -12.5145 1.6360 -11.9115 -3.4779 -3.7520 20.8360
#
#
#
# Elastic Compliance Matrix: (Units=1/GPa)
#
#
# Indices 1 2 3 4 5 6 
#
# 1 0.025622 -0.004265 -0.006663 0.006256 -0.007419 0.011623
# 2 -0.004265 0.010117 0.001436 -0.009285 0.002753 -0.003589
# 3 -0.006663 0.001436 0.012260 -0.008061 0.012362 0.003775
# 4 0.006256 -0.009285 -0.008061 0.034310 -0.007567 0.004243
# 5 -0.007419 0.002753 0.012362 -0.007567 0.045786 0.009377
# 6 0.011623 -0.003589 0.003775 0.004243 0.009377 0.059811
#
#
# Mechanical properties :
#
#
# Convention : Reuss Voigt Hill
#
# Bulk Modulus (GPa) = 34.46254 55.09107 44.77681
# Shear Modulus (GPa) = 23.08817 37.72750 30.40784
#
# Velocity S-wave (km/s) = 2.98939 3.82135 3.43068
# Velocity P-wave (km/s) = 5.02536 6.38700 5.74665
#
# Compressibility (1/GPa) = 0.02901701
#
# Stress axis : x y z
#
# Youngs Moduli (GPa) = 39.02842 98.84683 81.56451
#
# Poissons Ratio (x) = 0.42155 0.54345
# Poissons Ratio (y) = 0.16644 -0.11716
# Poissons Ratio (z) = 0.26004 -0.14198
#
# Static dielectric constant tensor:
#      x y z
#    x 2.038950 -0.030780 0.020600 
#    y -0.030780 1.997460 -0.023970 
#    z 0.020600 -0.023970 2.023040 
# 
# From -- ./inp_files/284427.got.cif
#   From: 2010.05.17/outbox.cif.g08.bks.cpg/sg2_143_cif.got.tgz:284427.got - 2010.06.03 11:33:40.
