data_PCOD9016447
_publ_section_title
;
Structure prediction by ZEFSAII (Michael W. Deem and Ramdas Pophale) SiO2 
 PCOD9016447
Probable space group: P -1
;
_chemical_formula_sum "Si O2"
_cell_formula_units_Z 14
_cell_length_a 12.358743
_cell_length_b 8.784604
_cell_length_c 7.825095
_cell_angle_alpha 82.829048
_cell_angle_beta 65.146901
_cell_angle_gamma 125.832155
_cell_volume 539.735083
_symmetry_space_group_name_H-M "P -1"
_symmetry_group_IT_number 2
_symmetry_cell_setting 'triclinic'
loop_
_space_group_symop_operation_xyz
x,y,z
-x,-y,-z
loop_
_atom_site_type_symbol
_atom_site_label
_atom_site_fract_x
_atom_site_fract_y
_atom_site_fract_z
Si Si1 0.011991 0.715992 0.176972
Si Si2 0.673691 0.788633 0.185490
Si Si3 0.653211 0.072838 0.495559
Si Si4 0.972762 0.622235 0.856815
Si Si5 0.836703 0.672272 0.646818
Si Si6 0.397760 0.307831 0.354880
Si Si7 0.579890 0.205062 0.807972
O O1 0.074329 0.590915 0.157538
O O2 0.923473 0.690114 0.413237
O O3 0.898183 0.600641 0.094441
O O4 0.147522 0.977661 0.019999
O O5 0.575559 0.559804 0.187921
O O6 0.663493 0.734600 0.399780
O O7 0.549835 0.817681 0.218284
O O8 0.825736 0.201482 0.263549
O O9 0.702246 0.233248 0.589772
O O10 0.500000 0.000000 0.500000
O O11 0.589807 0.860332 0.655450
O O12 0.952867 0.741673 0.719915
O O13 0.747868 0.752211 0.657851
O O14 0.680033 0.416701 0.822266
O O15 0.500000 0.000000 0.000000
#
# Coordination Sequence:
#
# PCOD9016447 Si02
#       7
#     2   2   2   2   2   2   2
#     4  11  22  43  73 103 142 187 230 286 347 413
#     4  10  21  42  67  98 138 182 234 274 346 419
#     4  12  23  45  71  98 134 180 236 289 338 412
#     4  11  24  41  72 110 139 177 240 290 344 413
#     4  11  25  44  70 105 146 183 227 290 356 412
#     4  10  23  44  68 100 141 185 230 286 349 417
#     4  11  23  42  71 102 134 185 231 289 346 409
#
# _framework density 25.938652000000001
#
# number of rings (size 3 to 8) (size 9 to 14) (size 15 to 20)
#    0.000    1.143    4.286    1.286    2.000    2.286 
#    0.000    4.286    0.000    0.000    0.000    0.000 
#    0.000    0.000    0.000    0.000    0.000    0.000 
#
# Total GULP energy -78279.912746 kJ/mol
# GULP energy per Si atom -5591.422339 kJ/mol
# Density = 2.587961 g / cm^3
# Si number density = 25.938652 Si / 1000 Ang^3
#
#
#
# Elastic Constant Matrix: (Units=GPa)
#
#
# Indices 1 2 3 4 5 6 
#
# 1 162.3445 35.0633 32.9057 -6.5368 35.6222 -7.6429
# 2 35.0633 84.8223 22.3478 -22.3558 13.2766 -13.2041
# 3 32.9057 22.3478 108.7791 -9.6315 22.0816 1.6335
# 4 -6.5368 -22.3558 -9.6315 55.8034 -2.3215 7.9208
# 5 35.6222 13.2766 22.0816 -2.3215 24.2044 -11.4070
# 6 -7.6429 -13.2041 1.6335 7.9208 -11.4070 26.7180
#
#
#
# Elastic Compliance Matrix: (Units=1/GPa)
#
#
# Indices 1 2 3 4 5 6 
#
# 1 0.009951 -0.002533 0.001080 0.000462 -0.016951 -0.005845
# 2 -0.002533 0.015499 -0.002171 0.004725 0.000415 0.005844
# 3 0.001080 -0.002171 0.012950 0.002112 -0.016323 -0.009151
# 4 0.000462 0.004725 0.002112 0.020898 -0.006274 -0.006536
# 5 -0.016951 0.000415 -0.016323 -0.006274 0.099504 0.040696
# 6 -0.005845 0.005844 -0.009151 -0.006536 0.040696 0.058516
#
#
# Mechanical properties :
#
#
# Convention : Reuss Voigt Hill
#
# Bulk Modulus (GPa) = 32.10176 59.61994 45.86085
# Shear Modulus (GPa) = 21.28112 39.05374 30.16743
#
# Velocity S-wave (km/s) = 2.86744 3.88444 3.41402
# Velocity P-wave (km/s) = 4.83382 6.56912 5.76712
#
# Compressibility (1/GPa) = 0.03115094
#
# Stress axis : x y z
#
# Youngs Moduli (GPa) = 100.49412 64.52161 77.21898
#
# Poissons Ratio (x) = 0.16343 -0.08339
# Poissons Ratio (y) = 0.25454 0.16767
# Poissons Ratio (z) = -0.10853 0.14010
#
# Static dielectric constant tensor:
#      x y z
#    x 2.142820 -0.245730 -0.045260 
#    y -0.245730 2.901490 0.178810 
#    z -0.045260 0.178810 2.118540 
# 
# From -- ./inp_files/242973.got.cif
#   From: 2010.05.17/outbox.cif.g08.bks.cpg/sg2_122_cif.got.tgz:242973.got - 2010.06.03 11:33:40.
