data_PCOD9016204
_publ_section_title
;
Structure prediction by ZEFSAII (Michael W. Deem and Ramdas Pophale) SiO2 
 PCOD9016204
Probable space group: P -1
;
_chemical_formula_sum "Si O2"
_cell_formula_units_Z 16
_cell_length_a 6.502368
_cell_length_b 8.028847
_cell_length_c 16.146888
_cell_angle_alpha 50.820674
_cell_angle_beta 93.469853
_cell_angle_gamma 109.002373
_cell_volume 605.597652
_symmetry_space_group_name_H-M "P -1"
_symmetry_group_IT_number 2
_symmetry_cell_setting 'triclinic'
loop_
_space_group_symop_operation_xyz
x,y,z
-x,-y,-z
loop_
_atom_site_type_symbol
_atom_site_label
_atom_site_fract_x
_atom_site_fract_y
_atom_site_fract_z
Si Si1 0.038646 0.663368 0.606835
Si Si2 0.328020 0.068371 0.361626
Si Si3 0.442865 0.859584 0.129654
Si Si4 0.607361 0.516887 0.334162
Si Si5 0.643816 0.303824 0.099614
Si Si6 0.219338 0.433631 0.509703
Si Si7 0.296018 0.439004 0.141392
Si Si8 0.216865 0.938005 0.688371
O O1 0.819879 0.129737 0.518016
O O2 0.794231 0.553864 0.594942
O O3 0.084804 0.797309 0.650960
O O4 0.819581 0.825215 0.383174
O O5 0.463269 0.289116 0.351729
O O6 0.212949 0.176883 0.256146
O O7 0.517538 0.999921 0.343689
O O8 0.587265 0.745256 0.223460
O O9 0.283187 0.612853 0.160044
O O10 0.454058 0.071409 0.126389
O O11 0.500000 0.000000 0.000000
O O12 0.594825 0.450930 0.452607
O O13 0.860619 0.533277 0.319375
O O14 0.543221 0.444110 0.116148
O O15 0.808671 0.218621 0.182702
O O16 0.761314 0.467385 0.974865
O O17 0.000000 0.500000 0.500000
#
# Coordination Sequence:
#
# PCOD9016204 Si02
#       8
#     2   2   2   2   2   2   2   2
#     4  10  20  33  49  73 107 139 162 207 265 306
#     4   9  18  33  52  73 104 135 164 211 263 304
#     4   9  15  25  44  70  98 122 158 219 258 280
#     4   9  16  30  47  69  95 127 170 206 241 301
#     4   9  15  26  46  75  97 122 172 212 253 297
#     4  10  20  32  48  70 103 135 173 209 246 305
#     4   8  16  27  46  71 102 127 159 213 261 296
#     4  10  17  30  51  71  97 132 173 209 248 299
#
# _framework density 26.420182
#
# number of rings (size 3 to 8) (size 9 to 14) (size 15 to 20)
#    0.000    2.750    1.250    2.625    0.000    0.000 
#    0.000    5.625    0.000    0.750    0.000    0.000 
#    0.000   27.750    0.000    0.000    0.000    0.000 
#
# Total GULP energy -89090.058208 kJ/mol
# GULP energy per Si atom -5568.128638 kJ/mol
# Density = 2.636005 g / cm^3
# Si number density = 26.420182 Si / 1000 Ang^3
#
#
#
# Elastic Constant Matrix: (Units=GPa)
#
#
# Indices 1 2 3 4 5 6 
#
# 1 51.7053 12.6288 54.3898 -9.5932 0.8509 -4.6406
# 2 12.6288 103.1302 53.6559 -5.1033 -1.2377 -8.6062
# 3 54.3898 53.6559 250.4686 -6.5308 24.6985 -2.2913
# 4 -9.5932 -5.1033 -6.5308 63.1149 -0.5237 5.6128
# 5 0.8509 -1.2377 24.6985 -0.5237 46.8980 1.7456
# 6 -4.6406 -8.6062 -2.2913 5.6128 1.7456 40.1537
#
#
#
# Elastic Compliance Matrix: (Units=1/GPa)
#
#
# Indices 1 2 3 4 5 6 
#
# 1 0.026241 0.000228 -0.005899 0.003224 0.002591 0.002182
# 2 0.000228 0.011233 -0.002579 0.000498 0.001576 0.002149
# 3 -0.005899 -0.002579 0.006120 -0.000437 -0.003163 -0.000687
# 4 0.003224 0.000498 -0.000437 0.016499 0.000439 -0.001871
# 5 0.002591 0.001576 -0.003163 0.000439 0.023011 -0.000605
# 6 0.002182 0.002149 -0.000687 -0.001871 -0.000605 0.025866
#
#
# Mechanical properties :
#
#
# Convention : Reuss Voigt Hill
#
# Bulk Modulus (GPa) = 36.90597 71.85033 54.37815
# Shear Modulus (GPa) = 37.17473 49.00861 43.09167
#
# Velocity S-wave (km/s) = 3.75515 4.31161 4.04296
# Velocity P-wave (km/s) = 5.72719 7.21394 6.51312
#
# Compressibility (1/GPa) = 0.02709589
#
# Stress axis : x y z
#
# Youngs Moduli (GPa) = 38.10843 89.02324 163.39572
#
# Poissons Ratio (x) = -0.02032 0.96382
# Poissons Ratio (y) = -0.00870 0.42135
# Poissons Ratio (z) = 0.22479 0.22956
#
# Static dielectric constant tensor:
#      x y z
#    x 2.494580 -0.078210 -0.030930 
#    y -0.078210 2.181820 0.074720 
#    z -0.030930 0.074720 2.030620 
# 
# From -- ./inp_files/555027.got.cif
#   From: 2010.05.17/outbox.cif.g08.bks.cpg/sg2_278_cif.got.tgz:555027.got - 2010.06.03 11:33:40.
