data_PCOD9016267
_publ_section_title
;
Structure prediction by ZEFSAII (Michael W. Deem and Ramdas Pophale) SiO2 
 PCOD9016267
Probable space group: P -1
;
_chemical_formula_sum "Si O2"
_cell_formula_units_Z 14
_cell_length_a 11.279973
_cell_length_b 8.130052
_cell_length_c 11.951071
_cell_angle_alpha 118.778274
_cell_angle_beta 71.912609
_cell_angle_gamma 135.819863
_cell_volume 668.390483
_symmetry_space_group_name_H-M "P -1"
_symmetry_group_IT_number 2
_symmetry_cell_setting 'triclinic'
loop_
_space_group_symop_operation_xyz
x,y,z
-x,-y,-z
loop_
_atom_site_type_symbol
_atom_site_label
_atom_site_fract_x
_atom_site_fract_y
_atom_site_fract_z
Si Si1 0.177188 0.742401 0.969006
Si Si2 0.306894 0.912455 0.591253
Si Si3 0.782514 0.906077 0.766754
Si Si4 0.673099 0.381310 0.680579
Si Si5 0.132471 0.354208 0.736705
Si Si6 0.022612 0.620821 0.753601
Si Si7 0.320234 0.231691 0.499166
O O1 0.249972 0.617709 0.862177
O O2 0.116149 0.794954 0.894229
O O3 0.000000 0.500000 0.000000
O O4 0.272407 0.972770 0.102906
O O5 0.479616 0.121619 0.680762
O O6 0.327128 0.065672 0.527672
O O7 0.296096 0.692273 0.471768
O O8 0.137473 0.785972 0.667211
O O9 0.693830 0.624581 0.739565
O O10 0.752606 0.898323 0.641767
O O11 0.989564 0.111881 0.777622
O O12 0.827016 0.473628 0.745541
O O13 0.044893 0.421197 0.704337
O O14 0.220128 0.290570 0.614321
O O15 0.500000 0.500000 0.500000
#
# Coordination Sequence:
#
# PCOD9016267 Si02
#       7
#     2   2   2   2   2   2   2
#     4   8  20  40  67  93 126 167 219 260 322 390
#     4  11  24  39  61  99 132 166 216 272 323 379
#     4  11  20  41  66  95 126 169 222 260 318 394
#     4  11  23  38  64  96 132 169 212 268 330 375
#     4   9  21  40  65  95 121 166 217 266 316 387
#     4  10  21  42  67  89 133 170 210 265 330 377
#     4  12  23  39  65  92 129 165 220 269 315 380
#
# _framework density 20.945841000000001
#
# number of rings (size 3 to 8) (size 9 to 14) (size 15 to 20)
#    0.857    0.857    1.429    3.429    2.000    0.571 
#    0.000    1.429    6.286    0.000    0.000    0.000 
#    0.000    0.000    0.000    0.000    0.000    0.000 
#
# Total GULP energy -78005.300588 kJ/mol
# GULP energy per Si atom -5571.807185 kJ/mol
# Density = 2.089817 g / cm^3
# Si number density = 20.945841 Si / 1000 Ang^3
#
#
#
# Elastic Constant Matrix: (Units=GPa)
#
#
# Indices 1 2 3 4 5 6 
#
# 1 42.8061 -5.5590 22.0282 10.8055 -8.9978 0.8360
# 2 -5.5590 52.9580 24.3177 17.1874 -30.0231 -10.1804
# 3 22.0282 24.3177 123.0188 39.6024 25.9504 1.7789
# 4 10.8055 17.1874 39.6024 20.1541 -39.5227 -2.7846
# 5 -8.9978 -30.0231 25.9504 -39.5227 -145.6441 -17.0524
# 6 0.8360 -10.1804 1.7789 -2.7846 -17.0524 21.3071
#
#
#
# Elastic Compliance Matrix: (Units=1/GPa)
#
#
# Indices 1 2 3 4 5 6 
#
# 1 0.031395 0.012288 -0.001060 -0.022593 0.001154 0.002698
# 2 0.012288 0.033686 0.002345 -0.036074 0.001144 0.011618
# 3 -0.001060 0.002345 0.011068 -0.013283 0.004877 0.002405
# 4 -0.022593 -0.036074 -0.013283 0.086637 -0.015165 -0.016055
# 5 0.001154 0.001144 0.004877 -0.015165 -0.001799 -0.003328
# 6 0.002698 0.011618 0.002405 -0.016055 -0.003328 0.047416
#
#
# Mechanical properties :
#
#
# Convention : Reuss Voigt Hill
#
# Bulk Modulus (GPa) = 9.68117 33.37298 21.52708
# Shear Modulus (GPa) = 23.18160 -8.97018 7.10571
#
# Velocity S-wave (km/s) = 3.33038 -2.07168 1.84385
# Velocity P-wave (km/s) = 4.40688 3.20080 3.85134
#
# Compressibility (1/GPa) = 0.10329325
#
# Stress axis : x y z
#
# Youngs Moduli (GPa) = 31.85198 29.68632 90.35435
#
# Poissons Ratio (x) = -0.36477 0.09576
# Poissons Ratio (y) = -0.39138 -0.21186
# Poissons Ratio (z) = 0.03376 -0.06961
#
# Static dielectric constant tensor:
#      x y z
#    x 1.780140 0.025960 0.033200 
#    y 0.025960 1.793400 0.077880 
#    z 0.033200 0.077880 1.955040 
# 
# From -- ./inp_files/411461.got.cif
#   From: 2010.05.17/outbox.cif.g08.bks.cpg/sg2_206_cif.got.tgz:411461.got - 2010.06.03 11:33:40.
