data_PCOD9016101
_publ_section_title
;
Structure prediction by ZEFSAII (Michael W. Deem and Ramdas Pophale) SiO2 
 PCOD9016101
Probable space group: P -1
;
_chemical_formula_sum "Si O2"
_cell_formula_units_Z 15
_cell_length_a 11.715138
_cell_length_b 13.654577
_cell_length_c 8.963774
_cell_angle_alpha 127.582817
_cell_angle_beta 59.235121
_cell_angle_gamma 149.643159
_cell_volume 573.887427
_symmetry_space_group_name_H-M "P -1"
_symmetry_group_IT_number 2
_symmetry_cell_setting 'triclinic'
loop_
_space_group_symop_operation_xyz
x,y,z
-x,-y,-z
loop_
_atom_site_type_symbol
_atom_site_label
_atom_site_fract_x
_atom_site_fract_y
_atom_site_fract_z
Si Si1 0.368412 0.926208 0.870158
Si Si2 0.000000 0.500000 0.500000
Si Si3 0.075548 0.314314 0.116692
Si Si4 0.419519 0.688180 0.625339
Si Si5 0.914655 0.101017 0.565806
Si Si6 0.337471 0.523760 0.840343
Si Si7 0.306395 0.818929 0.345285
Si Si8 0.800131 0.729514 0.738802
O O1 0.327939 0.751330 0.673697
O O2 0.153541 0.845944 0.973800
O O3 0.538182 0.122879 0.830846
O O4 0.500000 0.000000 0.000000
O O5 0.989603 0.340582 0.333628
O O6 0.133753 0.606742 0.350455
O O7 0.126489 0.230796 0.101298
O O8 0.269045 0.486731 0.025814
O O9 0.342749 0.623336 0.788295
O O10 0.311585 0.487468 0.434751
O O11 0.686921 0.881087 0.592740
O O12 0.136284 0.280886 0.687979
O O13 0.000957 0.099059 0.355189
O O14 0.827213 0.170006 0.632398
O O15 0.591065 0.663465 0.798736
O O16 0.500000 0.000000 0.500000
#
# Coordination Sequence:
#
# PCOD9016101 Si02
#       8
#     2   1   2   2   2   2   2   2
#     4  11  24  42  66 100 135 163 206 269 333 387
#     4  12  24  40  70  94 128 172 212 258 336 382
#     4  12  24  43  64  95 133 167 210 269 321 382
#     4  10  23  42  69  98 126 171 212 266 326 380
#     4  10  21  42  66  95 129 163 216 264 318 382
#     4  11  26  42  64  95 131 173 219 267 311 374
#     4  11  22  39  63  96 128 165 208 260 321 392
#     4  11  23  44  67  93 128 174 223 261 311 379
#
# _framework density 26.137532
#
# number of rings (size 3 to 8) (size 9 to 14) (size 15 to 20)
#    0.000    1.067    2.667    4.400    5.600    2.667 
#    0.000    0.000    0.000    4.000    0.000    0.000 
#    0.000    0.000    0.000    0.000    0.000    0.000 
#
# Total GULP energy -83635.639669 kJ/mol
# GULP energy per Si atom -5575.709311 kJ/mol
# Density = 2.607804 g / cm^3
# Si number density = 26.137532 Si / 1000 Ang^3
#
#
#
# Elastic Constant Matrix: (Units=GPa)
#
#
# Indices 1 2 3 4 5 6 
#
# 1 101.2680 13.2503 -2.4477 -6.3776 4.0716 11.7963
# 2 13.2503 142.3992 23.8218 -49.5467 1.0538 6.7567
# 3 -2.4477 23.8218 85.9271 -31.3992 2.8321 -10.1219
# 4 -6.3776 -49.5467 -31.3992 51.7487 0.5538 6.1769
# 5 4.0716 1.0538 2.8321 0.5538 30.6594 -11.5227
# 6 11.7963 6.7567 -10.1219 6.1769 -11.5227 45.9222
#
#
#
# Elastic Compliance Matrix: (Units=1/GPa)
#
#
# Indices 1 2 3 4 5 6 
#
# 1 0.010569 -0.000232 0.000778 0.001998 -0.002813 -0.003484
# 2 -0.000232 0.011088 0.000777 0.011489 -0.001918 -0.003427
# 3 0.000778 0.000777 0.015291 0.009961 -0.001190 0.001418
# 4 0.001998 0.011489 0.009961 0.037403 -0.004582 -0.006189
# 5 -0.002813 -0.001918 -0.001190 -0.004582 0.037274 0.010712
# 6 -0.003484 -0.003427 0.001418 -0.006189 0.010712 0.027008
#
#
# Mechanical properties :
#
#
# Convention : Reuss Voigt Hill
#
# Bulk Modulus (GPa) = 25.25661 44.31588 34.78625
# Shear Modulus (GPa) = 33.51550 45.33072 39.42311
#
# Velocity S-wave (km/s) = 3.58477 4.16903 3.88789
# Velocity P-wave (km/s) = 5.17862 6.33767 5.78723
#
# Compressibility (1/GPa) = 0.03959360
#
# Stress axis : x y z
#
# Youngs Moduli (GPa) = 94.61888 90.18358 65.39921
#
# Poissons Ratio (x) = 0.02094 -0.05088
# Poissons Ratio (y) = 0.02197 -0.05082
# Poissons Ratio (z) = -0.07361 -0.07008
#
# Static dielectric constant tensor:
#      x y z
#    x 2.039110 0.030050 -0.027420 
#    y 0.030050 2.028820 0.104860 
#    z -0.027420 0.104860 2.043210 
# 
# From -- ./inp_files/270859.got.cif
#   From: 2010.05.17/outbox.cif.g08.bks.cpg/sg2_136_cif.got.tgz:270859.got - 2010.06.03 11:33:40.
