data_PCOD9016857
_publ_section_title
;
Structure prediction by ZEFSAII (Michael W. Deem and Ramdas Pophale) SiO2 
 PCOD9016857
Probable space group: P -1
;
_chemical_formula_sum "Si O2"
_cell_formula_units_Z 14
_cell_length_a 5.115640
_cell_length_b 5.350754
_cell_length_c 19.901465
_cell_angle_alpha 94.700849
_cell_angle_beta 110.708323
_cell_angle_gamma 90.391311
_cell_volume 507.469550
_symmetry_space_group_name_H-M "P -1"
_symmetry_group_IT_number 2
_symmetry_cell_setting 'triclinic'
loop_
_space_group_symop_operation_xyz
x,y,z
-x,-y,-z
loop_
_atom_site_type_symbol
_atom_site_label
_atom_site_fract_x
_atom_site_fract_y
_atom_site_fract_z
Si Si1 0.852511 0.674241 0.437227
Si Si2 0.291755 0.953522 0.400055
Si Si3 0.506047 0.291566 0.324630
Si Si4 0.324469 0.020696 0.051851
Si Si5 0.936196 0.389204 0.200210
Si Si6 0.815785 0.474621 0.914627
Si Si7 0.806086 0.896514 0.251616
O O1 0.559206 0.789512 0.433712
O O2 0.762456 0.491328 0.362535
O O3 0.000000 0.500000 0.500000
O O4 0.068017 0.894545 0.436371
O O5 0.105630 0.889991 0.315902
O O6 0.415059 0.221418 0.391647
O O7 0.243546 0.394437 0.263778
O O8 0.612177 0.046284 0.289343
O O9 0.339192 0.794496 0.100332
O O10 0.382957 0.292567 0.093982
O O11 0.500000 0.000000 0.000000
O O12 0.000000 0.000000 0.000000
O O13 0.993569 0.475102 0.131153
O O14 0.753439 0.607011 0.220689
O O15 0.843729 0.098036 0.198505
O O16 0.000000 0.500000 0.000000
#
# Coordination Sequence:
#
# PCOD9016857 Si02
#       7
#     2   2   2   2   2   2   2
#     4  12  26  46  75 112 152 199 253 314 384 457
#     4  11  24  46  73 104 152 195 253 310 380 444
#     4  11  26  46  75 106 151 199 259 315 378 458
#     4  10  21  42  69  96 139 186 230 289 365 439
#     4  11  24  45  74 107 145 199 252 313 384 450
#     4  10  22  44  69 105 147 188 242 310 376 451
#     4  11  23  45  75 105 146 197 255 310 371 454
#
# _framework density 27.587864
#
# number of rings (size 3 to 8) (size 9 to 14) (size 15 to 20)
#    0.000    1.143    2.857    2.571    2.000    1.143 
#   15.429    0.000    3.143    0.000    0.000    0.000 
#    0.000    0.000    0.000    0.000    0.000    0.000 
#
# Total GULP energy -78470.745508 kJ/mol
# GULP energy per Si atom -5605.053251 kJ/mol
# Density = 2.752507 g / cm^3
# Si number density = 27.587864 Si / 1000 Ang^3
#
#
#
# Elastic Constant Matrix: (Units=GPa)
#
#
# Indices 1 2 3 4 5 6 
#
# 1 177.1482 52.6478 33.6956 -10.2992 -15.6574 4.6486
# 2 52.6478 176.0192 44.0024 12.6526 1.5065 16.1896
# 3 33.6956 44.0024 124.2110 -33.5510 4.4472 5.3778
# 4 -10.2992 12.6526 -33.5510 56.3508 -7.6235 -4.3295
# 5 -15.6574 1.5065 4.4472 -7.6235 55.6946 -18.4836
# 6 4.6486 16.1896 5.3778 -4.3295 -18.4836 58.3893
#
#
#
# Elastic Compliance Matrix: (Units=1/GPa)
#
#
# Indices 1 2 3 4 5 6 
#
# 1 0.006697 -0.002042 -0.000787 0.001642 0.002571 0.001041
# 2 -0.002042 0.007669 -0.003182 -0.004465 -0.002015 -0.002639
# 3 -0.000787 -0.003182 0.011362 0.007391 0.000131 0.000488
# 4 0.001642 -0.004465 0.007391 0.024346 0.004543 0.003670
# 5 0.002571 -0.002015 0.000131 0.004543 0.021866 0.007600
# 6 0.001041 -0.002639 0.000488 0.003670 0.007600 0.020409
#
#
# Mechanical properties :
#
#
# Convention : Reuss Voigt Hill
#
# Bulk Modulus (GPa) = 72.96669 82.00778 77.48723
# Shear Modulus (GPa) = 45.89723 57.22244 51.55984
#
# Velocity S-wave (km/s) = 4.08324 4.55927 4.32780
# Velocity P-wave (km/s) = 6.98117 7.58330 7.28846
#
# Compressibility (1/GPa) = 0.01370488
#
# Stress axis : x y z
#
# Youngs Moduli (GPa) = 149.32128 130.40355 88.01097
#
# Poissons Ratio (x) = 0.26630 0.06926
# Poissons Ratio (y) = 0.30493 0.28008
# Poissons Ratio (z) = 0.11751 0.41498
#
# Static dielectric constant tensor:
#      x y z
#    x 2.240820 0.171330 0.024660 
#    y 0.171330 2.330440 0.062220 
#    z 0.024660 0.062220 2.198180 
# 
# From -- ./inp_files/603337.got.cif
#   From: 2010.05.17/outbox.cif.g08.bks.cpg/sg2_302_cif.got.tgz:603337.got - 2010.06.03 11:33:40.
