data_PCOD9016208
_publ_section_title
;
Structure prediction by ZEFSAII (Michael W. Deem and Ramdas Pophale) SiO2 
 PCOD9016208
Probable space group: P -1
;
_chemical_formula_sum "Si O2"
_cell_formula_units_Z 12
_cell_length_a 24.823505
_cell_length_b 5.355554
_cell_length_c 14.755895
_cell_angle_alpha 123.722528
_cell_angle_beta 16.305606
_cell_angle_gamma 128.003103
_cell_volume 428.283753
_symmetry_space_group_name_H-M "P -1"
_symmetry_group_IT_number 2
_symmetry_cell_setting 'triclinic'
loop_
_space_group_symop_operation_xyz
x,y,z
-x,-y,-z
loop_
_atom_site_type_symbol
_atom_site_label
_atom_site_fract_x
_atom_site_fract_y
_atom_site_fract_z
Si Si1 0.236997 0.433815 0.387285
Si Si2 0.518666 0.880918 0.787936
Si Si3 0.300760 0.175485 0.696012
Si Si4 0.235201 0.241466 0.165290
Si Si5 0.237773 0.808093 0.914883
Si Si6 0.879501 0.744775 0.260347
O O1 0.314583 0.265193 0.146205
O O2 0.199858 0.268849 0.511513
O O3 0.382847 0.798300 0.245565
O O4 0.006501 0.380909 0.717397
O O5 0.559043 0.915030 0.622155
O O6 0.678343 0.695581 0.517777
O O7 0.296807 0.620816 0.118707
O O8 0.347539 0.554165 0.706738
O O9 0.267787 0.968230 0.799448
O O10 0.070580 0.067856 0.001653
O O11 0.000000 0.000000 0.500000
O O12 0.309492 0.091736 0.929525
O O13 0.000000 0.500000 0.000000
#
# Coordination Sequence:
#
# PCOD9016208 Si02
#       6
#     2   2   2   2   2   2
#     4  10  21  42  67 100 138 176 233 285 346 411
#     4  12  22  39  73 102 134 179 232 291 351 408
#     4  11  22  40  73 104 139 176 231 292 356 408
#     4  10  25  48  64  95 141 191 236 279 340 421
#     4  10  23  45  68 101 144 185 225 287 351 422
#     4  11  21  39  68 111 138 166 224 298 358 407
#
# _framework density 28.018808
#
# number of rings (size 3 to 8) (size 9 to 14) (size 15 to 20)
#    0.000    1.333    3.333    3.000    0.000    2.000 
#    6.000    3.333    0.000    0.000    0.000    0.000 
#    0.000    0.000    0.000    0.000    0.000    0.000 
#
# Total GULP energy -67180.235267 kJ/mol
# GULP energy per Si atom -5598.352939 kJ/mol
# Density = 2.795504 g / cm^3
# Si number density = 28.018808 Si / 1000 Ang^3
#
#
#
# Elastic Constant Matrix: (Units=GPa)
#
#
# Indices 1 2 3 4 5 6 
#
# 1 177.9462 58.3955 42.5604 11.8177 33.3630 27.7674
# 2 58.3955 157.0870 46.2410 -17.7219 17.1541 57.7932
# 3 42.5604 46.2410 155.1087 -29.3271 13.3388 23.2577
# 4 11.8177 -17.7219 -29.3271 60.5421 11.4470 -0.8582
# 5 33.3630 17.1541 13.3388 11.4470 66.8139 11.5983
# 6 27.7674 57.7932 23.2577 -0.8582 11.5983 48.8263
#
#
#
# Elastic Compliance Matrix: (Units=1/GPa)
#
#
# Indices 1 2 3 4 5 6 
#
# 1 0.007356 -0.002146 -0.001573 -0.002390 -0.002332 -0.000382
# 2 -0.002146 0.012721 -0.000424 0.003827 -0.000428 -0.013466
# 3 -0.001573 -0.000424 0.008255 0.004362 -0.001121 -0.002193
# 4 -0.002390 0.003827 0.004362 0.020827 -0.003526 -0.004045
# 5 -0.002332 -0.000428 -0.001121 -0.003526 0.017386 -0.001825
# 6 -0.000382 -0.013466 -0.002193 -0.004045 -0.001825 0.038044
#
#
# Mechanical properties :
#
#
# Convention : Reuss Voigt Hill
#
# Bulk Modulus (GPa) = 49.88308 87.17063 68.52685
# Shear Modulus (GPa) = 41.82123 58.09948 49.96035
#
# Velocity S-wave (km/s) = 3.86763 4.55861 4.22726
# Velocity P-wave (km/s) = 6.14710 7.67378 6.95247
#
# Compressibility (1/GPa) = 0.02004688
#
# Stress axis : x y z
#
# Youngs Moduli (GPa) = 135.95023 78.60889 121.13785
#
# Poissons Ratio (x) = 0.16868 0.19051
# Poissons Ratio (y) = 0.29173 0.05136
# Poissons Ratio (z) = 0.21380 0.03333
#
# Static dielectric constant tensor:
#      x y z
#    x 2.261520 -0.080060 -0.043720 
#    y -0.080060 2.323140 0.028750 
#    z -0.043720 0.028750 2.180040 
# 
# From -- ./inp_files/59796.got.cif
#   From: 2010.05.17/outbox.cif.g08.bks.cpg/sg2_30_cif.got.tgz:59796.got - 2010.06.03 11:33:40.
