data_PCOD9016345
_publ_section_title
;
Structure prediction by ZEFSAII (Michael W. Deem and Ramdas Pophale) SiO2 
 PCOD9016345
Probable space group: P -1
;
_chemical_formula_sum "Si O2"
_cell_formula_units_Z 16
_cell_length_a 5.597388
_cell_length_b 19.949928
_cell_length_c 7.617279
_cell_angle_alpha 59.568435
_cell_angle_beta 123.193427
_cell_angle_gamma 118.520588
_cell_volume 589.652782
_symmetry_space_group_name_H-M "P -1"
_symmetry_group_IT_number 2
_symmetry_cell_setting 'triclinic'
loop_
_space_group_symop_operation_xyz
x,y,z
-x,-y,-z
loop_
_atom_site_type_symbol
_atom_site_label
_atom_site_fract_x
_atom_site_fract_y
_atom_site_fract_z
Si Si1 0.791421 0.908850 0.838670
Si Si2 0.171684 0.820665 0.596844
Si Si3 0.646406 0.593380 0.479697
Si Si4 0.186664 0.635948 0.429343
Si Si5 0.228400 0.077733 0.760585
Si Si6 0.741811 0.585210 0.002327
Si Si7 0.669839 0.340060 0.044086
Si Si8 0.169468 0.810308 0.202637
O O1 0.780012 0.914911 0.039346
O O2 0.907512 0.829800 0.962298
O O3 0.469327 0.893261 0.647278
O O4 0.022873 0.989195 0.753766
O O5 0.243550 0.744373 0.815528
O O6 0.108069 0.796785 0.400737
O O7 0.901450 0.857331 0.481905
O O8 0.500000 0.500000 0.500000
O O9 0.492581 0.612445 0.569634
O O10 0.996457 0.617041 0.555678
O O11 0.525174 0.647480 0.218721
O O12 0.249163 0.730420 0.280647
O O13 0.950972 0.585702 0.259232
O O14 0.571854 0.105631 0.815291
O O15 0.549812 0.647242 0.904873
O O16 0.003305 0.598479 0.943855
O O17 0.500000 0.500000 0.000000
#
# Coordination Sequence:
#
# PCOD9016345 Si02
#       8
#     2   2   2   2   2   2   2   2
#     4  10  22  45  72 100 146 185 237 295 360 426
#     4  11  25  43  69 102 144 187 239 297 359 437
#     4  10  21  43  69  95 131 183 238 290 361 425
#     4  10  23  41  67  98 135 181 232 294 360 422
#     4  10  24  42  70 108 138 189 236 295 359 433
#     4  10  21  42  67  94 130 178 237 288 357 427
#     4  10  23  41  65  98 134 180 231 293 358 420
#     4  11  25  43  69 103 142 187 239 295 361 435
#
# _framework density 27.134609999999999
#
# number of rings (size 3 to 8) (size 9 to 14) (size 15 to 20)
#    0.000    1.750    0.000    3.000    8.750    1.500 
#   13.500    0.000    0.000    0.000    0.000    0.000 
#    0.000    0.000    0.000    0.000    0.000    0.000 
#
# Total GULP energy -89570.944093 kJ/mol
# GULP energy per Si atom -5598.184006 kJ/mol
# Density = 2.707285 g / cm^3
# Si number density = 27.134610 Si / 1000 Ang^3
#
#
#
# Elastic Constant Matrix: (Units=GPa)
#
#
# Indices 1 2 3 4 5 6 
#
# 1 148.2382 -0.4448 26.2656 9.1037 6.9396 -0.7815
# 2 -0.4448 89.8599 -0.5294 -0.3511 -3.5624 5.6827
# 3 26.2656 -0.5294 97.2816 -4.2624 6.0396 -12.9623
# 4 9.1037 -0.3511 -4.2624 39.7322 7.7677 10.2576
# 5 6.9396 -3.5624 6.0396 7.7677 56.4959 5.8375
# 6 -0.7815 5.6827 -12.9623 10.2576 5.8375 44.7111
#
#
#
# Elastic Compliance Matrix: (Units=1/GPa)
#
#
# Indices 1 2 3 4 5 6 
#
# 1 0.007231 -0.000001 -0.002002 -0.001791 -0.000429 0.000013
# 2 -0.000001 0.011269 -0.000201 0.000345 0.000859 -0.001682
# 3 -0.002002 -0.000201 0.011390 0.001134 -0.001473 0.003225
# 4 -0.001791 0.000345 0.001134 0.027787 -0.003110 -0.005715
# 5 -0.000429 0.000859 -0.001473 -0.003110 0.018626 -0.002262
# 6 0.000013 -0.001682 0.003225 -0.005715 -0.002262 0.025121
#
#
# Mechanical properties :
#
#
# Convention : Reuss Voigt Hill
#
# Bulk Modulus (GPa) = 39.24380 42.88474 41.06427
# Shear Modulus (GPa) = 43.73469 48.86037 46.29753
#
# Velocity S-wave (km/s) = 4.01904 4.24803 4.13512
# Velocity P-wave (km/s) = 6.00258 6.31663 6.16160
#
# Compressibility (1/GPa) = 0.02548173
#
# Stress axis : x y z
#
# Youngs Moduli (GPa) = 138.29637 88.73928 87.79751
#
# Poissons Ratio (x) = 0.00007 0.17581
# Poissons Ratio (y) = 0.00012 0.01762
# Poissons Ratio (z) = 0.27693 0.01781
#
# Static dielectric constant tensor:
#      x y z
#    x 2.153230 -0.058810 -0.056610 
#    y -0.058810 2.083880 0.003380 
#    z -0.056610 0.003380 2.113410 
# 
# From -- ./inp_files/141204.got.cif
#   From: 2010.05.17/outbox.cif.g08.bks.cpg/sg2_71_cif.got.tgz:141204.got - 2010.06.03 11:33:40.
