data_PCOD9016106
_publ_section_title
;
Structure prediction by ZEFSAII (Michael W. Deem and Ramdas Pophale) SiO2 
 PCOD9016106
Probable space group: P -1
;
_chemical_formula_sum "Si O2"
_cell_formula_units_Z 16
_cell_length_a 6.576217
_cell_length_b 20.861107
_cell_length_c 20.695919
_cell_angle_alpha 159.857939
_cell_angle_beta 64.132995
_cell_angle_gamma 106.764075
_cell_volume 809.668566
_symmetry_space_group_name_H-M "P -1"
_symmetry_group_IT_number 2
_symmetry_cell_setting 'triclinic'
loop_
_space_group_symop_operation_xyz
x,y,z
-x,-y,-z
loop_
_atom_site_type_symbol
_atom_site_label
_atom_site_fract_x
_atom_site_fract_y
_atom_site_fract_z
Si Si1 0.314329 0.388324 0.417614
Si Si2 0.580214 0.893014 0.745327
Si Si3 0.763291 0.667140 0.774627
Si Si4 0.243490 0.613790 0.211756
Si Si5 0.923406 0.107426 0.380045
Si Si6 0.012572 0.696423 0.043099
Si Si7 0.181875 0.616953 0.081079
Si Si8 0.501582 0.400814 0.624816
O O1 0.500000 0.500000 0.500000
O O2 0.399179 0.193608 0.267364
O O3 0.284628 0.334640 0.297093
O O4 0.052106 0.545025 0.628364
O O5 0.561426 0.721812 0.539371
O O6 0.823052 0.929156 0.726259
O O7 0.346467 0.102342 0.968808
O O8 0.623501 0.545824 0.715275
O O9 0.096469 0.762327 0.429121
O O10 0.179294 0.711562 0.241672
O O11 0.174671 0.416531 0.033766
O O12 0.534583 0.537428 0.111901
O O13 0.697787 0.239884 0.491963
O O14 0.913661 0.896683 0.203514
O O15 0.259028 0.535738 0.824835
O O16 0.089768 0.744607 0.149370
O O17 0.000000 0.500000 0.000000
#
# Coordination Sequence:
#
# PCOD9016106 Si02
#       8
#     2   2   2   2   2   2   2   2
#     4  11  24  45  69  94 129 169 214 267 314 381
#     4  12  25  42  67  95 129 171 210 264 327 379
#     4  11  25  44  67  95 129 167 213 263 320 382
#     4  10  21  42  66  95 131 167 215 268 315 378
#     4  12  25  39  67  97 126 172 216 260 326 384
#     4  11  23  41  66  95 129 169 213 265 320 379
#     4   9  20  41  68  91 132 173 209 269 316 370
#     4  12  24  41  63  96 130 165 218 262 315 385
#
# _framework density 19.761171999999998
#
# number of rings (size 3 to 8) (size 9 to 14) (size 15 to 20)
#    0.000    1.000    6.250    0.375    0.000    5.000 
#    0.000    5.625    0.000    0.000    0.000    0.000 
#    0.000    0.000    0.000    0.000    0.000    0.000 
#
# Total GULP energy -89410.746100 kJ/mol
# GULP energy per Si atom -5588.171631 kJ/mol
# Density = 1.971619 g / cm^3
# Si number density = 19.761172 Si / 1000 Ang^3
#
#
#
# Elastic Constant Matrix: (Units=GPa)
#
#
# Indices 1 2 3 4 5 6 
#
# 1 73.7234 27.1837 17.1478 6.3397 -6.0289 13.0583
# 2 27.1837 100.9191 30.0294 16.3920 -7.9550 4.3758
# 3 17.1478 30.0294 56.5910 24.1436 -7.0592 2.1171
# 4 6.3397 16.3920 24.1436 28.0474 -0.9420 -4.2966
# 5 -6.0289 -7.9550 -7.0592 -0.9420 20.5171 -0.6333
# 6 13.0583 4.3758 2.1171 -4.2966 -0.6333 37.6216
#
#
#
# Elastic Compliance Matrix: (Units=1/GPa)
#
#
# Indices 1 2 3 4 5 6 
#
# 1 0.016513 -0.003179 -0.002694 -0.000267 0.002520 -0.005198
# 2 -0.003179 0.012714 -0.004117 -0.003158 0.002420 -0.000464
# 3 -0.002694 -0.004117 0.032463 -0.025161 0.007529 -0.003160
# 4 -0.000267 -0.003158 -0.025161 0.060312 -0.006924 0.008648
# 5 0.002520 0.002420 0.007529 -0.006924 0.052645 -0.001484
# 6 -0.005198 -0.000464 -0.003160 0.008648 -0.001484 0.029579
#
#
# Mechanical properties :
#
#
# Convention : Reuss Voigt Hill
#
# Bulk Modulus (GPa) = 23.97436 42.21725 33.09581
# Shear Modulus (GPa) = 20.99881 27.69539 24.34710
#
# Velocity S-wave (km/s) = 3.26334 3.74773 3.51389
# Velocity P-wave (km/s) = 5.13396 6.33541 5.76606
#
# Compressibility (1/GPa) = 0.04171123
#
# Stress axis : x y z
#
# Youngs Moduli (GPa) = 60.55931 78.65370 30.80383
#
# Poissons Ratio (x) = 0.25003 0.08298
# Poissons Ratio (y) = 0.19251 0.12681
# Poissons Ratio (z) = 0.16313 0.32381
#
# Static dielectric constant tensor:
#      x y z
#    x 1.672590 -0.018390 0.001790 
#    y -0.018390 1.705640 -0.016480 
#    z 0.001790 -0.016480 1.654710 
# 
# From -- ./inp_files/14574.got.cif
#   From: 2010.05.17/outbox.cif.g08.bks.cpg/sg2_8_cif.got.tgz:14574.got - 2010.06.03 11:33:40.
