data_PCOD9016694
_publ_section_title
;
Structure prediction by ZEFSAII (Michael W. Deem and Ramdas Pophale) SiO2 
 PCOD9016694
Probable space group: P -1
;
_chemical_formula_sum "Si O2"
_cell_formula_units_Z 10
_cell_length_a 11.834673
_cell_length_b 5.094258
_cell_length_c 13.966330
_cell_angle_alpha 63.299105
_cell_angle_beta 149.855742
_cell_angle_gamma 107.659773
_cell_volume 370.876707
_symmetry_space_group_name_H-M "P -1"
_symmetry_group_IT_number 2
_symmetry_cell_setting 'triclinic'
loop_
_space_group_symop_operation_xyz
x,y,z
-x,-y,-z
loop_
_atom_site_type_symbol
_atom_site_label
_atom_site_fract_x
_atom_site_fract_y
_atom_site_fract_z
Si Si1 0.280012 0.730928 0.404138
Si Si2 0.218283 0.644691 0.157916
Si Si3 0.210595 0.260549 0.732357
Si Si4 0.560397 0.967398 0.887452
Si Si5 0.848421 0.903373 0.564625
O O1 0.211661 0.792910 0.233900
O O2 0.553539 0.616493 0.629822
O O3 0.177450 0.437958 0.405262
O O4 0.198809 0.983899 0.380423
O O5 0.272665 0.878773 0.080413
O O6 0.000000 0.500000 0.000000
O O7 0.000000 0.500000 0.500000
O O8 0.418510 0.201569 0.820517
O O9 0.305222 0.288854 0.903728
O O10 0.090212 0.968831 0.698091
O O11 0.358778 0.905262 0.680881
#
# Coordination Sequence:
#
# PCOD9016694 Si02
#       5
#     2   2   2   2   2
#     4  10  24  42  70 104 138 181 232 285 351 425
#     4  10  21  42  68  99 140 183 228 286 349 416
#     4  11  23  44  72 102 140 186 236 295 355 415
#     4  10  24  42  68 105 140 184 240 288 350 428
#     4  11  23  46  71 102 142 182 231 294 354 417
#
# _framework density 26.963137
#
# number of rings (size 3 to 8) (size 9 to 14) (size 15 to 20)
#    0.000    1.600    0.000    4.200    0.000    9.600 
#    0.000   14.000    0.000    0.000    0.000    0.000 
#    0.000    0.000    0.000    0.000    0.000    0.000 
#
# Total GULP energy -56164.368933 kJ/mol
# GULP energy per Si atom -5616.436893 kJ/mol
# Density = 2.690177 g / cm^3
# Si number density = 26.963137 Si / 1000 Ang^3
#
#
#
# Elastic Constant Matrix: (Units=GPa)
#
#
# Indices 1 2 3 4 5 6 
#
# 1 166.1844 22.8040 69.9913 6.1947 -26.6060 7.3262
# 2 22.8040 78.2894 22.2192 16.5422 4.4408 11.5537
# 3 69.9913 22.2192 190.3122 12.3541 -25.4374 0.5224
# 4 6.1947 16.5422 12.3541 50.6922 5.7468 8.4291
# 5 -26.6060 4.4408 -25.4374 5.7468 55.7440 3.8735
# 6 7.3262 11.5537 0.5224 8.4291 3.8735 38.3539
#
#
#
# Elastic Compliance Matrix: (Units=1/GPa)
#
#
# Indices 1 2 3 4 5 6 
#
# 1 0.007699 -0.001579 -0.002263 0.000011 0.002854 -0.001255
# 2 -0.001579 0.014911 -0.001165 -0.003647 -0.001876 -0.003183
# 3 -0.002263 -0.001165 0.006587 -0.001315 0.002101 0.000770
# 4 0.000011 -0.003647 -0.001315 0.022083 -0.002337 -0.003503
# 5 0.002854 -0.001876 0.002101 -0.002337 0.020761 -0.001592
# 6 -0.001255 -0.003183 0.000770 -0.003503 -0.001592 0.028192
#
#
# Mechanical properties :
#
#
# Convention : Reuss Voigt Hill
#
# Bulk Modulus (GPa) = 52.13431 73.86833 63.00132
# Shear Modulus (GPa) = 42.86652 50.27611 46.57131
#
# Velocity S-wave (km/s) = 3.99158 4.32281 4.16049
# Velocity P-wave (km/s) = 6.37346 7.23679 6.81880
#
# Compressibility (1/GPa) = 0.01918123
#
# Stress axis : x y z
#
# Youngs Moduli (GPa) = 129.88707 67.06633 151.81907
#
# Poissons Ratio (x) = 0.10592 0.34355
# Poissons Ratio (y) = 0.20514 0.17691
# Poissons Ratio (z) = 0.29392 0.07815
#
# Static dielectric constant tensor:
#      x y z
#    x 2.062280 0.030670 -0.029680 
#    y 0.030670 2.095100 -0.048050 
#    z -0.029680 -0.048050 2.129410 
# 
# From -- ./inp_files/129790.got.cif
#   From: 2010.05.17/outbox.cif.g08.bks.cpg/sg2_65_cif.got.tgz:129790.got - 2010.06.03 11:33:40.
