data_PCOD9016881
_publ_section_title
;
Structure prediction by ZEFSAII (Michael W. Deem and Ramdas Pophale) SiO2 
 PCOD9016881
Probable space group: P -1
;
_chemical_formula_sum "Si O2"
_cell_formula_units_Z 14
_cell_length_a 16.240501
_cell_length_b 8.976239
_cell_length_c 12.311355
_cell_angle_alpha 48.110657
_cell_angle_beta 152.591670
_cell_angle_gamma 123.990627
_cell_volume 612.049409
_symmetry_space_group_name_H-M "P -1"
_symmetry_group_IT_number 2
_symmetry_cell_setting 'triclinic'
loop_
_space_group_symop_operation_xyz
x,y,z
-x,-y,-z
loop_
_atom_site_type_symbol
_atom_site_label
_atom_site_fract_x
_atom_site_fract_y
_atom_site_fract_z
Si Si1 0.954285 0.683620 0.778162
Si Si2 0.824150 0.117825 0.479355
Si Si3 0.315276 0.480094 0.592626
Si Si4 0.604083 0.789736 0.761561
Si Si5 0.992315 0.777898 0.149299
Si Si6 0.583570 0.860766 0.952784
Si Si7 0.821688 0.156549 0.209614
O O1 0.753098 0.671802 0.501575
O O2 0.107654 0.679528 0.866987
O O3 0.940392 0.902146 0.710468
O O4 0.000000 0.500000 0.000000
O O5 0.933228 0.240014 0.631294
O O6 0.786695 0.206484 0.270911
O O7 0.631320 0.096825 0.317257
O O8 0.474241 0.612809 0.685491
O O9 0.135318 0.629788 0.324811
O O10 0.364572 0.345610 0.820865
O O11 0.500000 0.000000 0.500000
O O12 0.647085 0.825836 0.921120
O O13 0.785139 0.741194 0.929537
O O14 0.000000 0.000000 0.000000
O O15 0.671369 0.038659 0.032337
O O16 0.000000 0.000000 0.500000
#
# Coordination Sequence:
#
# PCOD9016881 Si02
#       7
#     2   2   2   2   2   2   2
#     4  11  25  45  71 101 141 181 239 288 343 423
#     4  11  23  45  73  97 141 188 228 291 356 414
#     4  12  26  45  70 110 138 179 242 287 341 423
#     4  12  26  45  73 101 142 188 229 290 359 413
#     4  12  25  47  74 100 144 187 232 288 362 411
#     4  12  24  46  69 104 142 180 242 289 344 425
#     4  10  21  42  69  98 133 188 225 281 355 403
#
# _framework density 22.873968999999999
#
# number of rings (size 3 to 8) (size 9 to 14) (size 15 to 20)
#    0.000    0.571    5.714    3.429    2.000    1.714 
#    0.000    0.714    0.000    0.000    0.000    0.000 
#    0.000    0.000    0.000    0.000    0.000    0.000 
#
# Total GULP energy -78344.072443 kJ/mol
# GULP energy per Si atom -5596.005175 kJ/mol
# Density = 2.282191 g / cm^3
# Si number density = 22.873969 Si / 1000 Ang^3
#
#
#
# Elastic Constant Matrix: (Units=GPa)
#
#
# Indices 1 2 3 4 5 6 
#
# 1 89.5558 21.0269 16.8790 -0.3835 10.3909 31.0493
# 2 21.0269 79.7761 14.1672 16.8413 3.5034 31.2613
# 3 16.8790 14.1672 77.1138 4.8329 16.6195 26.1873
# 4 -0.3835 16.8413 4.8329 45.9716 9.0985 -1.1220
# 5 10.3909 3.5034 16.6195 9.0985 45.1955 -3.9317
# 6 31.0493 31.2613 26.1873 -1.1220 -3.9317 43.6200
#
#
#
# Elastic Compliance Matrix: (Units=1/GPa)
#
#
# Indices 1 2 3 4 5 6 
#
# 1 0.016065 0.001088 0.002349 0.000318 -0.005937 -0.014152
# 2 0.001088 0.020386 0.003172 -0.007631 -0.003005 -0.017756
# 3 0.002349 0.003172 0.019555 -0.001811 -0.009052 -0.016548
# 4 0.000318 -0.007631 -0.001811 0.025574 -0.003383 0.006683
# 5 -0.005937 -0.003005 -0.009052 -0.003383 0.028981 0.014339
# 6 -0.014152 -0.017756 -0.016548 0.006683 0.014339 0.057123
#
#
# Mechanical properties :
#
#
# Convention : Reuss Voigt Hill
#
# Bulk Modulus (GPa) = 14.44578 38.95466 26.70022
# Shear Modulus (GPa) = 28.16284 39.91561 34.03922
#
# Velocity S-wave (km/s) = 3.51268 4.18188 3.86180
# Velocity P-wave (km/s) = 4.77294 6.35489 5.61986
#
# Compressibility (1/GPa) = 0.06922439
#
# Stress axis : x y z
#
# Youngs Moduli (GPa) = 62.24793 49.05354 51.13864
#
# Poissons Ratio (x) = -0.05336 -0.12014
# Poissons Ratio (y) = -0.06771 -0.16224
# Poissons Ratio (z) = -0.14624 -0.15562
#
# Static dielectric constant tensor:
#      x y z
#    x 1.548230 0.178510 -0.060530 
#    y 0.178510 1.745410 0.031880 
#    z -0.060530 0.031880 1.812240 
# 
# From -- ./inp_files/155260.got.cif
#   From: 2010.05.17/outbox.cif.g08.bks.cpg/sg2_78_cif.got.tgz:155260.got - 2010.06.03 11:33:40.
