data_PCOD9016421
_publ_section_title
;
Structure prediction by ZEFSAII (Michael W. Deem and Ramdas Pophale) SiO2 
 PCOD9016421
Probable space group: P -1
;
_chemical_formula_sum "Si O2"
_cell_formula_units_Z 16
_cell_length_a 13.398879
_cell_length_b 12.405331
_cell_length_c 12.712789
_cell_angle_alpha 33.935364
_cell_angle_beta 40.436092
_cell_angle_gamma 31.393821
_cell_volume 604.238609
_symmetry_space_group_name_H-M "P -1"
_symmetry_group_IT_number 2
_symmetry_cell_setting 'triclinic'
loop_
_space_group_symop_operation_xyz
x,y,z
-x,-y,-z
loop_
_atom_site_type_symbol
_atom_site_label
_atom_site_fract_x
_atom_site_fract_y
_atom_site_fract_z
Si Si1 0.327780 0.053059 0.025336
Si Si2 0.002732 0.921502 0.196062
Si Si3 0.944854 0.747869 0.583436
Si Si4 0.869385 0.780442 0.237721
Si Si5 0.469770 0.068737 0.260630
Si Si6 0.535380 0.463120 0.655464
Si Si7 0.593667 0.446876 0.082205
Si Si8 0.792683 0.457392 0.283807
O O1 0.174098 0.341001 0.929072
O O2 0.401355 0.017787 0.876702
O O3 0.500000 0.000000 0.000000
O O4 0.325843 0.831154 0.233772
O O5 0.034189 0.825340 0.365057
O O6 0.998909 0.738459 0.270026
O O7 0.786686 0.173414 0.154450
O O8 0.130004 0.008460 0.991153
O O9 0.712581 0.931895 0.602624
O O10 0.035615 0.469025 0.701415
O O11 0.009380 0.754038 0.644300
O O12 0.640424 0.909785 0.338887
O O13 0.366592 0.356085 0.108909
O O14 0.522910 0.512859 0.749728
O O15 0.630317 0.548786 0.433863
O O16 0.317550 0.566571 0.704345
O O17 0.500000 0.500000 0.000000
#
# Coordination Sequence:
#
# PCOD9016421 Si02
#       8
#     2   2   2   2   2   2   2   2
#     4   9  19  39  67  93 126 176 220 275 337 395
#     4  11  26  43  68  97 137 185 228 278 343 402
#     4  12  26  41  67 107 134 173 233 282 337 411
#     4  11  24  48  65  92 143 181 228 284 333 412
#     4  11  23  43  66  98 138 170 224 282 334 406
#     4   9  22  40  70  98 131 180 230 275 343 404
#     4  11  22  43  71 101 135 181 228 280 340 409
#     4  10  21  42  67  97 136 178 224 284 338 401
#
# _framework density 26.479604999999999
#
# number of rings (size 3 to 8) (size 9 to 14) (size 15 to 20)
#    0.000    1.500    3.750    0.375    5.250    0.500 
#    2.250    7.500    0.000    0.000    0.000    0.000 
#    0.000    0.000    0.000    0.000    0.000    0.000 
#
# Total GULP energy -89409.343483 kJ/mol
# GULP energy per Si atom -5588.083968 kJ/mol
# Density = 2.641934 g / cm^3
# Si number density = 26.479605 Si / 1000 Ang^3
#
#
#
# Elastic Constant Matrix: (Units=GPa)
#
#
# Indices 1 2 3 4 5 6 
#
# 1 150.9529 37.2091 45.7323 5.8002 4.8991 -17.2945
# 2 37.2091 103.9235 22.1530 7.0187 -9.2837 -11.9154
# 3 45.7323 22.1530 92.2803 -17.3523 5.0385 -3.8487
# 4 5.8002 7.0187 -17.3523 29.3127 3.7439 -3.9961
# 5 4.8991 -9.2837 5.0385 3.7439 40.5568 4.7202
# 6 -17.2945 -11.9154 -3.8487 -3.9961 4.7202 41.2423
#
#
#
# Elastic Compliance Matrix: (Units=1/GPa)
#
#
# Indices 1 2 3 4 5 6 
#
# 1 0.008875 -0.001772 -0.004480 -0.003522 -0.000893 0.002553
# 2 -0.001772 0.011647 -0.002864 -0.004366 0.003460 0.001536
# 3 -0.004480 -0.002864 0.016104 0.011555 -0.003215 0.000284
# 4 -0.003522 -0.004366 0.011555 0.043978 -0.006458 0.003340
# 5 -0.000893 0.003460 -0.003215 -0.006458 0.026946 -0.003385
# 6 0.002553 0.001536 0.000284 0.003340 -0.003385 0.026499
#
#
# Mechanical properties :
#
#
# Convention : Reuss Voigt Hill
#
# Bulk Modulus (GPa) = 54.36131 61.92726 58.14429
# Shear Modulus (GPa) = 31.56291 38.35985 34.96138
#
# Velocity S-wave (km/s) = 3.45624 3.81025 3.63755
# Velocity P-wave (km/s) = 6.04165 6.54178 6.29668
#
# Compressibility (1/GPa) = 0.01839543
#
# Stress axis : x y z
#
# Youngs Moduli (GPa) = 112.67052 85.85549 62.09446
#
# Poissons Ratio (x) = 0.15214 0.27819
# Poissons Ratio (y) = 0.19965 0.17783
# Poissons Ratio (z) = 0.50478 0.24588
#
# Static dielectric constant tensor:
#      x y z
#    x 2.061880 0.028470 0.012500 
#    y 0.028470 2.142160 -0.090070 
#    z 0.012500 -0.090070 2.134460 
# 
# From -- ./inp_files/534108.got.cif
#   From: 2010.05.17/outbox.cif.g08.bks.cpg/sg2_268_cif.got.tgz:534108.got - 2010.06.03 11:33:40.
