data_PCOD9016339
_publ_section_title
;
Structure prediction by ZEFSAII (Michael W. Deem and Ramdas Pophale) SiO2 
 PCOD9016339
Probable space group: P -1
;
_chemical_formula_sum "Si O2"
_cell_formula_units_Z 16
_cell_length_a 13.345354
_cell_length_b 8.611673
_cell_length_c 8.392459
_cell_angle_alpha 78.784043
_cell_angle_beta 60.310367
_cell_angle_gamma 56.824627
_cell_volume 697.419364
_symmetry_space_group_name_H-M "P -1"
_symmetry_group_IT_number 2
_symmetry_cell_setting 'triclinic'
loop_
_space_group_symop_operation_xyz
x,y,z
-x,-y,-z
loop_
_atom_site_type_symbol
_atom_site_label
_atom_site_fract_x
_atom_site_fract_y
_atom_site_fract_z
Si Si1 0.196372 0.004925 0.651806
Si Si2 0.646117 0.429165 0.321967
Si Si3 0.016198 0.081265 0.255345
Si Si4 0.136435 0.446136 0.300341
Si Si5 0.235362 0.593245 0.457300
Si Si6 0.017988 0.326291 0.921677
Si Si7 0.524026 0.363751 0.865489
Si Si8 0.726420 0.980902 0.768498
O O1 0.275717 0.796723 0.706561
O O2 0.049886 0.037919 0.710634
O O3 0.163287 0.177249 0.755560
O O4 0.265531 0.003846 0.432711
O O5 0.500000 0.500000 0.500000
O O6 0.723591 0.482395 0.378834
O O7 0.606717 0.536247 0.165228
O O8 0.915578 0.228004 0.438069
O O9 0.166234 0.988903 0.223373
O O10 0.000704 0.196273 0.085189
O O11 0.230482 0.469853 0.347159
O O12 0.215855 0.236655 0.211984
O O13 0.000000 0.500000 0.500000
O O14 0.085934 0.581026 0.161343
O O15 0.344831 0.648598 0.319903
O O16 0.000000 0.500000 0.000000
O O17 0.578416 0.149284 0.904413
O O18 0.500000 0.500000 0.000000
#
# Coordination Sequence:
#
# PCOD9016339 Si02
#       8
#     2   2   2   2   2   2   2   2
#     4  11  22  37  67  91 128 171 218 269 322 386
#     4   9  19  41  62  92 123 164 228 264 311 372
#     4  11  22  38  61 102 130 163 216 271 337 388
#     4  12  23  40  64  98 142 173 209 253 347 406
#     4  10  21  42  67  94 129 171 215 272 321 397
#     4  12  24  38  56  96 141 170 200 263 330 407
#     4  11  25  42  70  95 128 172 224 279 320 368
#     4  12  22  40  66  96 135 170 213 267 330 394
#
# _framework density 22.941721999999999
#
# number of rings (size 3 to 8) (size 9 to 14) (size 15 to 20)
#    0.000    1.000    7.500    0.750    3.500    2.000 
#    0.000    1.250    0.000    0.000    0.000    0.000 
#    0.000    0.000    0.000    0.000    0.000    0.000 
#
# Total GULP energy -89344.103793 kJ/mol
# GULP energy per Si atom -5584.006487 kJ/mol
# Density = 2.288951 g / cm^3
# Si number density = 22.941722 Si / 1000 Ang^3
#
#
#
# Elastic Constant Matrix: (Units=GPa)
#
#
# Indices 1 2 3 4 5 6 
#
# 1 78.6411 33.0080 3.0660 2.6970 30.4286 -15.9764
# 2 33.0080 168.9821 33.4975 23.3800 29.8441 -22.6817
# 3 3.0660 33.4975 71.6521 8.9182 20.3880 -10.5886
# 4 2.6970 23.3800 8.9182 40.5690 1.7278 13.2424
# 5 30.4286 29.8441 20.3880 1.7278 33.5220 -3.6317
# 6 -15.9764 -22.6817 -10.5886 13.2424 -3.6317 35.7258
#
#
#
# Elastic Compliance Matrix: (Units=1/GPa)
#
#
# Indices 1 2 3 4 5 6 
#
# 1 0.026639 0.001332 0.010013 -0.008708 -0.029277 0.015978
# 2 0.001332 0.009369 0.000224 -0.008036 -0.008325 0.008742
# 3 0.010013 0.000224 0.022355 -0.008853 -0.021087 0.012384
# 4 -0.008708 -0.008036 -0.008853 0.039140 0.015769 -0.024525
# 5 -0.029277 -0.008325 -0.021087 0.015769 0.073336 -0.023018
# 6 0.015978 0.008742 0.012384 -0.024525 -0.023018 0.051108
#
#
# Mechanical properties :
#
#
# Convention : Reuss Voigt Hill
#
# Bulk Modulus (GPa) = 12.26983 50.93538 31.60261
# Shear Modulus (GPa) = 22.12617 38.61026 30.36822
#
# Velocity S-wave (km/s) = 3.10893 4.10685 3.64223
# Velocity P-wave (km/s) = 4.27167 6.68869 5.61185
#
# Compressibility (1/GPa) = 0.08150071
#
# Stress axis : x y z
#
# Youngs Moduli (GPa) = 37.53832 106.73692 44.73217
#
# Poissons Ratio (x) = -0.14213 -0.44791
# Poissons Ratio (y) = -0.04999 -0.01002
# Poissons Ratio (z) = -0.37587 -0.02390
#
# Static dielectric constant tensor:
#      x y z
#    x 1.877770 0.004090 -0.019130 
#    y 0.004090 1.916420 -0.008260 
#    z -0.019130 -0.008260 1.949450 
# 
# From -- ./inp_files/187646.got.cif
#   From: 2010.05.17/outbox.cif.g08.bks.cpg/sg2_94_cif.got.tgz:187646.got - 2010.06.03 11:33:40.
