data_PCOD9016936
_publ_section_title
;
Structure prediction by ZEFSAII (Michael W. Deem and Ramdas Pophale) SiO2 
 PCOD9016936
Probable space group: P -1
;
_chemical_formula_sum "Si O2"
_cell_formula_units_Z 16
_cell_length_a 11.597247
_cell_length_b 9.664591
_cell_length_c 9.221840
_cell_angle_alpha 121.346739
_cell_angle_beta 122.906079
_cell_angle_gamma 74.325806
_cell_volume 741.001266
_symmetry_space_group_name_H-M "P -1"
_symmetry_group_IT_number 2
_symmetry_cell_setting 'triclinic'
loop_
_space_group_symop_operation_xyz
x,y,z
-x,-y,-z
loop_
_atom_site_type_symbol
_atom_site_label
_atom_site_fract_x
_atom_site_fract_y
_atom_site_fract_z
Si Si1 0.263440 0.944861 0.817051
Si Si2 0.195224 0.654557 0.415660
Si Si3 0.499288 0.821391 0.338551
Si Si4 0.451228 0.218724 0.974897
Si Si5 0.027182 0.062509 0.212446
Si Si6 0.446401 0.484786 0.618268
Si Si7 0.015144 0.410632 0.309232
Si Si8 0.806667 0.247076 0.850844
O O1 0.223654 0.835890 0.590634
O O2 0.121072 0.941168 0.808722
O O3 0.326494 0.120552 0.913617
O O4 0.399786 0.863925 0.936826
O O5 0.295486 0.552043 0.531683
O O6 0.215136 0.648964 0.254005
O O7 0.058365 0.558999 0.312737
O O8 0.570553 0.794680 0.218824
O O9 0.554534 0.696370 0.425350
O O10 0.338836 0.781789 0.190583
O O11 0.500000 0.000000 0.500000
O O12 0.469524 0.398130 0.150966
O O13 0.087288 0.243981 0.326540
O O14 0.128599 0.921341 0.256793
O O15 0.000000 0.000000 0.000000
O O16 0.500000 0.500000 0.500000
O O17 0.000000 0.500000 0.500000
O O18 0.897298 0.328846 0.083319
#
# Coordination Sequence:
#
# PCOD9016936 Si02
#       8
#     2   2   2   2   2   2   2   2
#     4  10  21  42  70 101 139 181 230 282 349 406
#     4  11  23  44  68  98 139 181 229 280 345 411
#     4  12  26  46  72 106 141 179 236 290 347 416
#     4  10  23  42  73  99 138 185 230 288 342 409
#     4  10  22  41  66  98 132 177 228 281 339 406
#     4  11  25  45  69 103 136 182 233 288 349 412
#     4  11  23  44  68  98 133 180 225 284 339 398
#     4  11  25  44  68 100 141 181 228 278 345 416
#
# _framework density 21.592404999999999
#
# number of rings (size 3 to 8) (size 9 to 14) (size 15 to 20)
#    0.000    1.250    2.500    3.000    7.000    2.500 
#    2.250    0.000    0.000    0.000    0.000    0.000 
#    0.000    0.000    0.000    0.000    0.000    0.000 
#
# Total GULP energy -89116.170000 kJ/mol
# GULP energy per Si atom -5569.760625 kJ/mol
# Density = 2.154326 g / cm^3
# Si number density = 21.592405 Si / 1000 Ang^3
#
#
#
# Elastic Constant Matrix: (Units=GPa)
#
#
# Indices 1 2 3 4 5 6 
#
# 1 37.5878 -4.0312 -1.9383 -7.2242 -12.4003 10.2640
# 2 -4.0312 112.3700 45.3561 11.8419 -9.5099 9.0524
# 3 -1.9383 45.3561 106.5390 2.4007 -24.3684 5.4638
# 4 -7.2242 11.8419 2.4007 26.8641 -3.5449 -6.9673
# 5 -12.4003 -9.5099 -24.3684 -3.5449 33.1296 -4.4887
# 6 10.2640 9.0524 5.4638 -6.9673 -4.4887 33.2174
#
#
#
# Elastic Compliance Matrix: (Units=1/GPa)
#
#
# Indices 1 2 3 4 5 6 
#
# 1 0.036491 0.000582 0.004517 0.009355 0.017078 -0.007907
# 2 0.000582 0.011730 -0.004922 -0.005750 -0.001184 -0.003933
# 3 0.004517 -0.004922 0.013991 0.003541 0.010929 -0.000136
# 4 0.009355 -0.005750 0.003541 0.045718 0.010582 0.009113
# 5 0.017078 -0.001184 0.010929 0.010582 0.045629 0.001634
# 6 -0.007907 -0.003933 -0.000136 0.009113 0.001634 0.035774
#
#
# Mechanical properties :
#
#
# Convention : Reuss Voigt Hill
#
# Bulk Modulus (GPa) = 15.98346 37.25222 26.61784
# Shear Modulus (GPa) = 23.82825 33.11623 28.47224
#
# Velocity S-wave (km/s) = 3.32557 3.92049 3.63522
# Velocity P-wave (km/s) = 4.70790 6.14684 5.47485
#
# Compressibility (1/GPa) = 0.06256466
#
# Stress axis : x y z
#
# Youngs Moduli (GPa) = 27.40415 85.25494 71.47462
#
# Poissons Ratio (x) = -0.04965 -0.32284
# Poissons Ratio (y) = -0.01596 0.35183
# Poissons Ratio (z) = -0.12378 0.41966
#
# Static dielectric constant tensor:
#      x y z
#    x 1.800430 -0.086480 -0.193720 
#    y -0.086480 1.882290 -0.206920 
#    z -0.193720 -0.206920 1.325580 
# 
# From -- ./inp_files/185332.got.cif
#   From: 2010.05.17/outbox.cif.g08.bks.cpg/sg2_93_cif.got.tgz:185332.got - 2010.06.03 11:33:40.
