data_PCOD9016629
_publ_section_title
;
Structure prediction by ZEFSAII (Michael W. Deem and Ramdas Pophale) SiO2 
 PCOD9016629
Probable space group: P -1
;
_chemical_formula_sum "Si O2"
_cell_formula_units_Z 16
_cell_length_a 21.063025
_cell_length_b 5.117446
_cell_length_c 9.289914
_cell_angle_alpha 108.456606
_cell_angle_beta 47.648134
_cell_angle_gamma 116.937575
_cell_volume 659.628628
_symmetry_space_group_name_H-M "P -1"
_symmetry_group_IT_number 2
_symmetry_cell_setting 'triclinic'
loop_
_space_group_symop_operation_xyz
x,y,z
-x,-y,-z
loop_
_atom_site_type_symbol
_atom_site_label
_atom_site_fract_x
_atom_site_fract_y
_atom_site_fract_z
Si Si1 0.353628 0.820071 0.626763
Si Si2 0.923548 0.521797 0.727709
Si Si3 0.764441 0.492549 0.741982
Si Si4 0.779823 0.014018 0.978445
Si Si5 0.130396 0.102239 0.916065
Si Si6 0.518603 0.647721 0.310636
Si Si7 0.182145 0.577622 0.667810
Si Si8 0.567129 0.093607 0.049636
O O1 0.412735 0.609676 0.489668
O O2 0.287735 0.766695 0.580894
O O3 0.425353 0.140291 0.610406
O O4 0.282811 0.791634 0.860902
O O5 0.839095 0.495116 0.746921
O O6 0.000000 0.500000 0.500000
O O7 0.882905 0.228004 0.832611
O O8 0.939524 0.795239 0.860140
O O9 0.744858 0.788449 0.864471
O O10 0.812108 0.514491 0.519589
O O11 0.671177 0.222399 0.856531
O O12 0.785861 0.854261 0.091200
O O13 0.153544 0.313544 0.779833
O O14 0.118124 0.775958 0.822635
O O15 0.545129 0.361419 0.205564
O O16 0.545688 0.832691 0.152416
O O17 0.500000 0.000000 0.000000
#
# Coordination Sequence:
#
# PCOD9016629 Si02
#       8
#     2   2   2   2   2   2   2   2
#     4  10  21  42  68  96 136 186 242 287 345 414
#     4  11  24  48  79 108 139 183 238 295 356 431
#     4  11  26  42  73 104 147 191 234 293 360 417
#     4  10  21  45  72 101 138 185 241 290 349 426
#     4  10  22  42  70  99 135 180 233 283 342 421
#     4  11  25  39  66  98 133 190 242 292 341 413
#     4  11  24  41  69 102 138 187 232 288 353 414
#     4  12  26  45  64 103 148 185 235 294 349 411
#
# _framework density 24.256074000000002
#
# number of rings (size 3 to 8) (size 9 to 14) (size 15 to 20)
#    0.000    1.250    3.750    1.875    3.500    7.000 
#    0.000    1.250    0.000    0.000    0.000    0.000 
#    0.000    0.000    0.000    0.000    0.000    0.000 
#
# Total GULP energy -89426.021450 kJ/mol
# GULP energy per Si atom -5589.126341 kJ/mol
# Density = 2.420087 g / cm^3
# Si number density = 24.256074 Si / 1000 Ang^3
#
#
#
# Elastic Constant Matrix: (Units=GPa)
#
#
# Indices 1 2 3 4 5 6 
#
# 1 57.1600 20.3618 31.2326 -4.5202 7.6534 -20.5663
# 2 20.3618 70.0657 38.2184 -3.5305 7.1003 -35.6464
# 3 31.2326 38.2184 181.6082 -5.6927 7.1910 -26.6260
# 4 -4.5202 -3.5305 -5.6927 28.2996 7.3603 5.8075
# 5 7.6534 7.1003 7.1910 7.3603 48.6532 -4.3556
# 6 -20.5663 -35.6464 -26.6260 5.8075 -4.3556 31.2854
#
#
#
# Elastic Compliance Matrix: (Units=1/GPa)
#
#
# Indices 1 2 3 4 5 6 
#
# 1 0.024121 0.003183 -0.002181 0.000968 -0.002553 0.017092
# 2 0.003183 0.035290 -0.002017 -0.003638 -0.001123 0.041104
# 3 -0.002181 -0.002017 0.006587 0.000427 -0.000243 0.001761
# 4 0.000968 -0.003638 0.000427 0.039173 -0.006626 -0.011340
# 5 -0.002553 -0.001123 -0.000243 -0.006626 0.022262 0.001165
# 6 0.017092 0.041104 0.001761 -0.011340 0.001165 0.093799
#
#
# Mechanical properties :
#
#
# Convention : Reuss Voigt Hill
#
# Bulk Modulus (GPa) = 15.63295 54.27327 34.95311
# Shear Modulus (GPa) = 20.44290 36.24904 28.34597
#
# Velocity S-wave (km/s) = 2.90624 3.86998 3.42221
# Velocity P-wave (km/s) = 4.20959 6.51097 5.48240
#
# Compressibility (1/GPa) = 0.06396747
#
# Stress axis : x y z
#
# Youngs Moduli (GPa) = 41.45847 28.33671 151.81182
#
# Poissons Ratio (x) = -0.09019 0.33106
# Poissons Ratio (y) = -0.13196 0.30624
# Poissons Ratio (z) = 0.09041 0.05716
#
# Static dielectric constant tensor:
#      x y z
#    x 1.963760 -0.024450 -0.024270 
#    y -0.024450 2.027520 -0.020170 
#    z -0.024270 -0.020170 1.951310 
# 
# From -- ./inp_files/340540.got.cif
#   From: 2010.05.17/outbox.cif.g08.bks.cpg/sg2_171_cif.got.tgz:340540.got - 2010.06.03 11:33:40.
