data_PCOD9016709
_publ_section_title
;
Structure prediction by ZEFSAII (Michael W. Deem and Ramdas Pophale) SiO2 
 PCOD9016709
Probable space group: P -1
;
_chemical_formula_sum "Si O2"
_cell_formula_units_Z 16
_cell_length_a 8.865961
_cell_length_b 22.628317
_cell_length_c 8.147020
_cell_angle_alpha 148.314003
_cell_angle_beta 49.159065
_cell_angle_gamma 129.488076
_cell_volume 636.390667
_symmetry_space_group_name_H-M "P -1"
_symmetry_group_IT_number 2
_symmetry_cell_setting 'triclinic'
loop_
_space_group_symop_operation_xyz
x,y,z
-x,-y,-z
loop_
_atom_site_type_symbol
_atom_site_label
_atom_site_fract_x
_atom_site_fract_y
_atom_site_fract_z
Si Si1 0.859913 0.421691 0.548249
Si Si2 0.450980 0.003417 0.846784
Si Si3 0.547824 0.243321 0.181910
Si Si4 0.117380 0.034987 0.667367
Si Si5 0.877054 0.143630 0.499982
Si Si6 0.025388 0.376835 0.814367
Si Si7 0.457847 0.627586 0.835416
Si Si8 0.139376 0.288629 0.196451
O O1 0.641666 0.353963 0.486131
O O2 0.000000 0.500000 0.500000
O O3 0.978378 0.318351 0.254430
O O4 0.859827 0.512682 0.908590
O O5 0.647286 0.969430 0.539174
O O6 0.262809 0.913219 0.687988
O O7 0.436535 0.132391 0.101383
O O8 0.500000 0.000000 0.000000
O O9 0.467666 0.300992 0.215526
O O10 0.729174 0.192776 0.847331
O O11 0.046111 0.953216 0.678171
O O12 0.088676 0.163312 0.010155
O O13 0.000000 0.000000 0.500000
O O14 0.041260 0.256297 0.602609
O O15 0.106857 0.374067 0.567590
O O16 0.779373 0.371231 0.971519
O O17 0.500000 0.500000 0.500000
O O18 0.630899 0.689591 0.984984
#
# Coordination Sequence:
#
# PCOD9016709 Si02
#       8
#     2   2   2   2   2   2   2   2
#     4  12  22  43  69 100 137 183 226 285 353 407
#     4  11  24  44  70 102 137 185 233 287 352 417
#     4  10  21  42  69 100 139 184 223 286 356 415
#     4  11  24  43  66 103 135 175 229 288 342 412
#     4  10  21  43  71  95 139 184 223 277 357 413
#     4  11  25  43  73  99 137 185 230 280 351 417
#     4  11  21  42  69  97 131 179 229 279 342 408
#     4  12  25  43  70  98 135 179 237 279 339 419
#
# _framework density 25.141788999999999
#
# number of rings (size 3 to 8) (size 9 to 14) (size 15 to 20)
#    0.000    1.000    3.750    5.625    3.500    0.500 
#    2.250    0.625    0.000    0.000    0.000    0.000 
#    0.000    0.000    0.000    0.000    0.000    0.000 
#
# Total GULP energy -89431.394583 kJ/mol
# GULP energy per Si atom -5589.462161 kJ/mol
# Density = 2.508456 g / cm^3
# Si number density = 25.141789 Si / 1000 Ang^3
#
#
#
# Elastic Constant Matrix: (Units=GPa)
#
#
# Indices 1 2 3 4 5 6 
#
# 1 91.9980 14.0210 37.8254 6.7850 7.6677 -3.4640
# 2 14.0210 109.7015 38.3723 27.3839 -7.7925 -15.4993
# 3 37.8254 38.3723 115.4208 22.8476 13.7095 -6.1267
# 4 6.7850 27.3839 22.8476 51.1007 -3.3462 -12.5537
# 5 7.6677 -7.7925 13.7095 -3.3462 55.6894 12.2229
# 6 -3.4640 -15.4993 -6.1267 -12.5537 12.2229 47.7056
#
#
#
# Elastic Compliance Matrix: (Units=1/GPa)
#
#
# Indices 1 2 3 4 5 6 
#
# 1 0.012619 -0.000288 -0.003965 0.000349 -0.000921 0.000641
# 2 -0.000288 0.011671 -0.003051 -0.004295 0.001772 0.001795
# 3 -0.003965 -0.003051 0.012020 -0.003374 -0.003079 0.000166
# 4 0.000349 -0.004295 -0.003374 0.024474 0.000672 0.004465
# 5 -0.000921 0.001772 -0.003079 0.000672 0.020202 -0.004886
# 6 0.000641 0.001795 0.000166 0.004465 -0.004886 0.024040
#
#
# Mechanical properties :
#
#
# Convention : Reuss Voigt Hill
#
# Bulk Modulus (GPa) = 46.07737 55.28418 50.68077
# Shear Modulus (GPa) = 39.41085 46.02591 42.71838
#
# Velocity S-wave (km/s) = 3.96352 4.28326 4.12648
# Velocity P-wave (km/s) = 6.26999 6.81897 6.55023
#
# Compressibility (1/GPa) = 0.02170263
#
# Stress axis : x y z
#
# Youngs Moduli (GPa) = 79.24373 85.68123 83.19379
#
# Poissons Ratio (x) = 0.02465 0.32990
# Poissons Ratio (y) = 0.02280 0.25381
# Poissons Ratio (z) = 0.31424 0.26140
#
# Static dielectric constant tensor:
#      x y z
#    x 2.067150 0.014740 -0.051410 
#    y 0.014740 1.949270 0.127520 
#    z -0.051410 0.127520 1.794710 
# 
# From -- ./inp_files/225720.got.cif
#   From: 2010.05.17/outbox.cif.g08.bks.cpg/sg2_113_cif.got.tgz:225720.got - 2010.06.03 11:33:40.
