data_PCOD9016951
_publ_section_title
;
Structure prediction by ZEFSAII (Michael W. Deem and Ramdas Pophale) SiO2 
 PCOD9016951
Probable space group: P -1
;
_chemical_formula_sum "Si O2"
_cell_formula_units_Z 14
_cell_length_a 10.575714
_cell_length_b 15.436422
_cell_length_c 8.800667
_cell_angle_alpha 69.208598
_cell_angle_beta 113.839778
_cell_angle_gamma 153.612788
_cell_volume 583.959829
_symmetry_space_group_name_H-M "P -1"
_symmetry_group_IT_number 2
_symmetry_cell_setting 'triclinic'
loop_
_space_group_symop_operation_xyz
x,y,z
-x,-y,-z
loop_
_atom_site_type_symbol
_atom_site_label
_atom_site_fract_x
_atom_site_fract_y
_atom_site_fract_z
Si Si1 0.332370 0.607790 0.487327
Si Si2 0.321500 0.031485 0.707283
Si Si3 0.507944 0.584597 0.328208
Si Si4 0.255593 0.286810 0.205654
Si Si5 0.250721 0.211763 0.931242
Si Si6 0.281680 0.825526 0.623299
Si Si7 0.337212 0.716719 0.987050
O O1 0.487741 0.798638 0.429448
O O2 0.405095 0.611713 0.351667
O O3 0.498715 0.641118 0.667119
O O4 0.990701 0.383457 0.466996
O O5 0.217347 0.874975 0.674552
O O6 0.519487 0.144930 0.885519
O O7 0.030902 0.907828 0.713989
O O8 0.500000 0.500000 0.500000
O O9 0.326025 0.432910 0.198362
O O10 0.810899 0.779434 0.268600
O O11 0.254036 0.284318 0.026208
O O12 0.509708 0.291572 0.971665
O O13 0.000000 0.000000 0.000000
O O14 0.381440 0.805089 0.802695
O O15 0.500000 0.000000 0.500000
O O16 0.000000 0.500000 0.000000
#
# Coordination Sequence:
#
# PCOD9016951 Si02
#       7
#     2   2   2   2   2   2   2
#     4  11  23  47  72 107 149 190 239 308 371 440
#     4  12  24  48  78 103 149 195 248 296 391 431
#     4  10  21  42  70 103 147 184 231 298 369 431
#     4  11  24  41  75 113 143 191 240 313 373 430
#     4  12  24  44  72 112 144 186 253 303 362 434
#     4  12  29  48  74 109 144 198 253 302 362 453
#     4  12  26  50  76 101 153 201 241 304 372 444
#
# _framework density 23.974252
#
# number of rings (size 3 to 8) (size 9 to 14) (size 15 to 20)
#    0.000    0.571    5.714    1.286    2.000    5.143 
#    2.571    0.000    0.000    0.000    0.000    0.000 
#    0.000    0.000    0.000    0.000    0.000    0.000 
#
# Total GULP energy -78101.076996 kJ/mol
# GULP energy per Si atom -5578.648357 kJ/mol
# Density = 2.391969 g / cm^3
# Si number density = 23.974252 Si / 1000 Ang^3
#
#
#
# Elastic Constant Matrix: (Units=GPa)
#
#
# Indices 1 2 3 4 5 6 
#
# 1 72.9340 -2.2228 2.2078 -7.8527 -14.0713 -11.3900
# 2 -2.2228 77.5250 2.1528 -21.0739 8.3272 -0.9273
# 3 2.2078 2.1528 81.4249 -39.7815 2.5350 12.4562
# 4 -7.8527 -21.0739 -39.7815 49.6590 2.6866 -2.6784
# 5 -14.0713 8.3272 2.5350 2.6866 40.0894 -9.1926
# 6 -11.3900 -0.9273 12.4562 -2.6784 -9.1926 41.3771
#
#
#
# Elastic Compliance Matrix: (Units=1/GPa)
#
#
# Indices 1 2 3 4 5 6 
#
# 1 0.016329 0.000443 -0.000505 0.002331 0.006973 0.006357
# 2 0.000443 0.016451 0.005692 0.011787 -0.004759 -0.001517
# 3 -0.000505 0.005692 0.023875 0.021398 -0.005939 -0.007133
# 4 0.002331 0.011787 0.021398 0.042789 -0.006833 -0.004284
# 5 0.006973 -0.004759 -0.005939 -0.006833 0.031545 0.010167
# 6 0.006357 -0.001517 -0.007133 -0.004284 0.010167 0.030013
#
#
# Mechanical properties :
#
#
# Convention : Reuss Voigt Hill
#
# Bulk Modulus (GPa) = 14.72444 26.23996 20.48220
# Shear Modulus (GPa) = 29.00579 41.54151 35.27365
#
# Velocity S-wave (km/s) = 3.48210 4.16715 3.83993
# Velocity P-wave (km/s) = 4.72459 5.84144 5.31244
#
# Compressibility (1/GPa) = 0.06791428
#
# Stress axis : x y z
#
# Youngs Moduli (GPa) = 61.24152 60.78729 41.88464
#
# Poissons Ratio (x) = -0.02693 0.02116
# Poissons Ratio (y) = -0.02713 -0.23840
# Poissons Ratio (z) = 0.03093 -0.34600
#
# Static dielectric constant tensor:
#      x y z
#    x 2.818110 -0.345370 -0.189340 
#    y -0.345370 2.232410 0.046420 
#    z -0.189340 0.046420 2.075580 
# 
# From -- ./inp_files/279318.got.cif
#   From: 2010.05.17/outbox.cif.g08.bks.cpg/sg2_140_cif.got.tgz:279318.got - 2010.06.03 11:33:40.
