data_PCOD9016283
_publ_section_title
;
Structure prediction by ZEFSAII (Michael W. Deem and Ramdas Pophale) SiO2 
 PCOD9016283
Probable space group: P -1
;
_chemical_formula_sum "Si O2"
_cell_formula_units_Z 16
_cell_length_a 9.729530
_cell_length_b 8.832930
_cell_length_c 12.283145
_cell_angle_alpha 54.572171
_cell_angle_beta 45.830646
_cell_angle_gamma 68.417951
_cell_volume 615.805980
_symmetry_space_group_name_H-M "P -1"
_symmetry_group_IT_number 2
_symmetry_cell_setting 'triclinic'
loop_
_space_group_symop_operation_xyz
x,y,z
-x,-y,-z
loop_
_atom_site_type_symbol
_atom_site_label
_atom_site_fract_x
_atom_site_fract_y
_atom_site_fract_z
Si Si1 0.144174 0.996371 0.075318
Si Si2 0.524408 0.786954 0.124920
Si Si3 0.753438 0.791573 0.651062
Si Si4 0.638480 0.204023 0.548357
Si Si5 0.015112 0.545872 0.743432
Si Si6 0.291324 0.974466 0.761294
Si Si7 0.603780 0.413409 0.119880
Si Si8 0.048039 0.319096 0.613147
O O1 0.142807 0.819608 0.228918
O O2 0.245027 0.948915 0.926951
O O3 0.917344 0.004086 0.181506
O O4 0.246691 0.181502 0.986685
O O5 0.420229 0.751793 0.313171
O O6 0.513938 0.594713 0.144707
O O7 0.500000 0.000000 0.000000
O O8 0.928832 0.711561 0.651525
O O9 0.559842 0.669549 0.840590
O O10 0.787640 0.759879 0.517524
O O11 0.733293 0.006647 0.589633
O O12 0.789710 0.361398 0.352423
O O13 0.448784 0.146761 0.606312
O O14 0.074487 0.384080 0.695724
O O15 0.825647 0.468682 0.943410
O O16 0.370787 0.785463 0.750856
O O17 0.000000 0.500000 0.500000
#
# Coordination Sequence:
#
# PCOD9016283 Si02
#       8
#     2   2   2   2   2   2   2   2
#     4  10  21  42  67  91 125 172 210 259 307 378
#     4  11  25  36  64  94 131 159 213 262 323 367
#     4  10  22  36  60  87 131 163 205 255 321 380
#     4  10  22  40  58  92 124 165 209 265 306 370
#     4  11  21  35  61  89 129 160 207 261 315 371
#     4   9  21  44  67  86 125 173 220 247 308 374
#     4  11  22  39  61  93 124 171 211 254 312 381
#     4  10  22  36  63  94 126 161 207 258 322 373
#
# _framework density 25.982209999999998
#
# number of rings (size 3 to 8) (size 9 to 14) (size 15 to 20)
#    0.000    1.750    1.250    2.250    8.750    0.500 
#    0.000    3.125    2.750    0.000    0.000    0.000 
#    0.000    0.000    0.000    0.000    0.000    0.000 
#
# Total GULP energy -89351.900636 kJ/mol
# GULP energy per Si atom -5584.493790 kJ/mol
# Density = 2.592307 g / cm^3
# Si number density = 25.982210 Si / 1000 Ang^3
#
#
#
# Elastic Constant Matrix: (Units=GPa)
#
#
# Indices 1 2 3 4 5 6 
#
# 1 44.1439 24.3342 22.5051 4.8825 -29.5588 6.9129
# 2 24.3342 145.2834 26.6696 -1.0231 -17.6984 4.5978
# 3 22.5051 26.6696 146.1064 0.8004 -37.0046 17.8462
# 4 4.8825 -1.0231 0.8004 37.6390 10.9287 -13.2404
# 5 -29.5588 -17.6984 -37.0046 10.9287 47.3244 -0.5078
# 6 6.9129 4.5978 17.8462 -13.2404 -0.5078 25.6144
#
#
#
# Elastic Compliance Matrix: (Units=1/GPa)
#
#
# Indices 1 2 3 4 5 6 
#
# 1 0.077927 -0.005899 0.012756 -0.048526 0.067083 -0.052614
# 2 -0.005899 0.007774 -0.001467 0.002622 -0.002502 0.002524
# 3 0.012756 -0.001467 0.012817 -0.014761 0.020642 -0.019330
# 4 -0.048526 0.002622 -0.014761 0.070029 -0.056420 0.057990
# 5 0.067083 -0.002502 0.020642 -0.056420 0.090628 -0.059405
# 6 -0.052614 0.002524 -0.019330 0.057990 -0.059405 0.095053
#
#
# Mechanical properties :
#
#
# Convention : Reuss Voigt Hill
#
# Bulk Modulus (GPa) = 9.14920 53.61684 31.38302
# Shear Modulus (GPa) = 13.16204 39.58385 26.37295
#
# Velocity S-wave (km/s) = 2.25317 3.90744 3.18942
# Velocity P-wave (km/s) = 3.20905 6.40611 5.06637
#
# Compressibility (1/GPa) = 0.10929914
#
# Stress axis : x y z
#
# Youngs Moduli (GPa) = 12.83255 128.63221 78.01935
#
# Poissons Ratio (x) = 0.75874 -0.99521
# Poissons Ratio (y) = 0.07569 0.11445
# Poissons Ratio (z) = -0.16369 0.18870
#
# Static dielectric constant tensor:
#      x y z
#    x 2.245690 -0.091590 0.076520 
#    y -0.091590 2.026040 -0.038370 
#    z 0.076520 -0.038370 2.106900 
# 
# From -- ./inp_files/208623.got.cif
#   From: 2010.05.17/outbox.cif.g08.bks.cpg/sg2_105_cif.got.tgz:208623.got - 2010.06.03 11:33:40.
