data_PCOD9016930
_publ_section_title
;
Structure prediction by ZEFSAII (Michael W. Deem and Ramdas Pophale) SiO2 
 PCOD9016930
Probable space group: P -1
;
_chemical_formula_sum "Si O2"
_cell_formula_units_Z 16
_cell_length_a 10.679254
_cell_length_b 16.917937
_cell_length_c 9.113536
_cell_angle_alpha 141.302424
_cell_angle_beta 79.361961
_cell_angle_gamma 127.757663
_cell_volume 655.133604
_symmetry_space_group_name_H-M "P -1"
_symmetry_group_IT_number 2
_symmetry_cell_setting 'triclinic'
loop_
_space_group_symop_operation_xyz
x,y,z
-x,-y,-z
loop_
_atom_site_type_symbol
_atom_site_label
_atom_site_fract_x
_atom_site_fract_y
_atom_site_fract_z
Si Si1 0.065441 0.869818 0.242874
Si Si2 0.322741 0.111232 0.819200
Si Si3 0.325948 0.471394 0.021430
Si Si4 0.770821 0.503213 0.227383
Si Si5 0.205677 0.224132 0.245265
Si Si6 0.141322 0.637999 0.802927
Si Si7 0.664826 0.826013 0.608185
Si Si8 0.433106 0.049420 0.963212
O O1 0.172140 0.986753 0.539515
O O2 0.153769 0.029771 0.332467
O O3 0.130434 0.777374 0.047459
O O4 0.832950 0.694337 0.065864
O O5 0.310677 0.977022 0.732885
O O6 0.540995 0.290363 0.966502
O O7 0.289796 0.212186 0.071542
O O8 0.458223 0.685858 0.366839
O O9 0.500000 0.500000 0.000000
O O10 0.204885 0.421102 0.830766
O O11 0.810900 0.637952 0.541784
O O12 0.894654 0.474793 0.208878
O O13 0.341773 0.300317 0.468875
O O14 0.000000 0.000000 0.000000
O O15 0.000000 0.500000 0.500000
O O16 0.353772 0.756099 0.867405
O O17 0.685315 0.947935 0.901365
O O18 0.500000 0.000000 0.000000
#
# Coordination Sequence:
#
# PCOD9016930 Si02
#       8
#     2   2   2   2   2   2   2   2
#     4  12  26  46  76 109 145 198 245 296 374 439
#     4  10  24  42  69 107 140 192 244 301 367 433
#     4  12  26  46  69 108 150 189 244 304 369 424
#     4  11  24  46  71 103 149 190 242 308 361 435
#     4  11  24  43  69 102 141 190 242 295 366 431
#     4  11  26  45  73 109 145 193 246 298 366 443
#     4  11  24  45  71 107 143 189 239 306 357 430
#     4  10  21  42  70 100 142 187 235 296 358 431
#
# _framework density 24.422498999999998
#
# number of rings (size 3 to 8) (size 9 to 14) (size 15 to 20)
#    0.000    1.000    3.750    1.875    1.750    6.000 
#    0.000    0.000    0.000    0.000    0.000    0.000 
#    0.000    0.000    0.000    0.000    0.000    0.000 
#
# Total GULP energy -89319.835033 kJ/mol
# GULP energy per Si atom -5582.489690 kJ/mol
# Density = 2.436691 g / cm^3
# Si number density = 24.422499 Si / 1000 Ang^3
#
#
#
# Elastic Constant Matrix: (Units=GPa)
#
#
# Indices 1 2 3 4 5 6 
#
# 1 67.8308 21.2346 11.8383 -7.9414 5.5906 -12.0520
# 2 21.2346 119.6266 29.6343 -6.2690 11.7449 5.9220
# 3 11.8383 29.6343 82.4472 -12.9958 12.4407 -0.9294
# 4 -7.9414 -6.2690 -12.9958 37.9129 -1.9009 11.2921
# 5 5.5906 11.7449 12.4407 -1.9009 29.3831 14.4290
# 6 -12.0520 5.9220 -0.9294 11.2921 14.4290 33.2899
#
#
#
# Elastic Compliance Matrix: (Units=1/GPa)
#
#
# Indices 1 2 3 4 5 6 
#
# 1 0.018113 -0.002936 -0.000387 -0.000237 -0.007159 0.010252
# 2 -0.002936 0.009857 -0.002920 0.000842 -0.000670 -0.002894
# 3 -0.000387 -0.002920 0.014690 0.003562 -0.005771 0.002083
# 4 -0.000237 0.000842 0.003562 0.032296 0.007287 -0.014250
# 5 -0.007159 -0.000670 -0.005771 0.007287 0.052194 -0.027728
# 6 0.010252 -0.002894 0.002083 -0.014250 -0.027728 0.051176
#
#
# Mechanical properties :
#
#
# Convention : Reuss Voigt Hill
#
# Bulk Modulus (GPa) = 33.14214 43.92431 38.53323
# Shear Modulus (GPa) = 24.89157 33.93034 29.41096
#
# Velocity S-wave (km/s) = 3.19597 3.73138 3.47400
# Velocity P-wave (km/s) = 5.21716 6.04885 5.64833
#
# Compressibility (1/GPa) = 0.03017307
#
# Stress axis : x y z
#
# Youngs Moduli (GPa) = 55.20820 101.44972 68.07408
#
# Poissons Ratio (x) = 0.29791 0.02634
# Poissons Ratio (y) = 0.16212 0.19879
# Poissons Ratio (z) = 0.02136 0.29625
#
# Static dielectric constant tensor:
#      x y z
#    x 2.797280 1.125950 -0.474890 
#    y 1.125950 4.112180 -0.730140 
#    z -0.474890 -0.730140 2.249960 
# 
# From -- ./inp_files/280107.got.cif
#   From: 2010.05.17/outbox.cif.g08.bks.cpg/sg2_141_cif.got.tgz:280107.got - 2010.06.03 11:33:40.
