data_PCOD9016343
_publ_section_title
;
Structure prediction by ZEFSAII (Michael W. Deem and Ramdas Pophale) SiO2 
 PCOD9016343
Probable space group: P -1
;
_chemical_formula_sum "Si O2"
_cell_formula_units_Z 12
_cell_length_a 25.962494
_cell_length_b 14.278208
_cell_length_c 8.762179
_cell_angle_alpha 146.400623
_cell_angle_beta 25.487151
_cell_angle_gamma 160.153076
_cell_volume 471.625033
_symmetry_space_group_name_H-M "P -1"
_symmetry_group_IT_number 2
_symmetry_cell_setting 'triclinic'
loop_
_space_group_symop_operation_xyz
x,y,z
-x,-y,-z
loop_
_atom_site_type_symbol
_atom_site_label
_atom_site_fract_x
_atom_site_fract_y
_atom_site_fract_z
Si Si1 0.753740 0.588605 0.710894
Si Si2 0.365947 0.675628 0.640416
Si Si3 0.792182 0.289607 0.356687
Si Si4 0.232626 0.843556 0.417805
Si Si5 0.554930 0.470785 0.507872
Si Si6 0.910979 0.977630 0.054848
O O1 0.756751 0.497104 0.417666
O O2 0.723624 0.402664 0.657643
O O3 0.579366 0.527201 0.071377
O O4 0.929112 0.893516 0.733751
O O5 0.328663 0.480965 0.595019
O O6 0.604213 0.962006 0.366107
O O7 0.299913 0.776798 0.030559
O O8 0.831992 0.307255 0.453013
O O9 0.000000 0.500000 0.000000
O O10 0.420777 0.164876 0.399485
O O11 0.084067 0.816361 0.708692
O O12 0.686416 0.687864 0.315011
O O13 0.000000 0.000000 0.000000
#
# Coordination Sequence:
#
# PCOD9016343 Si02
#       6
#     2   2   2   2   2   2
#     4  11  23  41  64  95 132 173 217 265 325 395
#     4  11  22  42  71  98 129 176 221 263 321 398
#     4  11  24  41  66 103 137 168 216 276 325 378
#     4  10  22  45  70  94 130 179 219 258 326 406
#     4  10  21  42  67  94 130 177 220 259 322 404
#     4  11  24  43  67  96 130 171 221 279 330 379
#
# _framework density 25.443942
#
# number of rings (size 3 to 8) (size 9 to 14) (size 15 to 20)
#    0.000    1.333    0.000    8.000    0.000    4.000 
#    0.000   10.833    0.000    0.000    0.000    0.000 
#    0.000    0.000    0.000    0.000    0.000    0.000 
#
# Total GULP energy -67139.028524 kJ/mol
# GULP energy per Si atom -5594.919044 kJ/mol
# Density = 2.538603 g / cm^3
# Si number density = 25.443942 Si / 1000 Ang^3
#
#
#
# Elastic Constant Matrix: (Units=GPa)
#
#
# Indices 1 2 3 4 5 6 
#
# 1 218.9142 50.0404 72.6824 36.1298 -10.7970 -4.0792
# 2 50.0404 97.4688 49.4575 2.8716 18.6427 -2.3220
# 3 72.6824 49.4575 114.4061 29.7497 18.4966 -2.0762
# 4 36.1298 2.8716 29.7497 46.7523 -7.8544 -2.9012
# 5 -10.7970 18.6427 18.4966 -7.8544 41.7009 5.8390
# 6 -4.0792 -2.3220 -2.0762 -2.9012 5.8390 56.3736
#
#
#
# Elastic Compliance Matrix: (Units=1/GPa)
#
#
# Indices 1 2 3 4 5 6 
#
# 1 0.006809 -0.002535 -0.003245 -0.002399 0.003920 -0.000261
# 2 -0.002535 0.014878 -0.004977 0.003501 -0.004567 0.000899
# 3 -0.003245 -0.004977 0.016546 -0.008980 -0.007716 0.000507
# 4 -0.002399 0.003501 -0.008980 0.030010 0.007391 0.000419
# 5 0.003920 -0.004567 -0.007716 0.007391 0.032293 -0.003153
# 6 -0.000261 0.000899 0.000507 0.000419 -0.003153 0.018124
#
#
# Mechanical properties :
#
#
# Convention : Reuss Voigt Hill
#
# Bulk Modulus (GPa) = 59.80904 86.12774 72.96839
# Shear Modulus (GPa) = 34.30609 46.20596 40.25602
#
# Velocity S-wave (km/s) = 3.67591 4.26607 3.98193
# Velocity P-wave (km/s) = 6.44776 7.62819 7.06268
#
# Compressibility (1/GPa) = 0.01671988
#
# Stress axis : x y z
#
# Youngs Moduli (GPa) = 146.86176 67.21215 60.43861
#
# Poissons Ratio (x) = 0.17036 0.19611
# Poissons Ratio (y) = 0.37224 0.30082
# Poissons Ratio (z) = 0.47652 0.33453
#
# Static dielectric constant tensor:
#      x y z
#    x 2.046320 0.119530 -0.066450 
#    y 0.119530 2.155210 -0.120870 
#    z -0.066450 -0.120870 2.066090 
# 
# From -- ./inp_files/357215.got.cif
#   From: 2010.05.17/outbox.cif.g08.bks.cpg/sg2_179_cif.got.tgz:357215.got - 2010.06.03 11:33:40.
