data_PCOD9016467
_publ_section_title
;
Structure prediction by ZEFSAII (Michael W. Deem and Ramdas Pophale) SiO2 
 PCOD9016467
Probable space group: P -1
;
_chemical_formula_sum "Si O2"
_cell_formula_units_Z 14
_cell_length_a 17.363041
_cell_length_b 13.970722
_cell_length_c 10.409773
_cell_angle_alpha 42.645848
_cell_angle_beta 43.925963
_cell_angle_gamma 21.925992
_cell_volume 631.583744
_symmetry_space_group_name_H-M "P -1"
_symmetry_group_IT_number 2
_symmetry_cell_setting 'triclinic'
loop_
_space_group_symop_operation_xyz
x,y,z
-x,-y,-z
loop_
_atom_site_type_symbol
_atom_site_label
_atom_site_fract_x
_atom_site_fract_y
_atom_site_fract_z
Si Si1 0.539752 0.856741 0.475763
Si Si2 0.493385 0.592167 0.782456
Si Si3 0.885273 0.064439 0.699946
Si Si4 0.715843 0.960705 0.887300
Si Si5 0.143052 0.779729 0.932333
Si Si6 0.292605 0.329893 0.126382
Si Si7 0.034296 0.516473 0.759179
O O1 0.444149 0.806220 0.660001
O O2 0.790283 0.585911 0.425562
O O3 0.500000 0.000000 0.500000
O O4 0.415913 0.069398 0.301862
O O5 0.708884 0.356769 0.679051
O O6 0.330231 0.688568 0.793540
O O7 0.500000 0.500000 0.000000
O O8 0.771732 0.041097 0.819132
O O9 0.000000 0.000000 0.500000
O O10 0.034593 0.882404 0.822862
O O11 0.848855 0.814757 0.741023
O O12 0.823170 0.713704 0.076760
O O13 0.466860 0.204477 0.941349
O O14 0.232473 0.525101 0.099466
O O15 0.000000 0.000000 0.000000
O O16 0.085027 0.483309 0.167689
#
# Coordination Sequence:
#
# PCOD9016467 Si02
#       7
#     2   2   2   2   2   2   2
#     4  11  27  42  68 104 139 180 239 300 351 418
#     4  12  26  49  74 102 148 193 242 300 362 439
#     4  12  26  45  73 106 149 189 245 299 361 430
#     4  10  21  42  68 100 138 186 226 290 357 426
#     4  12  26  45  78 105 141 199 243 288 369 432
#     4  11  23  45  73 103 137 185 241 293 355 433
#     4  10  22  42  69  99 140 179 232 288 363 419
#
# _framework density 22.166499000000002
#
# number of rings (size 3 to 8) (size 9 to 14) (size 15 to 20)
#    0.000    0.857    4.286    2.143    4.000    3.429 
#    2.571    0.000    0.000    0.000    0.000    0.000 
#    0.000    0.000    0.000    0.000    0.000    0.000 
#
# Total GULP energy -78184.747360 kJ/mol
# GULP energy per Si atom -5584.624811 kJ/mol
# Density = 2.211605 g / cm^3
# Si number density = 22.166499 Si / 1000 Ang^3
#
#
#
# Elastic Constant Matrix: (Units=GPa)
#
#
# Indices 1 2 3 4 5 6 
#
# 1 108.5563 26.1265 35.1855 0.2192 -30.2147 6.2112
# 2 26.1265 92.0113 35.1180 10.2558 -8.6769 9.0346
# 3 35.1855 35.1180 76.9424 4.2465 -11.8351 5.4371
# 4 0.2192 10.2558 4.2465 25.8816 11.1433 -7.3987
# 5 -30.2147 -8.6769 -11.8351 11.1433 39.3225 1.9787
# 6 6.2112 9.0346 5.4371 -7.3987 1.9787 46.2633
#
#
#
# Elastic Compliance Matrix: (Units=1/GPa)
#
#
# Indices 1 2 3 4 5 6 
#
# 1 0.013752 -0.000665 -0.003932 -0.004477 0.010627 -0.002425
# 2 -0.000665 0.014498 -0.005141 -0.007347 0.003397 -0.003458
# 3 -0.003932 -0.005141 0.017562 -0.001790 0.001682 -0.000890
# 4 -0.004477 -0.007347 -0.001790 0.054617 -0.021676 0.011908
# 5 0.010627 0.003397 0.001682 -0.021676 0.041373 -0.007524
# 6 -0.002425 -0.003458 -0.000890 0.011908 -0.007524 0.024947
#
#
# Mechanical properties :
#
#
# Convention : Reuss Voigt Hill
#
# Bulk Modulus (GPa) = 37.97095 52.26333 45.11714
# Shear Modulus (GPa) = 25.64058 34.36548 30.00303
#
# Velocity S-wave (km/s) = 3.40476 3.94170 3.68303
# Velocity P-wave (km/s) = 5.71170 6.65919 6.20356
#
# Compressibility (1/GPa) = 0.02633593
#
# Stress axis : x y z
#
# Youngs Moduli (GPa) = 72.71671 68.97567 56.94235
#
# Poissons Ratio (x) = 0.04586 0.22391
# Poissons Ratio (y) = 0.04834 0.29272
# Poissons Ratio (z) = 0.28594 0.35458
#
# Static dielectric constant tensor:
#      x y z
#    x 1.836490 -0.049540 0.081540 
#    y -0.049540 1.958940 -0.057240 
#    z 0.081540 -0.057240 1.924310 
# 
# From -- ./inp_files/465775.got.cif
#   From: 2010.05.17/outbox.cif.g08.bks.cpg/sg2_233_cif.got.tgz:465775.got - 2010.06.03 11:33:40.
