data_PCOD9016410
_publ_section_title
;
Structure prediction by ZEFSAII (Michael W. Deem and Ramdas Pophale) SiO2 
 PCOD9016410
Probable space group: P -1
;
_chemical_formula_sum "Si O2"
_cell_formula_units_Z 16
_cell_length_a 13.579809
_cell_length_b 8.562278
_cell_length_c 8.474173
_cell_angle_alpha 124.051950
_cell_angle_beta 93.179784
_cell_angle_gamma 104.946990
_cell_volume 763.763620
_symmetry_space_group_name_H-M "P -1"
_symmetry_group_IT_number 2
_symmetry_cell_setting 'triclinic'
loop_
_space_group_symop_operation_xyz
x,y,z
-x,-y,-z
loop_
_atom_site_type_symbol
_atom_site_label
_atom_site_fract_x
_atom_site_fract_y
_atom_site_fract_z
Si Si1 0.030422 0.736950 0.154681
Si Si2 0.911907 0.664349 0.415214
Si Si3 0.594771 0.565527 0.918772
Si Si4 0.462256 0.174307 0.528002
Si Si5 0.411958 0.075997 0.104087
Si Si6 0.182099 0.800315 0.954587
Si Si7 0.918730 0.027509 0.213371
Si Si8 0.253906 0.199853 0.692923
O O1 0.998617 0.763185 0.343160
O O2 0.960853 0.841556 0.111856
O O3 0.000000 0.500000 0.000000
O O4 0.147133 0.815383 0.140042
O O5 0.870324 0.424269 0.250043
O O6 0.813988 0.734526 0.406273
O O7 0.978842 0.771651 0.632807
O O8 0.559236 0.377925 0.692213
O O9 0.601049 0.759094 0.924975
O O10 0.500000 0.500000 0.000000
O O11 0.698188 0.624351 0.070934
O O12 0.440730 0.158326 0.330365
O O13 0.354493 0.165484 0.603865
O O14 0.500000 0.000000 0.500000
O O15 0.500000 0.000000 0.000000
O O16 0.305686 0.884459 0.996481
O O17 0.136368 0.943242 0.932716
O O18 0.827824 0.978727 0.312936
#
# Coordination Sequence:
#
# PCOD9016410 Si02
#       8
#     2   2   2   2   2   2   2   2
#     4   9  20  40  62  94 126 172 215 263 318 393
#     4  10  23  39  68  94 133 173 216 270 324 401
#     4  10  22  45  69  92 134 168 223 275 337 395
#     4  11  26  43  70  99 131 173 227 278 338 404
#     4  12  26  44  69  98 135 173 225 282 333 400
#     4  11  24  40  66  96 133 174 215 269 341 385
#     4  11  21  41  65  95 137 166 219 270 328 391
#     4  10  21  42  67  97 131 177 217 271 339 392
#
# _framework density 20.948889999999999
#
# number of rings (size 3 to 8) (size 9 to 14) (size 15 to 20)
#    0.000    1.500    1.250    4.125    8.750    0.000 
#    0.000    0.000    0.000    0.000    0.000    0.000 
#    0.000    0.000    0.000    0.000    0.000    0.000 
#
# Total GULP energy -89256.790131 kJ/mol
# GULP energy per Si atom -5578.549383 kJ/mol
# Density = 2.090121 g / cm^3
# Si number density = 20.948890 Si / 1000 Ang^3
#
#
#
# Elastic Constant Matrix: (Units=GPa)
#
#
# Indices 1 2 3 4 5 6 
#
# 1 129.0079 26.5002 41.2624 6.9652 1.7464 21.1913
# 2 26.5002 65.0225 13.5939 7.9665 -4.9040 12.5986
# 3 41.2624 13.5939 92.8023 7.8840 18.8626 7.2886
# 4 6.9652 7.9665 7.8840 32.6689 1.6530 0.0854
# 5 1.7464 -4.9040 18.8626 1.6530 40.6485 3.5704
# 6 21.1913 12.5986 7.2886 0.0854 3.5704 28.2836
#
#
#
# Elastic Compliance Matrix: (Units=1/GPa)
#
#
# Indices 1 2 3 4 5 6 
#
# 1 0.010537 -0.001981 -0.004215 -0.000823 0.001839 -0.006156
# 2 -0.001981 0.018658 -0.001782 -0.003878 0.003922 -0.006851
# 3 -0.004215 -0.001782 0.014340 -0.001791 -0.006713 0.001109
# 4 -0.000823 -0.003878 -0.001791 0.032215 -0.001162 0.002855
# 5 0.001839 0.003922 -0.006713 -0.001162 0.028597 -0.005001
# 6 -0.006156 -0.006851 0.001109 0.002855 -0.005001 0.043357
#
#
# Mechanical properties :
#
#
# Convention : Reuss Voigt Hill
#
# Bulk Modulus (GPa) = 36.25979 49.94954 43.10466
# Shear Modulus (GPa) = 28.92623 34.01862 31.47243
#
# Velocity S-wave (km/s) = 3.71994 4.03412 3.88021
# Velocity P-wave (km/s) = 5.98305 6.75234 6.37930
#
# Compressibility (1/GPa) = 0.02757876
#
# Stress axis : x y z
#
# Youngs Moduli (GPa) = 94.90015 53.59765 69.73350
#
# Poissons Ratio (x) = 0.10618 0.29395
# Poissons Ratio (y) = 0.18800 0.12426
# Poissons Ratio (z) = 0.40003 0.09551
#
# Static dielectric constant tensor:
#      x y z
#    x 1.742730 0.049050 -0.017070 
#    y 0.049050 1.823700 -0.027710 
#    z -0.017070 -0.027710 1.819540 
# 
# From -- ./inp_files/296842.got.cif
#   From: 2010.05.17/outbox.cif.g08.bks.cpg/sg2_149_cif.got.tgz:296842.got - 2010.06.03 11:33:40.
