data_PCOD9016379
_publ_section_title
;
Structure prediction by ZEFSAII (Michael W. Deem and Ramdas Pophale) SiO2 
 PCOD9016379
Probable space group: P -1
;
_chemical_formula_sum "Si O2"
_cell_formula_units_Z 14
_cell_length_a 11.905716
_cell_length_b 16.834163
_cell_length_c 5.327933
_cell_angle_alpha 53.808801
_cell_angle_beta 115.585820
_cell_angle_gamma 136.598518
_cell_volume 592.140840
_symmetry_space_group_name_H-M "P -1"
_symmetry_group_IT_number 2
_symmetry_cell_setting 'triclinic'
loop_
_space_group_symop_operation_xyz
x,y,z
-x,-y,-z
loop_
_atom_site_type_symbol
_atom_site_label
_atom_site_fract_x
_atom_site_fract_y
_atom_site_fract_z
Si Si1 0.253063 0.534290 0.141603
Si Si2 0.446884 0.584212 0.736593
Si Si3 0.089168 0.956502 0.389865
Si Si4 0.805880 0.798766 0.797700
Si Si5 0.611729 0.001171 0.301079
Si Si6 0.706782 0.223854 0.355769
Si Si7 0.998321 0.736960 0.353435
O O1 0.377978 0.568216 0.422359
O O2 0.096279 0.385015 0.320893
O O3 0.323650 0.552483 0.897766
O O4 0.230035 0.640028 0.940294
O O5 0.621687 0.724314 0.681873
O O6 0.500000 0.500000 0.000000
O O7 0.922478 0.876875 0.529296
O O8 0.071995 0.871190 0.308002
O O9 0.149985 0.098046 0.139641
O O10 0.229884 0.979268 0.659391
O O11 0.858735 0.715485 0.086762
O O12 0.476844 0.859395 0.559238
O O13 0.676626 0.122511 0.313566
O O14 0.500000 0.000000 0.000000
O O15 0.848907 0.249724 0.623259
#
# Coordination Sequence:
#
# PCOD9016379 Si02
#       7
#     2   2   2   2   2   2   2
#     4  12  27  46  73 103 142 183 236 280 348 412
#     4  12  26  47  72 103 141 189 226 290 339 416
#     4  10  23  40  63 100 129 182 228 288 347 408
#     4  11  23  40  67  98 135 177 233 283 348 411
#     4  10  21  42  67  95 139 176 231 288 343 413
#     4  10  24  42  67 102 130 185 229 288 346 411
#     4  11  23  44  65  95 140 177 231 285 348 407
#
# _framework density 23.643021999999998
#
# number of rings (size 3 to 8) (size 9 to 14) (size 15 to 20)
#    0.000    1.143    1.429    3.857    6.000    0.000 
#    5.143    1.429    0.000    0.000    0.000    0.000 
#    0.000    0.000    0.000    0.000    0.000    0.000 
#
# Total GULP energy -78151.444397 kJ/mol
# GULP energy per Si atom -5582.246028 kJ/mol
# Density = 2.358921 g / cm^3
# Si number density = 23.643022 Si / 1000 Ang^3
#
#
#
# Elastic Constant Matrix: (Units=GPa)
#
#
# Indices 1 2 3 4 5 6 
#
# 1 74.5505 23.5095 5.0090 -4.8049 9.9525 11.0725
# 2 23.5095 63.1910 0.2687 -4.8870 16.1037 -3.0202
# 3 5.0090 0.2687 67.4498 0.4313 29.6907 -10.3572
# 4 -4.8049 -4.8870 0.4313 37.3498 -1.3590 7.7203
# 5 9.9525 16.1037 29.6907 -1.3590 40.6655 -2.4309
# 6 11.0725 -3.0202 -10.3572 7.7203 -2.4309 21.9670
#
#
#
# Elastic Compliance Matrix: (Units=1/GPa)
#
#
# Indices 1 2 3 4 5 6 
#
# 1 0.018067 -0.007085 -0.003484 0.004167 0.000280 -0.013157
# 2 -0.007085 0.021685 0.006715 -0.000337 -0.011254 0.008592
# 3 -0.003484 0.006715 0.026091 -0.003493 -0.020137 0.013980
# 4 0.004167 -0.000337 -0.003493 0.030318 0.001826 -0.014247
# 5 0.000280 -0.011254 -0.020137 0.001826 0.043322 -0.007030
# 6 -0.013157 0.008592 0.013980 -0.014247 -0.007030 0.064157
#
#
# Mechanical properties :
#
#
# Convention : Reuss Voigt Hill
#
# Bulk Modulus (GPa) = 17.20118 29.19619 23.19868
# Shear Modulus (GPa) = 21.67078 31.75672 26.71375
#
# Velocity S-wave (km/s) = 3.03080 3.66891 3.36501
# Velocity P-wave (km/s) = 4.42027 5.50667 4.99311
#
# Compressibility (1/GPa) = 0.05813555
#
# Stress axis : x y z
#
# Youngs Moduli (GPa) = 55.34843 46.11519 38.32745
#
# Poissons Ratio (x) = 0.32672 0.13353
# Poissons Ratio (y) = 0.39214 -0.25737
# Poissons Ratio (z) = 0.19282 -0.30966
#
# Static dielectric constant tensor:
#      x y z
#    x 1.894940 0.038090 0.005720 
#    y 0.038090 2.013870 0.014070 
#    z 0.005720 0.014070 1.960120 
# 
# From -- ./inp_files/66567.got.cif
#   From: 2010.05.17/outbox.cif.g08.bks.cpg/sg2_34_cif.got.tgz:66567.got - 2010.06.03 11:33:40.
