data_PCOD9016027
_publ_section_title
;
Structure prediction by ZEFSAII (Michael W. Deem and Ramdas Pophale) SiO2 
 PCOD9016027
Probable space group: P -1
;
_chemical_formula_sum "Si O2"
_cell_formula_units_Z 16
_cell_length_a 14.784959
_cell_length_b 8.356537
_cell_length_c 15.825093
_cell_angle_alpha 70.226915
_cell_angle_beta 25.732365
_cell_angle_gamma 60.629744
_cell_volume 711.553193
_symmetry_space_group_name_H-M "P -1"
_symmetry_group_IT_number 2
_symmetry_cell_setting 'triclinic'
loop_
_space_group_symop_operation_xyz
x,y,z
-x,-y,-z
loop_
_atom_site_type_symbol
_atom_site_label
_atom_site_fract_x
_atom_site_fract_y
_atom_site_fract_z
Si Si1 0.941339 0.361113 0.313078
Si Si2 0.466481 0.641829 0.425536
Si Si3 0.647841 0.718770 0.612589
Si Si4 0.885307 0.323193 0.700138
Si Si5 0.117613 0.142077 0.369613
Si Si6 0.358922 0.074871 0.691461
Si Si7 0.469016 0.255579 0.102529
Si Si8 0.083734 0.555686 0.008225
O O1 0.795296 0.273080 0.402149
O O2 0.755498 0.540822 0.491066
O O3 0.097320 0.217778 0.278602
O O4 0.050766 0.443161 0.135565
O O5 0.500000 0.500000 0.500000
O O6 0.536709 0.799858 0.370868
O O7 0.645232 0.517017 0.224388
O O8 0.560702 0.695679 0.782022
O O9 0.876006 0.753910 0.433660
O O10 0.429279 0.891305 0.722374
O O11 0.713815 0.545871 0.824183
O O12 0.965155 0.302095 0.539003
O O13 0.726796 0.215713 0.865875
O O14 0.379601 0.097198 0.187228
O O15 0.000000 0.000000 0.500000
O O16 0.087895 0.219794 0.877170
O O17 0.500000 0.000000 0.500000
O O18 0.000000 0.500000 0.000000
#
# Coordination Sequence:
#
# PCOD9016027 Si02
#       8
#     2   2   2   2   2   2   2   2
#     4  12  22  41  69  92 129 179 218 271 339 401
#     4  11  23  43  67  92 133 177 219 273 341 399
#     4  11  21  41  63  97 130 170 221 277 334 389
#     4  10  21  42  67  89 131 172 222 275 331 395
#     4  11  24  41  63  97 134 173 218 274 330 398
#     4  11  22  42  66  95 132 168 223 283 321 398
#     4  10  21  42  66  91 131 173 221 273 330 400
#     4  10  22  44  65  90 130 174 217 270 337 393
#
# _framework density 22.486021000000001
#
# number of rings (size 3 to 8) (size 9 to 14) (size 15 to 20)
#    0.000    1.250    6.250    0.750    3.500    2.500 
#    6.750    1.250    0.000    0.000    0.000    0.000 
#    0.000    0.000    0.000    0.000    0.000    0.000 
#
# Total GULP energy -89342.887146 kJ/mol
# GULP energy per Si atom -5583.930447 kJ/mol
# Density = 2.243484 g / cm^3
# Si number density = 22.486021 Si / 1000 Ang^3
#
#
#
# Elastic Constant Matrix: (Units=GPa)
#
#
# Indices 1 2 3 4 5 6 
#
# 1 76.6620 8.9097 34.7901 -13.8033 12.1842 -1.1470
# 2 8.9097 61.7751 16.3265 1.2418 7.1326 -0.7086
# 3 34.7901 16.3265 130.9920 -10.6229 6.4196 -6.1192
# 4 -13.8033 1.2418 -10.6229 35.3319 3.1540 3.1179
# 5 12.1842 7.1326 6.4196 3.1540 35.0794 -11.1336
# 6 -1.1470 -0.7086 -6.1192 3.1179 -11.1336 31.0238
#
#
#
# Elastic Compliance Matrix: (Units=1/GPa)
#
#
# Indices 1 2 3 4 5 6 
#
# 1 0.016988 -0.000872 -0.003705 0.006422 -0.006621 -0.003144
# 2 -0.000872 0.017180 -0.001900 -0.001155 -0.003054 -0.000995
# 3 -0.003705 -0.001900 0.009002 0.001142 0.000443 0.001640
# 4 0.006422 -0.001155 0.001142 0.032262 -0.006767 -0.005234
# 5 -0.006621 -0.003054 0.000443 -0.006767 0.036224 0.013453
# 6 -0.003144 -0.000995 0.001640 -0.005234 0.013453 0.037772
#
#
# Mechanical properties :
#
#
# Convention : Reuss Voigt Hill
#
# Bulk Modulus (GPa) = 33.09378 43.27575 38.18476
# Shear Modulus (GPa) = 28.99308 34.24721 31.62014
#
# Velocity S-wave (km/s) = 3.59469 3.90685 3.75402
# Velocity P-wave (km/s) = 5.65496 6.29593 5.98403
#
# Compressibility (1/GPa) = 0.03021716
#
# Stress axis : x y z
#
# Youngs Moduli (GPa) = 58.86356 58.20663 111.08244
#
# Poissons Ratio (x) = 0.05074 0.41155
# Poissons Ratio (y) = 0.05132 0.21108
# Poissons Ratio (z) = 0.21808 0.11060
#
# Static dielectric constant tensor:
#      x y z
#    x 1.879750 -0.013670 -0.040380 
#    y -0.013670 1.893230 0.023740 
#    z -0.040380 0.023740 1.819110 
# 
# From -- ./inp_files/529509.got.cif
#   From: 2010.05.17/outbox.cif.g08.bks.cpg/sg2_265_cif.got.tgz:529509.got - 2010.06.03 11:33:40.
