data_PCOD9016982
_publ_section_title
;
Structure prediction by ZEFSAII (Michael W. Deem and Ramdas Pophale) SiO2 
 PCOD9016982
Probable space group: P -1
;
_chemical_formula_sum "Si O2"
_cell_formula_units_Z 14
_cell_length_a 9.225321
_cell_length_b 9.120314
_cell_length_c 9.298297
_cell_angle_alpha 79.178935
_cell_angle_beta 131.715984
_cell_angle_gamma 106.652539
_cell_volume 559.481865
_symmetry_space_group_name_H-M "P -1"
_symmetry_group_IT_number 2
_symmetry_cell_setting 'triclinic'
loop_
_space_group_symop_operation_xyz
x,y,z
-x,-y,-z
loop_
_atom_site_type_symbol
_atom_site_label
_atom_site_fract_x
_atom_site_fract_y
_atom_site_fract_z
Si Si1 0.695159 0.776722 0.412220
Si Si2 0.306288 0.412761 0.978576
Si Si3 0.109887 0.086572 0.765229
Si Si4 0.039824 0.604936 0.645774
Si Si5 0.601307 0.072754 0.905816
Si Si6 0.533632 0.649178 0.596983
Si Si7 0.702904 0.162347 0.426494
O O1 0.816908 0.899454 0.356177
O O2 0.661862 0.782406 0.558824
O O3 0.832384 0.653281 0.521606
O O4 0.471115 0.770615 0.202835
O O5 0.365298 0.386941 0.183850
O O6 0.500000 0.500000 0.000000
O O7 0.227554 0.247114 0.882882
O O8 0.136556 0.510626 0.840850
O O9 0.880898 0.092612 0.617648
O O10 0.175094 0.946962 0.916599
O O11 0.208013 0.749300 0.676897
O O12 0.000000 0.500000 0.500000
O O13 0.493476 0.961230 0.727367
O O14 0.500000 0.000000 0.000000
O O15 0.500000 0.500000 0.500000
O O16 0.347860 0.715275 0.517822
#
# Coordination Sequence:
#
# PCOD9016982 Si02
#       7
#     2   2   2   2   2   2   2
#     4  10  23  39  64  94 134 165 215 281 326 377
#     4  12  21  38  68  93 129 176 219 260 325 402
#     4  10  21  42  70  93 124 177 231 263 319 395
#     4  11  20  39  68  95 127 170 227 270 328 397
#     4  10  22  43  69  95 129 173 234 270 322 390
#     4  12  25  40  62  99 139 171 212 274 347 387
#     4  11  22  41  68  95 131 177 220 270 329 391
#
# _framework density 25.023152
#
# number of rings (size 3 to 8) (size 9 to 14) (size 15 to 20)
#    0.000    1.143    5.714    1.714    0.000    7.429 
#    0.000    0.714    0.000    0.000    0.000    0.000 
#    0.000    0.000    0.000    0.000    0.000    0.000 
#
# Total GULP energy -78202.281769 kJ/mol
# GULP energy per Si atom -5585.877269 kJ/mol
# Density = 2.496620 g / cm^3
# Si number density = 25.023152 Si / 1000 Ang^3
#
#
#
# Elastic Constant Matrix: (Units=GPa)
#
#
# Indices 1 2 3 4 5 6 
#
# 1 119.2625 51.7370 89.4041 -28.0875 7.8105 -29.7761
# 2 51.7370 104.9959 65.5234 -7.8506 5.0810 -12.1843
# 3 89.4041 65.5234 208.1028 -46.3162 14.7107 -20.2364
# 4 -28.0875 -7.8506 -46.3162 66.1688 -22.7598 12.7398
# 5 7.8105 5.0810 14.7107 -22.7598 48.7270 -15.8020
# 6 -29.7761 -12.1843 -20.2364 12.7398 -15.8020 32.4958
#
#
#
# Elastic Compliance Matrix: (Units=1/GPa)
#
#
# Indices 1 2 3 4 5 6 
#
# 1 0.016951 -0.004134 -0.004500 0.002677 0.004284 0.012213
# 2 -0.004134 0.013207 -0.002890 -0.002553 -0.001088 -0.000164
# 3 -0.004500 -0.002890 0.008360 0.003828 -0.000238 -0.001617
# 4 0.002677 -0.002553 0.003828 0.021690 0.008682 -0.000402
# 5 0.004284 -0.001088 -0.000238 0.008682 0.028571 0.013859
# 6 0.012213 -0.000164 -0.001617 -0.000402 0.013859 0.047793
#
#
# Mechanical properties :
#
#
# Convention : Reuss Voigt Hill
#
# Bulk Modulus (GPa) = 64.63874 93.96559 79.30217
# Shear Modulus (GPa) = 30.34419 44.52476 37.43448
#
# Velocity S-wave (km/s) = 3.48608 4.22280 3.87200
# Velocity P-wave (km/s) = 6.48778 7.83639 7.19376
#
# Compressibility (1/GPa) = 0.01547060
#
# Stress axis : x y z
#
# Youngs Moduli (GPa) = 58.99378 75.71533 119.61662
#
# Poissons Ratio (x) = 0.31302 0.53828
# Poissons Ratio (y) = 0.24389 0.34565
# Poissons Ratio (z) = 0.26548 0.21879
#
# Static dielectric constant tensor:
#      x y z
#    x 2.054180 0.017530 0.123920 
#    y 0.017530 2.196780 0.018880 
#    z 0.123920 0.018880 2.032810 
# 
# From -- ./inp_files/179535.got.cif
#   From: 2010.05.17/outbox.cif.g08.bks.cpg/sg2_90_cif.got.tgz:179535.got - 2010.06.03 11:33:40.
