data_PCOD9016382
_publ_section_title
;
Structure prediction by ZEFSAII (Michael W. Deem and Ramdas Pophale) SiO2 
 PCOD9016382
Probable space group: P -1
;
_chemical_formula_sum "Si O2"
_cell_formula_units_Z 16
_cell_length_a 16.799191
_cell_length_b 11.812202
_cell_length_c 12.778351
_cell_angle_alpha 32.430322
_cell_angle_beta 146.717086
_cell_angle_gamma 129.291547
_cell_volume 723.342274
_symmetry_space_group_name_H-M "P -1"
_symmetry_group_IT_number 2
_symmetry_cell_setting 'triclinic'
loop_
_space_group_symop_operation_xyz
x,y,z
-x,-y,-z
loop_
_atom_site_type_symbol
_atom_site_label
_atom_site_fract_x
_atom_site_fract_y
_atom_site_fract_z
Si Si1 0.003696 0.770541 0.738652
Si Si2 0.279904 0.940722 0.759557
Si Si3 0.687027 0.771302 0.872885
Si Si4 0.607892 0.869935 0.084718
Si Si5 0.194006 0.707597 0.668709
Si Si6 0.079025 0.981432 0.987919
Si Si7 0.456993 0.868755 0.713734
Si Si8 0.849635 0.446492 0.734539
O O1 0.972036 0.592165 0.762810
O O2 0.848597 0.844594 0.577524
O O3 0.000000 0.000000 0.500000
O O4 0.131391 0.671891 0.038985
O O5 0.228397 0.746401 0.797898
O O6 0.308267 0.967043 0.893369
O O7 0.438618 0.935820 0.887927
O O8 0.544702 0.748776 0.802877
O O9 0.624140 0.891902 0.602860
O O10 0.797719 0.540404 0.153630
O O11 0.775012 0.927381 0.905878
O O12 0.694966 0.626685 0.404898
O O13 0.586409 0.874755 0.934357
O O14 0.329198 0.769055 0.702722
O O15 0.038815 0.866030 0.338863
O O16 0.119945 0.738061 0.176368
O O17 0.000000 0.000000 0.000000
#
# Coordination Sequence:
#
# PCOD9016382 Si02
#       8
#     2   2   2   2   2   2   2   2
#     4  10  21  42  67  96 129 170 215 267 331 393
#     4   9  19  40  64  95 124 163 212 267 321 394
#     4  11  25  41  65  95 131 176 225 275 330 397
#     4   9  20  40  70  93 127 167 212 271 332 391
#     4  11  22  44  67  91 132 176 218 280 334 389
#     4  12  25  42  65  97 134 176 227 271 330 394
#     4  10  23  44  65  93 131 171 227 276 335 397
#     4  10  23  42  66  92 130 173 212 271 330 387
#
# _framework density 22.119541000000002
#
# number of rings (size 3 to 8) (size 9 to 14) (size 15 to 20)
#    0.000    1.750    2.500    0.750    1.750    7.000 
#    0.000    1.250    0.000    0.000    0.000    0.000 
#    0.000    0.000    0.000    0.000    0.000    0.000 
#
# Total GULP energy -89252.788402 kJ/mol
# GULP energy per Si atom -5578.299275 kJ/mol
# Density = 2.206920 g / cm^3
# Si number density = 22.119541 Si / 1000 Ang^3
#
#
#
# Elastic Constant Matrix: (Units=GPa)
#
#
# Indices 1 2 3 4 5 6 
#
# 1 33.8973 24.6641 51.0605 -10.0810 -3.8386 9.8874
# 2 24.6641 111.3087 51.4975 -13.1389 -12.6557 -14.3606
# 3 51.0605 51.4975 122.0755 4.5579 -5.3039 -4.9731
# 4 -10.0810 -13.1389 4.5579 45.6509 -6.8359 5.2327
# 5 -3.8386 -12.6557 -5.3039 -6.8359 35.7840 3.2632
# 6 9.8874 -14.3606 -4.9731 5.2327 3.2632 23.1625
#
#
#
# Elastic Compliance Matrix: (Units=1/GPa)
#
#
# Indices 1 2 3 4 5 6 
#
# 1 4.597656 -0.218900 -1.981476 1.596736 0.699137 -2.982962
# 2 -0.218900 0.023539 0.089049 -0.071716 -0.029105 0.147457
# 3 -1.981476 0.089049 0.864442 -0.690805 -0.302107 1.285262
# 4 1.596736 -0.071716 -0.690805 0.579390 0.249085 -1.040362
# 5 0.699137 -0.029105 -0.302107 0.249085 0.137124 -0.456938
# 6 -2.982962 0.147457 1.285262 -1.040362 -0.456938 1.983285
#
#
# Mechanical properties :
#
#
# Convention : Reuss Voigt Hill
#
# Bulk Modulus (GPa) = 0.79178 57.96953 29.38065
# Shear Modulus (GPa) = 0.38974 30.25680 15.32327
#
# Velocity S-wave (km/s) = 0.42021 3.70249 2.63487
# Velocity P-wave (km/s) = 0.77082 6.67400 4.75060
#
# Compressibility (1/GPa) = 1.26298398
#
# Stress axis : x y z
#
# Youngs Moduli (GPa) = 0.21750 42.48267 1.15682
#
# Poissons Ratio (x) = 9.29945 2.29220
# Poissons Ratio (y) = 0.04761 -0.10301
# Poissons Ratio (z) = 0.43098 -3.78305
#
# Static dielectric constant tensor:
#      x y z
#    x 1.875290 -0.004850 0.018510 
#    y -0.004850 1.857170 0.017530 
#    z 0.018510 0.017530 1.786560 
# 
# From -- ./inp_files/541060.got.cif
#   From: 2010.05.17/outbox.cif.g08.bks.cpg/sg2_271_cif.got.tgz:541060.got - 2010.06.03 11:33:40.
