data_PCOD9016076
_publ_section_title
;
Structure prediction by ZEFSAII (Michael W. Deem and Ramdas Pophale) SiO2 
 PCOD9016076
Probable space group: P -1
;
_chemical_formula_sum "Si O2"
_cell_formula_units_Z 16
_cell_length_a 11.238250
_cell_length_b 9.618757
_cell_length_c 9.048835
_cell_angle_alpha 86.921552
_cell_angle_beta 116.671361
_cell_angle_gamma 113.306520
_cell_volume 793.556583
_symmetry_space_group_name_H-M "P -1"
_symmetry_group_IT_number 2
_symmetry_cell_setting 'triclinic'
loop_
_space_group_symop_operation_xyz
x,y,z
-x,-y,-z
loop_
_atom_site_type_symbol
_atom_site_label
_atom_site_fract_x
_atom_site_fract_y
_atom_site_fract_z
Si Si1 0.083371 0.621443 0.284305
Si Si2 0.831135 0.645339 0.948968
Si Si3 0.656898 0.307158 0.783945
Si Si4 0.675706 0.799825 0.396931
Si Si5 0.854726 0.150941 0.426693
Si Si6 0.394102 0.827233 0.913482
Si Si7 0.604425 0.679597 0.030274
Si Si8 0.898009 0.703013 0.666839
O O1 0.229885 0.711934 0.264745
O O2 0.083986 0.721244 0.420099
O O3 0.084772 0.457139 0.331610
O O4 0.944306 0.601532 0.107966
O O5 0.710172 0.489179 0.820976
O O6 0.912881 0.742956 0.846643
O O7 0.742027 0.708705 0.001427
O O8 0.488592 0.230826 0.645207
O O9 0.667687 0.250276 0.958586
O O10 0.659401 0.751594 0.217949
O O11 0.744332 0.699533 0.526867
O O12 0.781483 0.979071 0.457884
O O13 0.730311 0.179779 0.266192
O O14 0.980985 0.175032 0.377162
O O15 0.496082 0.751497 0.907940
O O16 0.500000 0.000000 0.000000
O O17 0.500000 0.500000 0.000000
#
# Coordination Sequence:
#
# PCOD9016076 Si02
#       8
#     2   2   2   2   2   2   2   2
#     4  11  25  41  69  93 128 173 219 264 311 387
#     4  11  22  44  66  98 124 167 221 268 315 370
#     4  10  21  42  66  94 131 165 213 273 312 373
#     4  11  24  43  62  98 132 166 209 270 329 370
#     4  12  24  43  64  94 134 171 211 263 320 387
#     4  11  21  41  66  96 127 169 205 256 324 381
#     4  11  22  40  70  94 128 164 212 267 311 384
#     4  11  25  41  68  93 130 174 215 264 316 380
#
# _framework density 20.162393999999999
#
# number of rings (size 3 to 8) (size 9 to 14) (size 15 to 20)
#    0.000    1.000    5.000    4.500    1.750    3.500 
#    2.250    1.250    0.000    0.000    0.000    0.000 
#    0.000    0.000    0.000    0.000    0.000    0.000 
#
# Total GULP energy -89409.411644 kJ/mol
# GULP energy per Si atom -5588.088228 kJ/mol
# Density = 2.011650 g / cm^3
# Si number density = 20.162394 Si / 1000 Ang^3
#
#
#
# Elastic Constant Matrix: (Units=GPa)
#
#
# Indices 1 2 3 4 5 6 
#
# 1 118.9487 35.1829 22.8707 -11.4801 4.0310 7.3367
# 2 35.1829 53.5275 7.8501 0.3018 7.3889 3.9428
# 3 22.8707 7.8501 71.4950 -10.7973 18.5123 -1.6068
# 4 -11.4801 0.3018 -10.7973 24.0870 -2.1106 3.3556
# 5 4.0310 7.3889 18.5123 -2.1106 28.0127 -5.1742
# 6 7.3367 3.9428 -1.6068 3.3556 -5.1742 30.6249
#
#
#
# Elastic Compliance Matrix: (Units=1/GPa)
#
#
# Indices 1 2 3 4 5 6 
#
# 1 0.011669 -0.007418 -0.002764 0.004900 0.002072 -0.002172
# 2 -0.007418 0.024524 0.000762 -0.003793 -0.006566 -0.002034
# 3 -0.002764 0.000762 0.018800 0.006212 -0.011972 -0.001153
# 4 0.004900 -0.003793 0.006212 0.047373 -0.001306 -0.005771
# 5 0.002072 -0.006566 -0.011972 -0.001306 0.046367 0.007698
# 6 -0.002172 -0.002034 -0.001153 -0.005771 0.007698 0.035308
#
#
# Mechanical properties :
#
#
# Convention : Reuss Voigt Hill
#
# Bulk Modulus (GPa) = 27.66054 41.75317 34.70685
# Shear Modulus (GPa) = 23.26318 28.41608 25.83963
#
# Velocity S-wave (km/s) = 3.40043 3.75822 3.58379
# Velocity P-wave (km/s) = 5.40055 6.29171 5.86309
#
# Compressibility (1/GPa) = 0.03615258
#
# Stress axis : x y z
#
# Youngs Moduli (GPa) = 85.69512 40.77666 53.19265
#
# Poissons Ratio (x) = 0.30250 0.14701
# Poissons Ratio (y) = 0.63572 -0.04053
# Poissons Ratio (z) = 0.23683 -0.03107
#
# Static dielectric constant tensor:
#      x y z
#    x 1.734290 0.028190 -0.009280 
#    y 0.028190 1.723130 -0.028730 
#    z -0.009280 -0.028730 1.712040 
# 
# From -- ./inp_files/243656.got.cif
#   From: 2010.05.17/outbox.cif.g08.bks.cpg/sg2_122_cif.got.tgz:243656.got - 2010.06.03 11:33:40.
