data_PCOD9016574
_publ_section_title
;
Structure prediction by ZEFSAII (Michael W. Deem and Ramdas Pophale) SiO2 
 PCOD9016574
Probable space group: P -1
;
_chemical_formula_sum "Si O2"
_cell_formula_units_Z 15
_cell_length_a 9.013554
_cell_length_b 14.281695
_cell_length_c 6.125836
_cell_angle_alpha 122.477788
_cell_angle_beta 78.459810
_cell_angle_gamma 96.701499
_cell_volume 651.749755
_symmetry_space_group_name_H-M "P -1"
_symmetry_group_IT_number 2
_symmetry_cell_setting 'triclinic'
loop_
_space_group_symop_operation_xyz
x,y,z
-x,-y,-z
loop_
_atom_site_type_symbol
_atom_site_label
_atom_site_fract_x
_atom_site_fract_y
_atom_site_fract_z
Si Si1 0.000000 0.000000 0.000000
Si Si2 0.585317 0.211751 0.379459
Si Si3 0.018473 0.228497 0.644216
Si Si4 0.227671 0.898535 0.158066
Si Si5 0.127269 0.358773 0.161597
Si Si6 0.282075 0.200951 0.238643
Si Si7 0.155080 0.614659 0.419214
Si Si8 0.297442 0.002734 0.672629
O O1 0.132165 0.934595 0.022450
O O2 0.118077 0.010444 0.774520
O O3 0.407456 0.226223 0.414203
O O4 0.686813 0.318696 0.545331
O O5 0.625200 0.109243 0.399256
O O6 0.648720 0.180136 0.081714
O O7 0.116463 0.163739 0.347808
O O8 0.884510 0.163568 0.720910
O O9 0.943639 0.333584 0.681089
O O10 0.128568 0.274622 0.854934
O O11 0.308535 0.995399 0.397584
O O12 0.234933 0.309182 0.253376
O O13 0.171023 0.483154 0.239168
O O14 0.954111 0.361234 0.309130
O O15 0.343884 0.107938 0.938866
#
# Coordination Sequence:
#
# PCOD9016574 Si02
#       8
#     1   2   2   2   2   2   2   2
#     4  10  22  36  60  96 122 158 214 270 304 366
#     4  11  24  42  62  95 133 170 212 266 318 382
#     4  11  21  42  68  95 121 168 218 269 317 382
#     4  11  22  39  67  92 126 171 217 259 316 381
#     4  10  22  41  67  96 125 167 212 275 323 379
#     4  11  26  41  61  96 136 166 216 266 320 376
#     4  10  21  42  68  94 126 162 221 268 324 378
#     4  11  22  39  61  91 130 174 211 257 316 378
#
# _framework density 23.014970000000002
#
# number of rings (size 3 to 8) (size 9 to 14) (size 15 to 20)
#    0.000    1.333    2.667    2.800    3.733    5.333 
#    0.000    0.667    0.000    2.400    0.000    0.000 
#    0.000    0.000    0.000    0.000    0.000    0.000 
#
# Total GULP energy -83653.000833 kJ/mol
# GULP energy per Si atom -5576.866722 kJ/mol
# Density = 2.296259 g / cm^3
# Si number density = 23.014970 Si / 1000 Ang^3
#
#
#
# Elastic Constant Matrix: (Units=GPa)
#
#
# Indices 1 2 3 4 5 6 
#
# 1 114.1221 31.1095 -0.8300 0.1407 14.0540 3.3072
# 2 31.1095 105.7016 -4.7515 9.1773 2.9024 -1.6391
# 3 -0.8300 -4.7515 61.0461 -4.4533 -4.6439 -1.0562
# 4 0.1407 9.1773 -4.4533 27.4121 -0.5428 3.1158
# 5 14.0540 2.9024 -4.6439 -0.5428 28.6426 -3.9258
# 6 3.3072 -1.6391 -1.0562 3.1158 -3.9258 19.2434
#
#
#
# Elastic Compliance Matrix: (Units=1/GPa)
#
#
# Indices 1 2 3 4 5 6 
#
# 1 0.010341 -0.003074 -0.000472 0.001173 -0.005274 -0.003331
# 2 -0.003074 0.010729 0.000619 -0.003715 0.000757 0.002232
# 3 -0.000472 0.000619 0.016862 0.002449 0.003127 0.001301
# 4 0.001173 -0.003715 0.002449 0.038875 0.000020 -0.006674
# 5 -0.005274 0.000757 0.003127 0.000020 0.039183 0.009133
# 6 -0.003331 0.002232 0.001301 -0.006674 0.009133 0.055744
#
#
# Mechanical properties :
#
#
# Convention : Reuss Voigt Hill
#
# Bulk Modulus (GPa) = 31.17317 36.88066 34.02691
# Shear Modulus (GPa) = 26.55609 32.08241 29.31925
#
# Velocity S-wave (km/s) = 3.40054 3.73765 3.57307
# Velocity P-wave (km/s) = 5.38446 5.88950 5.64263
#
# Compressibility (1/GPa) = 0.03207887
#
# Stress axis : x y z
#
# Youngs Moduli (GPa) = 96.69799 93.20240 59.30554
#
# Poissons Ratio (x) = 0.28647 0.02798
# Poissons Ratio (y) = 0.29721 -0.03668
# Poissons Ratio (z) = 0.04562 -0.05765
#
# Static dielectric constant tensor:
#      x y z
#    x 1.799080 0.017020 -0.055830 
#    y 0.017020 1.845910 -0.065460 
#    z -0.055830 -0.065460 1.767430 
# 
# From -- ./inp_files/36569.got.cif
#   From: 2010.05.17/outbox.cif.g08.bks.cpg/sg2_19_cif.got.tgz:36569.got - 2010.06.03 11:33:40.
