data_PCOD9016688
_publ_section_title
;
Structure prediction by ZEFSAII (Michael W. Deem and Ramdas Pophale) SiO2 
 PCOD9016688
Probable space group: P -1
;
_chemical_formula_sum "Si O2"
_cell_formula_units_Z 14
_cell_length_a 11.684157
_cell_length_b 6.880262
_cell_length_c 10.999294
_cell_angle_alpha 54.003586
_cell_angle_beta 120.430096
_cell_angle_gamma 126.462674
_cell_volume 558.307785
_symmetry_space_group_name_H-M "P -1"
_symmetry_group_IT_number 2
_symmetry_cell_setting 'triclinic'
loop_
_space_group_symop_operation_xyz
x,y,z
-x,-y,-z
loop_
_atom_site_type_symbol
_atom_site_label
_atom_site_fract_x
_atom_site_fract_y
_atom_site_fract_z
Si Si1 0.357374 0.000920 0.774645
Si Si2 0.920605 0.938463 0.312882
Si Si3 0.645020 0.375767 0.907006
Si Si4 0.117914 0.755290 0.040210
Si Si5 0.773255 0.846117 0.666953
Si Si6 0.513191 0.200650 0.541299
Si Si7 0.842771 0.402612 0.612063
O O1 0.199500 0.003602 0.697648
O O2 0.472339 0.238065 0.833818
O O3 0.439896 0.038043 0.680124
O O4 0.338885 0.721538 0.917215
O O5 0.911081 0.663061 0.466285
O O6 0.091279 0.147566 0.339876
O O7 0.890289 0.995654 0.132324
O O8 0.724669 0.240976 0.911545
O O9 0.747083 0.686350 0.836910
O O10 0.095751 0.681021 0.199865
O O11 0.000000 0.500000 0.000000
O O12 0.607111 0.685797 0.589420
O O13 0.812307 0.149511 0.602145
O O14 0.683287 0.385475 0.568926
O O15 0.500000 0.000000 0.500000
#
# Coordination Sequence:
#
# PCOD9016688 Si02
#       7
#     2   2   2   2   2   2   2
#     4  10  22  40  71 101 131 182 229 287 338 407
#     4  11  25  42  69 103 136 181 230 281 347 412
#     4  10  21  42  68  99 135 173 236 281 340 407
#     4  11  23  43  69 100 133 175 236 285 337 409
#     4  11  24  44  65 103 140 182 224 283 350 409
#     4  10  23  44  66  99 138 181 230 278 346 413
#     4  11  25  46  68  96 145 184 227 287 341 411
#
# _framework density 25.075773999999999
#
# number of rings (size 3 to 8) (size 9 to 14) (size 15 to 20)
#    0.000    1.429    2.857    1.286    2.000    5.143 
#    5.143    1.429    0.000    0.000    0.000    0.000 
#    0.000    0.000    0.000    0.000    0.000    0.000 
#
# Total GULP energy -78012.437168 kJ/mol
# GULP energy per Si atom -5572.316941 kJ/mol
# Density = 2.501870 g / cm^3
# Si number density = 25.075774 Si / 1000 Ang^3
#
#
#
# Elastic Constant Matrix: (Units=GPa)
#
#
# Indices 1 2 3 4 5 6 
#
# 1 131.0277 40.6605 29.1782 -4.8547 -2.6508 40.9915
# 2 40.6605 78.2988 62.1413 -16.8947 2.5086 28.9408
# 3 29.1782 62.1413 182.8462 -39.4927 -14.1452 22.4213
# 4 -4.8547 -16.8947 -39.4927 51.5329 18.3158 -1.3880
# 5 -2.6508 2.5086 -14.1452 18.3158 24.5704 -5.1278
# 6 40.9915 28.9408 22.4213 -1.3880 -5.1278 50.2878
#
#
#
# Elastic Compliance Matrix: (Units=1/GPa)
#
#
# Indices 1 2 3 4 5 6 
#
# 1 0.010774 -0.003228 0.000223 -0.000160 0.000279 -0.007000
# 2 -0.003228 0.025613 -0.006243 0.008355 -0.015003 -0.010625
# 3 0.000223 -0.006243 0.008530 0.003443 0.003008 0.000009
# 4 -0.000160 0.008355 0.003443 0.033665 -0.025632 -0.007897
# 5 0.000279 -0.015003 0.003008 -0.025632 0.065828 0.013071
# 6 -0.007000 -0.010625 0.000009 -0.007897 0.013071 0.032817
#
#
# Mechanical properties :
#
#
# Convention : Reuss Voigt Hill
#
# Bulk Modulus (GPa) = 37.84794 72.90364 55.37579
# Shear Modulus (GPa) = 24.44643 42.62438 33.53540
#
# Velocity S-wave (km/s) = 3.12573 4.12736 3.66096
# Velocity P-wave (km/s) = 5.30595 7.20069 6.32468
#
# Compressibility (1/GPa) = 0.02642152
#
# Stress axis : x y z
#
# Youngs Moduli (GPa) = 92.82017 39.04246 117.22924
#
# Poissons Ratio (x) = 0.12603 -0.02617
# Poissons Ratio (y) = 0.29963 0.73185
# Poissons Ratio (z) = -0.02072 0.24374
#
# Static dielectric constant tensor:
#      x y z
#    x 2.004890 0.014430 -0.003750 
#    y 0.014430 2.015450 0.002470 
#    z -0.003750 0.002470 2.447920 
# 
# From -- ./inp_files/418773.got.cif
#   From: 2010.05.17/outbox.cif.g08.bks.cpg/sg2_210_cif.got.tgz:418773.got - 2010.06.03 11:33:40.
