data_PCOD9016800
_publ_section_title
;
Structure prediction by ZEFSAII (Michael W. Deem and Ramdas Pophale) SiO2 
 PCOD9016800
Probable space group: P -1
;
_chemical_formula_sum "Si O2"
_cell_formula_units_Z 16
_cell_length_a 18.205027
_cell_length_b 11.622694
_cell_length_c 18.045425
_cell_angle_alpha 152.062869
_cell_angle_beta 150.580173
_cell_angle_gamma 27.574154
_cell_volume 756.937274
_symmetry_space_group_name_H-M "P -1"
_symmetry_group_IT_number 2
_symmetry_cell_setting 'triclinic'
loop_
_space_group_symop_operation_xyz
x,y,z
-x,-y,-z
loop_
_atom_site_type_symbol
_atom_site_label
_atom_site_fract_x
_atom_site_fract_y
_atom_site_fract_z
Si Si1 0.170684 0.300374 0.188456
Si Si2 0.159924 0.182382 0.450461
Si Si3 0.948390 0.120409 0.107201
Si Si4 0.543035 0.634051 0.815169
Si Si5 0.511886 0.894403 0.533259
Si Si6 0.204588 0.207739 0.818921
Si Si7 0.767697 0.801126 0.323734
Si Si8 0.414422 0.315641 0.290263
O O1 0.306500 0.228617 0.334619
O O2 0.255827 0.353178 0.221191
O O3 0.981659 0.580948 0.191028
O O4 0.142093 0.030607 0.015894
O O5 0.177758 0.072314 0.487373
O O6 0.000000 0.500000 0.500000
O O7 0.109699 0.054217 0.264646
O O8 0.347481 0.142698 0.574918
O O9 0.838637 0.465108 0.202649
O O10 0.000000 0.000000 0.000000
O O11 0.522227 0.365126 0.647400
O O12 0.609047 0.641633 0.794145
O O13 0.350175 0.910290 0.813495
O O14 0.683248 0.633053 0.993096
O O15 0.500000 0.000000 0.500000
O O16 0.170265 0.147402 0.670967
O O17 0.561509 0.986810 0.244491
O O18 0.500000 0.500000 0.500000
#
# Coordination Sequence:
#
# PCOD9016800 Si02
#       8
#     2   2   2   2   2   2   2   2
#     4  12  24  40  70 107 131 184 236 281 342 412
#     4  10  22  43  63  95 136 185 219 268 357 410
#     4  11  22  40  68 102 140 176 226 290 341 406
#     4  10  23  47  67  94 137 185 223 286 351 405
#     4  12  25  41  67 100 138 175 227 282 346 415
#     4  10  23  42  71  99 129 180 239 279 341 410
#     4  10  21  42  69  93 139 185 220 281 349 408
#     4  11  22  45  66  94 139 185 226 286 342 404
#
# _framework density 21.137813999999999
#
# number of rings (size 3 to 8) (size 9 to 14) (size 15 to 20)
#    0.000    1.250    3.750    1.500    3.500    1.500 
#    0.000    1.250    0.000    0.000    0.000    0.000 
#    0.000    0.000    0.000    0.000    0.000    0.000 
#
# Total GULP energy -89239.539228 kJ/mol
# GULP energy per Si atom -5577.471202 kJ/mol
# Density = 2.108970 g / cm^3
# Si number density = 21.137814 Si / 1000 Ang^3
#
#
#
# Elastic Constant Matrix: (Units=GPa)
#
#
# Indices 1 2 3 4 5 6 
#
# 1 78.6724 45.7159 39.9966 -1.3240 -0.9893 6.8360
# 2 45.7159 130.1726 34.4362 -6.1953 12.4520 -25.1373
# 3 39.9966 34.4362 66.3599 -19.3057 -14.2821 1.7624
# 4 -1.3240 -6.1953 -19.3057 23.5321 0.6329 -6.9352
# 5 -0.9893 12.4520 -14.2821 0.6329 37.0293 -7.1758
# 6 6.8360 -25.1373 1.7624 -6.9352 -7.1758 38.8467
#
#
#
# Elastic Compliance Matrix: (Units=1/GPa)
#
#
# Indices 1 2 3 4 5 6 
#
# 1 0.028185 -0.007574 -0.020260 -0.020956 -0.006859 -0.013950
# 2 -0.007574 0.013465 -0.002190 0.004445 -0.003662 0.010262
# 3 -0.020260 -0.002190 0.042285 0.035394 0.017806 0.009838
# 4 -0.020956 0.004445 0.035394 0.077458 0.014430 0.021452
# 5 -0.006859 -0.003662 0.017806 0.014430 0.036084 0.007271
# 6 -0.013950 0.010262 0.009838 0.021452 0.007271 0.039564
#
#
# Mechanical properties :
#
#
# Convention : Reuss Voigt Hill
#
# Bulk Modulus (GPa) = 41.86319 57.27802 49.57061
# Shear Modulus (GPa) = 16.39066 30.21872 23.30469
#
# Velocity S-wave (km/s) = 2.78765 3.78511 3.32401
# Velocity P-wave (km/s) = 5.49629 6.80140 6.18338
#
# Compressibility (1/GPa) = 0.02388733
#
# Stress axis : x y z
#
# Youngs Moduli (GPa) = 35.47938 74.26671 23.64909
#
# Poissons Ratio (x) = 0.56249 0.47913
# Poissons Ratio (y) = 0.26872 0.05179
# Poissons Ratio (z) = 0.71881 0.16264
#
# Static dielectric constant tensor:
#      x y z
#    x 1.936810 0.002520 -0.076180 
#    y 0.002520 1.860890 -0.019290 
#    z -0.076180 -0.019290 1.809140 
# 
# From -- ./inp_files/576011.got.cif
#   From: 2010.05.17/outbox.cif.g08.bks.cpg/sg2_289_cif.got.tgz:576011.got - 2010.06.03 11:33:40.
