data_PCOD9016194
_publ_section_title
;
Structure prediction by ZEFSAII (Michael W. Deem and Ramdas Pophale) SiO2 
 PCOD9016194
Probable space group: P -1
;
_chemical_formula_sum "Si O2"
_cell_formula_units_Z 16
_cell_length_a 7.981603
_cell_length_b 11.304347
_cell_length_c 9.397183
_cell_angle_alpha 55.492059
_cell_angle_beta 121.276558
_cell_angle_gamma 107.656196
_cell_volume 597.101034
_symmetry_space_group_name_H-M "P -1"
_symmetry_group_IT_number 2
_symmetry_cell_setting 'triclinic'
loop_
_space_group_symop_operation_xyz
x,y,z
-x,-y,-z
loop_
_atom_site_type_symbol
_atom_site_label
_atom_site_fract_x
_atom_site_fract_y
_atom_site_fract_z
Si Si1 0.877464 0.959429 0.613456
Si Si2 0.447064 0.240369 0.811680
Si Si3 0.895099 0.622033 0.275155
Si Si4 0.663660 0.358550 0.305632
Si Si5 0.044037 0.678662 0.781221
Si Si6 0.853569 0.139295 0.749287
Si Si7 0.308326 0.485788 0.226266
Si Si8 0.527478 0.004127 0.233018
O O1 0.652380 0.987680 0.444726
O O2 0.942583 0.795111 0.759093
O O3 0.941619 0.046049 0.722465
O O4 0.000000 0.000000 0.500000
O O5 0.238185 0.287469 0.741159
O O6 0.562819 0.388462 0.727884
O O7 0.416947 0.131689 0.744681
O O8 0.548005 0.147451 0.047772
O O9 0.742972 0.520277 0.195145
O O10 0.000000 0.500000 0.500000
O O11 0.017789 0.752396 0.169604
O O12 0.792465 0.278085 0.294421
O O13 0.732499 0.263662 0.533271
O O14 0.445020 0.391794 0.245053
O O15 0.847526 0.599921 0.685149
O O16 0.167563 0.575041 0.003163
O O17 0.704346 0.025408 0.829215
#
# Coordination Sequence:
#
# PCOD9016194 Si02
#       8
#     2   2   2   2   2   2   2   2
#     4  12  23  42  66  93 133 169 216 269 325 396
#     4  10  23  45  64  92 134 171 217 271 329 385
#     4   9  21  41  65  93 128 166 215 266 323 388
#     4  10  21  42  66  99 133 169 219 272 327 387
#     4  11  23  41  69  98 129 178 216 270 331 386
#     4  11  23  42  67  97 129 170 219 271 328 387
#     4  10  23  43  64  98 132 170 224 268 327 394
#     4  11  25  41  66  95 128 175 219 270 328 393
#
# _framework density 26.796135
#
# number of rings (size 3 to 8) (size 9 to 14) (size 15 to 20)
#    0.000    1.500    1.250    3.000    3.500    1.500 
#    9.000    2.500    0.000    0.000    0.000    0.000 
#    0.000    0.000    0.000    0.000    0.000    0.000 
#
# Total GULP energy -89183.921729 kJ/mol
# GULP energy per Si atom -5573.995108 kJ/mol
# Density = 2.673515 g / cm^3
# Si number density = 26.796135 Si / 1000 Ang^3
#
#
#
# Elastic Constant Matrix: (Units=GPa)
#
#
# Indices 1 2 3 4 5 6 
#
# 1 88.5473 59.5852 18.9626 -14.0518 13.5781 -5.8528
# 2 59.5852 111.1645 13.7283 -19.2539 0.1823 -2.4990
# 3 18.9626 13.7283 93.2543 -14.7364 14.9991 -14.2744
# 4 -14.0518 -19.2539 -14.7364 24.6709 -11.2056 5.9091
# 5 13.5781 0.1823 14.9991 -11.2056 25.7063 -5.5577
# 6 -5.8528 -2.4990 -14.2744 5.9091 -5.5577 29.5984
#
#
#
# Elastic Compliance Matrix: (Units=1/GPa)
#
#
# Indices 1 2 3 4 5 6 
#
# 1 0.020436 -0.011341 -0.001006 -0.003204 -0.011281 0.001119
# 2 -0.011341 0.017153 -0.000278 0.012069 0.011017 -0.001269
# 3 -0.001006 -0.000278 0.012968 0.003909 -0.004371 0.004430
# 4 -0.003204 0.012069 0.003909 0.063519 0.025812 -0.005564
# 5 -0.011281 0.011017 -0.004371 0.025812 0.059133 0.002542
# 6 0.001119 -0.001269 0.004430 -0.005564 0.002542 0.037624
#
#
# Mechanical properties :
#
#
# Convention : Reuss Voigt Hill
#
# Bulk Modulus (GPa) = 39.51732 53.05761 46.28746
# Shear Modulus (GPa) = 20.44835 29.37445 24.91140
#
# Velocity S-wave (km/s) = 2.76544 3.31451 3.05235
# Velocity P-wave (km/s) = 4.99763 5.87294 5.45288
#
# Compressibility (1/GPa) = 0.02530536
#
# Stress axis : x y z
#
# Youngs Moduli (GPa) = 48.93380 58.30025 77.11343
#
# Poissons Ratio (x) = 0.66117 0.07761
# Poissons Ratio (y) = 0.55495 0.02145
# Poissons Ratio (z) = 0.04925 0.01622
#
# Static dielectric constant tensor:
#      x y z
#    x 2.266490 0.060800 -0.010520 
#    y 0.060800 2.431910 0.018320 
#    z -0.010520 0.018320 2.103800 
# 
# From -- ./inp_files/392180.got.cif
#   From: 2010.05.17/outbox.cif.g08.bks.cpg/sg2_197_cif.got.tgz:392180.got - 2010.06.03 11:33:40.
