data_PCOD9016633
_publ_section_title
;
Structure prediction by ZEFSAII (Michael W. Deem and Ramdas Pophale) SiO2 
 PCOD9016633
Probable space group: P -1
;
_chemical_formula_sum "Si O2"
_cell_formula_units_Z 14
_cell_length_a 6.509230
_cell_length_b 15.446932
_cell_length_c 10.169839
_cell_angle_alpha 118.283909
_cell_angle_beta 121.245399
_cell_angle_gamma 48.180920
_cell_volume 638.249501
_symmetry_space_group_name_H-M "P -1"
_symmetry_group_IT_number 2
_symmetry_cell_setting 'triclinic'
loop_
_space_group_symop_operation_xyz
x,y,z
-x,-y,-z
loop_
_atom_site_type_symbol
_atom_site_label
_atom_site_fract_x
_atom_site_fract_y
_atom_site_fract_z
Si Si1 0.227299 0.031466 0.053755
Si Si2 0.350728 0.285558 0.737059
Si Si3 0.654043 0.937165 0.369390
Si Si4 0.690487 0.444313 0.648160
Si Si5 0.319895 0.384930 0.057157
Si Si6 0.322185 0.783427 0.475940
Si Si7 0.630226 0.804156 0.850472
O O1 0.446828 0.008601 0.229797
O O2 0.130126 0.164086 0.073051
O O3 0.386429 0.932234 0.922245
O O4 0.000000 0.000000 0.000000
O O5 0.325849 0.184343 0.718903
O O6 0.528620 0.229810 0.623514
O O7 0.020815 0.395706 0.683325
O O8 0.463506 0.325219 0.923281
O O9 0.987746 0.895822 0.449311
O O10 0.500000 0.000000 0.500000
O O11 0.500000 0.500000 0.500000
O O12 0.550197 0.550420 0.782369
O O13 0.685782 0.332689 0.606757
O O14 0.307588 0.295280 0.091086
O O15 0.000000 0.500000 0.000000
O O16 0.505966 0.781787 0.660375
#
# Coordination Sequence:
#
# PCOD9016633 Si02
#       7
#     2   2   2   2   2   2   2
#     4  11  25  44  67  99 135 183 232 286 342 415
#     4  10  23  41  64 100 138 178 231 283 342 409
#     4  11  23  43  68  97 142 179 225 290 347 412
#     4  10  21  42  68  96 141 178 231 289 341 408
#     4  10  21  45  68  96 142 180 227 285 342 411
#     4  11  24  42  71 106 134 183 234 284 349 418
#     4  11  23  44  68 100 136 182 228 281 345 417
#
# _framework density 21.934995000000001
#
# number of rings (size 3 to 8) (size 9 to 14) (size 15 to 20)
#    0.000    1.429    2.857    1.714    0.000    6.857 
#    0.000    0.000    0.000    0.000    0.000    0.000 
#    0.000    0.000    0.000    0.000    0.000    0.000 
#
# Total GULP energy -78024.689719 kJ/mol
# GULP energy per Si atom -5573.192123 kJ/mol
# Density = 2.188507 g / cm^3
# Si number density = 21.934995 Si / 1000 Ang^3
#
#
#
# Elastic Constant Matrix: (Units=GPa)
#
#
# Indices 1 2 3 4 5 6 
#
# 1 91.6026 43.3932 39.8782 -4.0914 -5.4508 5.2223
# 2 43.3932 104.1616 49.0958 3.3366 6.5458 19.0403
# 3 39.8782 49.0958 175.0479 13.9644 -15.8190 -1.8069
# 4 -4.0914 3.3366 13.9644 40.9191 1.7771 3.0838
# 5 -5.4508 6.5458 -15.8190 1.7771 29.2225 7.5497
# 6 5.2223 19.0403 -1.8069 3.0838 7.5497 38.2165
#
#
#
# Elastic Compliance Matrix: (Units=1/GPa)
#
#
# Indices 1 2 3 4 5 6 
#
# 1 0.014545 -0.005501 -0.001698 0.002363 0.002906 -0.000092
# 2 -0.005501 0.014867 -0.003404 0.000047 -0.004679 -0.005896
# 3 -0.001698 -0.003404 0.007690 -0.002831 0.004352 0.001660
# 4 0.002363 0.000047 -0.002831 0.025891 -0.002121 -0.002150
# 5 0.002906 -0.004679 0.004352 -0.002121 0.039726 -0.005537
# 6 -0.000092 -0.005896 0.001660 -0.002150 -0.005537 0.030463
#
#
# Mechanical properties :
#
#
# Convention : Reuss Voigt Hill
#
# Bulk Modulus (GPa) = 62.90208 70.61631 66.75919
# Shear Modulus (GPa) = 31.31148 37.56794 34.43971
#
# Velocity S-wave (km/s) = 3.78228 4.14296 3.96672
# Velocity P-wave (km/s) = 6.91470 7.42623 7.17502
#
# Compressibility (1/GPa) = 0.01589773
#
# Stress axis : x y z
#
# Youngs Moduli (GPa) = 68.75071 67.26436 130.03213
#
# Poissons Ratio (x) = 0.37001 0.22074
# Poissons Ratio (y) = 0.37819 0.44262
# Poissons Ratio (z) = 0.11671 0.22896
#
# Static dielectric constant tensor:
#      x y z
#    x 1.922960 -0.000040 -0.013750 
#    y -0.000040 1.826000 -0.040510 
#    z -0.013750 -0.040510 1.847920 
# 
# From -- ./inp_files/53784.got.cif
#   From: 2010.05.17/outbox.cif.g08.bks.cpg/sg2_27_cif.got.tgz:53784.got - 2010.06.03 11:33:40.
