data_PCOD9016389
_publ_section_title
;
Structure prediction by ZEFSAII (Michael W. Deem and Ramdas Pophale) SiO2 
 PCOD9016389
Probable space group: P -1
;
_chemical_formula_sum "Si O2"
_cell_formula_units_Z 16
_cell_length_a 10.019193
_cell_length_b 13.532544
_cell_length_c 20.181328
_cell_angle_alpha 39.698624
_cell_angle_beta 27.079579
_cell_angle_gamma 50.208163
_cell_volume 786.033327
_symmetry_space_group_name_H-M "P -1"
_symmetry_group_IT_number 2
_symmetry_cell_setting 'triclinic'
loop_
_space_group_symop_operation_xyz
x,y,z
-x,-y,-z
loop_
_atom_site_type_symbol
_atom_site_label
_atom_site_fract_x
_atom_site_fract_y
_atom_site_fract_z
Si Si1 0.704296 0.574225 0.081500
Si Si2 0.664035 0.108891 0.722238
Si Si3 0.627449 0.141790 0.563611
Si Si4 0.548948 0.229751 0.174694
Si Si5 0.844901 0.620791 0.623247
Si Si6 0.773086 0.707115 0.118083
Si Si7 0.255640 0.231793 0.166934
Si Si8 0.627801 0.556241 0.486814
O O1 0.401852 0.451380 0.282838
O O2 0.715592 0.702807 0.067495
O O3 0.712748 0.640225 0.969665
O O4 0.000000 0.500000 0.000000
O O5 0.683412 0.146873 0.615368
O O6 0.357245 0.151076 0.862921
O O7 0.923140 0.229445 0.579902
O O8 0.700886 0.930491 0.803133
O O9 0.398541 0.261465 0.588301
O O10 0.933328 0.203797 0.358639
O O11 0.528680 0.959070 0.684827
O O12 0.332641 0.315180 0.270933
O O13 0.490214 0.265124 0.105713
O O14 0.884298 0.283791 0.020530
O O15 0.048572 0.492491 0.621392
O O16 0.588607 0.548479 0.311923
O O17 0.500000 0.500000 0.500000
#
# Coordination Sequence:
#
# PCOD9016389 Si02
#       8
#     2   2   2   2   2   2   2   2
#     4  12  27  43  62  95 139 174 223 267 326 392
#     4  10  21  42  67  96 133 164 220 275 332 386
#     4  11  20  40  68 103 131 165 219 280 328 384
#     4  11  22  41  72  96 129 171 224 271 333 379
#     4  11  22  42  67  94 131 176 218 266 333 384
#     4  11  25  43  64  97 141 171 211 281 326 387
#     4  11  23  40  70  98 128 172 221 274 326 399
#     4  11  22  40  68 100 134 164 217 273 326 384
#
# _framework density 20.355371999999999
#
# number of rings (size 3 to 8) (size 9 to 14) (size 15 to 20)
#    0.000    1.000    6.250    1.500    1.750    6.000 
#    0.000    3.750    0.000    0.000    0.000    0.000 
#    0.000    0.000    0.000    0.000    0.000    0.000 
#
# Total GULP energy -89443.836215 kJ/mol
# GULP energy per Si atom -5590.239763 kJ/mol
# Density = 2.030904 g / cm^3
# Si number density = 20.355372 Si / 1000 Ang^3
#
#
#
# Elastic Constant Matrix: (Units=GPa)
#
#
# Indices 1 2 3 4 5 6 
#
# 1 58.1245 27.2345 14.8656 3.5153 -35.8072 17.0582
# 2 27.2345 122.9443 23.0206 8.5353 -15.6773 -13.0318
# 3 14.8656 23.0206 53.6004 18.0680 -29.6939 8.9238
# 4 3.5153 8.5353 18.0680 24.5610 -1.7370 -3.8397
# 5 -35.8072 -15.6773 -29.6939 -1.7370 32.9802 12.8239
# 6 17.0582 -13.0318 8.9238 -3.8397 12.8239 21.3108
#
#
#
# Elastic Compliance Matrix: (Units=1/GPa)
#
#
# Indices 1 2 3 4 5 6 
#
# 1 0.005170 0.001088 -0.019019 0.014376 -0.016957 0.017285
# 2 0.001088 0.008573 0.002187 -0.004512 0.007780 -0.002038
# 3 -0.019019 0.002187 0.013466 -0.006053 -0.015179 0.018965
# 4 0.014376 -0.004512 -0.006053 0.043715 0.015425 -0.013138
# 5 -0.016957 0.007780 -0.015179 0.015425 -0.010346 0.033692
# 6 0.017285 -0.002038 0.018965 -0.013138 0.033692 0.001259
#
#
# Mechanical properties :
#
#
# Convention : Reuss Voigt Hill
#
# Bulk Modulus (GPa) = -233.61670 40.54563 -96.53553
# Shear Modulus (GPa) = 54.40701 27.07365 40.74033
#
# Velocity S-wave (km/s) = 5.17558 3.65094 4.47861
# Velocity P-wave (km/s) = 8.90521 6.14285 4.55895
#
# Compressibility (1/GPa) = -0.00428052
#
# Stress axis : x y z
#
# Youngs Moduli (GPa) = 193.41630 116.65104 74.25925
#
# Poissons Ratio (x) = -0.12688 1.41234
# Poissons Ratio (y) = -0.21038 -0.16237
# Poissons Ratio (z) = 3.67860 -0.25506
#
# Static dielectric constant tensor:
#      x y z
#    x 1.707120 0.011420 -0.000880 
#    y 0.011420 1.750540 -0.010270 
#    z -0.000880 -0.010270 1.726510 
# 
# From -- ./inp_files/209221.got.cif
#   From: 2010.05.17/outbox.cif.g08.bks.cpg/sg2_105_cif.got.tgz:209221.got - 2010.06.03 11:33:40.
