data_PCOD9016551
_publ_section_title
;
Structure prediction by ZEFSAII (Michael W. Deem and Ramdas Pophale) SiO2 
 PCOD9016551
Probable space group: P -1
;
_chemical_formula_sum "Si O2"
_cell_formula_units_Z 16
_cell_length_a 15.210487
_cell_length_b 5.064668
_cell_length_c 20.349559
_cell_angle_alpha 63.306483
_cell_angle_beta 26.319427
_cell_angle_gamma 63.252745
_cell_volume 616.516560
_symmetry_space_group_name_H-M "P -1"
_symmetry_group_IT_number 2
_symmetry_cell_setting 'triclinic'
loop_
_space_group_symop_operation_xyz
x,y,z
-x,-y,-z
loop_
_atom_site_type_symbol
_atom_site_label
_atom_site_fract_x
_atom_site_fract_y
_atom_site_fract_z
Si Si1 0.245369 0.229984 0.032720
Si Si2 0.232943 0.690892 0.642332
Si Si3 0.748654 0.096569 0.802179
Si Si4 0.227973 0.898739 0.947418
Si Si5 0.242141 0.085415 0.772491
Si Si6 0.229702 0.257284 0.303634
Si Si7 0.607128 0.688869 0.539311
Si Si8 0.842431 0.686036 0.511589
O O1 0.306078 0.551077 0.938985
O O2 0.005172 0.274379 0.195967
O O3 0.316458 0.085740 0.071406
O O4 0.285856 0.032881 0.962727
O O5 0.303429 0.007359 0.577390
O O6 0.308021 0.584655 0.531624
O O7 0.305024 0.393446 0.668879
O O8 0.675079 0.446432 0.814816
O O9 0.990789 0.102092 0.644241
O O10 0.720458 0.973884 0.761783
O O11 0.280747 0.062885 0.827328
O O12 0.985907 0.921927 0.096602
O O13 0.373697 0.794807 0.688679
O O14 0.268030 0.197566 0.361092
O O15 0.989442 0.373632 0.455239
O O16 0.691718 0.640882 0.560696
#
# Coordination Sequence:
#
# PCOD9016551 Si02
#       8
#     2   2   2   2   2   2   2   2
#     4  11  20  36  60  80 107 141 184 227 264 308
#     4  11  22  36  55  81 112 140 177 217 281 326
#     4  10  17  30  51  77 107 132 173 211 261 315
#     4  10  24  39  56  76 104 147 194 228 253 305
#     4  10  24  40  56  76 109 147 187 225 267 308
#     4   9  18  29  49  75 114 139 163 203 263 337
#     4  12  23  35  55  83 113 145 172 220 275 332
#     4   9  20  29  50  76 114 136 170 203 268 332
#
# _framework density 25.952264
#
# number of rings (size 3 to 8) (size 9 to 14) (size 15 to 20)
#    0.750    1.000    1.250    4.125    0.000    8.500 
#    0.000    0.000    0.000    0.000    0.000    5.250 
#    0.000    0.000    0.000    0.000    0.000    0.000 
#
# Total GULP energy -89587.496708 kJ/mol
# GULP energy per Si atom -5599.218544 kJ/mol
# Density = 2.589320 g / cm^3
# Si number density = 25.952264 Si / 1000 Ang^3
#
#
#
# Elastic Constant Matrix: (Units=GPa)
#
#
# Indices 1 2 3 4 5 6 
#
# 1 124.1361 16.1825 24.2116 -3.0687 44.8506 8.3548
# 2 16.1825 81.9589 14.5231 -4.5838 11.6504 22.0664
# 3 24.2116 14.5231 83.9909 0.1951 19.9480 -2.4901
# 4 -3.0687 -4.5838 0.1951 36.5036 -5.7770 13.3965
# 5 44.8506 11.6504 19.9480 -5.7770 53.6275 3.6446
# 6 8.3548 22.0664 -2.4901 13.3965 3.6446 40.4902
#
#
#
# Elastic Compliance Matrix: (Units=1/GPa)
#
#
# Indices 1 2 3 4 5 6 
#
# 1 0.011765 -0.000413 -0.001175 0.000018 -0.009212 -0.001451
# 2 -0.000413 0.016100 -0.002818 0.005818 -0.000748 -0.010720
# 3 -0.001175 -0.002818 0.013823 -0.002587 -0.004087 0.003852
# 4 0.000018 0.005818 -0.002587 0.034383 0.004414 -0.015107
# 5 -0.009212 -0.000748 -0.004087 0.004414 0.028645 -0.001981
# 6 -0.001451 -0.010720 0.003852 -0.015107 -0.001981 0.036252
#
#
# Mechanical properties :
#
#
# Convention : Reuss Voigt Hill
#
# Bulk Modulus (GPa) = 30.41863 44.43559 37.42711
# Shear Modulus (GPa) = 31.10598 41.80217 36.45408
#
# Velocity S-wave (km/s) = 3.46581 4.01775 3.75194
# Velocity P-wave (km/s) = 5.26899 6.21951 5.76388
#
# Compressibility (1/GPa) = 0.03287460
#
# Stress axis : x y z
#
# Youngs Moduli (GPa) = 84.99577 62.11102 72.34272
#
# Poissons Ratio (x) = 0.02568 0.08502
# Poissons Ratio (y) = 0.03514 0.20389
# Poissons Ratio (z) = 0.09989 0.17505
#
# Static dielectric constant tensor:
#      x y z
#    x 2.090790 -0.046550 -0.046160 
#    y -0.046550 1.968790 -0.025830 
#    z -0.046160 -0.025830 2.048600 
# 
# From -- ./inp_files/571520.got.cif
#   From: 2010.05.17/outbox.cif.g08.bks.cpg/sg2_286_cif.got.tgz:571520.got - 2010.06.03 11:33:40.
