data_PCOD9016862
_publ_section_title
;
Structure prediction by ZEFSAII (Michael W. Deem and Ramdas Pophale) SiO2 
 PCOD9016862
Probable space group: P -1
;
_chemical_formula_sum "Si O2"
_cell_formula_units_Z 12
_cell_length_a 5.604593
_cell_length_b 23.106885
_cell_length_c 5.158017
_cell_angle_alpha 95.649936
_cell_angle_beta 98.491238
_cell_angle_gamma 133.495191
_cell_volume 460.254925
_symmetry_space_group_name_H-M "P -1"
_symmetry_group_IT_number 2
_symmetry_cell_setting 'triclinic'
loop_
_space_group_symop_operation_xyz
x,y,z
-x,-y,-z
loop_
_atom_site_type_symbol
_atom_site_label
_atom_site_fract_x
_atom_site_fract_y
_atom_site_fract_z
Si Si1 0.145624 0.974787 0.196700
Si Si2 0.543924 0.185409 0.837704
Si Si3 0.588284 0.447321 0.939364
Si Si4 0.355943 0.596006 0.570633
Si Si5 0.419282 0.737243 0.599879
Si Si6 0.813874 0.129068 0.215671
O O1 0.847070 0.906294 0.318681
O O2 0.527369 0.064101 0.358990
O O3 0.172137 0.924436 0.990296
O O4 0.000000 0.000000 0.000000
O O5 0.700223 0.235329 0.615827
O O6 0.553318 0.236970 0.086416
O O7 0.717255 0.163829 0.019082
O O8 0.439537 0.399695 0.623970
O O9 0.500000 0.500000 0.000000
O O10 0.451956 0.384011 0.122515
O O11 0.000000 0.500000 0.000000
O O12 0.262332 0.646233 0.526827
O O13 0.000000 0.500000 0.500000
O O14 0.809919 0.793560 0.586142
#
# Coordination Sequence:
#
# PCOD9016862 Si02
#       6
#     2   2   2   2   2   2
#     4   8  16  36  64  89 126 164 208 259 313 388
#     4  10  22  39  62  92 128 167 208 265 322 386
#     4  10  21  42  69  97 129 167 222 279 338 406
#     4  10  22  43  65  93 129 171 221 276 336 399
#     4  11  23  42  62  90 131 165 216 266 325 388
#     4   9  19  38  61  94 123 167 213 258 322 380
#
# _framework density 26.072509
#
# number of rings (size 3 to 8) (size 9 to 14) (size 15 to 20)
#    0.000    2.333    0.000    1.500    0.000    3.333 
#   18.000   28.333    0.000    0.000    0.000    0.000 
#    0.000    0.000    0.000    0.000    0.000    0.000 
#
# Total GULP energy -67069.390147 kJ/mol
# GULP energy per Si atom -5589.115846 kJ/mol
# Density = 2.601317 g / cm^3
# Si number density = 26.072509 Si / 1000 Ang^3
#
#
#
# Elastic Constant Matrix: (Units=GPa)
#
#
# Indices 1 2 3 4 5 6 
#
# 1 103.8172 32.4739 6.2080 4.6080 -1.3157 -23.9343
# 2 32.4739 151.2670 17.1041 -8.2020 8.0040 -17.2663
# 3 6.2080 17.1041 120.9172 -29.5371 -19.4620 -0.5039
# 4 4.6080 -8.2020 -29.5371 37.0196 -1.8711 4.0985
# 5 -1.3157 8.0040 -19.4620 -1.8711 32.4975 1.5683
# 6 -23.9343 -17.2663 -0.5039 4.0985 1.5683 47.4088
#
#
#
# Elastic Compliance Matrix: (Units=1/GPa)
#
#
# Indices 1 2 3 4 5 6 
#
# 1 0.011728 -0.001930 -0.001187 -0.003456 -0.000225 0.005512
# 2 -0.001930 0.007550 -0.001266 0.000564 -0.002751 0.001804
# 3 -0.001187 -0.001266 0.012396 0.010414 0.008389 -0.002106
# 4 -0.003456 0.000564 0.010414 0.036839 0.008315 -0.004888
# 5 -0.000225 -0.002751 0.008389 0.008315 0.037086 -0.002972
# 6 0.005512 0.001804 -0.002106 -0.004888 -0.002972 0.025031
#
#
# Mechanical properties :
#
#
# Convention : Reuss Voigt Hill
#
# Bulk Modulus (GPa) = 43.65274 54.17484 48.91379
# Shear Modulus (GPa) = 34.00615 44.73289 39.36952
#
# Velocity S-wave (km/s) = 3.61542 4.14661 3.89009
# Velocity P-wave (km/s) = 5.84872 6.61434 6.24327
#
# Compressibility (1/GPa) = 0.02290807
#
# Stress axis : x y z
#
# Youngs Moduli (GPa) = 85.26478 132.44284 80.67399
#
# Poissons Ratio (x) = 0.25561 0.09573
# Poissons Ratio (y) = 0.16456 0.10217
# Poissons Ratio (z) = 0.10118 0.16773
#
# Static dielectric constant tensor:
#      x y z
#    x 2.003470 0.063440 -0.133680 
#    y 0.063440 2.056220 -0.041380 
#    z -0.133680 -0.041380 1.939110 
# 
# From -- ./inp_files/4545.got.cif
#   From: 2010.05.17/outbox.cif.g08.bks.cpg/sg2_3_cif.got.tgz:4545.got - 2010.06.03 11:33:40.
