data_PCOD9016310
_publ_section_title
;
Structure prediction by ZEFSAII (Michael W. Deem and Ramdas Pophale) SiO2 
 PCOD9016310
Probable space group: P -1
;
_chemical_formula_sum "Si O2"
_cell_formula_units_Z 16
_cell_length_a 25.665683
_cell_length_b 20.740012
_cell_length_c 8.497815
_cell_angle_alpha 148.194498
_cell_angle_beta 145.654032
_cell_angle_gamma 18.945516
_cell_volume 767.686737
_symmetry_space_group_name_H-M "P -1"
_symmetry_group_IT_number 2
_symmetry_cell_setting 'triclinic'
loop_
_space_group_symop_operation_xyz
x,y,z
-x,-y,-z
loop_
_atom_site_type_symbol
_atom_site_label
_atom_site_fract_x
_atom_site_fract_y
_atom_site_fract_z
Si Si1 0.850004 0.184552 0.889348
Si Si2 0.464760 0.160018 0.349120
Si Si3 0.628311 0.460942 0.181215
Si Si4 0.910124 0.331319 0.122734
Si Si5 0.676478 0.791577 0.589740
Si Si6 0.829263 0.791467 0.541610
Si Si7 0.956108 0.656048 0.934695
Si Si8 0.054552 0.806524 0.422181
O O1 0.855435 0.311204 0.089697
O O2 0.687452 0.352560 0.931527
O O3 0.889359 0.055034 0.571104
O O4 0.000000 0.000000 0.000000
O O5 0.416701 0.343798 0.533093
O O6 0.352253 0.237861 0.373098
O O7 0.641115 0.997495 0.520471
O O8 0.500000 0.000000 0.000000
O O9 0.790202 0.285936 0.328067
O O10 0.500000 0.500000 0.000000
O O11 0.918600 0.252584 0.815389
O O12 0.787642 0.579448 0.321993
O O13 0.091423 0.181696 0.295162
O O14 0.793848 0.783376 0.879602
O O15 0.500000 0.000000 0.500000
O O16 0.904692 0.714673 0.744430
O O17 0.898459 0.598933 0.223490
O O18 0.032241 0.705403 0.256643
#
# Coordination Sequence:
#
# PCOD9016310 Si02
#       8
#     2   2   2   2   2   2   2   2
#     4  10  22  42  63  89 128 168 213 262 323 385
#     4  12  25  40  63  96 132 168 221 262 328 395
#     4  11  26  46  63  92 139 176 209 276 335 381
#     4  10  21  42  67  93 123 168 219 266 316 392
#     4  11  22  39  64  95 134 165 204 275 337 375
#     4   9  19  35  63  89 125 163 201 261 329 372
#     4   9  18  38  62  92 123 160 210 264 317 379
#     4  10  22  41  69  90 123 170 228 255 314 398
#
# _framework density 20.841833000000001
#
# number of rings (size 3 to 8) (size 9 to 14) (size 15 to 20)
#    0.000    1.750    2.500    1.875    5.250    1.000 
#    2.250    2.500    0.000    0.000    0.000    0.000 
#    0.000    0.000    0.000    0.000    0.000    0.000 
#
# Total GULP energy -89144.365205 kJ/mol
# GULP energy per Si atom -5571.522825 kJ/mol
# Density = 2.079440 g / cm^3
# Si number density = 20.841833 Si / 1000 Ang^3
#
#
#
# Elastic Constant Matrix: (Units=GPa)
#
#
# Indices 1 2 3 4 5 6 
#
# 1 125.2657 32.8327 42.4298 -0.5534 27.5802 -38.1342
# 2 32.8327 58.8919 27.7337 1.3879 8.9391 -24.3960
# 3 42.4298 27.7337 82.7589 7.7387 12.2690 -19.6511
# 4 -0.5534 1.3879 7.7387 30.1180 -13.9865 5.2805
# 5 27.5802 8.9391 12.2690 -13.9865 39.1854 -6.6883
# 6 -38.1342 -24.3960 -19.6511 5.2805 -6.6883 39.0145
#
#
#
# Elastic Compliance Matrix: (Units=1/GPa)
#
#
# Indices 1 2 3 4 5 6 
#
# 1 0.014610 -0.000481 -0.002655 -0.005392 -0.009255 0.011786
# 2 -0.000481 0.025294 -0.004257 -0.003895 -0.003240 0.013174
# 3 -0.002655 -0.004257 0.016976 -0.006830 -0.004320 0.003478
# 4 -0.005392 -0.003895 -0.006830 0.047398 0.021368 -0.013898
# 5 -0.009255 -0.003240 -0.004320 0.021368 0.040173 -0.009254
# 6 0.011786 0.013174 0.003478 -0.013898 -0.009254 0.047435
#
#
# Mechanical properties :
#
#
# Convention : Reuss Voigt Hill
#
# Bulk Modulus (GPa) = 23.75595 52.54546 38.15071
# Shear Modulus (GPa) = 22.65493 32.59161 27.62327
#
# Velocity S-wave (km/s) = 3.30053 3.95873 3.64452
# Velocity P-wave (km/s) = 5.09388 6.79424 6.00455
#
# Compressibility (1/GPa) = 0.04209472
#
# Stress axis : x y z
#
# Youngs Moduli (GPa) = 68.44633 39.53484 58.90749
#
# Poissons Ratio (x) = 0.01902 0.15637
# Poissons Ratio (y) = 0.03293 0.25077
# Poissons Ratio (z) = 0.18169 0.16830
#
# Static dielectric constant tensor:
#      x y z
#    x 1.792130 0.014500 0.028630 
#    y 0.014500 1.787920 0.048250 
#    z 0.028630 0.048250 1.830370 
# 
# From -- ./inp_files/263176.got.cif
#   From: 2010.05.17/outbox.cif.g08.bks.cpg/sg2_132_cif.got.tgz:263176.got - 2010.06.03 11:33:40.
