data_PCOD9016891
_publ_section_title
;
Structure prediction by ZEFSAII (Michael W. Deem and Ramdas Pophale) SiO2 
 PCOD9016891
Probable space group: P -1
;
_chemical_formula_sum "Si O2"
_cell_formula_units_Z 16
_cell_length_a 5.507169
_cell_length_b 11.616447
_cell_length_c 20.324797
_cell_angle_alpha 145.396025
_cell_angle_beta 73.930302
_cell_angle_gamma 119.255734
_cell_volume 623.236228
_symmetry_space_group_name_H-M "P -1"
_symmetry_group_IT_number 2
_symmetry_cell_setting 'triclinic'
loop_
_space_group_symop_operation_xyz
x,y,z
-x,-y,-z
loop_
_atom_site_type_symbol
_atom_site_label
_atom_site_fract_x
_atom_site_fract_y
_atom_site_fract_z
Si Si1 0.257622 0.747922 0.534990
Si Si2 0.368058 0.529032 0.868994
Si Si3 0.082651 0.093650 0.761843
Si Si4 0.823128 0.825934 0.872670
Si Si5 0.243487 0.932671 0.434429
Si Si6 0.913970 0.506353 0.324315
Si Si7 0.627143 0.644681 0.624569
Si Si8 0.928740 0.728444 0.016492
O O1 0.055295 0.694131 0.460796
O O2 0.197456 0.490063 0.432104
O O3 0.201076 0.910194 0.664616
O O4 0.585753 0.912629 0.567092
O O5 0.197869 0.252312 0.763241
O O6 0.517426 0.644684 0.842479
O O7 0.646061 0.619221 0.939631
O O8 0.130076 0.607408 0.941287
O O9 0.169420 0.258440 0.895954
O O10 0.753099 0.907118 0.713558
O O11 0.988125 0.687257 0.773561
O O12 0.862835 0.009137 0.899864
O O13 0.000000 0.000000 0.000000
O O14 0.064510 0.655070 0.317507
O O15 0.500000 0.000000 0.500000
O O16 0.000000 0.000000 0.500000
O O17 0.583713 0.401189 0.319409
O O18 0.500000 0.500000 0.500000
#
# Coordination Sequence:
#
# PCOD9016891 Si02
#       8
#     2   2   2   2   2   2   2   2
#     4  11  24  45  65 107 144 187 242 294 362 432
#     4  11  26  52  72 113 143 191 245 306 363 432
#     4  12  26  44  74 107 147 196 238 303 362 438
#     4  10  24  47  76 104 141 188 246 303 363 429
#     4  10  21  42  69  98 137 183 230 287 348 414
#     4  11  23  46  67 105 142 190 238 299 361 433
#     4  12  26  41  70 101 149 193 244 288 361 439
#     4  11  26  49  78 108 147 188 245 303 370 429
#
# _framework density 25.672447999999999
#
# number of rings (size 3 to 8) (size 9 to 14) (size 15 to 20)
#    0.000    1.000    2.500    3.000    5.250    1.000 
#    4.500    5.000    0.000    0.000    0.000    0.000 
#    0.000    0.000    0.000    0.000    0.000    0.000 
#
# Total GULP energy -89348.099610 kJ/mol
# GULP energy per Si atom -5584.256226 kJ/mol
# Density = 2.561402 g / cm^3
# Si number density = 25.672448 Si / 1000 Ang^3
#
#
#
# Elastic Constant Matrix: (Units=GPa)
#
#
# Indices 1 2 3 4 5 6 
#
# 1 106.4150 20.4654 57.9715 4.3775 -21.3703 10.9551
# 2 20.4654 160.2927 48.8806 40.3721 -5.4770 21.9328
# 3 57.9715 48.8806 114.5807 18.4858 -19.3539 14.0255
# 4 4.3775 40.3721 18.4858 70.6056 5.9158 -0.9545
# 5 -21.3703 -5.4770 -19.3539 5.9158 50.9815 -1.9160
# 6 10.9551 21.9328 14.0255 -0.9545 -1.9160 38.6192
#
#
#
# Elastic Compliance Matrix: (Units=1/GPa)
#
#
# Indices 1 2 3 4 5 6 
#
# 1 0.013584 0.000479 -0.006371 0.000259 0.003235 -0.001645
# 2 0.000479 0.008681 -0.002641 -0.004399 0.000484 -0.004191
# 3 -0.006371 -0.002641 0.014041 -0.002007 0.002545 -0.001716
# 4 0.000259 -0.004399 -0.002007 0.017488 -0.003026 0.003436
# 5 0.003235 0.000484 0.002545 -0.003026 0.022299 -0.001085
# 6 -0.001645 -0.004191 -0.001716 0.003436 -0.001085 0.029395
#
#
# Mechanical properties :
#
#
# Convention : Reuss Voigt Hill
#
# Bulk Modulus (GPa) = 51.97587 70.65815 61.31701
# Shear Modulus (GPa) = 38.76910 48.97269 43.87089
#
# Velocity S-wave (km/s) = 3.89027 4.37234 4.13833
# Velocity P-wave (km/s) = 6.36150 7.28509 6.83891
#
# Compressibility (1/GPa) = 0.01923970
#
# Stress axis : x y z
#
# Youngs Moduli (GPa) = 73.61490 115.19605 71.21858
#
# Poissons Ratio (x) = -0.05517 0.45374
# Poissons Ratio (y) = -0.03525 0.18810
# Poissons Ratio (z) = 0.46901 0.30424
#
# Static dielectric constant tensor:
#      x y z
#    x 1.941480 0.321150 0.267160 
#    y 0.321150 2.117350 0.006340 
#    z 0.267160 0.006340 2.006710 
# 
# From -- ./inp_files/604486.got.cif
#   From: 2010.05.17/outbox.cif.g08.bks.cpg/sg2_303_cif.got.tgz:604486.got - 2010.06.03 11:33:40.
