data_PCOD9016269
_publ_section_title
;
Structure prediction by ZEFSAII (Michael W. Deem and Ramdas Pophale) SiO2 
 PCOD9016269
Probable space group: P -1
;
_chemical_formula_sum "Si O2"
_cell_formula_units_Z 16
_cell_length_a 8.481703
_cell_length_b 20.235146
_cell_length_c 18.616692
_cell_angle_alpha 160.198314
_cell_angle_beta 138.815551
_cell_angle_gamma 35.588289
_cell_volume 628.639210
_symmetry_space_group_name_H-M "P -1"
_symmetry_group_IT_number 2
_symmetry_cell_setting 'triclinic'
loop_
_space_group_symop_operation_xyz
x,y,z
-x,-y,-z
loop_
_atom_site_type_symbol
_atom_site_label
_atom_site_fract_x
_atom_site_fract_y
_atom_site_fract_z
Si Si1 0.444431 0.552679 0.159831
Si Si2 0.991858 0.973725 0.380465
Si Si3 0.606011 0.866084 0.325137
Si Si4 0.022503 0.682060 0.961785
Si Si5 0.207359 0.061648 0.994825
Si Si6 0.396716 0.048486 0.281594
Si Si7 0.767570 0.486595 0.342701
Si Si8 0.553823 0.289804 0.169831
O O1 0.369710 0.375399 0.918154
O O2 0.702582 0.537111 0.188069
O O3 0.189970 0.792813 0.320193
O O4 0.559809 0.484501 0.209174
O O5 0.081221 0.813768 0.178110
O O6 0.094196 0.153861 0.595406
O O7 0.683378 0.033094 0.341144
O O8 0.500000 0.000000 0.500000
O O9 0.436230 0.984690 0.314618
O O10 0.968661 0.843900 0.040357
O O11 0.759090 0.649166 0.855355
O O12 0.261927 0.845818 0.838016
O O13 0.057132 0.269212 0.209288
O O14 0.500000 0.000000 0.000000
O O15 0.198699 0.301510 0.451698
O O16 0.363629 0.879841 0.043547
O O17 0.622351 0.479700 0.359916
#
# Coordination Sequence:
#
# PCOD9016269 Si02
#       8
#     2   2   2   2   2   2   2   2
#     4  11  22  39  60  88 128 171 207 251 310 358
#     4  11  23  40  60  87 134 168 206 257 298 364
#     4  12  24  38  60  89 123 171 209 250 305 367
#     4   9  20  38  62  92 123 160 209 255 305 368
#     4   9  20  40  69  93 120 159 205 260 320 367
#     4  11  25  42  58  95 130 159 214 257 301 370
#     4  11  22  40  67  90 124 164 207 256 309 373
#     4  10  21  42  67  90 121 165 203 263 315 363
#
# _framework density 25.451799000000001
#
# number of rings (size 3 to 8) (size 9 to 14) (size 15 to 20)
#    0.000    1.500    3.750    1.125    0.000    3.000 
#    0.000    0.000    0.000    6.750    0.000    0.000 
#    0.000    0.000    0.000    0.000    0.000    0.000 
#
# Total GULP energy -89402.394164 kJ/mol
# GULP energy per Si atom -5587.649635 kJ/mol
# Density = 2.539387 g / cm^3
# Si number density = 25.451799 Si / 1000 Ang^3
#
#
#
# Elastic Constant Matrix: (Units=GPa)
#
#
# Indices 1 2 3 4 5 6 
#
# 1 122.7957 24.7884 19.7286 6.9662 9.6253 -11.5029
# 2 24.7884 62.7651 -2.0623 4.7947 17.2871 -0.1632
# 3 19.7286 -2.0623 73.9004 4.9206 24.9245 -19.4208
# 4 6.9662 4.7947 4.9206 39.3805 -2.0888 -8.3794
# 5 9.6253 17.2871 24.9245 -2.0888 29.5304 5.9113
# 6 -11.5029 -0.1632 -19.4208 -8.3794 5.9113 57.0767
#
#
#
# Elastic Compliance Matrix: (Units=1/GPa)
#
#
# Indices 1 2 3 4 5 6 
#
# 1 0.009447 -0.004322 -0.003112 -0.000536 0.001928 0.000554
# 2 -0.004322 0.025084 0.011727 -0.003959 -0.024483 0.005146
# 3 -0.003112 0.011727 0.029467 -0.003705 -0.033457 0.012354
# 4 -0.000536 -0.003959 -0.003705 0.027212 0.007169 0.001872
# 5 0.001928 -0.024483 -0.033457 0.007169 0.079976 -0.018296
# 6 0.000554 0.005146 0.012354 0.001872 -0.018296 0.024020
#
#
# Mechanical properties :
#
#
# Convention : Reuss Voigt Hill
#
# Bulk Modulus (GPa) = 13.77689 38.26339 26.02014
# Shear Modulus (GPa) = 23.71765 39.66462 31.69113
#
# Velocity S-wave (km/s) = 3.05596 3.95197 3.53249
# Velocity P-wave (km/s) = 4.22806 5.99086 5.18492
#
# Compressibility (1/GPa) = 0.07258531
#
# Stress axis : x y z
#
# Youngs Moduli (GPa) = 105.85163 39.86634 33.93616
#
# Poissons Ratio (x) = 0.17230 0.10560
# Poissons Ratio (y) = 0.45749 -0.39798
# Poissons Ratio (z) = 0.32937 -0.46752
#
# Static dielectric constant tensor:
#      x y z
#    x 2.061080 0.050330 -0.020410 
#    y 0.050330 2.051420 0.009960 
#    z -0.020410 0.009960 2.018450 
# 
# From -- ./inp_files/591715.got.cif
#   From: 2010.05.17/outbox.cif.g08.bks.cpg/sg2_296_cif.got.tgz:591715.got - 2010.06.03 11:33:40.
