data_PCOD9016120
_publ_section_title
;
Structure prediction by ZEFSAII (Michael W. Deem and Ramdas Pophale) SiO2 
 PCOD9016120
Probable space group: P -1
;
_chemical_formula_sum "Si O2"
_cell_formula_units_Z 14
_cell_length_a 10.966400
_cell_length_b 6.323271
_cell_length_c 10.277539
_cell_angle_alpha 100.538648
_cell_angle_beta 114.678770
_cell_angle_gamma 66.474885
_cell_volume 593.649710
_symmetry_space_group_name_H-M "P -1"
_symmetry_group_IT_number 2
_symmetry_cell_setting 'triclinic'
loop_
_space_group_symop_operation_xyz
x,y,z
-x,-y,-z
loop_
_atom_site_type_symbol
_atom_site_label
_atom_site_fract_x
_atom_site_fract_y
_atom_site_fract_z
Si Si1 0.216103 0.941740 0.167497
Si Si2 0.237679 0.338515 0.851936
Si Si3 0.806202 0.773242 0.562058
Si Si4 0.432013 0.502999 0.114637
Si Si5 0.344898 0.915273 0.691806
Si Si6 0.871620 0.322247 0.394831
Si Si7 0.984202 0.732953 0.095705
O O1 0.369448 0.758811 0.174054
O O2 0.124109 0.800044 0.175088
O O3 0.213072 0.139357 0.289448
O O4 0.131393 0.058738 0.013000
O O5 0.203935 0.531879 0.749531
O O6 0.090822 0.296764 0.809099
O O7 0.349660 0.101116 0.821389
O O8 0.298379 0.422874 0.013788
O O9 0.822429 0.510926 0.509899
O O10 0.959786 0.769122 0.573226
O O11 0.676778 0.953687 0.440674
O O12 0.532335 0.324691 0.242967
O O13 0.500000 0.500000 0.000000
O O14 0.197904 0.866425 0.637391
O O15 0.000000 0.500000 0.000000
#
# Coordination Sequence:
#
# PCOD9016120 Si02
#       7
#     2   2   2   2   2   2   2
#     4  11  25  41  63  99 135 167 210 271 319 379
#     4  11  22  40  69  97 123 168 216 271 323 377
#     4  10  23  40  64  92 130 171 214 262 324 377
#     4  12  24  43  66  93 133 172 214 266 321 383
#     4  11  23  40  66  90 129 175 215 260 313 391
#     4  10  21  42  66  96 127 164 219 271 316 378
#     4  11  22  40  66  99 129 163 210 269 331 372
#
# _framework density 23.582930000000001
#
# number of rings (size 3 to 8) (size 9 to 14) (size 15 to 20)
#    0.000    1.143    2.857    3.429    2.000    4.000 
#    0.000    0.714    0.000    0.000    0.000    0.000 
#    0.000    0.000    0.000    0.000    0.000    0.000 
#
# Total GULP energy -78303.979853 kJ/mol
# GULP energy per Si atom -5593.141418 kJ/mol
# Density = 2.352925 g / cm^3
# Si number density = 23.582930 Si / 1000 Ang^3
#
#
#
# Elastic Constant Matrix: (Units=GPa)
#
#
# Indices 1 2 3 4 5 6 
#
# 1 44.7307 8.2052 1.9630 4.7632 -3.8566 0.0814
# 2 8.2052 96.1367 25.2343 -7.3721 -2.4619 -27.9010
# 3 1.9630 25.2343 77.5796 11.7180 -0.9584 -17.0828
# 4 4.7632 -7.3721 11.7180 39.1973 -3.3207 1.2904
# 5 -3.8566 -2.4619 -0.9584 -3.3207 24.6103 5.6807
# 6 0.0814 -27.9010 -17.0828 1.2904 5.6807 41.3765
#
#
#
# Elastic Compliance Matrix: (Units=1/GPa)
#
#
# Indices 1 2 3 4 5 6 
#
# 1 0.023513 -0.002905 0.000377 -0.003146 0.003499 -0.002232
# 2 -0.002905 0.014148 -0.003298 0.003685 -0.000551 0.008145
# 3 0.000377 -0.003298 0.015826 -0.005679 -0.001504 0.004693
# 4 -0.003146 0.003685 -0.005679 0.028650 0.003814 -0.001271
# 5 0.003499 -0.000551 -0.001504 0.003814 0.043210 -0.007051
# 6 -0.002232 0.008145 0.004693 -0.001271 -0.007051 0.032610
#
#
# Mechanical properties :
#
#
# Convention : Reuss Voigt Hill
#
# Bulk Modulus (GPa) = 23.90403 32.13911 28.02157
# Shear Modulus (GPa) = 27.23980 33.23978 30.23979
#
# Velocity S-wave (km/s) = 3.40231 3.75838 3.58477
# Velocity P-wave (km/s) = 5.05890 5.70014 5.38907
#
# Compressibility (1/GPa) = 0.04183395
#
# Stress axis : x y z
#
# Youngs Moduli (GPa) = 42.52927 70.68207 63.18777
#
# Poissons Ratio (x) = 0.20535 -0.02383
# Poissons Ratio (y) = 0.12356 0.20841
# Poissons Ratio (z) = -0.01604 0.23313
#
# Static dielectric constant tensor:
#      x y z
#    x 1.951920 -0.027580 0.017390 
#    y -0.027580 1.880640 -0.010210 
#    z 0.017390 -0.010210 1.886930 
# 
# From -- ./inp_files/65654.got.cif
#   From: 2010.05.17/outbox.cif.g08.bks.cpg/sg2_33_cif.got.tgz:65654.got - 2010.06.03 11:33:40.
