data_PCOD9016030
_publ_section_title
;
Structure prediction by ZEFSAII (Michael W. Deem and Ramdas Pophale) SiO2 
 PCOD9016030
Probable space group: P -1
;
_chemical_formula_sum "Si O2"
_cell_formula_units_Z 14
_cell_length_a 7.729739
_cell_length_b 12.773157
_cell_length_c 12.396191
_cell_angle_alpha 143.010105
_cell_angle_beta 112.642350
_cell_angle_gamma 85.444707
_cell_volume 619.668589
_symmetry_space_group_name_H-M "P -1"
_symmetry_group_IT_number 2
_symmetry_cell_setting 'triclinic'
loop_
_space_group_symop_operation_xyz
x,y,z
-x,-y,-z
loop_
_atom_site_type_symbol
_atom_site_label
_atom_site_fract_x
_atom_site_fract_y
_atom_site_fract_z
Si Si1 0.909651 0.390136 0.776359
Si Si2 0.171838 0.971423 0.444342
Si Si3 0.331104 0.393513 0.780422
Si Si4 0.107931 0.252387 0.999971
Si Si5 0.373783 0.128956 0.075747
Si Si6 0.053728 0.784938 0.829663
Si Si7 0.300280 0.517035 0.635817
O O1 0.109139 0.395088 0.762122
O O2 0.762578 0.171128 0.587208
O O3 0.000000 0.500000 0.000000
O O4 0.804835 0.519893 0.807762
O O5 0.059976 0.851113 0.214502
O O6 0.316900 0.179272 0.610194
O O7 0.000000 0.000000 0.500000
O O8 0.372744 0.474246 0.735049
O O9 0.500000 0.500000 0.000000
O O10 0.259680 0.144546 0.950964
O O11 0.011662 0.226032 0.072497
O O12 0.527153 0.352332 0.301840
O O13 0.500000 0.000000 0.000000
O O14 0.195847 0.002318 0.010489
O O15 0.181986 0.653765 0.742241
O O16 0.859789 0.678299 0.616333
#
# Coordination Sequence:
#
# PCOD9016030 Si02
#       7
#     2   2   2   2   2   2   2
#     4   9  20  39  63  92 122 167 217 260 324 390
#     4   9  21  39  64  95 122 172 219 254 332 400
#     4  11  22  39  64  94 132 168 216 272 325 391
#     4  11  20  40  72  90 131 175 218 277 327 391
#     4  10  23  39  63  95 129 169 220 271 329 389
#     4  10  21  42  66  91 132 174 217 276 322 394
#     4  10  22  40  63  97 131 172 221 263 336 390
#
# _framework density 22.592721000000001
#
# number of rings (size 3 to 8) (size 9 to 14) (size 15 to 20)
#    0.000    2.000    1.429    1.286    6.000    0.571 
#    0.000    2.857    3.143    0.000    0.000    0.000 
#    0.000    0.000    0.000    0.000    0.000    0.000 
#
# Total GULP energy -77998.187273 kJ/mol
# GULP energy per Si atom -5571.299091 kJ/mol
# Density = 2.254130 g / cm^3
# Si number density = 22.592721 Si / 1000 Ang^3
#
#
#
# Elastic Constant Matrix: (Units=GPa)
#
#
# Indices 1 2 3 4 5 6 
#
# 1 68.8324 52.3566 35.6586 7.4568 3.4142 5.2211
# 2 52.3566 199.7884 81.2237 37.9686 4.3826 -2.6474
# 3 35.6586 81.2237 108.0096 19.2660 -6.7077 2.8235
# 4 7.4568 37.9686 19.2660 46.5068 1.3181 -7.0276
# 5 3.4142 4.3826 -6.7077 1.3181 25.6469 -0.7236
# 6 5.2211 -2.6474 2.8235 -7.0276 -0.7236 32.3944
#
#
#
# Elastic Compliance Matrix: (Units=1/GPa)
#
#
# Indices 1 2 3 4 5 6 
#
# 1 0.019701 -0.003714 -0.004046 0.001196 -0.003190 -0.002938
# 2 -0.003714 0.008810 -0.004746 -0.004466 -0.002002 0.000719
# 3 -0.004046 -0.004746 0.014884 -0.001997 0.005307 -0.001348
# 4 0.001196 -0.004466 -0.001997 0.026627 -0.001135 0.005367
# 5 -0.003190 -0.002002 0.005307 -0.001135 0.041220 0.000562
# 6 -0.002938 0.000719 -0.001348 0.005367 0.000562 0.032696
#
#
# Mechanical properties :
#
#
# Convention : Reuss Voigt Hill
#
# Bulk Modulus (GPa) = 54.39605 79.45647 66.92626
# Shear Modulus (GPa) = 28.55901 34.73572 31.64736
#
# Velocity S-wave (km/s) = 3.55925 3.92532 3.74676
# Velocity P-wave (km/s) = 6.40469 7.46924 6.95736
#
# Compressibility (1/GPa) = 0.01838369
#
# Stress axis : x y z
#
# Youngs Moduli (GPa) = 50.75993 113.50583 67.18756
#
# Poissons Ratio (x) = 0.42159 0.27181
# Poissons Ratio (y) = 0.18854 0.31884
# Poissons Ratio (z) = 0.20535 0.53865
#
# Static dielectric constant tensor:
#      x y z
#    x 1.947230 -0.033190 0.019520 
#    y -0.033190 1.859360 0.061050 
#    z 0.019520 0.061050 1.840860 
# 
# From -- ./inp_files/242414.got.cif
#   From: 2010.05.17/outbox.cif.g08.bks.cpg/sg2_122_cif.got.tgz:242414.got - 2010.06.03 11:33:40.
