data_PCOD9016834
_publ_section_title
;
Structure prediction by ZEFSAII (Michael W. Deem and Ramdas Pophale) SiO2 
 PCOD9016834
Probable space group: P -1
;
_chemical_formula_sum "Si O2"
_cell_formula_units_Z 16
_cell_length_a 7.432309
_cell_length_b 6.445742
_cell_length_c 20.142115
_cell_angle_alpha 76.653705
_cell_angle_beta 65.966972
_cell_angle_gamma 120.454300
_cell_volume 631.764766
_symmetry_space_group_name_H-M "P -1"
_symmetry_group_IT_number 2
_symmetry_cell_setting 'triclinic'
loop_
_space_group_symop_operation_xyz
x,y,z
-x,-y,-z
loop_
_atom_site_type_symbol
_atom_site_label
_atom_site_fract_x
_atom_site_fract_y
_atom_site_fract_z
Si Si1 0.932581 0.814250 0.678093
Si Si2 0.734661 0.673014 0.864219
Si Si3 0.815828 0.390822 0.637967
Si Si4 0.385310 0.829384 0.654514
Si Si5 0.251033 0.043758 0.983186
Si Si6 0.571700 0.994590 0.834025
Si Si7 0.713874 0.520970 0.426577
Si Si8 0.912817 0.452921 0.148762
O O1 0.197511 0.867661 0.645674
O O2 0.755421 0.655713 0.782171
O O3 0.804520 0.633623 0.642069
O O4 0.040181 0.132045 0.641915
O O5 0.465805 0.368504 0.953473
O O6 0.733755 0.926153 0.851086
O O7 0.977334 0.710702 0.854540
O O8 0.120042 0.553374 0.560862
O O9 0.615405 0.131127 0.635984
O O10 0.739151 0.238906 0.734074
O O11 0.423245 0.677946 0.603776
O O12 0.208376 0.595870 0.757081
O O13 0.418402 0.041631 0.902036
O O14 0.000000 0.000000 0.000000
O O15 0.140994 0.777869 0.066552
O O16 0.329930 0.701522 0.853811
O O17 0.500000 0.500000 0.500000
#
# Coordination Sequence:
#
# PCOD9016834 Si02
#       8
#     2   2   2   2   2   2   2   2
#     4  10  21  43  67  98 130 180 230 279 353 416
#     4  11  22  41  65  92 131 184 231 291 346 405
#     4  10  21  42  69  95 135 181 223 283 346 419
#     4   9  23  43  65 100 135 179 233 280 340 427
#     4  12  24  41  62  96 140 181 235 294 341 401
#     4  11  22  43  64  91 135 182 235 283 349 411
#     4  11  24  43  70 102 137 173 222 287 350 423
#     4  10  23  42  62  98 133 177 240 289 342 405
#
# _framework density 25.325880999999999
#
# number of rings (size 3 to 8) (size 9 to 14) (size 15 to 20)
#    0.000    1.500    3.750    0.750    0.000    4.000 
#    9.000    1.250    0.000    0.000    0.000    0.000 
#    0.000    0.000    0.000    0.000    0.000    0.000 
#
# Total GULP energy -89462.570927 kJ/mol
# GULP energy per Si atom -5591.410683 kJ/mol
# Density = 2.526824 g / cm^3
# Si number density = 25.325881 Si / 1000 Ang^3
#
#
#
# Elastic Constant Matrix: (Units=GPa)
#
#
# Indices 1 2 3 4 5 6 
#
# 1 100.4733 46.9603 28.5744 22.0223 -16.7602 -6.2833
# 2 46.9603 170.1418 41.9000 35.6873 0.3165 10.0211
# 3 28.5744 41.9000 91.1383 24.6199 -7.6037 -6.2376
# 4 22.0223 35.6873 24.6199 44.2457 -14.0675 -11.1442
# 5 -16.7602 0.3165 -7.6037 -14.0675 34.7449 -3.8408
# 6 -6.2833 10.0211 -6.2376 -11.1442 -3.8408 35.9400
#
#
#
# Elastic Compliance Matrix: (Units=1/GPa)
#
#
# Indices 1 2 3 4 5 6 
#
# 1 0.013417 -0.003544 -0.001836 0.000270 0.006633 0.003808
# 2 -0.003544 0.009602 -0.001970 -0.008741 -0.006546 -0.007049
# 3 -0.001836 -0.001970 0.013861 -0.004799 0.000353 0.001184
# 4 0.000270 -0.008741 -0.004799 0.042117 0.018052 0.016640
# 5 0.006633 -0.006546 0.000353 0.018052 0.040865 0.013011
# 6 0.003808 -0.007049 0.001184 0.016640 0.013011 0.037211
#
#
# Mechanical properties :
#
#
# Convention : Reuss Voigt Hill
#
# Bulk Modulus (GPa) = 45.09075 66.29142 55.69108
# Shear Modulus (GPa) = 27.90693 39.27403 33.59048
#
# Velocity S-wave (km/s) = 3.32311 3.94222 3.64583
# Velocity P-wave (km/s) = 5.70675 6.85228 6.30558
#
# Compressibility (1/GPa) = 0.02217750
#
# Stress axis : x y z
#
# Youngs Moduli (GPa) = 74.53224 104.14870 72.14596
#
# Poissons Ratio (x) = 0.36914 0.13247
# Poissons Ratio (y) = 0.26417 0.14216
# Poissons Ratio (z) = 0.13685 0.20522
#
# Static dielectric constant tensor:
#      x y z
#    x 1.981750 -0.042610 0.019790 
#    y -0.042610 2.102770 0.005830 
#    z 0.019790 0.005830 2.013490 
# 
# From -- ./inp_files/605861.got.cif
#   From: 2010.05.17/outbox.cif.g08.bks.cpg/sg2_303_cif.got.tgz:605861.got - 2010.06.03 11:33:40.
