data_PCOD9016937
_publ_section_title
;
Structure prediction by ZEFSAII (Michael W. Deem and Ramdas Pophale) SiO2 
 PCOD9016937
Probable space group: P -1
;
_chemical_formula_sum "Si O2"
_cell_formula_units_Z 15
_cell_length_a 14.765363
_cell_length_b 8.413047
_cell_length_c 8.375131
_cell_angle_alpha 109.707541
_cell_angle_beta 44.682413
_cell_angle_gamma 108.186755
_cell_volume 684.589886
_symmetry_space_group_name_H-M "P -1"
_symmetry_group_IT_number 2
_symmetry_cell_setting 'triclinic'
loop_
_space_group_symop_operation_xyz
x,y,z
-x,-y,-z
loop_
_atom_site_type_symbol
_atom_site_label
_atom_site_fract_x
_atom_site_fract_y
_atom_site_fract_z
Si Si1 0.907036 0.522611 0.474567
Si Si2 0.673669 0.981167 0.773756
Si Si3 0.000000 0.000000 0.000000
Si Si4 0.623225 0.557912 0.979285
Si Si5 0.439672 0.757665 0.834213
Si Si6 0.513936 0.201673 0.563770
Si Si7 0.768689 0.185331 0.416674
Si Si8 0.052707 0.131930 0.615612
O O1 0.880123 0.339499 0.361919
O O2 0.970062 0.676540 0.338033
O O3 0.000000 0.500000 0.500000
O O4 0.763729 0.563275 0.724433
O O5 0.552008 0.847510 0.838175
O O6 0.794370 0.877327 0.589401
O O7 0.697893 0.118564 0.646096
O O8 0.657728 0.096213 0.988311
O O9 0.009659 0.068270 0.823086
O O10 0.845067 0.033357 0.209227
O O11 0.620347 0.415482 0.072127
O O12 0.588854 0.728616 0.165731
O O13 0.500000 0.500000 0.000000
O O14 0.494183 0.731179 0.582524
O O15 0.658684 0.249493 0.466165
O O16 0.500000 0.000000 0.500000
O O17 0.000000 0.000000 0.500000
#
# Coordination Sequence:
#
# PCOD9016937 Si02
#       8
#     2   2   1   2   2   2   2   2
#     4  12  26  46  77 108 145 195 251 302 373 450
#     4  10  21  42  70 101 140 189 240 296 364 437
#     4  10  26  46  72 102 148 188 244 308 360 444
#     4  12  25  47  73 102 147 193 243 301 366 438
#     4  11  23  41  71 102 143 189 237 301 362 436
#     4  12  26  41  69 109 145 186 243 305 366 431
#     4  11  23  47  68 106 145 184 245 302 366 436
#     4  11  26  46  74 103 141 194 248 298 378 443
#
# _framework density 21.91093
#
# number of rings (size 3 to 8) (size 9 to 14) (size 15 to 20)
#    0.000    0.800    4.000    2.800    5.600    1.600 
#    0.000    0.000    0.000    0.000    0.000    0.000 
#    0.000    0.000    0.000    0.000    0.000    0.000 
#
# Total GULP energy -83575.027068 kJ/mol
# GULP energy per Si atom -5571.668471 kJ/mol
# Density = 2.186106 g / cm^3
# Si number density = 21.910930 Si / 1000 Ang^3
#
#
#
# Elastic Constant Matrix: (Units=GPa)
#
#
# Indices 1 2 3 4 5 6 
#
# 1 75.1578 16.4336 9.3743 -9.0117 2.6918 -7.6111
# 2 16.4336 92.7929 -11.9599 -21.4743 19.1190 -9.1598
# 3 9.3743 -11.9599 82.4995 -3.2252 1.2300 -12.4156
# 4 -9.0117 -21.4743 -3.2252 30.6983 -8.3080 3.7776
# 5 2.6918 19.1190 1.2300 -8.3080 30.9054 -6.3488
# 6 -7.6111 -9.1598 -12.4156 3.7776 -6.3488 31.2329
#
#
#
# Elastic Compliance Matrix: (Units=1/GPa)
#
#
# Indices 1 2 3 4 5 6 
#
# 1 0.014474 -0.002210 -0.001549 0.002627 0.001330 0.002216
# 2 -0.002210 0.015102 0.003291 0.008147 -0.006497 0.002893
# 3 -0.001549 0.003291 0.013724 0.002424 -0.000641 0.005620
# 4 0.002627 0.008147 0.002424 0.040803 0.005646 0.000206
# 5 0.001330 -0.006497 -0.000641 0.005646 0.038910 0.005391
# 6 0.002216 0.002893 0.005620 0.000206 0.005391 0.036711
#
#
# Mechanical properties :
#
#
# Convention : Reuss Voigt Hill
#
# Bulk Modulus (GPa) = 23.60469 30.90512 27.25490
# Shear Modulus (GPa) = 28.60735 34.34082 31.47409
#
# Velocity S-wave (km/s) = 3.61726 3.96320 3.79417
# Velocity P-wave (km/s) = 5.31436 5.92268 5.62675
#
# Compressibility (1/GPa) = 0.04236446
#
# Stress axis : x y z
#
# Youngs Moduli (GPa) = 69.09165 66.21751 72.86262
#
# Poissons Ratio (x) = 0.14635 0.11284
# Poissons Ratio (y) = 0.15270 -0.23980
# Poissons Ratio (z) = 0.10700 -0.21793
#
# Static dielectric constant tensor:
#      x y z
#    x 1.847600 0.439900 -0.929480 
#    y 0.439900 -9.422520 21.750050 
#    z -0.929480 21.750050 -40.058920 
# 
# From -- ./inp_files/295943.got.cif
#   From: 2010.05.17/outbox.cif.g08.bks.cpg/sg2_148_cif.got.tgz:295943.got - 2010.06.03 11:33:40.
