data_PCOD9016077
_publ_section_title
;
Structure prediction by ZEFSAII (Michael W. Deem and Ramdas Pophale) SiO2 
 PCOD9016077
Probable space group: P -1
;
_chemical_formula_sum "Si O2"
_cell_formula_units_Z 16
_cell_length_a 9.410461
_cell_length_b 12.388594
_cell_length_c 17.778420
_cell_angle_alpha 132.648210
_cell_angle_beta 117.195176
_cell_angle_gamma 102.712109
_cell_volume 795.847254
_symmetry_space_group_name_H-M "P -1"
_symmetry_group_IT_number 2
_symmetry_cell_setting 'triclinic'
loop_
_space_group_symop_operation_xyz
x,y,z
-x,-y,-z
loop_
_atom_site_type_symbol
_atom_site_label
_atom_site_fract_x
_atom_site_fract_y
_atom_site_fract_z
Si Si1 0.623885 0.181485 0.184833
Si Si2 0.076307 0.752753 0.577634
Si Si3 0.342659 0.327008 0.541896
Si Si4 0.771697 0.618357 0.095603
Si Si5 0.837084 0.056691 0.781391
Si Si6 0.262637 0.127867 0.162104
Si Si7 0.787171 0.924875 0.468470
Si Si8 0.438420 0.839165 0.223902
O O1 0.806554 0.218444 0.301802
O O2 0.380114 0.073340 0.122063
O O3 0.829303 0.468800 0.352369
O O4 0.500000 0.000000 0.000000
O O5 0.959508 0.827760 0.598211
O O6 0.315579 0.924524 0.657292
O O7 0.513759 0.578464 0.659071
O O8 0.388328 0.315570 0.634301
O O9 0.357517 0.191076 0.432916
O O10 0.873439 0.741015 0.094976
O O11 0.500000 0.500000 0.000000
O O12 0.711744 0.401406 0.971591
O O13 0.016811 0.837829 0.315758
O O14 0.748745 0.160381 0.805090
O O15 0.808726 0.972286 0.818094
O O16 0.000000 0.000000 0.000000
O O17 0.582021 0.872067 0.346307
O O18 0.000000 0.000000 0.500000
#
# Coordination Sequence:
#
# PCOD9016077 Si02
#       8
#     2   2   2   2   2   2   2   2
#     4  10  23  42  66  97 130 175 226 269 326 390
#     4  10  21  42  66  94 131 173 220 272 326 392
#     4  10  23  43  66  91 130 178 220 266 332 398
#     4  11  24  43  70  98 131 178 220 268 334 402
#     4  11  25  45  64  96 134 175 215 278 342 382
#     4  11  25  42  64  99 131 172 221 275 333 396
#     4  11  22  42  68 100 126 175 226 267 330 390
#     4  12  23  43  68  96 140 167 219 284 323 396
#
# _framework density 20.10436
#
# number of rings (size 3 to 8) (size 9 to 14) (size 15 to 20)
#    0.000    1.250    3.750    1.500    3.500    4.000 
#    2.250    0.000    0.000    0.000    0.000    0.000 
#    0.000    0.000    0.000    0.000    0.000    0.000 
#
# Total GULP energy -89292.862734 kJ/mol
# GULP energy per Si atom -5580.803921 kJ/mol
# Density = 2.005860 g / cm^3
# Si number density = 20.104360 Si / 1000 Ang^3
#
#
#
# Elastic Constant Matrix: (Units=GPa)
#
#
# Indices 1 2 3 4 5 6 
#
# 1 118.3862 53.3003 41.6687 1.4540 -17.4280 3.7730
# 2 53.3003 130.6648 30.1830 -6.8615 -8.2566 16.4289
# 3 41.6687 30.1830 93.1119 -10.0658 -19.2728 3.7491
# 4 1.4540 -6.8615 -10.0658 27.9333 0.7490 6.3951
# 5 -17.4280 -8.2566 -19.2728 0.7490 33.4367 3.1885
# 6 3.7730 16.4289 3.7491 6.3951 3.1885 43.4420
#
#
#
# Elastic Compliance Matrix: (Units=1/GPa)
#
#
# Indices 1 2 3 4 5 6 
#
# 1 0.012146 -0.004193 -0.003861 -0.003396 0.003037 0.001141
# 2 -0.004193 0.010248 -0.000904 0.003306 0.000125 -0.003929
# 3 -0.003861 -0.000904 0.014744 0.005552 0.006317 -0.001876
# 4 -0.003396 0.003306 0.005552 0.040460 0.002059 -0.007542
# 5 0.003037 0.000125 0.006317 0.002059 0.035475 -0.003763
# 6 0.001141 -0.003929 -0.001876 -0.007542 -0.003763 0.025954
#
#
# Mechanical properties :
#
#
# Convention : Reuss Voigt Hill
#
# Bulk Modulus (GPa) = 52.02249 65.82966 58.92607
# Shear Modulus (GPa) = 30.60909 35.42978 33.01943
#
# Velocity S-wave (km/s) = 3.90617 4.20252 4.05705
# Velocity P-wave (km/s) = 6.80269 7.50755 7.16379
#
# Compressibility (1/GPa) = 0.01922245
#
# Stress axis : x y z
#
# Youngs Moduli (GPa) = 82.33251 97.58246 67.82439
#
# Poissons Ratio (x) = 0.40912 0.26185
# Poissons Ratio (y) = 0.34518 0.06133
# Poissons Ratio (z) = 0.31786 0.08825
#
# Static dielectric constant tensor:
#      x y z
#    x 1.702870 -0.089310 -0.007010 
#    y -0.089310 1.393100 -0.006600 
#    z -0.007010 -0.006600 1.723980 
# 
# From -- ./inp_files/400110.got.cif
#   From: 2010.05.17/outbox.cif.g08.bks.cpg/sg2_201_cif.got.tgz:400110.got - 2010.06.03 11:33:40.
