data_PCOD9016827
_publ_section_title
;
Structure prediction by ZEFSAII (Michael W. Deem and Ramdas Pophale) SiO2 
 PCOD9016827
Probable space group: P -1
;
_chemical_formula_sum "Si O2"
_cell_formula_units_Z 15
_cell_length_a 8.311755
_cell_length_b 12.052748
_cell_length_c 9.184000
_cell_angle_alpha 114.230227
_cell_angle_beta 82.093908
_cell_angle_gamma 58.939099
_cell_volume 642.845605
_symmetry_space_group_name_H-M "P -1"
_symmetry_group_IT_number 2
_symmetry_cell_setting 'triclinic'
loop_
_space_group_symop_operation_xyz
x,y,z
-x,-y,-z
loop_
_atom_site_type_symbol
_atom_site_label
_atom_site_fract_x
_atom_site_fract_y
_atom_site_fract_z
Si Si1 0.856922 0.079934 0.759890
Si Si2 0.413979 0.483814 0.233582
Si Si3 0.289956 0.789360 0.447373
Si Si4 0.000000 0.000000 0.000000
Si Si5 0.654894 0.925969 0.658412
Si Si6 0.231431 0.521635 0.961171
Si Si7 0.222196 0.239982 0.754288
Si Si8 0.470043 0.784632 0.708656
O O1 0.876351 0.120078 0.939498
O O2 0.788626 0.972111 0.731981
O O3 0.088489 0.967030 0.602645
O O4 0.699282 0.207850 0.728088
O O5 0.262330 0.660331 0.413431
O O6 0.318761 0.478763 0.092954
O O7 0.448258 0.363922 0.282921
O O8 0.617737 0.467350 0.151950
O O9 0.460716 0.755643 0.521820
O O10 0.229383 0.920684 0.855361
O O11 0.766041 0.823117 0.442688
O O12 0.610379 0.838220 0.727857
O O13 0.428611 0.088767 0.726448
O O14 0.995824 0.685824 0.097173
O O15 0.224788 0.386014 0.832555
#
# Coordination Sequence:
#
# PCOD9016827 Si02
#       8
#     2   2   2   1   2   2   2   2
#     4  10  22  42  70  98 130 172 219 274 325 392
#     4  11  23  39  66  93 133 180 217 269 327 394
#     4  10  21  42  69  95 131 173 226 264 323 396
#     4  10  26  42  60  98 134 162 220 272 326 378
#     4  11  22  40  70  91 133 175 221 263 332 398
#     4  10  23  40  64  95 137 169 223 277 333 382
#     4  10  22  42  64 101 126 174 222 273 326 400
#     4  11  25  40  62  99 134 173 217 273 323 396
#
# _framework density 23.333753999999999
#
# number of rings (size 3 to 8) (size 9 to 14) (size 15 to 20)
#    0.000    1.600    0.000    4.400    7.467    1.600 
#    0.000    4.000    0.000    0.800    0.000    0.000 
#    0.000    0.000    0.000    0.000    0.000    0.000 
#
# Total GULP energy -83565.000397 kJ/mol
# GULP energy per Si atom -5571.000026 kJ/mol
# Density = 2.328065 g / cm^3
# Si number density = 23.333754 Si / 1000 Ang^3
#
#
#
# Elastic Constant Matrix: (Units=GPa)
#
#
# Indices 1 2 3 4 5 6 
#
# 1 44.6443 26.5293 2.1424 0.0969 -2.6814 11.6532
# 2 26.5293 118.2059 18.9392 -6.0284 6.6362 24.1105
# 3 2.1424 18.9392 57.2204 14.6815 -14.5279 -5.5523
# 4 0.0969 -6.0284 14.6815 40.6895 -2.5492 -1.1314
# 5 -2.6814 6.6362 -14.5279 -2.5492 26.4512 1.3114
# 6 11.6532 24.1105 -5.5523 -1.1314 1.3114 31.8626
#
#
#
# Elastic Compliance Matrix: (Units=1/GPa)
#
#
# Indices 1 2 3 4 5 6 
#
# 1 0.027521 -0.005755 0.002116 -0.001492 0.005531 -0.005622
# 2 -0.005755 0.013569 -0.008185 0.004246 -0.007622 -0.009124
# 3 0.002116 -0.008185 0.027614 -0.009921 0.016022 0.009220
# 4 -0.001492 0.004246 -0.009921 0.028463 -0.003762 -0.003231
# 5 0.005531 -0.007622 0.016022 -0.003762 0.048497 0.004407
# 6 -0.005622 -0.009124 0.009220 -0.003231 0.004407 0.041656
#
#
# Mechanical properties :
#
#
# Convention : Reuss Voigt Hill
#
# Bulk Modulus (GPa) = 22.19564 35.03249 28.61406
# Shear Modulus (GPa) = 22.12512 31.29796 26.71154
#
# Velocity S-wave (km/s) = 3.08263 3.66637 3.38710
# Velocity P-wave (km/s) = 4.71201 5.74189 5.25225
#
# Compressibility (1/GPa) = 0.04505389
#
# Stress axis : x y z
#
# Youngs Moduli (GPa) = 36.33627 73.69996 36.21294
#
# Poissons Ratio (x) = 0.42418 -0.07663
# Poissons Ratio (y) = 0.20913 0.29642
# Poissons Ratio (z) = -0.07689 0.60327
#
# Static dielectric constant tensor:
#      x y z
#    x 1.919540 0.006500 -0.010080 
#    y 0.006500 1.865310 0.086130 
#    z -0.010080 0.086130 1.904050 
# 
# From -- ./inp_files/181441.got.cif
#   From: 2010.05.17/outbox.cif.g08.bks.cpg/sg2_91_cif.got.tgz:181441.got - 2010.06.03 11:33:40.
