data_PCOD9016535
_publ_section_title
;
Structure prediction by ZEFSAII (Michael W. Deem and Ramdas Pophale) SiO2 
 PCOD9016535
Probable space group: P -1
;
_chemical_formula_sum "Si O2"
_cell_formula_units_Z 16
_cell_length_a 9.695888
_cell_length_b 9.113187
_cell_length_c 11.205351
_cell_angle_alpha 90.999686
_cell_angle_beta 76.231239
_cell_angle_gamma 121.380893
_cell_volume 814.192841
_symmetry_space_group_name_H-M "P -1"
_symmetry_group_IT_number 2
_symmetry_cell_setting 'triclinic'
loop_
_space_group_symop_operation_xyz
x,y,z
-x,-y,-z
loop_
_atom_site_type_symbol
_atom_site_label
_atom_site_fract_x
_atom_site_fract_y
_atom_site_fract_z
Si Si1 0.475189 0.584077 0.889096
Si Si2 0.149716 0.554453 0.060740
Si Si3 0.990504 0.734128 0.426803
Si Si4 0.317112 0.089014 0.297323
Si Si5 0.360323 0.296824 0.527794
Si Si6 0.490283 0.674384 0.269106
Si Si7 0.091079 0.460568 0.328111
Si Si8 0.416617 0.884446 0.128755
O O1 0.630430 0.772825 0.819862
O O2 0.457077 0.458424 0.784097
O O3 0.500000 0.500000 0.000000
O O4 0.306004 0.579198 0.952577
O O5 0.092719 0.426652 0.185767
O O6 0.231999 0.737152 0.117679
O O7 0.000000 0.500000 0.000000
O O8 0.013827 0.580995 0.367927
O O9 0.815436 0.714796 0.432748
O O10 0.995854 0.704196 0.568358
O O11 0.131107 0.924180 0.354432
O O12 0.367767 0.199821 0.408425
O O13 0.414138 0.994211 0.240739
O O14 0.500000 0.500000 0.500000
O O15 0.404806 0.228307 0.635229
O O16 0.288201 0.569831 0.328760
O O17 0.511411 0.793383 0.154408
O O18 0.500000 0.000000 0.000000
#
# Coordination Sequence:
#
# PCOD9016535 Si02
#       8
#     2   2   2   2   2   2   2   2
#     4  12  22  41  73  95 128 183 223 268 339 406
#     4  11  24  41  68 100 127 174 228 271 323 402
#     4  11  23  43  66  96 134 182 216 283 335 399
#     4  12  24  42  71  98 133 178 224 277 342 393
#     4  12  25  41  67 101 137 173 229 279 335 400
#     4  11  22  43  66 100 130 176 224 272 332 403
#     4  10  21  42  68  90 139 179 220 263 352 399
#     4  11  22  46  66  96 135 175 218 279 335 399
#
# _framework density 19.651364000000001
#
# number of rings (size 3 to 8) (size 9 to 14) (size 15 to 20)
#    0.000    0.750    8.750    0.375    1.750    0.500 
#    2.250    0.000    0.000    3.000    0.000    0.000 
#    0.000    0.000    0.000    0.000    0.000    0.000 
#
# Total GULP energy -89177.932332 kJ/mol
# GULP energy per Si atom -5573.620771 kJ/mol
# Density = 1.960664 g / cm^3
# Si number density = 19.651364 Si / 1000 Ang^3
#
#
#
# Elastic Constant Matrix: (Units=GPa)
#
#
# Indices 1 2 3 4 5 6 
#
# 1 107.3661 45.7369 68.2793 3.0776 5.0670 4.7195
# 2 45.7369 88.4681 47.4155 -10.0039 -1.7741 -3.1230
# 3 68.2793 47.4155 126.0021 -16.3499 2.3972 5.1198
# 4 3.0776 -10.0039 -16.3499 52.8326 -9.5595 -5.2832
# 5 5.0670 -1.7741 2.3972 -9.5595 37.6262 4.4121
# 6 4.7195 -3.1230 5.1198 -5.2832 4.4121 16.3012
#
#
#
# Elastic Compliance Matrix: (Units=1/GPa)
#
#
# Indices 1 2 3 4 5 6 
#
# 1 0.016982 -0.005547 -0.007570 -0.005362 -0.002894 -0.004556
# 2 -0.005547 0.016445 -0.003025 0.003469 0.001854 0.006329
# 3 -0.007570 -0.003025 0.013765 0.004187 0.001262 -0.001696
# 4 -0.005362 0.003469 0.004187 0.022892 0.005638 0.006795
# 5 -0.002894 0.001854 0.001262 0.005638 0.029020 -0.005230
# 6 -0.004556 0.006329 -0.001696 0.006795 -0.005230 0.068028
#
#
# Mechanical properties :
#
#
# Convention : Reuss Voigt Hill
#
# Bulk Modulus (GPa) = 67.07960 71.63331 69.35645
# Shear Modulus (GPa) = 24.46347 32.04564 28.25455
#
# Velocity S-wave (km/s) = 3.53210 4.04258 3.79594
# Velocity P-wave (km/s) = 7.13045 7.63683 7.38798
#
# Compressibility (1/GPa) = 0.01490766
#
# Stress axis : x y z
#
# Youngs Moduli (GPa) = 58.88623 60.80705 72.64711
#
# Poissons Ratio (x) = 0.33730 0.54997
# Poissons Ratio (y) = 0.32665 0.21975
# Poissons Ratio (z) = 0.44579 0.18393
#
# Static dielectric constant tensor:
#      x y z
#    x 1.676020 -0.031100 -0.012170 
#    y -0.031100 1.732050 -0.025220 
#    z -0.012170 -0.025220 1.777070 
# 
# From -- ./inp_files/379134.got.cif
#   From: 2010.05.17/outbox.cif.g08.bks.cpg/sg2_190_cif.got.tgz:379134.got - 2010.06.03 11:33:40.
