data_PCOD9016700
_publ_section_title
;
Structure prediction by ZEFSAII (Michael W. Deem and Ramdas Pophale) SiO2 
 PCOD9016700
Probable space group: P -1
;
_chemical_formula_sum "Si O2"
_cell_formula_units_Z 14
_cell_length_a 14.075635
_cell_length_b 5.732420
_cell_length_c 12.859016
_cell_angle_alpha 78.043758
_cell_angle_beta 129.108268
_cell_angle_gamma 69.186015
_cell_volume 605.048882
_symmetry_space_group_name_H-M "P -1"
_symmetry_group_IT_number 2
_symmetry_cell_setting 'triclinic'
loop_
_space_group_symop_operation_xyz
x,y,z
-x,-y,-z
loop_
_atom_site_type_symbol
_atom_site_label
_atom_site_fract_x
_atom_site_fract_y
_atom_site_fract_z
Si Si1 0.196107 0.748162 0.454935
Si Si2 0.658435 0.333398 0.247519
Si Si3 0.933211 0.126470 0.059688
Si Si4 0.308392 0.209434 0.236744
Si Si5 0.557919 0.777523 0.963079
Si Si6 0.340246 0.096955 0.507991
Si Si7 0.650365 0.114998 0.885293
O O1 0.190046 0.750131 0.577483
O O2 0.282308 0.395294 0.509425
O O3 0.277116 0.909865 0.496719
O O4 0.058678 0.954995 0.255521
O O5 0.654090 0.445711 0.117039
O O6 0.506193 0.609629 0.186482
O O7 0.601143 0.131265 0.209213
O O8 0.846941 0.487406 0.950970
O O9 0.797995 0.104533 0.002151
O O10 0.000000 0.000000 0.000000
O O11 0.285833 0.226195 0.341642
O O12 0.356764 0.901942 0.243223
O O13 0.468375 0.162311 0.334909
O O14 0.660552 0.828493 0.959787
O O15 0.500000 0.000000 0.000000
#
# Coordination Sequence:
#
# PCOD9016700 Si02
#       7
#     2   2   2   2   2   2   2
#     4  12  25  43  65 101 138 180 225 286 339 404
#     4  10  21  42  69 100 129 168 228 290 343 404
#     4  12  26  41  61  95 146 189 226 270 339 405
#     4  11  24  40  66  92 134 182 235 279 334 402
#     4   9  20  39  70 101 125 163 227 291 347 402
#     4  11  25  42  67  95 134 179 239 283 332 395
#     4  11  21  39  67  93 130 178 229 275 335 409
#
# _framework density 23.138627
#
# number of rings (size 3 to 8) (size 9 to 14) (size 15 to 20)
#    0.000    1.143    2.857    3.429    4.000    2.286 
#    0.000    0.714    0.000   12.000    0.000    0.000 
#    0.000    0.000    0.000    0.000    0.000    0.000 
#
# Total GULP energy -77962.022747 kJ/mol
# GULP energy per Si atom -5568.715911 kJ/mol
# Density = 2.308596 g / cm^3
# Si number density = 23.138627 Si / 1000 Ang^3
#
#
#
# Elastic Constant Matrix: (Units=GPa)
#
#
# Indices 1 2 3 4 5 6 
#
# 1 59.9812 18.1272 15.7333 3.2429 -5.0394 16.0165
# 2 18.1272 107.0361 31.2198 21.5246 1.2359 2.1293
# 3 15.7333 31.2198 154.7051 16.7621 -10.6116 2.3708
# 4 3.2429 21.5246 16.7621 48.4077 2.9713 -3.5878
# 5 -5.0394 1.2359 -10.6116 2.9713 22.7950 6.3204
# 6 16.0165 2.1293 2.3708 -3.5878 6.3204 36.2806
#
#
#
# Elastic Compliance Matrix: (Units=1/GPa)
#
#
# Indices 1 2 3 4 5 6 
#
# 1 0.021324 -0.003055 -0.000752 -0.001064 0.007612 -0.010617
# 2 -0.003055 0.011152 -0.001631 -0.004033 -0.001707 0.000699
# 3 -0.000752 -0.001631 0.007377 -0.002087 0.003888 -0.000938
# 4 -0.001064 -0.004033 -0.002087 0.023872 -0.005241 0.004117
# 5 0.007612 -0.001707 0.003888 -0.005241 0.051756 -0.013049
# 6 -0.010617 0.000699 -0.000938 0.004117 -0.013049 0.034951
#
#
# Mechanical properties :
#
#
# Convention : Reuss Voigt Hill
#
# Bulk Modulus (GPa) = 34.50857 50.20922 42.35889
# Shear Modulus (GPa) = 29.24540 38.60612 33.92576
#
# Velocity S-wave (km/s) = 3.55902 4.08912 3.83325
# Velocity P-wave (km/s) = 5.64226 6.63634 6.15939
#
# Compressibility (1/GPa) = 0.02897831
#
# Stress axis : x y z
#
# Youngs Moduli (GPa) = 46.89460 89.66613 135.56201
#
# Poissons Ratio (x) = 0.27391 0.10195
# Poissons Ratio (y) = 0.14325 0.22107
# Poissons Ratio (z) = 0.03527 0.14623
#
# Static dielectric constant tensor:
#      x y z
#    x 1.953000 0.053200 -0.117500 
#    y 0.053200 1.913660 -0.037120 
#    z -0.117500 -0.037120 2.056320 
# 
# From -- ./inp_files/34575.got.cif
#   From: 2010.05.17/outbox.cif.g08.bks.cpg/sg2_18_cif.got.tgz:34575.got - 2010.06.03 11:33:40.
