data_PCOD9016525
_publ_section_title
;
Structure prediction by ZEFSAII (Michael W. Deem and Ramdas Pophale) SiO2 
 PCOD9016525
Probable space group: P -1
;
_chemical_formula_sum "Si O2"
_cell_formula_units_Z 16
_cell_length_a 15.277340
_cell_length_b 9.152809
_cell_length_c 12.147466
_cell_angle_alpha 111.891106
_cell_angle_beta 137.133850
_cell_angle_gamma 46.403404
_cell_volume 805.979275
_symmetry_space_group_name_H-M "P -1"
_symmetry_group_IT_number 2
_symmetry_cell_setting 'triclinic'
loop_
_space_group_symop_operation_xyz
x,y,z
-x,-y,-z
loop_
_atom_site_type_symbol
_atom_site_label
_atom_site_fract_x
_atom_site_fract_y
_atom_site_fract_z
Si Si1 0.171204 0.665591 0.896259
Si Si2 0.831963 0.397884 0.526341
Si Si3 0.225738 0.190658 0.064672
Si Si4 0.536101 0.046067 0.168573
Si Si5 0.845706 0.057867 0.211767
Si Si6 0.435633 0.622190 0.773735
Si Si7 0.813462 0.584576 0.341617
Si Si8 0.067737 0.362328 0.190013
O O1 0.094789 0.848884 0.787643
O O2 0.221122 0.468065 0.820930
O O3 0.027791 0.709733 0.859769
O O4 0.360319 0.579124 0.080773
O O5 0.665666 0.425416 0.405476
O O6 0.798795 0.467396 0.388747
O O7 0.855016 0.554346 0.643515
O O8 0.000070 0.152374 0.635771
O O9 0.390769 0.132816 0.147427
O O10 0.203361 0.197784 0.176909
O O11 0.079591 0.424151 0.949903
O O12 0.211499 0.033344 0.949460
O O13 0.567883 0.203698 0.233594
O O14 0.693821 0.829134 0.305379
O O15 0.500000 0.000000 0.000000
O O16 0.684162 0.246596 0.190247
O O17 0.000000 0.500000 0.500000
#
# Coordination Sequence:
#
# PCOD9016525 Si02
#       8
#     2   2   2   2   2   2   2   2
#     4  12  23  38  64  96 126 165 209 256 314 376
#     4  11  25  40  60  95 132 166 202 261 321 368
#     4  10  21  42  68  88 124 169 216 255 304 378
#     4  12  22  39  67  98 122 161 214 258 315 373
#     4  11  23  38  64  95 128 162 206 261 319 368
#     4  12  23  37  62  99 130 152 202 270 316 365
#     4  12  23  37  64  94 131 164 205 262 315 371
#     4  10  22  44  65  88 124 176 213 250 308 378
#
# _framework density 19.851626
#
# number of rings (size 3 to 8) (size 9 to 14) (size 15 to 20)
#    0.000    0.750    6.250    1.500    3.500    0.500 
#    0.000    1.250    0.000    0.000    0.000    0.000 
#    0.000    0.000    0.000    0.000    0.000    0.000 
#
# Total GULP energy -89081.370492 kJ/mol
# GULP energy per Si atom -5567.585656 kJ/mol
# Density = 1.980644 g / cm^3
# Si number density = 19.851626 Si / 1000 Ang^3
#
#
#
# Elastic Constant Matrix: (Units=GPa)
#
#
# Indices 1 2 3 4 5 6 
#
# 1 166.5158 49.9998 43.2306 23.4804 10.8498 5.6728
# 2 49.9998 59.1681 21.4431 -1.1035 3.9281 12.5564
# 3 43.2306 21.4431 77.1421 -1.8599 21.8755 -7.2537
# 4 23.4804 -1.1035 -1.8599 30.2381 12.1288 1.3210
# 5 10.8498 3.9281 21.8755 12.1288 29.9183 2.1514
# 6 5.6728 12.5564 -7.2537 1.3210 2.1514 37.5542
#
#
#
# Elastic Compliance Matrix: (Units=1/GPa)
#
#
# Indices 1 2 3 4 5 6 
#
# 1 0.011267 -0.007854 -0.006252 -0.011971 0.006386 -0.000228
# 2 -0.007854 0.026853 -0.003579 0.007416 -0.000440 -0.008719
# 3 -0.006252 -0.003579 0.024729 0.014672 -0.021842 0.007653
# 4 -0.011971 0.007416 0.014672 0.055486 -0.029992 0.001929
# 5 0.006386 -0.000440 -0.021842 -0.029992 0.059828 -0.007409
# 6 -0.000228 -0.008719 0.007653 0.001929 -0.007409 0.031413
#
#
# Mechanical properties :
#
#
# Convention : Reuss Voigt Hill
#
# Bulk Modulus (GPa) = 36.39226 59.13033 47.76129
# Shear Modulus (GPa) = 19.67702 32.08563 25.88132
#
# Velocity S-wave (km/s) = 3.15176 4.02465 3.61465
# Velocity P-wave (km/s) = 5.62287 7.17272 6.44455
#
# Compressibility (1/GPa) = 0.02747837
#
# Stress axis : x y z
#
# Youngs Moduli (GPa) = 88.75860 37.23999 40.43906
#
# Poissons Ratio (x) = 0.29248 0.25281
# Poissons Ratio (y) = 0.69710 0.14474
# Poissons Ratio (z) = 0.55489 0.13329
#
# Static dielectric constant tensor:
#      x y z
#    x 1.753040 -0.027050 0.044150 
#    y -0.027050 1.698090 0.017190 
#    z 0.044150 0.017190 1.748110 
# 
# From -- ./inp_files/181863.got.cif
#   From: 2010.05.17/outbox.cif.g08.bks.cpg/sg2_91_cif.got.tgz:181863.got - 2010.06.03 11:33:40.
