data_PCOD9016986
_publ_section_title
;
Structure prediction by ZEFSAII (Michael W. Deem and Ramdas Pophale) SiO2 
 PCOD9016986
Probable space group: P -1
;
_chemical_formula_sum "Si O2"
_cell_formula_units_Z 16
_cell_length_a 7.065653
_cell_length_b 10.370113
_cell_length_c 23.389672
_cell_angle_alpha 37.624443
_cell_angle_beta 113.144121
_cell_angle_gamma 135.525749
_cell_volume 671.013359
_symmetry_space_group_name_H-M "P -1"
_symmetry_group_IT_number 2
_symmetry_cell_setting 'triclinic'
loop_
_space_group_symop_operation_xyz
x,y,z
-x,-y,-z
loop_
_atom_site_type_symbol
_atom_site_label
_atom_site_fract_x
_atom_site_fract_y
_atom_site_fract_z
Si Si1 0.891564 0.602684 0.994526
Si Si2 0.377485 0.189540 0.572165
Si Si3 0.277474 0.747340 0.503934
Si Si4 0.323032 0.315509 0.159197
Si Si5 0.297373 0.302041 0.820185
Si Si6 0.736517 0.829305 0.608125
Si Si7 0.760376 0.120767 0.217616
Si Si8 0.848886 0.248086 0.719901
O O1 0.564597 0.550876 0.152880
O O2 0.820600 0.410249 0.108965
O O3 0.642993 0.533015 0.950188
O O4 0.129423 0.955849 0.915010
O O5 0.500000 0.500000 0.500000
O O6 0.656048 0.298785 0.533488
O O7 0.272000 0.964099 0.690658
O O8 0.064514 0.004703 0.569117
O O9 0.550709 0.824805 0.540994
O O10 0.026507 0.517494 0.601353
O O11 0.260446 0.984843 0.408414
O O12 0.011715 0.165709 0.202374
O O13 0.269607 0.036574 0.231797
O O14 0.000000 0.500000 0.000000
O O15 0.548656 0.507072 0.728919
O O16 0.064155 0.310966 0.770936
O O17 0.428009 0.837387 0.255330
#
# Coordination Sequence:
#
# PCOD9016986 Si02
#       8
#     2   2   2   2   2   2   2   2
#     4   9  22  43  67  97 133 175 218 276 337 391
#     4  12  24  38  67  99 130 175 222 271 328 404
#     4  10  23  41  67  93 133 180 216 274 337 388
#     4  10  21  43  68  93 133 175 217 276 331 388
#     4  10  21  42  70  93 133 173 219 277 331 389
#     4  10  22  43  63  96 135 169 227 275 324 403
#     4  11  23  40  64  97 133 165 225 269 321 404
#     4  10  23  42  65  97 134 175 215 277 331 390
#
# _framework density 23.844532000000001
#
# number of rings (size 3 to 8) (size 9 to 14) (size 15 to 20)
#    0.000    1.750    1.250    1.875    1.750    6.000 
#    0.000   17.500    0.000    0.000    0.000    0.000 
#    0.000    0.000    0.000    0.000    0.000    0.000 
#
# Total GULP energy -89313.184820 kJ/mol
# GULP energy per Si atom -5582.074051 kJ/mol
# Density = 2.379026 g / cm^3
# Si number density = 23.844532 Si / 1000 Ang^3
#
#
#
# Elastic Constant Matrix: (Units=GPa)
#
#
# Indices 1 2 3 4 5 6 
#
# 1 71.7602 15.8562 35.6390 1.7439 -16.6272 4.7746
# 2 15.8562 134.3609 50.5592 14.0634 -5.8382 8.7858
# 3 35.6390 50.5592 158.8639 0.3627 -5.9319 -2.9443
# 4 1.7439 14.0634 0.3627 28.1177 10.0199 -0.9104
# 5 -16.6272 -5.8382 -5.9319 10.0199 17.7439 -1.8893
# 6 4.7746 8.7858 -2.9443 -0.9104 -1.8893 38.8500
#
#
#
# Elastic Compliance Matrix: (Units=1/GPa)
#
#
# Indices 1 2 3 4 5 6 
#
# 1 0.022368 0.001584 -0.004562 -0.011541 0.026213 -0.002449
# 2 0.001584 0.009775 -0.003204 -0.007794 0.007770 -0.002453
# 3 -0.004562 -0.003204 0.008203 0.003370 -0.004301 0.001777
# 4 -0.011541 -0.007794 0.003370 0.055695 -0.043423 0.002630
# 5 0.026213 0.007770 -0.004301 -0.043423 0.106438 -0.001146
# 6 -0.002449 -0.002453 0.001777 0.002630 -0.001146 0.026736
#
#
# Mechanical properties :
#
#
# Convention : Reuss Voigt Hill
#
# Bulk Modulus (GPa) = 35.73780 63.23263 49.48521
# Shear Modulus (GPa) = 19.92776 34.47104 27.19940
#
# Velocity S-wave (km/s) = 2.89405 3.80631 3.38109
# Velocity P-wave (km/s) = 5.11739 6.77448 6.00339
#
# Compressibility (1/GPa) = 0.02798158
#
# Stress axis : x y z
#
# Youngs Moduli (GPa) = 44.70627 102.30042 121.91375
#
# Poissons Ratio (x) = -0.16207 0.55623
# Poissons Ratio (y) = -0.07082 0.39060
# Poissons Ratio (z) = 0.20397 0.32776
#
# Static dielectric constant tensor:
#      x y z
#    x 1.942020 -0.006650 -0.052800 
#    y -0.006650 2.076390 0.067390 
#    z -0.052800 0.067390 1.859870 
# 
# From -- ./inp_files/615496.got.cif
#   From: 2010.05.17/outbox.cif.g08.bks.cpg/sg2_308_cif.got.tgz:615496.got - 2010.06.03 11:33:40.
