data_PCOD9016420
_publ_section_title
;
Structure prediction by ZEFSAII (Michael W. Deem and Ramdas Pophale) SiO2 
 PCOD9016420
Probable space group: P -1
;
_chemical_formula_sum "Si O2"
_cell_formula_units_Z 14
_cell_length_a 20.642392
_cell_length_b 9.310225
_cell_length_c 8.665226
_cell_angle_alpha 128.759686
_cell_angle_beta 40.092932
_cell_angle_gamma 143.352753
_cell_volume 639.846856
_symmetry_space_group_name_H-M "P -1"
_symmetry_group_IT_number 2
_symmetry_cell_setting 'triclinic'
loop_
_space_group_symop_operation_xyz
x,y,z
-x,-y,-z
loop_
_atom_site_type_symbol
_atom_site_label
_atom_site_fract_x
_atom_site_fract_y
_atom_site_fract_z
Si Si1 0.389367 0.864813 0.977271
Si Si2 0.622908 0.737410 0.847167
Si Si3 0.097215 0.467700 0.381971
Si Si4 0.742985 0.966749 0.075601
Si Si5 0.991588 0.029489 0.718502
Si Si6 0.537238 0.415578 0.517702
Si Si7 0.126602 0.530737 0.743204
O O1 0.417874 0.729489 0.720335
O O2 0.242005 0.660169 0.173641
O O3 0.500000 0.000000 0.000000
O O4 0.403278 0.080919 0.020558
O O5 0.637560 0.639573 0.598431
O O6 0.500000 0.500000 0.000000
O O7 0.743659 0.892396 0.849392
O O8 0.122081 0.516212 0.555119
O O9 0.000000 0.500000 0.500000
O O10 0.028641 0.185769 0.301681
O O11 0.601049 0.760777 0.261905
O O12 0.759682 0.205278 0.223038
O O13 0.858418 0.991172 0.965681
O O14 0.110425 0.315460 0.711576
O O15 0.000000 0.000000 0.500000
O O16 0.500000 0.500000 0.500000
O O17 0.000000 0.500000 0.000000
#
# Coordination Sequence:
#
# PCOD9016420 Si02
#       7
#     2   2   2   2   2   2   2
#     4  12  25  44  73 105 144 186 230 292 362 412
#     4  10  25  43  69 100 141 180 237 286 342 427
#     4  11  25  44  68 103 143 180 235 294 345 421
#     4  10  21  42  67  97 136 177 238 291 342 419
#     4   9  20  40  66  92 130 184 224 278 350 411
#     4  11  22  43  68 100 140 181 230 290 362 412
#     4   9  20  41  69  94 130 185 227 281 347 413
#
# _framework density 21.880234999999999
#
# number of rings (size 3 to 8) (size 9 to 14) (size 15 to 20)
#    0.000    1.714    1.429    1.714    8.000    2.286 
#    5.143    2.857    0.000    0.000    0.000    0.000 
#    0.000    0.000    0.000    0.000    0.000    0.000 
#
# Total GULP energy -78125.720179 kJ/mol
# GULP energy per Si atom -5580.408584 kJ/mol
# Density = 2.183043 g / cm^3
# Si number density = 21.880235 Si / 1000 Ang^3
#
#
#
# Elastic Constant Matrix: (Units=GPa)
#
#
# Indices 1 2 3 4 5 6 
#
# 1 103.2614 76.4384 38.8715 12.8669 -7.6908 -8.6494
# 2 76.4384 180.2601 51.5622 31.5302 -1.6308 -30.2392
# 3 38.8715 51.5622 118.9899 16.9562 -0.7718 -7.1142
# 4 12.8669 31.5302 16.9562 47.2782 5.7628 -1.0399
# 5 -7.6908 -1.6308 -0.7718 5.7628 32.5411 12.5247
# 6 -8.6494 -30.2392 -7.1142 -1.0399 12.5247 38.1938
#
#
#
# Elastic Compliance Matrix: (Units=1/GPa)
#
#
# Indices 1 2 3 4 5 6 
#
# 1 0.015369 -0.006428 -0.002469 0.000356 0.004556 -0.003553
# 2 -0.006428 0.010712 -0.001491 -0.004299 -0.003214 0.007684
# 3 -0.002469 -0.001491 0.010142 -0.001953 -0.000125 0.000138
# 4 0.000356 -0.004299 -0.001953 0.025067 -0.003960 -0.001706
# 5 0.004556 -0.003214 -0.000125 -0.003960 0.037741 -0.014020
# 6 -0.003553 0.007684 0.000138 -0.001706 -0.014020 0.036038
#
#
# Mechanical properties :
#
#
# Convention : Reuss Voigt Hill
#
# Bulk Modulus (GPa) = 64.73373 81.80618 73.26996
# Shear Modulus (GPa) = 31.05702 39.31190 35.18446
#
# Velocity S-wave (km/s) = 3.77159 4.24333 4.01440
# Velocity P-wave (km/s) = 6.97254 7.84074 7.41935
#
# Compressibility (1/GPa) = 0.01544790
#
# Stress axis : x y z
#
# Youngs Moduli (GPa) = 65.06466 93.35595 98.59694
#
# Poissons Ratio (x) = 0.60011 0.24343
# Poissons Ratio (y) = 0.41825 0.14697
# Poissons Ratio (z) = 0.16064 0.13915
#
# Static dielectric constant tensor:
#      x y z
#    x 1.981000 0.102900 0.020540 
#    y 0.102900 1.861100 0.032590 
#    z 0.020540 0.032590 1.816620 
# 
# From -- ./inp_files/342993.got.cif
#   From: 2010.05.17/outbox.cif.g08.bks.cpg/sg2_172_cif.got.tgz:342993.got - 2010.06.03 11:33:40.
