data_PCOD9016067
_publ_section_title
;
Structure prediction by ZEFSAII (Michael W. Deem and Ramdas Pophale) SiO2 
 PCOD9016067
Probable space group: P -1
;
_chemical_formula_sum "Si O2"
_cell_formula_units_Z 14
_cell_length_a 15.392477
_cell_length_b 8.824336
_cell_length_c 23.168335
_cell_angle_alpha 138.723939
_cell_angle_beta 162.130401
_cell_angle_gamma 42.624547
_cell_volume 633.736260
_symmetry_space_group_name_H-M "P -1"
_symmetry_group_IT_number 2
_symmetry_cell_setting 'triclinic'
loop_
_space_group_symop_operation_xyz
x,y,z
-x,-y,-z
loop_
_atom_site_type_symbol
_atom_site_label
_atom_site_fract_x
_atom_site_fract_y
_atom_site_fract_z
Si Si1 0.413015 0.726922 0.045532
Si Si2 0.603629 0.154469 0.660122
Si Si3 0.505019 0.683747 0.637115
Si Si4 0.217393 0.225503 0.037273
Si Si5 0.162525 0.291011 0.257452
Si Si6 0.799374 0.819387 0.414634
Si Si7 0.620236 0.476892 0.297559
O O1 0.690883 0.788331 0.272591
O O2 0.291281 0.950461 0.996111
O O3 0.500000 0.500000 0.000000
O O4 0.162521 0.688661 0.921830
O O5 0.366424 0.342709 0.589257
O O6 0.500000 0.000000 0.500000
O O7 0.715735 0.973039 0.728437
O O8 0.881631 0.266718 0.846502
O O9 0.618688 0.722242 0.784413
O O10 0.332351 0.463687 0.453283
O O11 0.764826 0.661847 0.749383
O O12 0.299425 0.915600 0.556897
O O13 0.331662 0.365489 0.096683
O O14 0.647570 0.636806 0.305446
O O15 0.129619 0.730221 0.603307
#
# Coordination Sequence:
#
# PCOD9016067 Si02
#       7
#     2   2   2   2   2   2   2
#     4  10  24  40  63  91 122 164 208 259 303 357
#     4  11  23  40  63  93 127 161 203 261 306 371
#     4  10  21  42  66  94 116 163 213 256 304 359
#     4  10  24  39  68  89 119 167 209 254 304 367
#     4  10  22  39  67  91 124 157 212 261 301 358
#     4  10  24  41  64  88 128 169 198 258 307 373
#     4  11  23  42  61  92 127 165 204 245 321 371
#
# _framework density 22.091208999999999
#
# number of rings (size 3 to 8) (size 9 to 14) (size 15 to 20)
#    0.000    1.714    1.429    1.286   10.000    2.857 
#    2.571    0.714    0.000    0.000    0.000    0.000 
#    0.000    0.000    0.000    0.000    0.000    0.000 
#
# Total GULP energy -78249.305121 kJ/mol
# GULP energy per Si atom -5589.236080 kJ/mol
# Density = 2.204093 g / cm^3
# Si number density = 22.091209 Si / 1000 Ang^3
#
#
#
# Elastic Constant Matrix: (Units=GPa)
#
#
# Indices 1 2 3 4 5 6 
#
# 1 31.6910 18.5475 5.1250 -5.6220 11.3742 -5.0245
# 2 18.5475 135.7892 15.6212 -7.5036 13.6408 -13.9618
# 3 5.1250 15.6212 57.4263 1.8394 13.9392 8.0450
# 4 -5.6220 -7.5036 1.8394 30.6217 0.7449 1.9888
# 5 11.3742 13.6408 13.9392 0.7449 24.7083 9.4961
# 6 -5.0245 -13.9618 8.0450 1.9888 9.4961 33.3697
#
#
#
# Elastic Compliance Matrix: (Units=1/GPa)
#
#
# Indices 1 2 3 4 5 6 
#
# 1 0.044857 -0.002008 0.000603 0.007507 -0.024873 0.012399
# 2 -0.002008 0.008993 -0.001824 0.001728 -0.005078 0.005242
# 3 0.000603 -0.001824 0.020668 -0.001158 -0.009823 -0.002791
# 4 0.007507 0.001728 -0.001158 0.034555 -0.005419 0.001615
# 5 -0.024873 -0.005078 -0.009823 -0.005419 0.069223 -0.022878
# 6 0.012399 0.005242 -0.002791 0.001615 -0.022878 0.041115
#
#
# Mechanical properties :
#
#
# Convention : Reuss Voigt Hill
#
# Bulk Modulus (GPa) = 14.69297 33.72156 24.20727
# Shear Modulus (GPa) = 20.11614 30.11411 25.11513
#
# Velocity S-wave (km/s) = 3.02088 3.69612 3.37543
# Velocity P-wave (km/s) = 4.33971 5.78903 5.11596
#
# Compressibility (1/GPa) = 0.06805975
#
# Stress axis : x y z
#
# Youngs Moduli (GPa) = 22.29301 111.19631 48.38288
#
# Poissons Ratio (x) = 0.22329 -0.02917
# Poissons Ratio (y) = 0.04477 0.08826
# Poissons Ratio (z) = -0.01344 0.20285
#
# Static dielectric constant tensor:
#      x y z
#    x 1.811150 0.025890 0.004310 
#    y 0.025890 1.841260 0.009730 
#    z 0.004310 0.009730 1.791060 
# 
# From -- ./inp_files/175485.got.cif
#   From: 2010.05.17/outbox.cif.g08.bks.cpg/sg2_88_cif.got.tgz:175485.got - 2010.06.03 11:33:40.
