data_PCOD9016787
_publ_section_title
;
Structure prediction by ZEFSAII (Michael W. Deem and Ramdas Pophale) SiO2 
 PCOD9016787
Probable space group: P -1
;
_chemical_formula_sum "Si O2"
_cell_formula_units_Z 16
_cell_length_a 8.304763
_cell_length_b 12.642080
_cell_length_c 8.724645
_cell_angle_alpha 106.333558
_cell_angle_beta 52.999571
_cell_angle_gamma 105.133402
_cell_volume 696.961953
_symmetry_space_group_name_H-M "P -1"
_symmetry_group_IT_number 2
_symmetry_cell_setting 'triclinic'
loop_
_space_group_symop_operation_xyz
x,y,z
-x,-y,-z
loop_
_atom_site_type_symbol
_atom_site_label
_atom_site_fract_x
_atom_site_fract_y
_atom_site_fract_z
Si Si1 0.575209 0.881763 0.938067
Si Si2 0.414670 0.472160 0.365274
Si Si3 0.233939 0.036809 0.839280
Si Si4 0.113222 0.244518 0.439481
Si Si5 0.369167 0.801393 0.740033
Si Si6 0.827550 0.553120 0.021891
Si Si7 0.221984 0.221539 0.680926
Si Si8 0.092919 0.637253 0.646431
O O1 0.783383 0.859730 0.725353
O O2 0.410641 0.804813 0.899775
O O3 0.636464 0.880292 0.080040
O O4 0.500000 0.000000 0.000000
O O5 0.500000 0.500000 0.500000
O O6 0.280399 0.353679 0.384625
O O7 0.608753 0.483550 0.148163
O O8 0.255473 0.559877 0.465394
O O9 0.218679 0.106103 0.722929
O O10 0.333832 0.922570 0.745674
O O11 0.000000 0.000000 0.000000
O O12 0.058288 0.222093 0.638124
O O13 0.950165 0.279205 0.429009
O O14 0.562194 0.766415 0.524798
O O15 0.184357 0.712741 0.765370
O O16 0.797528 0.674404 0.156892
O O17 0.000000 0.500000 0.000000
O O18 0.901347 0.565848 0.808710
#
# Coordination Sequence:
#
# PCOD9016787 Si02
#       8
#     2   2   2   2   2   2   2   2
#     4   9  20  39  64  94 132 171 220 276 335 393
#     4  12  22  45  69  97 139 177 224 286 340 393
#     4  11  22  41  67  99 130 170 230 279 333 410
#     4  11  23  41  67  98 138 183 223 280 335 403
#     4  10  21  42  69  92 133 180 213 283 340 394
#     4  12  24  39  71 100 128 183 232 272 341 408
#     4  11  22  42  64  96 134 178 225 272 342 398
#     4  12  24  44  70 101 141 178 227 277 339 404
#
# _framework density 22.956778
#
# number of rings (size 3 to 8) (size 9 to 14) (size 15 to 20)
#    0.000    1.000    3.750    3.750    0.000    0.500 
#    0.000   10.625    0.000    0.000    0.000    0.000 
#    0.000    0.000    0.000    0.000    0.000    0.000 
#
# Total GULP energy -89371.696016 kJ/mol
# GULP energy per Si atom -5585.731001 kJ/mol
# Density = 2.290453 g / cm^3
# Si number density = 22.956778 Si / 1000 Ang^3
#
#
#
# Elastic Constant Matrix: (Units=GPa)
#
#
# Indices 1 2 3 4 5 6 
#
# 1 111.3861 35.2434 49.4522 1.9373 10.1258 -23.0644
# 2 35.2434 78.3486 24.3577 16.6008 -0.4543 -19.0565
# 3 49.4522 24.3577 66.0958 -3.4871 -8.8642 -4.8376
# 4 1.9373 16.6008 -3.4871 41.0213 -10.4447 -2.7682
# 5 10.1258 -0.4543 -8.8642 -10.4447 31.4866 3.4702
# 6 -23.0644 -19.0565 -4.8376 -2.7682 3.4702 47.8719
#
#
#
# Elastic Compliance Matrix: (Units=1/GPa)
#
#
# Indices 1 2 3 4 5 6 
#
# 1 0.018841 -0.001015 -0.015084 -0.004457 -0.012660 0.007809
# 2 -0.001015 0.018693 -0.006820 -0.008949 -0.004965 0.006105
# 3 -0.015084 -0.006820 0.031295 0.010146 0.017757 -0.007520
# 4 -0.004457 -0.008949 0.010146 0.032743 0.015453 -0.003911
# 5 -0.012660 -0.004965 0.017757 0.015453 0.046852 -0.008784
# 6 0.007809 0.006105 -0.007520 -0.003911 -0.008784 0.026732
#
#
# Mechanical properties :
#
#
# Convention : Reuss Voigt Hill
#
# Bulk Modulus (GPa) = 43.49741 52.65966 48.07854
# Shear Modulus (GPa) = 21.86661 33.86111 27.86386
#
# Velocity S-wave (km/s) = 3.08963 3.84473 3.48768
# Velocity P-wave (km/s) = 5.63173 6.53435 6.09976
#
# Compressibility (1/GPa) = 0.02298987
#
# Stress axis : x y z
#
# Youngs Moduli (GPa) = 53.07466 53.49668 31.95398
#
# Poissons Ratio (x) = 0.05432 0.48200
# Poissons Ratio (y) = 0.05389 0.21793
# Poissons Ratio (z) = 0.80058 0.36485
#
# Static dielectric constant tensor:
#      x y z
#    x 1.960840 0.008300 0.024790 
#    y 0.008300 1.875390 -0.002210 
#    z 0.024790 -0.002210 1.865860 
# 
# From -- ./inp_files/188239.got.cif
#   From: 2010.05.17/outbox.cif.g08.bks.cpg/sg2_95_cif.got.tgz:188239.got - 2010.06.03 11:33:40.
