data_PCOD9016845
_publ_section_title
;
Structure prediction by ZEFSAII (Michael W. Deem and Ramdas Pophale) SiO2 
 PCOD9016845
Probable space group: P -1
;
_chemical_formula_sum "Si O2"
_cell_formula_units_Z 14
_cell_length_a 12.551407
_cell_length_b 7.061422
_cell_length_c 16.181856
_cell_angle_alpha 76.388743
_cell_angle_beta 40.073141
_cell_angle_gamma 107.656442
_cell_volume 569.752511
_symmetry_space_group_name_H-M "P -1"
_symmetry_group_IT_number 2
_symmetry_cell_setting 'triclinic'
loop_
_space_group_symop_operation_xyz
x,y,z
-x,-y,-z
loop_
_atom_site_type_symbol
_atom_site_label
_atom_site_fract_x
_atom_site_fract_y
_atom_site_fract_z
Si Si1 0.539987 0.064396 0.658363
Si Si2 0.867030 0.516968 0.736338
Si Si3 0.215281 0.312496 0.083197
Si Si4 0.290876 0.363633 0.519200
Si Si5 0.251389 0.349385 0.346531
Si Si6 0.821132 0.282054 0.946335
Si Si7 0.351188 0.683082 0.663760
O O1 0.590339 0.319940 0.560773
O O2 0.819215 0.210918 0.476914
O O3 0.426497 0.994048 0.823783
O O4 0.341956 0.752462 0.756266
O O5 0.761092 0.607227 0.841822
O O6 0.780093 0.470978 0.699603
O O7 0.781775 0.260162 0.872617
O O8 0.479153 0.496669 0.862414
O O9 0.116782 0.433833 0.098576
O O10 0.990339 0.949772 0.245996
O O11 0.252854 0.346568 0.444424
O O12 0.482786 0.362919 0.428323
O O13 0.000000 0.000000 0.500000
O O14 0.930003 0.604123 0.179450
O O15 0.500000 0.000000 0.500000
#
# Coordination Sequence:
#
# PCOD9016845 Si02
#       7
#     2   2   2   2   2   2   2
#     4  12  25  44  68 104 138 172 229 279 332 402
#     4  10  22  41  68  96 133 176 217 275 330 391
#     4  10  21  42  69  96 130 178 222 268 341 386
#     4  12  27  42  69 106 133 178 226 278 337 397
#     4  12  22  41  72 100 134 175 231 273 326 410
#     4  10  22  41  73  93 133 185 220 269 341 392
#     4  12  21  49  68  96 138 179 224 278 337 398
#
# _framework density 24.572071000000001
#
# number of rings (size 3 to 8) (size 9 to 14) (size 15 to 20)
#    0.857    0.000    5.714    2.571    0.000    2.857 
#    0.000    1.429    0.000    0.000    0.000    0.000 
#    0.000    0.000    0.000    0.000    0.000    0.000 
#
# Total GULP energy -78282.081769 kJ/mol
# GULP energy per Si atom -5591.577269 kJ/mol
# Density = 2.451614 g / cm^3
# Si number density = 24.572071 Si / 1000 Ang^3
#
#
#
# Elastic Constant Matrix: (Units=GPa)
#
#
# Indices 1 2 3 4 5 6 
#
# 1 131.9539 42.9556 40.0607 12.8104 6.1254 -11.2233
# 2 42.9556 95.4699 21.7196 -12.0834 -11.0603 -3.7006
# 3 40.0607 21.7196 157.7479 6.4923 -4.0319 1.3810
# 4 12.8104 -12.0834 6.4923 22.6468 -7.2330 5.5216
# 5 6.1254 -11.0603 -4.0319 -7.2330 31.9288 4.5286
# 6 -11.2233 -3.7006 1.3810 5.5216 4.5286 31.7160
#
#
#
# Elastic Compliance Matrix: (Units=1/GPa)
#
#
# Indices 1 2 3 4 5 6 
#
# 1 0.014291 -0.009313 -0.001966 -0.018383 -0.011645 0.008919
# 2 -0.009313 0.018963 -0.000720 0.021795 0.014177 -0.006870
# 3 -0.001966 -0.000720 0.007002 -0.000685 0.001014 -0.001110
# 4 -0.018383 0.021795 -0.000685 0.082510 0.032944 -0.023001
# 5 -0.011645 0.014177 0.001014 0.032944 0.048202 -0.015129
# 6 0.008919 -0.006870 -0.001110 -0.023001 -0.015129 0.040097
#
#
# Mechanical properties :
#
#
# Convention : Reuss Voigt Hill
#
# Bulk Modulus (GPa) = 61.51264 66.07150 63.79207
# Shear Modulus (GPa) = 20.79148 35.95403 28.37275
#
# Velocity S-wave (km/s) = 2.91201 3.82934 3.40174
# Velocity P-wave (km/s) = 6.03277 6.81902 6.43791
#
# Compressibility (1/GPa) = 0.01625682
#
# Stress axis : x y z
#
# Youngs Moduli (GPa) = 69.97470 52.73348 142.82535
#
# Poissons Ratio (x) = 0.49110 0.28081
# Poissons Ratio (y) = 0.65166 0.10290
# Poissons Ratio (z) = 0.13758 0.03799
#
# Static dielectric constant tensor:
#      x y z
#    x 1.958460 0.024310 0.065870 
#    y 0.024310 1.977870 0.002610 
#    z 0.065870 0.002610 1.942680 
# 
# From -- ./inp_files/565177.got.cif
#   From: 2010.05.17/outbox.cif.g08.bks.cpg/sg2_283_cif.got.tgz:565177.got - 2010.06.03 11:33:40.
