data_PCOD9016825
_publ_section_title
;
Structure prediction by ZEFSAII (Michael W. Deem and Ramdas Pophale) SiO2 
 PCOD9016825
Probable space group: P -1
;
_chemical_formula_sum "Si O2"
_cell_formula_units_Z 16
_cell_length_a 12.379790
_cell_length_b 11.841673
_cell_length_c 13.690552
_cell_angle_alpha 75.511381
_cell_angle_beta 78.969910
_cell_angle_gamma 145.590181
_cell_volume 754.072170
_symmetry_space_group_name_H-M "P -1"
_symmetry_group_IT_number 2
_symmetry_cell_setting 'triclinic'
loop_
_space_group_symop_operation_xyz
x,y,z
-x,-y,-z
loop_
_atom_site_type_symbol
_atom_site_label
_atom_site_fract_x
_atom_site_fract_y
_atom_site_fract_z
Si Si1 0.213969 0.373762 0.210988
Si Si2 0.346387 0.168898 0.660938
Si Si3 0.257703 0.680356 0.150361
Si Si4 0.408891 0.997185 0.796848
Si Si5 0.689407 0.656834 0.605851
Si Si6 0.152538 0.194618 0.070209
Si Si7 0.883403 0.481637 0.146774
Si Si8 0.220398 0.362829 0.812930
O O1 0.277957 0.569329 0.129664
O O2 0.352451 0.471844 0.266518
O O3 0.298927 0.368928 0.109865
O O4 0.873816 0.037196 0.344944
O O5 0.619323 0.514839 0.550832
O O6 0.409630 0.098127 0.693659
O O7 0.142788 0.025206 0.810917
O O8 0.986819 0.483330 0.203767
O O9 0.316886 0.727046 0.244472
O O10 0.500000 0.000000 0.000000
O O11 0.362330 0.821518 0.803450
O O12 0.136983 0.752657 0.967389
O O13 0.480742 0.562209 0.668426
O O14 0.000000 0.000000 0.500000
O O15 0.263256 0.361800 0.917362
O O16 0.055122 0.968893 0.110892
O O17 0.807510 0.526467 0.203354
#
# Coordination Sequence:
#
# PCOD9016825 Si02
#       8
#     2   2   2   2   2   2   2   2
#     4  10  19  37  57  84 109 145 186 226 279 332
#     4   9  17  35  56  78 108 140 179 228 277 323
#     4  10  20  27  52  88 114 143 178 216 272 344
#     4  10  17  30  51  82 112 149 170 216 273 342
#     4  11  24  39  57  79 107 151 199 234 266 317
#     4   8  18  32  54  82 107 147 175 214 298 332
#     4  10  18  31  50  78 120 142 175 209 283 340
#     4  10  19  35  54  79 118 148 174 232 278 335
#
# _framework density 21.218128
#
# number of rings (size 3 to 8) (size 9 to 14) (size 15 to 20)
#    0.750    1.500    3.750    0.000    3.500    1.000 
#    2.250    0.000    0.000    1.500    0.000    0.000 
#    0.000    0.000    0.000    0.000    0.000    0.000 
#
# Total GULP energy -89153.000785 kJ/mol
# GULP energy per Si atom -5572.062549 kJ/mol
# Density = 2.116983 g / cm^3
# Si number density = 21.218128 Si / 1000 Ang^3
#
#
#
# Elastic Constant Matrix: (Units=GPa)
#
#
# Indices 1 2 3 4 5 6 
#
# 1 110.5129 33.2561 2.9270 6.8069 7.0574 -27.8583
# 2 33.2561 108.0639 -3.7403 -8.2977 5.6672 -6.0661
# 3 2.9270 -3.7403 24.6428 -6.9237 3.7657 -6.6757
# 4 6.8069 -8.2977 -6.9237 19.8851 2.7356 7.5246
# 5 7.0574 5.6672 3.7657 2.7356 8.4111 -2.4454
# 6 -27.8583 -6.0661 -6.6757 7.5246 -2.4454 43.6806
#
#
#
# Elastic Compliance Matrix: (Units=1/GPa)
#
#
# Indices 1 2 3 4 5 6 
#
# 1 0.013605 -0.004547 -0.002694 -0.010965 -0.000825 0.009477
# 2 -0.004547 0.012272 0.006803 0.011808 -0.012175 -0.002872
# 3 -0.002694 0.006803 0.055430 0.027643 -0.035860 0.000929
# 4 -0.010965 0.011808 0.027643 0.081065 -0.042578 -0.017477
# 5 -0.000825 -0.012175 -0.035860 -0.042578 0.160190 0.008606
# 6 0.009477 -0.002872 0.000929 -0.017477 0.008606 0.032173
#
#
# Mechanical properties :
#
#
# Convention : Reuss Voigt Hill
#
# Bulk Modulus (GPa) = 12.43278 34.23390 23.33334
# Shear Modulus (GPa) = 13.07453 28.44715 20.76084
#
# Velocity S-wave (km/s) = 2.48502 3.66553 3.13141
# Velocity P-wave (km/s) = 3.75580 5.83816 4.90867
#
# Compressibility (1/GPa) = 0.08043256
#
# Stress axis : x y z
#
# Youngs Moduli (GPa) = 73.50091 81.48313 18.04069
#
# Poissons Ratio (x) = 0.37050 0.04859
# Poissons Ratio (y) = 0.33420 -0.12273
# Poissons Ratio (z) = 0.19798 -0.55432
#
# Static dielectric constant tensor:
#      x y z
#    x 1.762620 0.031640 -0.000200 
#    y 0.031640 1.836760 -0.043900 
#    z -0.000200 -0.043900 1.835310 
# 
# From -- ./inp_files/568016.got.cif
#   From: 2010.05.17/outbox.cif.g08.bks.cpg/sg2_285_cif.got.tgz:568016.got - 2010.06.03 11:33:40.
