data_PCOD9016254
_publ_section_title
;
Structure prediction by ZEFSAII (Michael W. Deem and Ramdas Pophale) SiO2 
 PCOD9016254
Probable space group: P -1
;
_chemical_formula_sum "Si O2"
_cell_formula_units_Z 13
_cell_length_a 4.985578
_cell_length_b 12.784678
_cell_length_c 12.867604
_cell_angle_alpha 140.352198
_cell_angle_beta 99.592822
_cell_angle_gamma 86.345906
_cell_volume 513.278662
_symmetry_space_group_name_H-M "P -1"
_symmetry_group_IT_number 2
_symmetry_cell_setting 'triclinic'
loop_
_space_group_symop_operation_xyz
x,y,z
-x,-y,-z
loop_
_atom_site_type_symbol
_atom_site_label
_atom_site_fract_x
_atom_site_fract_y
_atom_site_fract_z
Si Si1 0.714163 0.167554 0.146197
Si Si2 0.140969 0.201851 0.819506
Si Si3 0.321136 0.598007 0.985270
Si Si4 0.848038 0.007576 0.835646
Si Si5 0.500000 0.500000 0.500000
Si Si6 0.393223 0.766579 0.530303
Si Si7 0.177998 0.261206 0.629588
O O1 0.932849 0.339445 0.925296
O O2 0.970164 0.124072 0.199851
O O3 0.834351 0.160721 0.031242
O O4 0.500000 0.000000 0.000000
O O5 0.154620 0.177006 0.677344
O O6 0.446707 0.258446 0.922287
O O7 0.994767 0.071016 0.788710
O O8 0.209339 0.459476 0.792539
O O9 0.500000 0.500000 0.000000
O O10 0.396725 0.664793 0.691040
O O11 0.554229 0.911999 0.718536
O O12 0.436904 0.599689 0.467025
O O13 0.550984 0.779944 0.441289
O O14 0.083203 0.776293 0.488066
#
# Coordination Sequence:
#
# PCOD9016254 Si02
#       7
#     2   2   2   2   1   2   2
#     4  11  26  54  78 116 159 212 276 344 400 486
#     4  11  24  43  76 111 157 212 257 328 417 476
#     4  10  21  42  67 108 158 201 263 329 386 481
#     4  11  28  49  77 116 164 207 267 339 411 485
#     4  12  28  52  84 112 154 218 272 334 414 470
#     4  12  27  47  75 110 162 204 268 333 398 483
#     4  11  24  44  72 113 156 204 264 329 392 492
#
# _framework density 25.327369999999998
#
# number of rings (size 3 to 8) (size 9 to 14) (size 15 to 20)
#    0.000    0.923    1.538    5.538    4.308    4.923 
#    0.000    0.000    0.000    0.000    0.000    0.000 
#    0.000    0.000    0.000    0.000    0.000    0.000 
#
# Total GULP energy -72472.497069 kJ/mol
# GULP energy per Si atom -5574.807467 kJ/mol
# Density = 2.526972 g / cm^3
# Si number density = 25.327370 Si / 1000 Ang^3
#
#
#
# Elastic Constant Matrix: (Units=GPa)
#
#
# Indices 1 2 3 4 5 6 
#
# 1 95.4745 35.6997 49.8541 11.2759 -18.8722 -11.1805
# 2 35.6997 136.2869 67.0475 0.0062 -4.3387 -12.7724
# 3 49.8541 67.0475 141.1456 -3.4225 -17.6240 -10.2136
# 4 11.2759 0.0062 -3.4225 28.4314 -3.8719 -3.4239
# 5 -18.8722 -4.3387 -17.6240 -3.8719 63.3682 3.9601
# 6 -11.1805 -12.7724 -10.2136 -3.4239 3.9601 33.4845
#
#
#
# Elastic Compliance Matrix: (Units=1/GPa)
#
#
# Indices 1 2 3 4 5 6 
#
# 1 0.014626 -0.001532 -0.004091 -0.005675 0.002632 0.002160
# 2 -0.001532 0.009953 -0.004156 0.000223 -0.001052 0.002164
# 3 -0.004091 -0.004156 0.010826 0.003213 0.001674 0.000481
# 4 -0.005675 0.000223 0.003213 0.038350 0.001379 0.002928
# 5 0.002632 -0.001052 0.001674 0.001379 0.017098 -0.000893
# 6 0.002160 0.002164 0.000481 0.002928 -0.000893 0.031963
#
#
# Mechanical properties :
#
#
# Convention : Reuss Voigt Hill
#
# Bulk Modulus (GPa) = 63.10546 75.34550 69.22548
# Shear Modulus (GPa) = 33.86223 39.74388 36.80306
#
# Velocity S-wave (km/s) = 3.66044 3.96562 3.81608
# Velocity P-wave (km/s) = 6.54485 7.12611 6.84166
#
# Compressibility (1/GPa) = 0.01584649
#
# Stress axis : x y z
#
# Youngs Moduli (GPa) = 68.36907 100.47524 92.37152
#
# Poissons Ratio (x) = 0.15395 0.37790
# Poissons Ratio (y) = 0.10476 0.38389
# Poissons Ratio (z) = 0.27970 0.41757
#
# Static dielectric constant tensor:
#      x y z
#    x 2.010360 0.071840 -0.024260 
#    y 0.071840 2.203550 0.162360 
#    z -0.024260 0.162360 2.143780 
# 
# From -- ./inp_files/481218.got.cif
#   From: 2010.05.17/outbox.cif.g08.bks.cpg/sg2_241_cif.got.tgz:481218.got - 2010.06.03 11:33:40.
