data_PCOD9016498
_publ_section_title
;
Structure prediction by ZEFSAII (Michael W. Deem and Ramdas Pophale) SiO2 
 PCOD9016498
Probable space group: P -1
;
_chemical_formula_sum "Si O2"
_cell_formula_units_Z 14
_cell_length_a 10.382324
_cell_length_b 23.699631
_cell_length_c 10.298374
_cell_angle_alpha 34.757246
_cell_angle_beta 150.932084
_cell_angle_gamma 150.674339
_cell_volume 583.793507
_symmetry_space_group_name_H-M "P -1"
_symmetry_group_IT_number 2
_symmetry_cell_setting 'triclinic'
loop_
_space_group_symop_operation_xyz
x,y,z
-x,-y,-z
loop_
_atom_site_type_symbol
_atom_site_label
_atom_site_fract_x
_atom_site_fract_y
_atom_site_fract_z
Si Si1 0.793871 0.439003 0.060131
Si Si2 0.412436 0.831648 0.602983
Si Si3 0.823449 0.833184 0.179565
Si Si4 0.302504 0.376067 0.388439
Si Si5 0.167833 0.587459 0.365591
Si Si6 0.305564 0.803351 0.952922
Si Si7 0.696148 0.992670 0.305776
O O1 0.712685 0.307683 0.248576
O O2 0.979835 0.510658 0.218040
O O3 0.558866 0.484667 0.746511
O O4 0.000000 0.500000 0.000000
O O5 0.504130 0.881015 0.444587
O O6 0.173608 0.865254 0.388926
O O7 0.708422 0.877251 0.875619
O O8 0.647083 0.689745 0.324335
O O9 0.668184 0.859005 0.118272
O O10 0.471281 0.370704 0.418438
O O11 0.926528 0.283945 0.201471
O O12 0.000000 0.500000 0.500000
O O13 0.202859 0.712800 0.154065
O O14 0.231344 0.899631 0.739607
O O15 0.000000 0.000000 0.500000
O O16 0.500000 0.000000 0.000000
#
# Coordination Sequence:
#
# PCOD9016498 Si02
#       7
#     2   2   2   2   2   2   2
#     4  11  22  40  67 107 146 181 230 302 354 423
#     4  12  26  43  74 107 143 187 236 291 361 426
#     4  11  22  45  71 109 137 178 238 287 369 416
#     4  10  21  42  68 102 144 185 222 296 361 417
#     4  10  24  39  67 102 137 195 240 283 357 431
#     4  10  24  46  72  97 144 183 233 305 344 430
#     4  12  31  51  71 102 142 193 243 293 353 419
#
# _framework density 23.981083000000002
#
# number of rings (size 3 to 8) (size 9 to 14) (size 15 to 20)
#    0.000    1.143    2.857    2.571    8.000    5.714 
#    0.000    0.000    0.000    0.000    0.000    0.000 
#    0.000    0.000    0.000    0.000    0.000    0.000 
#
# Total GULP energy -78038.872525 kJ/mol
# GULP energy per Si atom -5574.205180 kJ/mol
# Density = 2.392650 g / cm^3
# Si number density = 23.981083 Si / 1000 Ang^3
#
#
#
# Elastic Constant Matrix: (Units=GPa)
#
#
# Indices 1 2 3 4 5 6 
#
# 1 133.3886 31.6396 80.7415 -21.6677 -11.8768 23.8609
# 2 31.6396 69.0908 35.4577 -37.8824 0.1793 1.9045
# 3 80.7415 35.4577 171.4502 -24.3210 -1.7745 21.4937
# 4 -21.6677 -37.8824 -24.3210 44.1581 2.7321 1.0846
# 5 -11.8768 0.1793 -1.7745 2.7321 65.6901 -12.9286
# 6 23.8609 1.9045 21.4937 1.0846 -12.9286 42.0106
#
#
#
# Elastic Compliance Matrix: (Units=1/GPa)
#
#
# Indices 1 2 3 4 5 6 
#
# 1 0.011705 -0.002217 -0.004327 0.001485 0.001153 -0.004017
# 2 -0.002217 0.028911 -0.001671 0.022895 -0.001528 -0.000258
# 3 -0.004327 -0.001671 0.008680 0.001344 -0.001045 -0.002263
# 4 0.001485 0.022895 0.001344 0.044018 -0.002467 -0.004465
# 5 0.001153 -0.001528 -0.001045 -0.002467 0.016513 0.005094
# 6 -0.004017 -0.000258 -0.002263 -0.004465 0.005094 0.028938
#
#
# Mechanical properties :
#
#
# Convention : Reuss Voigt Hill
#
# Bulk Modulus (GPa) = 30.42801 74.40078 52.41440
# Shear Modulus (GPa) = 30.09354 45.44451 37.76903
#
# Velocity S-wave (km/s) = 3.54628 4.35790 3.97287
# Velocity P-wave (km/s) = 5.42992 7.51092 6.55354
#
# Compressibility (1/GPa) = 0.03286445
#
# Stress axis : x y z
#
# Youngs Moduli (GPa) = 85.43584 34.58940 115.21254
#
# Poissons Ratio (x) = 0.07669 0.49857
# Poissons Ratio (y) = 0.18943 0.19248
# Poissons Ratio (z) = 0.36971 0.05779
#
# Static dielectric constant tensor:
#      x y z
#    x 1.995000 -0.049280 0.135330 
#    y -0.049280 2.039150 0.018150 
#    z 0.135330 0.018150 2.137780 
# 
# From -- ./inp_files/223090.got.cif
#   From: 2010.05.17/outbox.cif.g08.bks.cpg/sg2_112_cif.got.tgz:223090.got - 2010.06.03 11:33:40.
