data_PCOD9016073
_publ_section_title
;
Structure prediction by ZEFSAII (Michael W. Deem and Ramdas Pophale) SiO2 
 PCOD9016073
Probable space group: P -1
;
_chemical_formula_sum "Si O2"
_cell_formula_units_Z 16
_cell_length_a 22.457535
_cell_length_b 11.333139
_cell_length_c 9.307913
_cell_angle_alpha 74.372330
_cell_angle_beta 50.116130
_cell_angle_gamma 34.065279
_cell_volume 807.540384
_symmetry_space_group_name_H-M "P -1"
_symmetry_group_IT_number 2
_symmetry_cell_setting 'triclinic'
loop_
_space_group_symop_operation_xyz
x,y,z
-x,-y,-z
loop_
_atom_site_type_symbol
_atom_site_label
_atom_site_fract_x
_atom_site_fract_y
_atom_site_fract_z
Si Si1 0.168252 0.066315 0.117565
Si Si2 0.667966 0.739164 0.237704
Si Si3 0.287759 0.973109 0.409386
Si Si4 0.140912 0.761807 0.976177
Si Si5 0.017194 0.341748 0.965379
Si Si6 0.783058 0.753346 0.830431
Si Si7 0.955162 0.830331 0.440585
Si Si8 0.597901 0.422168 0.240512
O O1 0.183714 0.179360 0.132269
O O2 0.070528 0.121838 0.366839
O O3 0.347161 0.757681 0.900243
O O4 0.072537 0.197193 0.071836
O O5 0.712720 0.534098 0.212534
O O6 0.500000 0.000000 0.500000
O O7 0.840255 0.544452 0.110736
O O8 0.657540 0.834695 0.076731
O O9 0.271528 0.110826 0.281118
O O10 0.226789 0.941501 0.421204
O O11 0.159493 0.147840 0.685558
O O12 0.473845 0.693207 0.270406
O O13 0.238252 0.738963 0.900210
O O14 0.046964 0.810815 0.224570
O O15 0.000000 0.000000 0.000000
O O16 0.000000 0.500000 0.000000
O O17 0.942438 0.440636 0.658262
O O18 0.500000 0.500000 0.500000
#
# Coordination Sequence:
#
# PCOD9016073 Si02
#       8
#     2   2   2   2   2   2   2   2
#     4  11  22  39  67  97 124 168 219 263 317 391
#     4  11  25  42  63 101 131 168 217 269 330 384
#     4  11  21  40  65  93 129 168 213 263 322 384
#     4  11  24  47  66  88 136 181 209 263 335 393
#     4  12  20  37  69  95 123 166 213 260 320 381
#     4  10  21  42  66  94 129 168 209 270 330 383
#     4  10  21  44  67  92 127 170 216 261 333 386
#     4  12  26  40  63  96 133 168 221 269 311 386
#
# _framework density 19.813251999999999
#
# number of rings (size 3 to 8) (size 9 to 14) (size 15 to 20)
#    0.000    1.000    5.000    3.750    3.500    2.500 
#    4.500    1.250    0.000    0.000    0.000    0.000 
#    0.000    0.000    0.000    0.000    0.000    0.000 
#
# Total GULP energy -89250.964052 kJ/mol
# GULP energy per Si atom -5578.185253 kJ/mol
# Density = 1.976816 g / cm^3
# Si number density = 19.813252 Si / 1000 Ang^3
#
#
#
# Elastic Constant Matrix: (Units=GPa)
#
#
# Indices 1 2 3 4 5 6 
#
# 1 76.6089 45.7689 25.9925 -1.9350 5.5370 2.6722
# 2 45.7689 127.3943 77.2146 -17.9096 6.5622 -14.0343
# 3 25.9925 77.2146 137.4091 -9.9919 26.9466 0.1271
# 4 -1.9350 -17.9096 -9.9919 35.1995 -5.5976 4.1317
# 5 5.5370 6.5622 26.9466 -5.5976 29.8538 -3.0725
# 6 2.6722 -14.0343 0.1271 4.1317 -3.0725 35.3011
#
#
#
# Elastic Compliance Matrix: (Units=1/GPa)
#
#
# Indices 1 2 3 4 5 6 
#
# 1 0.017697 -0.008175 0.001866 -0.002776 -0.004167 -0.004634
# 2 -0.008175 0.018034 -0.009774 0.006367 0.008371 0.007807
# 3 0.001866 -0.009774 0.014693 -0.002088 -0.012356 -0.004911
# 4 -0.002776 0.006367 -0.002088 0.032059 0.006970 -0.000397
# 5 -0.004167 0.008371 -0.012356 0.006970 0.045593 0.006841
# 6 -0.004634 0.007807 -0.004911 -0.000397 0.006841 0.032442
#
#
# Mechanical properties :
#
#
# Convention : Reuss Voigt Hill
#
# Bulk Modulus (GPa) = 54.76932 71.04047 62.90489
# Shear Modulus (GPa) = 25.15474 32.89999 29.02736
#
# Velocity S-wave (km/s) = 3.56700 4.07935 3.83175
# Velocity P-wave (km/s) = 6.68337 7.62371 7.16897
#
# Compressibility (1/GPa) = 0.01825840
#
# Stress axis : x y z
#
# Youngs Moduli (GPa) = 56.50682 55.44930 68.06151
#
# Poissons Ratio (x) = 0.45329 -0.12698
# Poissons Ratio (y) = 0.46194 0.66521
# Poissons Ratio (z) = -0.10543 0.54194
#
# Static dielectric constant tensor:
#      x y z
#    x 1.719940 -0.032380 0.037420 
#    y -0.032380 1.719270 0.020890 
#    z 0.037420 0.020890 1.689830 
# 
# From -- ./inp_files/353467.got.cif
#   From: 2010.05.17/outbox.cif.g08.bks.cpg/sg2_177_cif.got.tgz:353467.got - 2010.06.03 11:33:40.
