data_PCOD9016811
_publ_section_title
;
Structure prediction by ZEFSAII (Michael W. Deem and Ramdas Pophale) SiO2 
 PCOD9016811
Probable space group: P -1
;
_chemical_formula_sum "Si O2"
_cell_formula_units_Z 14
_cell_length_a 9.599162
_cell_length_b 8.027955
_cell_length_c 8.777521
_cell_angle_alpha 91.488658
_cell_angle_beta 120.319715
_cell_angle_gamma 83.354005
_cell_volume 579.553004
_symmetry_space_group_name_H-M "P -1"
_symmetry_group_IT_number 2
_symmetry_cell_setting 'triclinic'
loop_
_space_group_symop_operation_xyz
x,y,z
-x,-y,-z
loop_
_atom_site_type_symbol
_atom_site_label
_atom_site_fract_x
_atom_site_fract_y
_atom_site_fract_z
Si Si1 0.474902 0.658118 0.604457
Si Si2 0.878103 0.256274 0.520378
Si Si3 0.628835 0.466548 0.939204
Si Si4 0.056747 0.421521 0.868785
Si Si5 0.156480 0.130503 0.444977
Si Si6 0.528723 0.149268 0.693402
Si Si7 0.155084 0.106061 0.097613
O O1 0.500000 0.500000 0.500000
O O2 0.310002 0.681556 0.612639
O O3 0.611400 0.613200 0.804695
O O4 0.463719 0.811071 0.482905
O O5 0.921121 0.390367 0.672725
O O6 0.017590 0.236932 0.469687
O O7 0.877695 0.064491 0.575670
O O8 0.589331 0.303102 0.823741
O O9 0.500000 0.500000 0.000000
O O10 0.806055 0.468407 0.106979
O O11 0.129679 0.231465 0.945696
O O12 0.000000 0.500000 0.000000
O O13 0.337507 0.137786 0.614011
O O14 0.148605 0.186808 0.265730
O O15 0.667696 0.000869 0.810277
O O16 0.000000 0.000000 0.000000
#
# Coordination Sequence:
#
# PCOD9016811 Si02
#       7
#     2   2   2   2   2   2   2
#     4  10  21  42  69  94 130 179 226 275 330 409
#     4  11  24  44  64 102 139 178 224 283 343 406
#     4  11  25  44  65 100 137 176 225 285 347 396
#     4  12  25  45  69  98 138 180 228 281 344 409
#     4  11  24  42  68  99 138 174 230 283 341 402
#     4  11  23  45  69  99 134 183 235 277 335 424
#     4  12  23  43  72 105 133 181 234 287 343 408
#
# _framework density 24.156548000000001
#
# number of rings (size 3 to 8) (size 9 to 14) (size 15 to 20)
#    0.000    0.857    2.857    4.714    2.000    3.429 
#    0.000    5.714    0.000    0.000    0.000    0.000 
#    0.000    0.000    0.000    0.000    0.000    0.000 
#
# Total GULP energy -78296.390197 kJ/mol
# GULP energy per Si atom -5592.599300 kJ/mol
# Density = 2.410157 g / cm^3
# Si number density = 24.156548 Si / 1000 Ang^3
#
#
#
# Elastic Constant Matrix: (Units=GPa)
#
#
# Indices 1 2 3 4 5 6 
#
# 1 127.9521 18.4782 -3.0945 8.1966 16.8464 -12.5504
# 2 18.4782 65.5631 21.5092 5.4185 5.6466 -5.9384
# 3 -3.0945 21.5092 51.8879 6.2928 23.7290 9.6937
# 4 8.1966 5.4185 6.2928 45.0638 7.7996 6.7489
# 5 16.8464 5.6466 23.7290 7.7996 47.9913 5.8862
# 6 -12.5504 -5.9384 9.6937 6.7489 5.8862 39.3394
#
#
#
# Elastic Compliance Matrix: (Units=1/GPa)
#
#
# Indices 1 2 3 4 5 6 
#
# 1 0.009332 -0.003097 0.003752 -0.001391 -0.004853 0.002550
# 2 -0.003097 0.019866 -0.010781 -0.001635 0.003809 0.004378
# 3 0.003752 -0.010781 0.032032 -0.000347 -0.015094 -0.006006
# 4 -0.001391 -0.001635 -0.000347 0.023764 -0.002481 -0.004310
# 5 -0.004853 0.003809 -0.015094 -0.002481 0.030122 -0.001335
# 6 0.002550 0.004378 -0.006006 -0.004310 -0.001335 0.029313
#
#
# Mechanical properties :
#
#
# Convention : Reuss Voigt Hill
#
# Bulk Modulus (GPa) = 24.40419 35.46542 29.93480
# Shear Modulus (GPa) = 28.03624 40.37959 34.20792
#
# Velocity S-wave (km/s) = 3.41046 4.09293 3.76718
# Velocity P-wave (km/s) = 5.06288 6.08683 5.59832
#
# Compressibility (1/GPa) = 0.04097657
#
# Stress axis : x y z
#
# Youngs Moduli (GPa) = 107.16270 50.33735 31.21892
#
# Poissons Ratio (x) = 0.15590 -0.11714
# Poissons Ratio (y) = 0.33189 0.33659
# Poissons Ratio (z) = -0.40209 0.54271
#
# Static dielectric constant tensor:
#      x y z
#    x 1.872690 0.039070 0.068270 
#    y 0.039070 2.054140 0.056100 
#    z 0.068270 0.056100 1.850460 
# 
# From -- ./inp_files/156759.got.cif
#   From: 2010.05.17/outbox.cif.g08.bks.cpg/sg2_79_cif.got.tgz:156759.got - 2010.06.03 11:33:40.
