data_PCOD9016434
_publ_section_title
;
Structure prediction by ZEFSAII (Michael W. Deem and Ramdas Pophale) SiO2 
 PCOD9016434
Probable space group: P -1
;
_chemical_formula_sum "Si O2"
_cell_formula_units_Z 16
_cell_length_a 14.055740
_cell_length_b 16.817217
_cell_length_c 8.065247
_cell_angle_alpha 39.643746
_cell_angle_beta 135.926230
_cell_angle_gamma 143.754046
_cell_volume 694.762729
_symmetry_space_group_name_H-M "P -1"
_symmetry_group_IT_number 2
_symmetry_cell_setting 'triclinic'
loop_
_space_group_symop_operation_xyz
x,y,z
-x,-y,-z
loop_
_atom_site_type_symbol
_atom_site_label
_atom_site_fract_x
_atom_site_fract_y
_atom_site_fract_z
Si Si1 0.822347 0.364964 0.924503
Si Si2 0.977762 0.359832 0.791697
Si Si3 0.879539 0.887003 0.173930
Si Si4 0.266609 0.964241 0.086625
Si Si5 0.669122 0.543404 0.353392
Si Si6 0.198657 0.055954 0.500069
Si Si7 0.298914 0.395504 0.093063
Si Si8 0.415044 0.971165 0.757475
O O1 0.862007 0.323202 0.863611
O O2 0.710784 0.429433 0.658518
O O3 0.721930 0.208330 0.150366
O O4 0.000000 0.500000 0.000000
O O5 0.000000 0.500000 0.500000
O O6 0.887340 0.210364 0.803647
O O7 0.158652 0.401964 0.998990
O O8 0.794985 0.713816 0.300245
O O9 0.747441 0.927080 0.982721
O O10 0.006024 0.934986 0.408770
O O11 0.000000 0.000000 0.000000
O O12 0.239793 0.014404 0.792878
O O13 0.436186 0.974126 0.272288
O O14 0.482096 0.488293 0.249604
O O15 0.685675 0.545648 0.170373
O O16 0.238300 0.221796 0.285310
O O17 0.316859 0.049572 0.523114
O O18 0.500000 0.000000 0.000000
#
# Coordination Sequence:
#
# PCOD9016434 Si02
#       8
#     2   2   2   2   2   2   2   2
#     4  12  25  44  70 100 140 177 220 285 341 395
#     4  12  24  44  68  98 134 179 227 271 340 413
#     4  12  24  43  63  98 137 170 221 274 334 394
#     4  11  24  42  73  99 129 180 229 275 327 408
#     4  11  24  42  65  99 139 179 218 280 341 396
#     4  11  21  41  69  96 131 173 225 269 331 400
#     4  11  24  41  68 100 133 181 226 271 342 406
#     4  10  21  42  67  98 128 173 228 267 326 393
#
# _framework density 23.029446
#
# number of rings (size 3 to 8) (size 9 to 14) (size 15 to 20)
#    0.000    0.750    6.250    2.625    0.000    1.000 
#    0.000    2.500    0.000    0.000    0.000    0.000 
#    0.000    0.000    0.000    0.000    0.000    0.000 
#
# Total GULP energy -89615.219347 kJ/mol
# GULP energy per Si atom -5600.951209 kJ/mol
# Density = 2.297703 g / cm^3
# Si number density = 23.029446 Si / 1000 Ang^3
#
#
#
# Elastic Constant Matrix: (Units=GPa)
#
#
# Indices 1 2 3 4 5 6 
#
# 1 101.0417 3.9520 22.4554 -0.3537 35.3023 15.3125
# 2 3.9520 79.8022 8.1965 8.8292 9.1050 11.7687
# 3 22.4554 8.1965 74.4622 -6.9767 21.3590 2.6802
# 4 -0.3537 8.8292 -6.9767 25.9091 -3.3166 6.4256
# 5 35.3023 9.1050 21.3590 -3.3166 40.5795 6.9986
# 6 15.3125 11.7687 2.6802 6.4256 6.9986 35.7181
#
#
#
# Elastic Compliance Matrix: (Units=1/GPa)
#
#
# Indices 1 2 3 4 5 6 
#
# 1 0.014966 0.001510 -0.001158 -0.001117 -0.012106 -0.004253
# 2 0.001510 0.014046 -0.001293 -0.004662 -0.003537 -0.003647
# 3 -0.001158 -0.001293 0.016280 0.003812 -0.007027 0.000392
# 4 -0.001117 -0.004662 0.003812 0.043556 0.004786 -0.007044
# 5 -0.012106 -0.003537 -0.007027 0.004786 0.040385 -0.001891
# 6 -0.004253 -0.003647 0.000392 -0.007044 -0.001891 0.032630
#
#
# Mechanical properties :
#
#
# Convention : Reuss Voigt Hill
#
# Bulk Modulus (GPa) = 23.03615 36.05709 29.54662
# Shear Modulus (GPa) = 28.05602 35.15483 31.60542
#
# Velocity S-wave (km/s) = 3.49416 3.91130 3.70860
# Velocity P-wave (km/s) = 5.12869 6.00739 5.58534
#
# Compressibility (1/GPa) = 0.04341003
#
# Stress axis : x y z
#
# Youngs Moduli (GPa) = 66.81953 71.19395 61.42509
#
# Poissons Ratio (x) = -0.10750 0.07115
# Poissons Ratio (y) = -0.10089 0.07939
# Poissons Ratio (z) = 0.07740 0.09202
#
# Static dielectric constant tensor:
#      x y z
#    x 1.875210 -0.004940 -0.031100 
#    y -0.004940 1.830960 0.041710 
#    z -0.031100 0.041710 1.854380 
# 
# From -- ./inp_files/261757.got.cif
#   From: 2010.05.17/outbox.cif.g08.bks.cpg/sg2_131_cif.got.tgz:261757.got - 2010.06.03 11:33:40.
