data_PCOD9016451
_publ_section_title
;
Structure prediction by ZEFSAII (Michael W. Deem and Ramdas Pophale) SiO2 
 PCOD9016451
Probable space group: P -1
;
_chemical_formula_sum "Si O2"
_cell_formula_units_Z 16
_cell_length_a 16.458187
_cell_length_b 9.036963
_cell_length_c 8.137496
_cell_angle_alpha 111.535448
_cell_angle_beta 66.205159
_cell_angle_gamma 142.954466
_cell_volume 664.936167
_symmetry_space_group_name_H-M "P -1"
_symmetry_group_IT_number 2
_symmetry_cell_setting 'triclinic'
loop_
_space_group_symop_operation_xyz
x,y,z
-x,-y,-z
loop_
_atom_site_type_symbol
_atom_site_label
_atom_site_fract_x
_atom_site_fract_y
_atom_site_fract_z
Si Si1 0.378637 0.932845 0.740941
Si Si2 0.488987 0.598076 0.709080
Si Si3 0.266278 0.205995 0.251363
Si Si4 0.139120 0.709401 0.074790
Si Si5 0.085041 0.468643 0.348909
Si Si6 0.039586 0.052653 0.178407
Si Si7 0.384412 0.933251 0.368951
Si Si8 0.756638 0.596718 0.336617
O O1 0.412028 0.036684 0.572991
O O2 0.317459 0.670312 0.674631
O O3 0.526515 0.098846 0.766024
O O4 0.268143 0.874357 0.912492
O O5 0.500000 0.500000 0.500000
O O6 0.572347 0.627606 0.801940
O O7 0.330545 0.442221 0.759586
O O8 0.580418 0.879425 0.708957
O O9 0.190783 0.194978 0.158936
O O10 0.251115 0.298327 0.458714
O O11 0.169948 0.917356 0.225763
O O12 0.125918 0.556446 0.161692
O O13 0.000000 0.500000 0.000000
O O14 0.020902 0.208710 0.316620
O O15 0.229104 0.670430 0.403096
O O16 0.000000 0.500000 0.500000
O O17 0.916468 0.784484 0.250340
O O18 0.000000 0.000000 0.000000
#
# Coordination Sequence:
#
# PCOD9016451 Si02
#       8
#     2   2   2   2   2   2   2   2
#     4  10  22  41  70  98 135 176 222 288 337 404
#     4   9  20  40  70  94 128 172 227 279 333 408
#     4  11  22  43  66  97 130 177 224 269 343 410
#     4  12  24  42  65 101 140 174 225 281 345 399
#     4  12  25  42  70  99 132 178 234 279 330 405
#     4  12  26  43  65  99 142 177 223 283 343 405
#     4  10  21  42  67  99 129 174 235 275 338 411
#     4  10  21  43  71  94 130 182 230 274 342 407
#
# _framework density 24.062459
#
# number of rings (size 3 to 8) (size 9 to 14) (size 15 to 20)
#    0.000    1.250    1.250    4.875    1.750    1.500 
#    2.250    0.625    0.000    0.000    0.000    0.000 
#    0.000    0.000    0.000    0.000    0.000    0.000 
#
# Total GULP energy -89355.684320 kJ/mol
# GULP energy per Si atom -5584.730270 kJ/mol
# Density = 2.400769 g / cm^3
# Si number density = 24.062459 Si / 1000 Ang^3
#
#
#
# Elastic Constant Matrix: (Units=GPa)
#
#
# Indices 1 2 3 4 5 6 
#
# 1 136.9328 14.4830 27.5354 9.6394 17.1505 32.3254
# 2 14.4830 64.2344 7.5648 17.0435 -10.2671 16.0362
# 3 27.5354 7.5648 41.1101 0.7324 4.0781 8.4977
# 4 9.6394 17.0435 0.7324 39.1274 1.9160 2.5092
# 5 17.1505 -10.2671 4.0781 1.9160 32.0891 2.7216
# 6 32.3254 16.0362 8.4977 2.5092 2.7216 40.2449
#
#
#
# Elastic Compliance Matrix: (Units=1/GPa)
#
#
# Indices 1 2 3 4 5 6 
#
# 1 0.010709 -0.000316 -0.005200 -0.001738 -0.004469 -0.006967
# 2 -0.000316 0.021792 -0.002879 -0.009286 0.008726 -0.007833
# 3 -0.005200 -0.002879 0.028634 0.002137 -0.001847 -0.000730
# 4 -0.001738 -0.009286 0.002137 0.030007 -0.004366 0.003069
# 5 -0.004469 0.008726 -0.001847 -0.004366 0.036986 -0.001727
# 6 -0.006967 -0.007833 -0.000730 0.003069 -0.001727 0.033644
#
#
# Mechanical properties :
#
#
# Convention : Reuss Voigt Hill
#
# Bulk Modulus (GPa) = 22.55117 37.93818 30.24468
# Shear Modulus (GPa) = 25.86051 35.13856 30.49953
#
# Velocity S-wave (km/s) = 3.28186 3.82554 3.56408
# Velocity P-wave (km/s) = 4.87371 5.94254 5.43447
#
# Compressibility (1/GPa) = 0.04434360
#
# Stress axis : x y z
#
# Youngs Moduli (GPa) = 93.38243 45.88739 34.92374
#
# Poissons Ratio (x) = 0.01451 0.18161
# Poissons Ratio (y) = 0.02952 0.10056
# Poissons Ratio (z) = 0.48560 0.13213
#
# Static dielectric constant tensor:
#      x y z
#    x 2.048110 0.041020 0.032230 
#    y 0.041020 1.713490 -0.059730 
#    z 0.032230 -0.059730 1.877470 
# 
# From -- ./inp_files/299142.got.cif
#   From: 2010.05.17/outbox.cif.g08.bks.cpg/sg2_150_cif.got.tgz:299142.got - 2010.06.03 11:33:40.
