data_PCOD9016448
_publ_section_title
;
Structure prediction by ZEFSAII (Michael W. Deem and Ramdas Pophale) SiO2 
 PCOD9016448
Probable space group: P -1
;
_chemical_formula_sum "Si O2"
_cell_formula_units_Z 16
_cell_length_a 9.271046
_cell_length_b 16.657213
_cell_length_c 11.359018
_cell_angle_alpha 44.792885
_cell_angle_beta 148.817954
_cell_angle_gamma 129.277417
_cell_volume 638.274781
_symmetry_space_group_name_H-M "P -1"
_symmetry_group_IT_number 2
_symmetry_cell_setting 'triclinic'
loop_
_space_group_symop_operation_xyz
x,y,z
-x,-y,-z
loop_
_atom_site_type_symbol
_atom_site_label
_atom_site_fract_x
_atom_site_fract_y
_atom_site_fract_z
Si Si1 0.114323 0.881591 0.664311
Si Si2 0.588635 0.701587 0.508125
Si Si3 0.920935 0.584146 0.010664
Si Si4 0.198838 0.961466 0.383933
Si Si5 0.811410 0.458792 0.292910
Si Si6 0.568807 0.314050 0.842174
Si Si7 0.923365 0.754730 0.265784
Si Si8 0.017086 0.796753 0.028542
O O1 0.225005 0.896968 0.592862
O O2 0.852606 0.790343 0.584055
O O3 0.346125 0.818822 0.965048
O O4 0.000000 0.000000 0.500000
O O5 0.541699 0.654673 0.393992
O O6 0.339036 0.775382 0.298258
O O7 0.625308 0.594545 0.730454
O O8 0.961801 0.495904 0.234731
O O9 0.149290 0.603030 0.046026
O O10 0.934939 0.704251 0.968548
O O11 0.014094 0.877712 0.256021
O O12 0.500000 0.000000 0.500000
O O13 0.041585 0.075984 0.178370
O O14 0.818036 0.323165 0.450362
O O15 0.000000 0.500000 0.500000
O O16 0.500000 0.500000 0.000000
O O17 0.342635 0.309854 0.789871
O O18 0.863147 0.766366 0.074454
#
# Coordination Sequence:
#
# PCOD9016448 Si02
#       8
#     2   2   2   2   2   2   2   2
#     4  11  23  39  65  99 141 192 240 288 355 447
#     4  10  21  42  67  98 138 182 238 288 353 444
#     4  10  23  46  74 105 138 191 245 300 360 451
#     4  12  27  41  66 106 148 190 240 305 378 444
#     4  12  28  51  82 112 147 199 259 317 375 459
#     4  10  23  43  68 101 146 182 239 304 373 437
#     4  12  26  47  71 106 148 192 242 318 379 442
#     4  11  24  42  70  97 142 188 240 290 362 445
#
# _framework density 25.067572999999999
#
# number of rings (size 3 to 8) (size 9 to 14) (size 15 to 20)
#    0.000    1.000    2.500    4.125    8.750    2.500 
#    0.000    0.625    0.000    0.000    0.000    0.000 
#    0.000    0.000    0.000    0.000    0.000    0.000 
#
# Total GULP energy -89431.106342 kJ/mol
# GULP energy per Si atom -5589.444146 kJ/mol
# Density = 2.501052 g / cm^3
# Si number density = 25.067573 Si / 1000 Ang^3
#
#
#
# Elastic Constant Matrix: (Units=GPa)
#
#
# Indices 1 2 3 4 5 6 
#
# 1 127.7470 10.3482 26.0870 5.6024 -13.4399 35.6184
# 2 10.3482 71.8182 15.1382 -8.9894 6.1649 4.1036
# 3 26.0870 15.1382 114.9399 -16.1890 -17.8092 5.1368
# 4 5.6024 -8.9894 -16.1890 39.5732 6.8603 10.8506
# 5 -13.4399 6.1649 -17.8092 6.8603 44.1290 -12.6482
# 6 35.6184 4.1036 5.1368 10.8506 -12.6482 35.8370
#
#
#
# Elastic Compliance Matrix: (Units=1/GPa)
#
#
# Indices 1 2 3 4 5 6 
#
# 1 0.011349 -0.000410 -0.002016 0.000719 -0.000680 -0.011401
# 2 -0.000410 0.015689 -0.001869 0.004956 -0.005110 -0.004425
# 3 -0.002016 -0.001869 0.010369 0.003184 0.003638 0.001052
# 4 0.000719 0.004956 0.003184 0.033143 -0.008584 -0.014803
# 5 -0.000680 -0.005110 0.003638 -0.008584 0.029958 0.013911
# 6 -0.011401 -0.004425 0.001052 -0.014803 0.013911 0.048984
#
#
# Mechanical properties :
#
#
# Convention : Reuss Voigt Hill
#
# Bulk Modulus (GPa) = 34.70346 46.40576 40.55461
# Shear Modulus (GPa) = 29.81736 41.43661 35.62699
#
# Velocity S-wave (km/s) = 3.45262 4.07012 3.77402
# Velocity P-wave (km/s) = 5.45602 6.37497 5.93331
#
# Compressibility (1/GPa) = 0.02881557
#
# Stress axis : x y z
#
# Youngs Moduli (GPa) = 88.11513 63.73889 96.44054
#
# Poissons Ratio (x) = 0.02616 0.19444
# Poissons Ratio (y) = 0.03617 0.18025
# Poissons Ratio (z) = 0.17765 0.11913
#
# Static dielectric constant tensor:
#      x y z
#    x 2.044420 0.011480 0.033920 
#    y 0.011480 1.990010 0.076250 
#    z 0.033920 0.076250 2.123150 
# 
# From -- ./inp_files/405462.got.cif
#   From: 2010.05.17/outbox.cif.g08.bks.cpg/sg2_203_cif.got.tgz:405462.got - 2010.06.03 11:33:40.
