data_PCOD9016490
_publ_section_title
;
Structure prediction by ZEFSAII (Michael W. Deem and Ramdas Pophale) SiO2 
 PCOD9016490
Probable space group: P -1
;
_chemical_formula_sum "Si O2"
_cell_formula_units_Z 16
_cell_length_a 12.060443
_cell_length_b 9.042043
_cell_length_c 8.746037
_cell_angle_alpha 110.876319
_cell_angle_beta 52.014802
_cell_angle_gamma 126.990749
_cell_volume 600.282320
_symmetry_space_group_name_H-M "P -1"
_symmetry_group_IT_number 2
_symmetry_cell_setting 'triclinic'
loop_
_space_group_symop_operation_xyz
x,y,z
-x,-y,-z
loop_
_atom_site_type_symbol
_atom_site_label
_atom_site_fract_x
_atom_site_fract_y
_atom_site_fract_z
Si Si1 0.320100 0.850650 0.027821
Si Si2 0.958625 0.094548 0.800759
Si Si3 0.242726 0.273166 0.836082
Si Si4 0.418414 0.647208 0.641841
Si Si5 0.215200 0.652315 0.350388
Si Si6 0.343354 0.001556 0.557658
Si Si7 0.547186 0.430789 0.765261
Si Si8 0.877680 0.732949 0.599662
O O1 0.221889 0.939771 0.072847
O O2 0.209672 0.718889 0.211832
O O3 0.314021 0.711936 0.851219
O O4 0.500000 0.000000 0.000000
O O5 0.054540 0.205650 0.605930
O O6 0.062480 0.203691 0.902457
O O7 0.955029 0.903615 0.712206
O O8 0.357353 0.442913 0.682504
O O9 0.259330 0.091496 0.759302
O O10 0.360393 0.380124 0.919376
O O11 0.591403 0.845673 0.579642
O O12 0.409046 0.625026 0.458387
O O13 0.397829 0.675262 0.208498
O O14 0.892114 0.561174 0.584749
O O15 0.225531 0.799654 0.517243
O O16 0.500000 0.000000 0.500000
O O17 0.680969 0.646800 0.729783
#
# Coordination Sequence:
#
# PCOD9016490 Si02
#       8
#     2   2   2   2   2   2   2   2
#     4  12  28  42  65  96 142 185 225 265 345 417
#     4  11  25  42  66 106 137 176 222 290 336 396
#     4  11  22  39  68 102 131 168 227 283 332 384
#     4  11  22  39  66  97 134 179 220 274 332 406
#     4  10  21  42  68 102 128 176 224 278 328 398
#     4  11  19  37  70 106 125 167 232 283 320 393
#     4   9  19  40  74  97 121 172 230 276 326 389
#     4   9  22  43  69 103 131 171 226 285 340 385
#
# _framework density 26.654125000000001
#
# number of rings (size 3 to 8) (size 9 to 14) (size 15 to 20)
#    0.750    0.750    5.000    1.500    5.250    1.000 
#    0.000    3.750    0.000    3.750    0.000    0.000 
#    0.000    0.000    0.000    0.000    0.000    0.000 
#
# Total GULP energy -89161.565406 kJ/mol
# GULP energy per Si atom -5572.597838 kJ/mol
# Density = 2.659346 g / cm^3
# Si number density = 26.654125 Si / 1000 Ang^3
#
#
#
# Elastic Constant Matrix: (Units=GPa)
#
#
# Indices 1 2 3 4 5 6 
#
# 1 121.1587 42.0555 36.9424 5.3869 -33.7863 -1.2782
# 2 42.0555 193.3811 39.3450 2.9626 -7.6911 -15.2554
# 3 36.9424 39.3450 71.6792 3.0042 11.7111 1.6304
# 4 5.3869 2.9626 3.0042 45.1860 2.1481 -4.7440
# 5 -33.7863 -7.6911 11.7111 2.1481 37.0922 -4.3942
# 6 -1.2782 -15.2554 1.6304 -4.7440 -4.3942 50.4447
#
#
#
# Elastic Compliance Matrix: (Units=1/GPa)
#
#
# Indices 1 2 3 4 5 6 
#
# 1 0.018078 -0.000349 -0.012482 -0.002039 0.020734 0.002370
# 2 -0.000349 0.006273 -0.003708 -0.000005 0.002416 0.002218
# 3 -0.012482 -0.003708 0.025889 0.000576 -0.020823 -0.004034
# 4 -0.002039 -0.000005 0.000576 0.022673 -0.003142 0.001787
# 5 0.020734 0.002416 -0.020823 -0.003142 0.053853 0.006325
# 6 0.002370 0.002218 -0.004034 0.001787 0.006325 0.021404
#
#
# Mechanical properties :
#
#
# Convention : Reuss Voigt Hill
#
# Bulk Modulus (GPa) = 58.26821 69.21167 63.73994
# Shear Modulus (GPa) = 26.74245 44.40298 35.57272
#
# Velocity S-wave (km/s) = 3.17095 4.08597 3.65719
# Velocity P-wave (km/s) = 5.94263 6.94861 6.46521
#
# Compressibility (1/GPa) = 0.01716202
#
# Stress axis : x y z
#
# Youngs Moduli (GPa) = 55.31499 159.42121 38.62628
#
# Poissons Ratio (x) = 0.05567 0.48212
# Poissons Ratio (y) = 0.01932 0.14323
# Poissons Ratio (z) = 0.69042 0.59116
#
# Static dielectric constant tensor:
#      x y z
#    x 2.241050 0.078060 -0.101010 
#    y 0.078060 2.109310 -0.040280 
#    z -0.101010 -0.040280 2.227630 
# 
# From -- ./inp_files/419575.got.cif
#   From: 2010.05.17/outbox.cif.g08.bks.cpg/sg2_210_cif.got.tgz:419575.got - 2010.06.03 11:33:40.
