data_PCOD9016359
_publ_section_title
;
Structure prediction by ZEFSAII (Michael W. Deem and Ramdas Pophale) SiO2 
 PCOD9016359
Probable space group: P -1
;
_chemical_formula_sum "Si O2"
_cell_formula_units_Z 14
_cell_length_a 18.609156
_cell_length_b 9.134863
_cell_length_c 23.190538
_cell_angle_alpha 25.498260
_cell_angle_beta 22.541025
_cell_angle_gamma 24.400579
_cell_volume 575.325411
_symmetry_space_group_name_H-M "P -1"
_symmetry_group_IT_number 2
_symmetry_cell_setting 'triclinic'
loop_
_space_group_symop_operation_xyz
x,y,z
-x,-y,-z
loop_
_atom_site_type_symbol
_atom_site_label
_atom_site_fract_x
_atom_site_fract_y
_atom_site_fract_z
Si Si1 0.429342 0.283316 0.397524
Si Si2 0.299259 0.827227 0.397525
Si Si3 0.178215 0.900499 0.988773
Si Si4 0.159192 0.254569 0.761968
Si Si5 0.654812 0.040685 0.044441
Si Si6 0.915139 0.430328 0.527915
Si Si7 0.389597 0.834057 0.097312
O O1 0.305229 0.696058 0.373487
O O2 0.274411 0.227561 0.487784
O O3 0.500000 0.000000 0.500000
O O4 0.650262 0.171065 0.243112
O O5 0.249967 0.545030 0.574902
O O6 0.520483 0.830598 0.240903
O O7 0.109202 0.237109 0.408851
O O8 0.035370 0.695354 0.151493
O O9 0.160401 0.038138 0.018778
O O10 0.424349 0.592800 0.905227
O O11 0.114699 0.232000 0.869941
O O12 0.500000 0.500000 0.000000
O O13 0.693721 0.963711 0.974800
O O14 0.799279 0.181147 0.721894
O O15 0.000000 0.500000 0.500000
O O16 0.500000 0.000000 0.000000
#
# Coordination Sequence:
#
# PCOD9016359 Si02
#       7
#     2   2   2   2   2   2   2
#     4  10  23  43  67  99 138 176 227 282 338 406
#     4  11  24  43  70 101 133 184 230 273 343 412
#     4  10  21  42  67  94 140 174 226 278 347 396
#     4  10  22  42  72  97 134 186 225 280 339 416
#     4  10  23  41  63  99 133 172 220 290 333 395
#     4  12  24  42  69 101 135 175 228 282 339 404
#     4  11  22  39  68  96 134 172 224 277 342 407
#
# _framework density 24.334056
#
# number of rings (size 3 to 8) (size 9 to 14) (size 15 to 20)
#    0.000    1.429    1.429    3.857    0.000    8.571 
#    2.571    0.714    0.000    0.000    0.000    0.000 
#    0.000    0.000    0.000    0.000    0.000    0.000 
#
# Total GULP energy -78224.383687 kJ/mol
# GULP energy per Si atom -5587.455978 kJ/mol
# Density = 2.427867 g / cm^3
# Si number density = 24.334056 Si / 1000 Ang^3
#
#
#
# Elastic Constant Matrix: (Units=GPa)
#
#
# Indices 1 2 3 4 5 6 
#
# 1 225.0524 20.2298 55.1821 -5.6007 -11.5665 -9.7615
# 2 20.2298 46.2194 5.7905 21.6686 4.2057 8.6744
# 3 55.1821 5.7905 99.2636 -15.7657 1.0620 -11.9268
# 4 -5.6007 21.6686 -15.7657 41.2663 0.0341 4.2239
# 5 -11.5665 4.2057 1.0620 0.0341 36.6922 2.2892
# 6 -9.7615 8.6744 -11.9268 4.2239 2.2892 26.8883
#
#
#
# Elastic Compliance Matrix: (Units=1/GPa)
#
#
# Indices 1 2 3 4 5 6 
#
# 1 0.005561 -0.003215 -0.002531 0.001316 0.002097 0.001548
# 2 -0.003215 0.035314 -0.004690 -0.019622 -0.004208 -0.011199
# 3 -0.002531 -0.004690 0.013506 0.006705 -0.001008 0.005617
# 4 0.001316 -0.019622 0.006705 0.036885 0.002198 0.003800
# 5 0.002097 -0.004208 -0.001008 0.002198 0.028493 -0.001099
# 6 0.001548 -0.011199 0.005617 0.003800 -0.001099 0.043354
#
#
# Mechanical properties :
#
#
# Convention : Reuss Voigt Hill
#
# Bulk Modulus (GPa) = 29.84301 59.21556 44.52928
# Shear Modulus (GPa) = 25.62073 40.25823 32.93948
#
# Velocity S-wave (km/s) = 3.24832 4.07184 3.68317
# Velocity P-wave (km/s) = 5.13413 6.81864 6.03544
#
# Compressibility (1/GPa) = 0.03350868
#
# Stress axis : x y z
#
# Youngs Moduli (GPa) = 179.83412 28.31702 74.04369
#
# Poissons Ratio (x) = 0.09103 0.18742
# Poissons Ratio (y) = 0.57813 0.34726
# Poissons Ratio (z) = 0.45520 0.13281
#
# Static dielectric constant tensor:
#      x y z
#    x 1.909290 0.028760 0.003070 
#    y 0.028760 2.067030 -0.024830 
#    z 0.003070 -0.024830 1.917610 
# 
# From -- ./inp_files/158076.got.cif
#   From: 2010.05.17/outbox.cif.g08.bks.cpg/sg2_80_cif.got.tgz:158076.got - 2010.06.03 11:33:40.
