data_PCOD9016849
_publ_section_title
;
Structure prediction by ZEFSAII (Michael W. Deem and Ramdas Pophale) SiO2 
 PCOD9016849
Probable space group: P -1
;
_chemical_formula_sum "Si O2"
_cell_formula_units_Z 12
_cell_length_a 6.816054
_cell_length_b 10.555615
_cell_length_c 9.281886
_cell_angle_alpha 108.759338
_cell_angle_beta 64.335114
_cell_angle_gamma 68.071020
_cell_volume 455.626567
_symmetry_space_group_name_H-M "P -1"
_symmetry_group_IT_number 2
_symmetry_cell_setting 'triclinic'
loop_
_space_group_symop_operation_xyz
x,y,z
-x,-y,-z
loop_
_atom_site_type_symbol
_atom_site_label
_atom_site_fract_x
_atom_site_fract_y
_atom_site_fract_z
Si Si1 0.697846 0.495272 0.820874
Si Si2 0.620812 0.068308 0.674400
Si Si3 0.748147 0.133854 0.931601
Si Si4 0.102011 0.177633 0.049484
Si Si5 0.787007 0.474286 0.485828
Si Si6 0.322379 0.252933 0.554127
O O1 0.697551 0.425667 0.637721
O O2 0.003869 0.396106 0.748270
O O3 0.500000 0.500000 0.000000
O O4 0.544456 0.688860 0.901034
O O5 0.812437 0.084739 0.724211
O O6 0.533068 0.157226 0.581177
O O7 0.695058 0.884593 0.568877
O O8 0.338918 0.167965 0.889699
O O9 0.770172 0.985085 0.950521
O O10 0.942837 0.162370 0.965500
O O11 0.916565 0.336818 0.269854
O O12 0.587811 0.655219 0.539489
O O13 0.000000 0.500000 0.500000
#
# Coordination Sequence:
#
# PCOD9016849 Si02
#       6
#     2   2   2   2   2   2
#     4  11  23  42  66 100 138 175 224 285 346 407
#     4  11  22  44  71  97 140 184 228 286 342 406
#     4  11  24  41  67  98 137 181 225 282 344 406
#     4  11  24  43  68 102 136 181 233 280 346 413
#     4  10  21  42  69  96 133 177 228 281 337 408
#     4  10  23  42  70 102 133 184 236 277 342 413
#
# _framework density 26.337358999999999
#
# number of rings (size 3 to 8) (size 9 to 14) (size 15 to 20)
#    0.000    1.333    0.000    6.500    0.000    4.667 
#    0.000   18.333    0.000    0.000    0.000    0.000 
#    0.000    0.000    0.000    0.000    0.000    0.000 
#
# Total GULP energy -67199.722905 kJ/mol
# GULP energy per Si atom -5599.976909 kJ/mol
# Density = 2.627741 g / cm^3
# Si number density = 26.337359 Si / 1000 Ang^3
#
#
#
# Elastic Constant Matrix: (Units=GPa)
#
#
# Indices 1 2 3 4 5 6 
#
# 1 123.6593 28.5961 47.4986 3.4397 25.1062 -17.5188
# 2 28.5961 124.0518 67.1914 6.6868 13.7825 -19.9209
# 3 47.4986 67.1914 135.2892 -7.8328 30.4753 -5.2475
# 4 3.4397 6.6868 -7.8328 43.5271 4.1149 -3.8559
# 5 25.1062 13.7825 30.4753 4.1149 51.2661 -5.3817
# 6 -17.5188 -19.9209 -5.2475 -3.8559 -5.3817 34.6885
#
#
#
# Elastic Compliance Matrix: (Units=1/GPa)
#
#
# Indices 1 2 3 4 5 6 
#
# 1 0.010412 0.000322 -0.003045 -0.000756 -0.002847 0.004457
# 2 0.000322 0.012538 -0.006529 -0.002687 0.001226 0.006267
# 3 -0.003045 -0.006529 0.012930 0.003726 -0.005129 -0.003713
# 4 -0.000756 -0.002687 0.003726 0.024480 -0.002993 0.000895
# 5 -0.002847 0.001226 -0.005129 -0.002993 0.024058 0.001890
# 6 0.004457 0.006267 -0.003713 0.000895 0.001890 0.034509
#
#
# Mechanical properties :
#
#
# Convention : Reuss Voigt Hill
#
# Bulk Modulus (GPa) = 57.54805 74.39696 65.97250
# Shear Modulus (GPa) = 34.91027 41.87729 38.39378
#
# Velocity S-wave (km/s) = 3.64470 3.99185 3.82222
# Velocity P-wave (km/s) = 6.29361 7.03957 6.67701
#
# Compressibility (1/GPa) = 0.01737678
#
# Stress axis : x y z
#
# Youngs Moduli (GPa) = 96.03881 79.75612 77.33751
#
# Poissons Ratio (x) = -0.02568 0.23551
# Poissons Ratio (y) = -0.03092 0.50493
# Poissons Ratio (z) = 0.29246 0.52072
#
# Static dielectric constant tensor:
#      x y z
#    x 2.197490 0.031410 0.008470 
#    y 0.031410 2.071280 -0.040760 
#    z 0.008470 -0.040760 2.140650 
# 
# From -- ./inp_files/165401.got.cif
#   From: 2010.05.17/outbox.cif.g08.bks.cpg/sg2_83_cif.got.tgz:165401.got - 2010.06.03 11:33:40.
