data_PCOD9016555
_publ_section_title
;
Structure prediction by ZEFSAII (Michael W. Deem and Ramdas Pophale) SiO2 
 PCOD9016555
Probable space group: P -1
;
_chemical_formula_sum "Si O2"
_cell_formula_units_Z 16
_cell_length_a 6.698929
_cell_length_b 16.759818
_cell_length_c 9.570789
_cell_angle_alpha 95.508390
_cell_angle_beta 133.020600
_cell_angle_gamma 72.885743
_cell_volume 742.327899
_symmetry_space_group_name_H-M "P -1"
_symmetry_group_IT_number 2
_symmetry_cell_setting 'triclinic'
loop_
_space_group_symop_operation_xyz
x,y,z
-x,-y,-z
loop_
_atom_site_type_symbol
_atom_site_label
_atom_site_fract_x
_atom_site_fract_y
_atom_site_fract_z
Si Si1 0.416816 0.617455 0.406788
Si Si2 0.627721 0.292661 0.171993
Si Si3 0.685284 0.842808 0.905942
Si Si4 0.176775 0.078590 0.754670
Si Si5 0.957232 0.747591 0.388941
Si Si6 0.349584 0.977762 0.556689
Si Si7 0.334238 0.742372 0.130317
Si Si8 0.701160 0.545510 0.790957
O O1 0.416173 0.678186 0.288185
O O2 0.673135 0.598113 0.640522
O O3 0.421111 0.529384 0.325161
O O4 0.126985 0.662913 0.368244
O O5 0.431840 0.232124 0.106307
O O6 0.473343 0.386030 0.170523
O O7 0.908996 0.258105 0.395344
O O8 0.695608 0.295078 0.042425
O O9 0.512279 0.889567 0.696472
O O10 0.648786 0.911963 0.023534
O O11 0.023989 0.808427 0.026682
O O12 0.986778 0.175784 0.653905
O O13 0.961794 0.023200 0.645719
O O14 0.338770 0.046679 0.682324
O O15 0.616634 0.769651 0.243922
O O16 0.500000 0.000000 0.500000
O O17 0.000000 0.500000 0.000000
#
# Coordination Sequence:
#
# PCOD9016555 Si02
#       8
#     2   2   2   2   2   2   2   2
#     4  10  23  43  64  98 134 178 224 276 330 391
#     4  11  25  42  68  99 135 181 222 274 335 394
#     4  12  25  45  70  98 138 177 223 273 333 399
#     4  11  24  46  70  94 138 171 217 276 334 396
#     4  11  23  44  68  96 136 179 218 276 335 393
#     4  11  28  45  70 103 131 173 222 276 336 397
#     4  12  24  39  70 103 130 178 233 269 328 397
#     4  10  21  42  68  92 138 178 219 275 336 385
#
# _framework density 21.553815
#
# number of rings (size 3 to 8) (size 9 to 14) (size 15 to 20)
#    0.000    1.000    3.750    1.875    3.500    4.000 
#    0.000   10.000    0.000    0.000    0.000    0.000 
#    0.000    0.000    0.000    0.000    0.000    0.000 
#
# Total GULP energy -89305.703027 kJ/mol
# GULP energy per Si atom -5581.606439 kJ/mol
# Density = 2.150476 g / cm^3
# Si number density = 21.553815 Si / 1000 Ang^3
#
#
#
# Elastic Constant Matrix: (Units=GPa)
#
#
# Indices 1 2 3 4 5 6 
#
# 1 109.6891 34.2618 46.8500 14.2995 -25.2155 -12.4912
# 2 34.2618 78.6542 5.7841 12.8257 -4.0861 -16.2874
# 3 46.8500 5.7841 115.7127 4.1772 -15.2101 -6.6225
# 4 14.2995 12.8257 4.1772 38.4500 -0.0021 -8.2814
# 5 -25.2155 -4.0861 -15.2101 -0.0021 35.0024 -3.7681
# 6 -12.4912 -16.2874 -6.6225 -8.2814 -3.7681 20.9603
#
#
#
# Elastic Compliance Matrix: (Units=1/GPa)
#
#
# Indices 1 2 3 4 5 6 
#
# 1 0.015432 -0.004459 -0.004437 -0.002711 0.009197 0.004912
# 2 -0.004459 0.017053 0.001708 -0.001959 0.000649 0.010476
# 3 -0.004437 0.001708 0.010742 0.000477 0.001953 0.002617
# 4 -0.002711 -0.001959 0.000477 0.029438 -0.001063 0.008452
# 5 0.009197 0.000649 0.001953 -0.001063 0.037510 0.012925
# 6 0.004912 0.010476 0.002617 0.008452 0.012925 0.065267
#
#
# Mechanical properties :
#
#
# Convention : Reuss Voigt Hill
#
# Bulk Modulus (GPa) = 34.65943 53.09418 43.87680
# Shear Modulus (GPa) = 25.07082 33.35990 29.21536
#
# Velocity S-wave (km/s) = 3.41423 3.93841 3.68565
# Velocity P-wave (km/s) = 5.62654 6.73560 6.20589
#
# Compressibility (1/GPa) = 0.02885218
#
# Stress axis : x y z
#
# Youngs Moduli (GPa) = 64.80251 58.64050 93.08848
#
# Poissons Ratio (x) = 0.26146 0.41305
# Poissons Ratio (y) = 0.28893 -0.15903
# Poissons Ratio (z) = 0.28754 -0.10018
#
# Static dielectric constant tensor:
#      x y z
#    x 1.775790 -0.023260 -0.001170 
#    y -0.023260 1.815950 -0.011060 
#    z -0.001170 -0.011060 1.837840 
# 
# From -- ./inp_files/112400.got.cif
#   From: 2010.05.17/outbox.cif.g08.bks.cpg/sg2_57_cif.got.tgz:112400.got - 2010.06.03 11:33:40.
