data_PCOD9016798
_publ_section_title
;
Structure prediction by ZEFSAII (Michael W. Deem and Ramdas Pophale) SiO2 
 PCOD9016798
Probable space group: P -1
;
_chemical_formula_sum "Si O2"
_cell_formula_units_Z 12
_cell_length_a 9.350134
_cell_length_b 14.642164
_cell_length_c 8.314822
_cell_angle_alpha 67.441126
_cell_angle_beta 116.325631
_cell_angle_gamma 153.046066
_cell_volume 462.280288
_symmetry_space_group_name_H-M "P -1"
_symmetry_group_IT_number 2
_symmetry_cell_setting 'triclinic'
loop_
_space_group_symop_operation_xyz
x,y,z
-x,-y,-z
loop_
_atom_site_type_symbol
_atom_site_label
_atom_site_fract_x
_atom_site_fract_y
_atom_site_fract_z
Si Si1 0.181502 0.887861 0.757002
Si Si2 0.400791 0.041863 0.261956
Si Si3 0.398968 0.332956 0.547225
Si Si4 0.842712 0.628801 0.089245
Si Si5 0.494517 0.272641 0.320571
Si Si6 0.723272 0.895307 0.135428
O O1 0.325809 0.883659 0.716572
O O2 0.966871 0.847663 0.573735
O O3 0.412591 0.089786 0.828853
O O4 0.003412 0.738490 0.921088
O O5 0.499497 0.155892 0.392207
O O6 0.363250 0.115226 0.075108
O O7 0.069791 0.802396 0.223426
O O8 0.500000 0.500000 0.500000
O O9 0.561629 0.355765 0.473764
O O10 0.412582 0.281500 0.754015
O O11 0.750672 0.468181 0.202317
O O12 0.500000 0.500000 0.000000
O O13 0.116961 0.101185 0.209540
#
# Coordination Sequence:
#
# PCOD9016798 Si02
#       6
#     2   2   2   2   2   2
#     4  10  22  44  66 100 136 174 213 281 339 381
#     4  11  24  41  72 100 138 167 219 287 329 378
#     4  11  25  44  69  94 135 182 227 265 331 409
#     4  11  20  38  69 104 129 169 234 267 315 398
#     4  11  23  39  68 102 126 178 228 267 323 405
#     4  10  21  42  69  93 132 179 218 266 333 396
#
# _framework density 25.958279000000001
#
# number of rings (size 3 to 8) (size 9 to 14) (size 15 to 20)
#    0.000    1.333    5.000    4.500    4.667    0.667 
#    3.000    4.167    0.000    0.000    0.000    0.000 
#    0.000    0.000    0.000    0.000    0.000    0.000 
#
# Total GULP energy -67101.698904 kJ/mol
# GULP energy per Si atom -5591.808242 kJ/mol
# Density = 2.589920 g / cm^3
# Si number density = 25.958279 Si / 1000 Ang^3
#
#
#
# Elastic Constant Matrix: (Units=GPa)
#
#
# Indices 1 2 3 4 5 6 
#
# 1 186.3043 53.4444 13.6957 -9.0597 -20.6854 -24.1390
# 2 53.4444 94.4519 24.6818 -29.9933 -0.0488 -42.2600
# 3 13.6957 24.6818 77.0505 -29.1207 17.2507 -10.7320
# 4 -9.0597 -29.9933 -29.1207 39.7435 -9.3850 6.7912
# 5 -20.6854 -0.0488 17.2507 -9.3850 25.0456 11.0145
# 6 -24.1390 -42.2600 -10.7320 6.7912 11.0145 43.4701
#
#
#
# Elastic Compliance Matrix: (Units=1/GPa)
#
#
# Indices 1 2 3 4 5 6 
#
# 1 0.007808 -0.006501 -0.003010 -0.002174 0.009842 -0.004881
# 2 -0.006501 0.031789 0.005212 0.017620 -0.015365 0.029722
# 3 -0.003010 0.005212 0.022596 0.013619 -0.017947 0.011393
# 4 -0.002174 0.017620 0.013619 0.046142 0.000944 0.011837
# 5 0.009842 -0.015365 -0.017947 0.000944 0.075312 -0.033133
# 6 -0.004881 0.029722 0.011393 0.011837 -0.033133 0.058547
#
#
# Mechanical properties :
#
#
# Convention : Reuss Voigt Hill
#
# Bulk Modulus (GPa) = 18.65830 60.16119 39.40975
# Shear Modulus (GPa) = 18.61093 39.38415 28.99754
#
# Velocity S-wave (km/s) = 2.68051 3.89936 3.34590
# Velocity P-wave (km/s) = 4.09678 6.59544 5.49014
#
# Compressibility (1/GPa) = 0.05359545
#
# Stress axis : x y z
#
# Youngs Moduli (GPa) = 128.06930 31.45695 44.25495
#
# Poissons Ratio (x) = 0.20449 0.13322
# Poissons Ratio (y) = 0.83252 -0.23064
# Poissons Ratio (z) = 0.38554 -0.16394
#
# Static dielectric constant tensor:
#      x y z
#    x 2.162240 -0.103630 -0.193620 
#    y -0.103630 2.281640 0.208650 
#    z -0.193620 0.208650 2.280830 
# 
# From -- ./inp_files/200995.got.cif
#   From: 2010.05.17/outbox.cif.g08.bks.cpg/sg2_101_cif.got.tgz:200995.got - 2010.06.03 11:33:40.
