data_PCOD9016459
_publ_section_title
;
Structure prediction by ZEFSAII (Michael W. Deem and Ramdas Pophale) SiO2 
 PCOD9016459
Probable space group: P -1
;
_chemical_formula_sum "Si O2"
_cell_formula_units_Z 16
_cell_length_a 22.600951
_cell_length_b 8.323265
_cell_length_c 6.210048
_cell_angle_alpha 59.826821
_cell_angle_beta 51.921980
_cell_angle_gamma 48.180496
_cell_volume 676.942547
_symmetry_space_group_name_H-M "P -1"
_symmetry_group_IT_number 2
_symmetry_cell_setting 'triclinic'
loop_
_space_group_symop_operation_xyz
x,y,z
-x,-y,-z
loop_
_atom_site_type_symbol
_atom_site_label
_atom_site_fract_x
_atom_site_fract_y
_atom_site_fract_z
Si Si1 0.622925 0.733770 0.327821
Si Si2 0.235632 0.468929 0.202526
Si Si3 0.266764 0.794786 0.179804
Si Si4 0.114824 0.034936 0.687886
Si Si5 0.041776 0.827501 0.325836
Si Si6 0.405254 0.642130 0.349739
Si Si7 0.510471 0.844115 0.888486
Si Si8 0.745861 0.938714 0.353587
O O1 0.580759 0.587880 0.452417
O O2 0.600304 0.755430 0.615767
O O3 0.569636 0.981982 0.200612
O O4 0.717837 0.611828 0.082307
O O5 0.266352 0.625720 0.126662
O O6 0.129690 0.605852 0.343918
O O7 0.264471 0.260191 0.425283
O O8 0.351087 0.705235 0.203755
O O9 0.186942 0.859883 0.479774
O O10 0.246354 0.008704 0.946709
O O11 0.169368 0.104405 0.668671
O O12 0.032841 0.197126 0.610573
O O13 0.078184 0.928407 0.003621
O O14 0.000000 0.000000 0.500000
O O15 0.339391 0.837613 0.522889
O O16 0.490605 0.659242 0.121460
O O17 0.500000 0.000000 0.000000
#
# Coordination Sequence:
#
# PCOD9016459 Si02
#       8
#     2   2   2   2   2   2   2   2
#     4  11  25  47  69 103 140 174 233 278 341 414
#     4  12  23  44  70 100 135 189 224 282 344 402
#     4  11  23  44  69  98 142 178 230 281 336 407
#     4  10  21  42  67  99 138 182 226 287 338 405
#     4  11  21  42  72  98 140 180 231 283 348 400
#     4  11  24  44  71 101 135 183 224 281 344 408
#     4  11  27  48  70 105 139 175 228 286 343 409
#     4  11  23  42  66 101 140 177 237 276 339 404
#
# _framework density 23.635684000000001
#
# number of rings (size 3 to 8) (size 9 to 14) (size 15 to 20)
#    0.000    1.000    5.000    1.125    1.750    4.000 
#    4.500    2.500    0.000    0.000    0.000    0.000 
#    0.000    0.000    0.000    0.000    0.000    0.000 
#
# Total GULP energy -89469.734456 kJ/mol
# GULP energy per Si atom -5591.858403 kJ/mol
# Density = 2.358189 g / cm^3
# Si number density = 23.635684 Si / 1000 Ang^3
#
#
#
# Elastic Constant Matrix: (Units=GPa)
#
#
# Indices 1 2 3 4 5 6 
#
# 1 81.4079 4.7813 20.4047 16.1984 -5.2486 -7.5858
# 2 4.7813 98.5315 51.6803 6.9233 -5.8104 -0.7003
# 3 20.4047 51.6803 143.2480 24.6596 -3.4011 3.2230
# 4 16.1984 6.9233 24.6596 52.0288 3.3008 -6.1637
# 5 -5.2486 -5.8104 -3.4011 3.3008 26.6176 -1.7529
# 6 -7.5858 -0.7003 3.2230 -6.1637 -1.7529 20.8893
#
#
#
# Elastic Compliance Matrix: (Units=1/GPa)
#
#
# Indices 1 2 3 4 5 6 
#
# 1 0.013980 0.000674 -0.001690 -0.003304 0.003405 0.004671
# 2 0.000674 0.012725 -0.004737 0.000395 0.002370 0.001718
# 3 -0.001690 -0.004737 0.009670 -0.003835 0.000121 -0.003386
# 4 -0.003304 0.000395 -0.003835 0.022933 -0.003512 0.005877
# 5 0.003405 0.002370 0.000121 -0.003512 0.039444 0.003571
# 6 0.004671 0.001718 -0.003386 0.005877 0.003571 0.052181
#
#
# Mechanical properties :
#
#
# Convention : Reuss Voigt Hill
#
# Bulk Modulus (GPa) = 40.21107 52.99111 46.60109
# Shear Modulus (GPa) = 29.28600 36.32857 32.80728
#
# Velocity S-wave (km/s) = 3.52385 3.92474 3.72968
# Velocity P-wave (km/s) = 5.79711 6.55795 6.18923
#
# Compressibility (1/GPa) = 0.02486878
#
# Stress axis : x y z
#
# Youngs Moduli (GPa) = 71.53062 78.58356 103.41137
#
# Poissons Ratio (x) = -0.05298 0.17478
# Poissons Ratio (y) = -0.04823 0.48991
# Poissons Ratio (z) = 0.12089 0.37229
#
# Static dielectric constant tensor:
#      x y z
#    x 1.978130 -0.033690 0.023900 
#    y -0.033690 1.891920 -0.003880 
#    z 0.023900 -0.003880 1.905070 
# 
# From -- ./inp_files/120119.got.cif
#   From: 2010.05.17/outbox.cif.g08.bks.cpg/sg2_61_cif.got.tgz:120119.got - 2010.06.03 11:33:40.
