data_PCOD9016846
_publ_section_title
;
Structure prediction by ZEFSAII (Michael W. Deem and Ramdas Pophale) SiO2 
 PCOD9016846
Probable space group: P -1
;
_chemical_formula_sum "Si O2"
_cell_formula_units_Z 14
_cell_length_a 9.335281
_cell_length_b 6.885452
_cell_length_c 19.313903
_cell_angle_alpha 124.622985
_cell_angle_beta 148.149918
_cell_angle_gamma 65.961162
_cell_volume 530.937355
_symmetry_space_group_name_H-M "P -1"
_symmetry_group_IT_number 2
_symmetry_cell_setting 'triclinic'
loop_
_space_group_symop_operation_xyz
x,y,z
-x,-y,-z
loop_
_atom_site_type_symbol
_atom_site_label
_atom_site_fract_x
_atom_site_fract_y
_atom_site_fract_z
Si Si1 0.940285 0.320495 0.823627
Si Si2 0.676689 0.188023 0.556271
Si Si3 0.636850 0.451276 0.855957
Si Si4 0.154870 0.910331 0.652839
Si Si5 0.896813 0.799043 0.731757
Si Si6 0.235082 0.004991 0.039924
Si Si7 0.981594 0.556563 0.398772
O O1 0.801106 0.377915 0.706382
O O2 0.743606 0.301132 0.807331
O O3 0.011848 0.053468 0.790234
O O4 0.192689 0.514703 0.995517
O O5 0.434279 0.222231 0.410474
O O6 0.500000 0.000000 0.500000
O O7 0.919734 0.072020 0.597782
O O8 0.694216 0.721081 0.903652
O O9 0.316451 0.372326 0.717500
O O10 0.462350 0.037761 0.823353
O O11 0.055841 0.679106 0.614950
O O12 0.166552 0.777039 0.557172
O O13 0.935838 0.556519 0.660687
O O14 0.085928 0.843252 0.885174
O O15 0.000000 0.000000 0.000000
#
# Coordination Sequence:
#
# PCOD9016846 Si02
#       7
#     2   2   2   2   2   2   2
#     4   9  17  30  50  87 112 141 165 222 294 327
#     4  10  17  30  51  84 115 135 166 219 290 333
#     4   9  19  31  56  83 115 140 174 227 279 332
#     4  10  20  32  57  80 117 142 173 226 279 331
#     4  10  20  32  57  83 115 139 176 230 275 332
#     4  10  23  40  55  75 109 158 194 216 254 321
#     4  10  18  30  53  91 111 130 177 228 296 316
#
# _framework density 26.368458
#
# number of rings (size 3 to 8) (size 9 to 14) (size 15 to 20)
#    0.000    2.286    2.857    1.714    6.000    1.714 
#    0.000    1.429    0.000    0.857    0.000    0.000 
#    0.000    0.000    0.000    0.000    0.000    0.000 
#
# Total GULP energy -78312.168138 kJ/mol
# GULP energy per Si atom -5593.726296 kJ/mol
# Density = 2.630844 g / cm^3
# Si number density = 26.368458 Si / 1000 Ang^3
#
#
#
# Elastic Constant Matrix: (Units=GPa)
#
#
# Indices 1 2 3 4 5 6 
#
# 1 86.4900 27.1263 73.9843 -1.1618 -9.2901 -18.1171
# 2 27.1263 136.8207 82.2455 1.1766 -3.2717 -21.3760
# 3 73.9843 82.2455 241.8730 -3.1694 -29.1661 -27.5026
# 4 -1.1618 1.1766 -3.1694 51.8314 -5.1887 6.3192
# 5 -9.2901 -3.2717 -29.1661 -5.1887 49.2883 11.0500
# 6 -18.1171 -21.3760 -27.5026 6.3192 11.0500 48.8477
#
#
#
# Elastic Compliance Matrix: (Units=1/GPa)
#
#
# Indices 1 2 3 4 5 6 
#
# 1 0.016202 0.000150 -0.004667 -0.000424 -0.000556 0.003628
# 2 0.000150 0.009665 -0.003245 -0.000990 -0.002038 0.003048
# 3 -0.004667 -0.003245 0.007057 0.000714 0.003152 0.000017
# 4 -0.000424 -0.000990 0.000714 0.020096 0.003179 -0.003507
# 5 -0.000556 -0.002038 0.003152 0.003179 0.023375 -0.005022
# 6 0.003628 0.003048 0.000017 -0.003507 -0.005022 0.024750
#
#
# Mechanical properties :
#
#
# Convention : Reuss Voigt Hill
#
# Bulk Modulus (GPa) = 57.46820 92.43289 74.95054
# Shear Modulus (GPa) = 40.82738 48.78196 44.80467
#
# Velocity S-wave (km/s) = 3.93917 4.30584 4.12658
# Velocity P-wave (km/s) = 6.52158 7.73633 7.15478
#
# Compressibility (1/GPa) = 0.01740093
#
# Stress axis : x y z
#
# Youngs Moduli (GPa) = 61.72261 103.46173 141.71108
#
# Poissons Ratio (x) = -0.01556 0.66136
# Poissons Ratio (y) = -0.00928 0.45981
# Poissons Ratio (z) = 0.28806 0.33570
#
# Static dielectric constant tensor:
#      x y z
#    x 2.210370 0.113790 -0.029820 
#    y 0.113790 2.081860 -0.022290 
#    z -0.029820 -0.022290 2.020500 
# 
# From -- ./inp_files/169727.got.cif
#   From: 2010.05.17/outbox.cif.g08.bks.cpg/sg2_85_cif.got.tgz:169727.got - 2010.06.03 11:33:40.
