data_PCOD9016436
_publ_section_title
;
Structure prediction by ZEFSAII (Michael W. Deem and Ramdas Pophale) SiO2 
 PCOD9016436
Probable space group: P -1
;
_chemical_formula_sum "Si O2"
_cell_formula_units_Z 14
_cell_length_a 19.997408
_cell_length_b 17.397199
_cell_length_c 9.470781
_cell_angle_alpha 30.804921
_cell_angle_beta 32.788004
_cell_angle_gamma 22.898367
_cell_volume 636.010012
_symmetry_space_group_name_H-M "P -1"
_symmetry_group_IT_number 2
_symmetry_cell_setting 'triclinic'
loop_
_space_group_symop_operation_xyz
x,y,z
-x,-y,-z
loop_
_atom_site_type_symbol
_atom_site_label
_atom_site_fract_x
_atom_site_fract_y
_atom_site_fract_z
Si Si1 0.304552 0.326732 0.334971
Si Si2 0.954085 0.800323 0.844000
Si Si3 0.696161 0.020066 0.203538
Si Si4 0.280091 0.557768 0.773901
Si Si5 0.651318 0.192904 0.582127
Si Si6 0.032071 0.529428 0.736739
Si Si7 0.844718 0.007894 0.251455
O O1 0.306377 0.161437 0.517077
O O2 0.221108 0.387594 0.544329
O O3 0.499952 0.225511 0.169825
O O4 0.206808 0.521345 0.091932
O O5 0.138797 0.724347 0.640742
O O6 0.808567 0.948697 0.746922
O O7 0.844068 0.936509 0.961584
O O8 0.026937 0.566835 0.090587
O O9 0.749473 0.055450 0.196937
O O10 0.450114 0.326239 0.768720
O O11 0.324526 0.673366 0.589416
O O12 0.694338 0.175655 0.369281
O O13 0.932563 0.771041 0.508083
O O14 0.000000 0.500000 0.000000
O O15 0.000000 0.000000 0.000000
#
# Coordination Sequence:
#
# PCOD9016436 Si02
#       7
#     2   2   2   2   2   2   2
#     4  10  21  42  67  98 130 173 233 275 325 402
#     4  11  21  43  69  94 131 181 224 279 330 395
#     4  10  22  40  71  94 130 178 221 277 335 395
#     4  11  23  41  69  97 128 181 228 274 336 403
#     4  11  24  42  64  99 140 168 227 281 333 404
#     4  11  23  41  65  96 135 173 224 274 332 399
#     4  12  25  44  65 100 141 178 218 280 342 400
#
# _framework density 22.012232000000001
#
# number of rings (size 3 to 8) (size 9 to 14) (size 15 to 20)
#    0.000    1.143    2.857    3.857    0.000    3.429 
#    0.000    3.571    0.000    0.000    0.000    0.000 
#    0.000    0.000    0.000    0.000    0.000    0.000 
#
# Total GULP energy -77988.421522 kJ/mol
# GULP energy per Si atom -5570.601537 kJ/mol
# Density = 2.196213 g / cm^3
# Si number density = 22.012232 Si / 1000 Ang^3
#
#
#
# Elastic Constant Matrix: (Units=GPa)
#
#
# Indices 1 2 3 4 5 6 
#
# 1 105.5890 76.6767 24.0654 30.0593 -12.8370 -17.3175
# 2 76.6767 75.5800 25.8789 9.8448 15.2842 28.5174
# 3 24.0654 25.8789 71.2891 -1.6454 0.1088 -1.1511
# 4 30.0593 9.8448 -1.6454 35.1002 17.6160 10.5113
# 5 -12.8370 15.2842 0.1088 17.6160 10.0830 -14.3528
# 6 -17.3175 28.5174 -1.1511 10.5113 -14.3528 17.5174
#
#
#
# Elastic Compliance Matrix: (Units=1/GPa)
#
#
# Indices 1 2 3 4 5 6 
#
# 1 0.005482 0.000418 -0.002024 0.004140 -0.012957 -0.008494
# 2 0.000418 0.010364 -0.004157 -0.013868 0.017299 0.005764
# 3 -0.002024 -0.004157 0.016346 0.004414 -0.002281 0.001323
# 4 0.004140 -0.013868 0.004414 0.024889 0.000738 0.012629
# 5 -0.012957 0.017299 -0.002281 0.000738 0.023882 -0.021996
# 6 -0.008494 0.005764 0.001323 0.012629 -0.021996 0.013792
#
#
# Mechanical properties :
#
#
# Convention : Reuss Voigt Hill
#
# Bulk Modulus (GPa) = 48.38863 56.18890 52.28876
# Shear Modulus (GPa) = 44.18162 20.92927 32.55544
#
# Velocity S-wave (km/s) = 4.48497 3.08685 3.84991
# Velocity P-wave (km/s) = 6.98930 6.18761 6.60064
#
# Compressibility (1/GPa) = 0.02066601
#
# Stress axis : x y z
#
# Youngs Moduli (GPa) = 182.42647 96.49088 61.17622
#
# Poissons Ratio (x) = -0.04031 0.12382
# Poissons Ratio (y) = -0.07621 0.25428
# Poissons Ratio (z) = 0.36922 0.40107
#
# Static dielectric constant tensor:
#      x y z
#    x 1.976260 -0.082030 -0.006940 
#    y -0.082030 1.863670 0.011530 
#    z -0.006940 0.011530 1.877590 
# 
# From -- ./inp_files/174133.got.cif
#   From: 2010.05.17/outbox.cif.g08.bks.cpg/sg2_88_cif.got.tgz:174133.got - 2010.06.03 11:33:40.
