data_PCOD9016107
_publ_section_title
;
Structure prediction by ZEFSAII (Michael W. Deem and Ramdas Pophale) SiO2 
 PCOD9016107
Probable space group: P -1
;
_chemical_formula_sum "Si O2"
_cell_formula_units_Z 14
_cell_length_a 15.680283
_cell_length_b 15.875593
_cell_length_c 10.532219
_cell_angle_alpha 37.266559
_cell_angle_beta 25.086318
_cell_angle_gamma 33.998514
_cell_volume 610.291027
_symmetry_space_group_name_H-M "P -1"
_symmetry_group_IT_number 2
_symmetry_cell_setting 'triclinic'
loop_
_space_group_symop_operation_xyz
x,y,z
-x,-y,-z
loop_
_atom_site_type_symbol
_atom_site_label
_atom_site_fract_x
_atom_site_fract_y
_atom_site_fract_z
Si Si1 0.770698 0.791422 0.183489
Si Si2 0.835683 0.500337 0.609185
Si Si3 0.436628 0.658914 0.099293
Si Si4 0.836097 0.010217 0.037290
Si Si5 0.693853 0.019481 0.507983
Si Si6 0.841221 0.439982 0.213309
Si Si7 0.741374 0.703295 0.843658
O O1 0.768102 0.655624 0.436273
O O2 0.554153 0.849948 0.317132
O O3 0.000253 0.713559 0.890955
O O4 0.766952 0.923472 0.124677
O O5 0.000000 0.500000 0.500000
O O6 0.997790 0.364884 0.464602
O O7 0.609227 0.514600 0.959330
O O8 0.281965 0.807553 0.049204
O O9 0.302788 0.600117 0.444053
O O10 0.590874 0.713740 0.912204
O O11 0.761831 0.981263 0.312246
O O12 0.102887 0.950297 0.748272
O O13 0.684085 0.872670 0.765182
O O14 0.713155 0.578717 0.122264
O O15 0.000000 0.500000 0.000000
#
# Coordination Sequence:
#
# PCOD9016107 Si02
#       7
#     2   2   2   2   2   2   2
#     4  11  22  45  67  93 136 173 212 273 329 385
#     4   9  19  36  69  96 121 172 215 264 328 381
#     4  11  20  41  68  93 132 175 217 269 327 387
#     4  11  22  38  70 102 131 168 217 270 333 385
#     4  11  22  41  68 105 131 165 219 274 322 392
#     4  11  26  46  62  93 133 176 226 267 321 393
#     4  10  21  42  66  95 131 170 218 271 328 385
#
# _framework density 22.939875000000001
#
# number of rings (size 3 to 8) (size 9 to 14) (size 15 to 20)
#    0.000    1.429    2.857    3.429    0.000    0.571 
#   15.429    3.571    0.000    0.000    0.000    0.000 
#    0.000    0.000    0.000    0.000    0.000    0.000 
#
# Total GULP energy -78310.537105 kJ/mol
# GULP energy per Si atom -5593.609793 kJ/mol
# Density = 2.288766 g / cm^3
# Si number density = 22.939875 Si / 1000 Ang^3
#
#
#
# Elastic Constant Matrix: (Units=GPa)
#
#
# Indices 1 2 3 4 5 6 
#
# 1 59.6481 17.4674 9.4918 4.4228 -14.3089 -15.2288
# 2 17.4674 96.5905 41.7585 0.1510 7.5622 -40.2574
# 3 9.4918 41.7585 132.1091 20.8557 11.9785 -10.3180
# 4 4.4228 0.1510 20.8557 17.6138 3.7893 -1.7733
# 5 -14.3089 7.5622 11.9785 3.7893 36.5093 -0.5189
# 6 -15.2288 -40.2574 -10.3180 -1.7733 -0.5189 36.4149
#
#
#
# Elastic Compliance Matrix: (Units=1/GPa)
#
#
# Indices 1 2 3 4 5 6 
#
# 1 0.021949 -0.001576 -0.000398 -0.006421 0.009828 0.007151
# 2 -0.001576 0.024394 -0.007189 0.012102 -0.004215 0.024801
# 3 -0.000398 -0.007189 0.011769 -0.014079 -0.001145 -0.005481
# 4 -0.006421 0.012102 -0.014079 0.077789 -0.008331 0.010374
# 5 0.009828 -0.004215 -0.001145 -0.008331 0.033344 -0.000805
# 6 0.007151 0.024801 -0.005481 0.010374 -0.000805 0.056811
#
#
# Mechanical properties :
#
#
# Convention : Reuss Voigt Hill
#
# Bulk Modulus (GPa) = 25.13409 47.30923 36.22166
# Shear Modulus (GPa) = 19.40671 32.74959 26.07815
#
# Velocity S-wave (km/s) = 2.91173 3.78249 3.37531
# Velocity P-wave (km/s) = 4.72065 6.30431 5.56906
#
# Compressibility (1/GPa) = 0.03978660
#
# Stress axis : x y z
#
# Youngs Moduli (GPa) = 45.55956 40.99419 84.97133
#
# Poissons Ratio (x) = 0.06462 0.03378
# Poissons Ratio (y) = 0.07181 0.61084
# Poissons Ratio (z) = 0.01811 0.29470
#
# Static dielectric constant tensor:
#      x y z
#    x 1.898960 0.009010 0.009250 
#    y 0.009010 1.793850 0.027700 
#    z 0.009250 0.027700 1.822790 
# 
# From -- ./inp_files/390718.got.cif
#   From: 2010.05.17/outbox.cif.g08.bks.cpg/sg2_196_cif.got.tgz:390718.got - 2010.06.03 11:33:40.
