data_PCOD9016673
_publ_section_title
;
Structure prediction by ZEFSAII (Michael W. Deem and Ramdas Pophale) SiO2 
 PCOD9016673
Probable space group: P -1
;
_chemical_formula_sum "Si O2"
_cell_formula_units_Z 14
_cell_length_a 8.928752
_cell_length_b 13.960876
_cell_length_c 8.075347
_cell_angle_alpha 100.063084
_cell_angle_beta 94.521834
_cell_angle_gamma 139.887121
_cell_volume 601.700769
_symmetry_space_group_name_H-M "P -1"
_symmetry_group_IT_number 2
_symmetry_cell_setting 'triclinic'
loop_
_space_group_symop_operation_xyz
x,y,z
-x,-y,-z
loop_
_atom_site_type_symbol
_atom_site_label
_atom_site_fract_x
_atom_site_fract_y
_atom_site_fract_z
Si Si1 0.688416 0.289242 0.390706
Si Si2 0.767059 0.172514 0.635751
Si Si3 0.088695 0.938490 0.530535
Si Si4 0.708010 0.849201 0.895159
Si Si5 0.406574 0.760739 0.158596
Si Si6 0.281693 0.343655 0.321157
Si Si7 0.125675 0.470572 0.263944
O O1 0.810317 0.274017 0.523846
O O2 0.403585 0.143396 0.264299
O O3 0.726138 0.409090 0.528128
O O4 0.850047 0.359207 0.259499
O O5 0.931857 0.160965 0.632281
O O6 0.752519 0.222058 0.823306
O O7 0.500000 0.000000 0.500000
O O8 0.928195 0.814431 0.631338
O O9 0.372591 0.104351 0.651559
O O10 0.000000 0.000000 0.500000
O O11 0.634605 0.700013 0.805130
O O12 0.561982 0.814353 0.028863
O O13 0.000000 0.000000 0.000000
O O14 0.237701 0.585824 0.153950
O O15 0.500000 0.500000 0.500000
O O16 0.164277 0.376038 0.229288
#
# Coordination Sequence:
#
# PCOD9016673 Si02
#       7
#     2   2   2   2   2   2   2
#     4  10  21  42  68  98 137 183 231 285 339 417
#     4   9  20  38  66  95 129 177 235 273 337 415
#     4  11  22  40  68 101 136 180 233 288 337 417
#     4  12  26  43  66 102 150 183 225 292 357 404
#     4  10  23  42  64 100 140 177 228 288 352 407
#     4  12  23  41  68 100 133 188 233 275 346 416
#     4  10  21  42  70  99 132 183 239 279 339 420
#
# _framework density 23.267382000000001
#
# number of rings (size 3 to 8) (size 9 to 14) (size 15 to 20)
#    0.000    1.429    4.286    0.857    4.000    1.143 
#    0.000    7.857    0.000    0.000    0.000    0.000 
#    0.000    0.000    0.000    0.000    0.000    0.000 
#
# Total GULP energy -78092.696877 kJ/mol
# GULP energy per Si atom -5578.049777 kJ/mol
# Density = 2.321442 g / cm^3
# Si number density = 23.267382 Si / 1000 Ang^3
#
#
#
# Elastic Constant Matrix: (Units=GPa)
#
#
# Indices 1 2 3 4 5 6 
#
# 1 154.1008 28.7724 70.2865 0.9683 -30.0228 -21.3021
# 2 28.7724 98.1860 21.5903 -3.7928 -1.5261 -7.2203
# 3 70.2865 21.5903 85.0725 2.8142 -29.8582 3.6669
# 4 0.9683 -3.7928 2.8142 32.0045 13.6178 -4.4915
# 5 -30.0228 -1.5261 -29.8582 13.6178 50.8055 14.2108
# 6 -21.3021 -7.2203 3.6669 -4.4915 14.2108 41.1656
#
#
#
# Elastic Compliance Matrix: (Units=1/GPa)
#
#
# Indices 1 2 3 4 5 6 
#
# 1 0.012562 -0.000392 -0.011706 0.002982 -0.002711 0.008736
# 2 -0.000392 0.011827 -0.004918 0.004783 -0.005358 0.004681
# 3 -0.011706 -0.004918 0.030888 -0.013933 0.019871 -0.018052
# 4 0.002982 0.004783 -0.013933 0.045024 -0.022955 0.016460
# 5 -0.002711 -0.005358 0.019871 -0.022955 0.041621 -0.020985
# 6 0.008736 0.004681 -0.018052 0.016460 -0.020985 0.040282
#
#
# Mechanical properties :
#
#
# Convention : Reuss Voigt Hill
#
# Bulk Modulus (GPa) = 47.07147 64.29531 55.68339
# Shear Modulus (GPa) = 22.38958 39.24246 30.81602
#
# Velocity S-wave (km/s) = 3.10542 4.11126 3.64322
# Velocity P-wave (km/s) = 5.75611 7.08730 6.45611
#
# Compressibility (1/GPa) = 0.02124429
#
# Stress axis : x y z
#
# Youngs Moduli (GPa) = 79.60230 84.55398 32.37525
#
# Poissons Ratio (x) = 0.03312 0.37899
# Poissons Ratio (y) = 0.03118 0.15923
# Poissons Ratio (z) = 0.93184 0.41587
#
# Static dielectric constant tensor:
#      x y z
#    x 2.141160 -0.104680 0.096830 
#    y -0.104680 2.011560 -0.124340 
#    z 0.096830 -0.124340 2.049540 
# 
# From -- ./inp_files/203061.got.cif
#   From: 2010.05.17/outbox.cif.g08.bks.cpg/sg2_102_cif.got.tgz:203061.got - 2010.06.03 11:33:40.
