data_PCOD9016010
_publ_section_title
;
Structure prediction by ZEFSAII (Michael W. Deem and Ramdas Pophale) SiO2 
 PCOD9016010
Probable space group: P -1
;
_chemical_formula_sum "Si O2"
_cell_formula_units_Z 16
_cell_length_a 9.118970
_cell_length_b 21.732245
_cell_length_c 11.590939
_cell_angle_alpha 37.064308
_cell_angle_beta 115.457246
_cell_angle_gamma 140.523656
_cell_volume 769.403581
_symmetry_space_group_name_H-M "P -1"
_symmetry_group_IT_number 2
_symmetry_cell_setting 'triclinic'
loop_
_space_group_symop_operation_xyz
x,y,z
-x,-y,-z
loop_
_atom_site_type_symbol
_atom_site_label
_atom_site_fract_x
_atom_site_fract_y
_atom_site_fract_z
Si Si1 0.499070 0.196682 0.638635
Si Si2 0.043058 0.279569 0.180248
Si Si3 0.778712 0.304338 0.213712
Si Si4 0.943960 0.301829 0.512873
Si Si5 0.498886 0.567072 0.727986
Si Si6 0.745243 0.942444 0.490217
Si Si7 0.027602 0.911416 0.066289
Si Si8 0.518947 0.587006 0.268230
O O1 0.770866 0.270044 0.601160
O O2 0.524049 0.328532 0.480047
O O3 0.366288 0.126949 0.571617
O O4 0.300373 0.049288 0.882604
O O5 0.222274 0.315231 0.288214
O O6 0.855080 0.271556 0.182810
O O7 0.263628 0.434438 0.938184
O O8 0.853783 0.107823 0.307822
O O9 0.808354 0.252314 0.418105
O O10 0.483223 0.200186 0.281998
O O11 0.000000 0.500000 0.000000
O O12 0.973624 0.195601 0.703385
O O13 0.232083 0.496690 0.309467
O O14 0.466596 0.470321 0.758741
O O15 0.000000 0.000000 0.500000
O O16 0.777812 0.781299 0.089459
O O17 0.000000 0.000000 0.000000
O O18 0.500000 0.500000 0.500000
#
# Coordination Sequence:
#
# PCOD9016010 Si02
#       8
#     2   2   2   2   2   2   2   2
#     4  11  22  41  64  93 130 166 215 265 325 378
#     4  11  22  39  63  92 135 168 215 263 322 379
#     4  11  24  41  65  94 134 172 214 266 322 384
#     4  10  22  42  63  92 130 167 213 266 318 386
#     4  11  22  39  66  94 126 174 212 265 321 384
#     4  11  23  39  62  99 131 171 216 264 323 387
#     4  11  24  42  67  94 124 166 217 271 325 381
#     4  10  21  42  66  90 123 169 219 262 318 384
#
# _framework density 20.795328000000001
#
# number of rings (size 3 to 8) (size 9 to 14) (size 15 to 20)
#    0.000    1.250    2.500    4.500    1.750    1.000 
#    0.000   11.875    0.000    0.000    0.000    0.000 
#    0.000    0.000    0.000    0.000    0.000    0.000 
#
# Total GULP energy -89398.581535 kJ/mol
# GULP energy per Si atom -5587.411346 kJ/mol
# Density = 2.074800 g / cm^3
# Si number density = 20.795328 Si / 1000 Ang^3
#
#
#
# Elastic Constant Matrix: (Units=GPa)
#
#
# Indices 1 2 3 4 5 6 
#
# 1 139.4712 30.4462 42.2425 -17.1662 -19.6914 1.6805
# 2 30.4462 56.8371 6.0142 -15.6162 -2.2047 -3.2505
# 3 42.2425 6.0142 84.5301 -16.1019 -8.7679 2.4868
# 4 -17.1662 -15.6162 -16.1019 33.9755 -3.0736 0.2029
# 5 -19.6914 -2.2047 -8.7679 -3.0736 43.1497 -4.8261
# 6 1.6805 -3.2505 2.4868 0.2029 -4.8261 28.8205
#
#
#
# Elastic Compliance Matrix: (Units=1/GPa)
#
#
# Indices 1 2 3 4 5 6 
#
# 1 0.010057 -0.004426 -0.004053 0.001455 0.003628 -0.000139
# 2 -0.004426 0.022419 0.002353 0.009218 0.000553 0.002611
# 3 -0.004053 0.002353 0.015093 0.006346 0.001727 -0.000556
# 4 0.001455 0.009218 0.006346 0.037880 0.005237 0.001017
# 5 0.003628 0.000553 0.001727 0.005237 0.026033 0.004024
# 6 -0.000139 0.002611 -0.000556 0.001017 0.004024 0.035715
#
#
# Mechanical properties :
#
#
# Convention : Reuss Voigt Hill
#
# Bulk Modulus (GPa) = 28.31516 48.69379 38.50447
# Shear Modulus (GPa) = 29.20212 34.66483 31.93348
#
# Velocity S-wave (km/s) = 3.75142 4.08726 3.92294
# Velocity P-wave (km/s) = 5.69296 6.76320 6.25103
#
# Compressibility (1/GPa) = 0.03531678
#
# Stress axis : x y z
#
# Youngs Moduli (GPa) = 99.43713 44.60438 66.25794
#
# Poissons Ratio (x) = 0.19740 0.26856
# Poissons Ratio (y) = 0.44007 -0.15590
# Poissons Ratio (z) = 0.40304 -0.10495
#
# Static dielectric constant tensor:
#      x y z
#    x 2.016140 0.033890 0.018440 
#    y 0.033890 1.730690 0.019250 
#    z 0.018440 0.019250 1.772020 
# 
# From -- ./inp_files/187423.got.cif
#   From: 2010.05.17/outbox.cif.g08.bks.cpg/sg2_94_cif.got.tgz:187423.got - 2010.06.03 11:33:40.
