data_PCOD9016360
_publ_section_title
;
Structure prediction by ZEFSAII (Michael W. Deem and Ramdas Pophale) SiO2 
 PCOD9016360
Probable space group: P -1
;
_chemical_formula_sum "Si O2"
_cell_formula_units_Z 14
_cell_length_a 13.828745
_cell_length_b 8.090192
_cell_length_c 9.557728
_cell_angle_alpha 110.650478
_cell_angle_beta 100.622723
_cell_angle_gamma 126.743948
_cell_volume 681.307279
_symmetry_space_group_name_H-M "P -1"
_symmetry_group_IT_number 2
_symmetry_cell_setting 'triclinic'
loop_
_space_group_symop_operation_xyz
x,y,z
-x,-y,-z
loop_
_atom_site_type_symbol
_atom_site_label
_atom_site_fract_x
_atom_site_fract_y
_atom_site_fract_z
Si Si1 0.462528 0.751269 0.445948
Si Si2 0.913310 0.065666 0.522876
Si Si3 0.072465 0.573107 0.889404
Si Si4 0.905943 0.065715 0.203775
Si Si5 0.333477 0.067480 0.192214
Si Si6 0.193963 0.218939 0.331071
Si Si7 0.413961 0.417276 0.092948
O O1 0.574153 0.834132 0.616736
O O2 0.308948 0.512419 0.402525
O O3 0.466967 0.644819 0.272736
O O4 0.500000 0.000000 0.500000
O O5 0.887054 0.104180 0.372001
O O6 0.002850 0.319781 0.714481
O O7 0.788892 0.833948 0.522126
O O8 0.000000 0.000000 0.500000
O O9 0.061714 0.726981 0.827308
O O10 0.000000 0.500000 0.000000
O O11 0.239561 0.780363 0.034240
O O12 0.037525 0.099715 0.237519
O O13 0.754475 0.781398 0.043080
O O14 0.225120 0.088265 0.205703
O O15 0.424438 0.256210 0.144054
O O16 0.500000 0.500000 0.000000
#
# Coordination Sequence:
#
# PCOD9016360 Si02
#       7
#     2   2   2   2   2   2   2
#     4  11  26  43  66  95 129 177 221 264 322 394
#     4  10  22  41  61  94 131 167 207 271 329 378
#     4  11  22  39  66  96 126 168 214 273 315 383
#     4  10  24  40  69  99 131 168 222 268 329 383
#     4  10  23  43  67  93 131 172 220 263 328 390
#     4  10  21  42  67  95 126 173 220 266 323 384
#     4  10  23  43  68  95 131 172 212 268 333 388
#
# _framework density 20.548729999999999
#
# number of rings (size 3 to 8) (size 9 to 14) (size 15 to 20)
#    0.000    1.714    1.429    2.143    6.000    7.429 
#   10.286    0.714    0.000    0.000    0.000    0.000 
#    0.000    0.000    0.000    0.000    0.000    0.000 
#
# Total GULP energy -78102.510395 kJ/mol
# GULP energy per Si atom -5578.750742 kJ/mol
# Density = 2.050196 g / cm^3
# Si number density = 20.548730 Si / 1000 Ang^3
#
#
#
# Elastic Constant Matrix: (Units=GPa)
#
#
# Indices 1 2 3 4 5 6 
#
# 1 65.6801 49.5111 54.2873 -4.9433 13.3171 9.8828
# 2 49.5111 175.5441 85.1641 -18.1840 -13.0624 5.5307
# 3 54.2873 85.1641 186.8932 -7.8427 -9.4203 1.0292
# 4 -4.9433 -18.1840 -7.8427 46.2659 10.4003 -12.0901
# 5 13.3171 -13.0624 -9.4203 10.4003 24.7597 1.7777
# 6 9.8828 5.5307 1.0292 -12.0901 1.7777 19.8052
#
#
#
# Elastic Compliance Matrix: (Units=1/GPa)
#
#
# Indices 1 2 3 4 5 6 
#
# 1 0.033812 -0.007083 -0.007699 0.002326 -0.025052 -0.010825
# 2 -0.007083 0.009157 -0.001698 0.001179 0.007419 0.001120
# 3 -0.007699 -0.001698 0.008648 -0.000797 0.006671 0.002782
# 4 0.002326 0.001179 -0.000797 0.030390 -0.015022 0.018451
# 5 -0.025052 0.007419 0.006671 -0.015022 0.066991 -0.005100
# 6 -0.010825 0.001120 0.002782 0.018451 -0.005100 0.067158
#
#
# Mechanical properties :
#
#
# Convention : Reuss Voigt Hill
#
# Bulk Modulus (GPa) = 53.60096 89.56029 71.58063
# Shear Modulus (GPa) = 19.58206 34.10981 26.84594
#
# Velocity S-wave (km/s) = 3.09035 4.07867 3.61841
# Velocity P-wave (km/s) = 6.23499 8.11540 7.23653
#
# Compressibility (1/GPa) = 0.01865638
#
# Stress axis : x y z
#
# Youngs Moduli (GPa) = 29.57514 109.20511 115.63017
#
# Poissons Ratio (x) = 0.77355 0.89026
# Poissons Ratio (y) = 0.20949 0.19633
# Poissons Ratio (z) = 0.22771 0.18542
#
# Static dielectric constant tensor:
#      x y z
#    x 1.738710 0.007350 0.015050 
#    y 0.007350 1.803590 -0.016830 
#    z 0.015050 -0.016830 1.799150 
# 
# From -- ./inp_files/299260.got.cif
#   From: 2010.05.17/outbox.cif.g08.bks.cpg/sg2_150_cif.got.tgz:299260.got - 2010.06.03 11:33:40.
