data_PCOD9016306
_publ_section_title
;
Structure prediction by ZEFSAII (Michael W. Deem and Ramdas Pophale) SiO2 
 PCOD9016306
Probable space group: P -1
;
_chemical_formula_sum "Si O2"
_cell_formula_units_Z 16
_cell_length_a 13.443144
_cell_length_b 8.140928
_cell_length_c 18.099248
_cell_angle_alpha 125.423024
_cell_angle_beta 38.675828
_cell_angle_gamma 96.540380
_cell_volume 753.420043
_symmetry_space_group_name_H-M "P -1"
_symmetry_group_IT_number 2
_symmetry_cell_setting 'triclinic'
loop_
_space_group_symop_operation_xyz
x,y,z
-x,-y,-z
loop_
_atom_site_type_symbol
_atom_site_label
_atom_site_fract_x
_atom_site_fract_y
_atom_site_fract_z
Si Si1 0.117207 0.703944 0.823943
Si Si2 0.437813 0.831640 0.524007
Si Si3 0.270069 0.602443 0.284876
Si Si4 0.172503 0.289468 0.907079
Si Si5 0.696720 0.408759 0.040941
Si Si6 0.918452 0.162572 0.287066
Si Si7 0.859009 0.723916 0.701572
Si Si8 0.183557 0.864890 0.249838
O O1 0.347256 0.470973 0.665246
O O2 0.139888 0.696687 0.721244
O O3 0.962417 0.657257 0.929439
O O4 0.000000 0.000000 0.000000
O O5 0.270320 0.830737 0.577362
O O6 0.500000 0.000000 0.500000
O O7 0.311453 0.993036 0.714823
O O8 0.251631 0.377178 0.225128
O O9 0.290612 0.695387 0.218023
O O10 0.472049 0.487467 0.187364
O O11 0.057119 0.873271 0.517491
O O12 0.321059 0.351192 0.857192
O O13 0.000000 0.500000 0.000000
O O14 0.798069 0.308324 0.873266
O O15 0.867728 0.151604 0.925922
O O16 0.989868 0.277705 0.331396
O O17 0.000000 0.500000 0.500000
O O18 0.727904 0.005081 0.806246
#
# Coordination Sequence:
#
# PCOD9016306 Si02
#       8
#     2   2   2   2   2   2   2   2
#     4  12  25  46  70 100 145 177 230 292 343 417
#     4  12  25  46  73  97 140 184 226 284 346 419
#     4  10  21  42  67  92 135 178 223 284 343 397
#     4  12  24  46  65 104 137 178 229 279 341 417
#     4  11  23  42  67  97 135 175 227 271 345 407
#     4  11  24  43  68 103 135 180 228 284 349 407
#     4   9  21  43  64  95 134 172 230 282 333 407
#     4   9  21  41  63  96 133 173 228 282 335 408
#
# _framework density 21.236494
#
# number of rings (size 3 to 8) (size 9 to 14) (size 15 to 20)
#    0.000    1.250    3.750    0.750    1.750    6.000 
#    6.750    0.000    0.000    0.000    0.000    0.000 
#    0.000    0.000    0.000    0.000    0.000    0.000 
#
# Total GULP energy -89325.583750 kJ/mol
# GULP energy per Si atom -5582.848984 kJ/mol
# Density = 2.118816 g / cm^3
# Si number density = 21.236494 Si / 1000 Ang^3
#
#
#
# Elastic Constant Matrix: (Units=GPa)
#
#
# Indices 1 2 3 4 5 6 
#
# 1 93.8136 66.4607 25.7817 -2.6204 -14.0853 29.4977
# 2 66.4607 114.0585 26.3269 -1.0632 -20.5443 10.5301
# 3 25.7817 26.3269 98.6491 4.6857 -16.0443 10.9585
# 4 -2.6204 -1.0632 4.6857 32.7616 1.4014 -0.2869
# 5 -14.0853 -20.5443 -16.0443 1.4014 46.2428 0.4432
# 6 29.4977 10.5301 10.9585 -0.2869 0.4432 47.0601
#
#
#
# Elastic Compliance Matrix: (Units=1/GPa)
#
#
# Indices 1 2 3 4 5 6 
#
# 1 0.023507 -0.012012 -0.001488 0.001542 0.001373 -0.011704
# 2 -0.012012 0.016202 -0.001118 -0.000372 0.003123 0.004132
# 3 -0.001488 -0.001118 0.011603 -0.001963 0.003150 -0.001561
# 4 0.001542 -0.000372 -0.001963 0.030970 -0.001313 -0.000225
# 5 0.001373 0.003123 0.003150 -0.001313 0.024588 -0.002533
# 6 -0.011704 0.004132 -0.001561 -0.000225 -0.002533 0.028047
#
#
# Mechanical properties :
#
#
# Convention : Reuss Voigt Hill
#
# Bulk Modulus (GPa) = 45.29542 60.40665 52.85103
# Shear Modulus (GPa) = 29.15268 37.74303 33.44785
#
# Velocity S-wave (km/s) = 3.70910 4.22034 3.97295
# Velocity P-wave (km/s) = 6.30227 7.22875 6.78135
#
# Compressibility (1/GPa) = 0.02207729
#
# Stress axis : x y z
#
# Youngs Moduli (GPa) = 42.54055 61.72010 86.18347
#
# Poissons Ratio (x) = 0.74136 0.12822
# Poissons Ratio (y) = 0.51098 0.09636
# Poissons Ratio (z) = 0.06329 0.06901
#
# Static dielectric constant tensor:
#      x y z
#    x 1.718940 0.012620 -0.020550 
#    y 0.012620 1.821920 0.005770 
#    z -0.020550 0.005770 1.720810 
# 
# From -- ./inp_files/566931.got.cif
#   From: 2010.05.17/outbox.cif.g08.bks.cpg/sg2_284_cif.got.tgz:566931.got - 2010.06.03 11:33:40.
