data_PCOD9016394
_publ_section_title
;
Structure prediction by ZEFSAII (Michael W. Deem and Ramdas Pophale) SiO2 
 PCOD9016394
Probable space group: P -1
;
_chemical_formula_sum "Si O2"
_cell_formula_units_Z 14
_cell_length_a 12.101795
_cell_length_b 9.858389
_cell_length_c 5.820840
_cell_angle_alpha 62.500278
_cell_angle_beta 76.947870
_cell_angle_gamma 67.073626
_cell_volume 566.428939
_symmetry_space_group_name_H-M "P -1"
_symmetry_group_IT_number 2
_symmetry_cell_setting 'triclinic'
loop_
_space_group_symop_operation_xyz
x,y,z
-x,-y,-z
loop_
_atom_site_type_symbol
_atom_site_label
_atom_site_fract_x
_atom_site_fract_y
_atom_site_fract_z
Si Si1 0.306898 0.329051 0.423968
Si Si2 0.775093 0.351692 0.508421
Si Si3 0.005148 0.678640 0.902167
Si Si4 0.624536 0.462676 0.098861
Si Si5 0.527488 0.068739 0.684880
Si Si6 0.203906 0.078638 0.463756
Si Si7 0.845377 0.181293 0.014049
O O1 0.229757 0.493077 0.456608
O O2 0.431260 0.248239 0.565603
O O3 0.239680 0.199686 0.527328
O O4 0.333710 0.384883 0.112454
O O5 0.879681 0.325049 0.298463
O O6 0.647501 0.412665 0.390916
O O7 0.815241 0.184019 0.758442
O O8 0.047385 0.742624 0.067028
O O9 0.884598 0.808349 0.767196
O O10 0.000000 0.500000 0.000000
O O11 0.716975 0.306754 0.055980
O O12 0.500000 0.500000 0.000000
O O13 0.500000 0.000000 0.500000
O O14 0.669946 0.031922 0.621609
O O15 0.500000 0.000000 0.000000
O O16 0.138758 0.975410 0.720257
#
# Coordination Sequence:
#
# PCOD9016394 Si02
#       7
#     2   2   2   2   2   2   2
#     4  10  23  41  68  99 136 182 237 291 354 430
#     4  10  23  43  68  98 136 184 237 294 353 431
#     4  11  24  43  70  98 137 183 244 294 352 431
#     4  10  21  42  67  96 135 181 235 289 353 424
#     4  10  24  44  67 105 146 186 239 297 363 431
#     4  11  23  45  67 101 143 187 232 299 363 429
#     4  10  23  43  63 102 141 179 235 289 359 428
#
# _framework density 24.716252000000001
#
# number of rings (size 3 to 8) (size 9 to 14) (size 15 to 20)
#    0.000    1.714    0.000    3.857    6.000    5.143 
#   18.000    0.000    0.000    0.000    0.000    0.000 
#    0.000    0.000    0.000    0.000    0.000    0.000 
#
# Total GULP energy -78128.273585 kJ/mol
# GULP energy per Si atom -5580.590970 kJ/mol
# Density = 2.466000 g / cm^3
# Si number density = 24.716252 Si / 1000 Ang^3
#
#
#
# Elastic Constant Matrix: (Units=GPa)
#
#
# Indices 1 2 3 4 5 6 
#
# 1 145.6586 27.0545 37.1150 -13.4161 36.4348 -0.5624
# 2 27.0545 66.6898 10.9954 -13.8601 4.5699 -4.8954
# 3 37.1150 10.9954 135.3270 -21.0331 24.6531 5.9753
# 4 -13.4161 -13.8601 -21.0331 40.2934 -5.9288 3.2281
# 5 36.4348 4.5699 24.6531 -5.9288 39.1174 -14.7702
# 6 -0.5624 -4.8954 5.9753 3.2281 -14.7702 45.6744
#
#
#
# Elastic Compliance Matrix: (Units=1/GPa)
#
#
# Indices 1 2 3 4 5 6 
#
# 1 0.010178 -0.003467 -0.000409 0.000789 -0.010014 -0.003487
# 2 -0.003467 0.017457 -0.000390 0.004905 0.003142 0.002549
# 3 -0.000409 -0.000390 0.009465 0.004034 -0.006288 -0.003604
# 4 0.000789 0.004905 0.004034 0.029006 -0.000256 -0.002125
# 5 -0.010014 0.003142 -0.006288 -0.000256 0.044250 0.015364
# 6 -0.003487 0.002549 -0.003604 -0.002125 0.015364 0.027714
#
#
# Mechanical properties :
#
#
# Convention : Reuss Voigt Hill
#
# Bulk Modulus (GPa) = 35.00498 55.33391 45.16944
# Shear Modulus (GPa) = 32.02589 43.18441 37.60515
#
# Velocity S-wave (km/s) = 3.60355 4.18450 3.90484
# Velocity P-wave (km/s) = 5.61316 6.76631 6.21653
#
# Compressibility (1/GPa) = 0.02856737
#
# Stress axis : x y z
#
# Youngs Moduli (GPa) = 98.25492 57.28410 105.65331
#
# Poissons Ratio (x) = 0.19862 0.04319
# Poissons Ratio (y) = 0.34068 0.04120
# Poissons Ratio (z) = 0.04016 0.02234
#
# Static dielectric constant tensor:
#      x y z
#    x 2.022560 0.092650 0.072140 
#    y 0.092650 2.064550 0.105310 
#    z 0.072140 0.105310 2.149540 
# 
# From -- ./inp_files/68119.got.cif
#   From: 2010.05.17/outbox.cif.g08.bks.cpg/sg2_35_cif.got.tgz:68119.got - 2010.06.03 11:33:40.
