data_PCOD9016778
_publ_section_title
;
Structure prediction by ZEFSAII (Michael W. Deem and Ramdas Pophale) SiO2 
 PCOD9016778
Probable space group: P -1
;
_chemical_formula_sum "Si O2"
_cell_formula_units_Z 14
_cell_length_a 14.341862
_cell_length_b 7.355282
_cell_length_c 11.493411
_cell_angle_alpha 119.570197
_cell_angle_beta 29.967690
_cell_angle_gamma 120.483023
_cell_volume 517.783030
_symmetry_space_group_name_H-M "P -1"
_symmetry_group_IT_number 2
_symmetry_cell_setting 'triclinic'
loop_
_space_group_symop_operation_xyz
x,y,z
-x,-y,-z
loop_
_atom_site_type_symbol
_atom_site_label
_atom_site_fract_x
_atom_site_fract_y
_atom_site_fract_z
Si Si1 0.456309 0.288210 0.903517
Si Si2 0.588145 0.818125 0.410445
Si Si3 0.857998 0.873439 0.443714
Si Si4 0.224176 0.486504 0.766765
Si Si5 0.740836 0.071799 0.859738
Si Si6 0.129429 0.483267 0.238881
Si Si7 0.817540 0.195722 0.393127
O O1 0.431048 0.061858 0.924790
O O2 0.626113 0.291180 0.633011
O O3 0.500000 0.500000 0.000000
O O4 0.261355 0.310221 0.060987
O O5 0.382367 0.698764 0.648984
O O6 0.782353 0.989544 0.288539
O O7 0.500000 0.000000 0.500000
O O8 0.695530 0.615637 0.237009
O O9 0.756343 0.678825 0.413193
O O10 0.078425 0.874419 0.233452
O O11 0.775354 0.901630 0.670048
O O12 0.847078 0.086942 0.451198
O O13 0.000000 0.500000 0.000000
O O14 0.740546 0.292441 0.864299
O O15 0.000000 0.500000 0.500000
O O16 0.982242 0.396283 0.269444
#
# Coordination Sequence:
#
# PCOD9016778 Si02
#       7
#     2   2   2   2   2   2   2
#     4  12  25  40  64  99 137 174 223 270 324 408
#     4  10  25  47  68  98 132 175 233 287 344 396
#     4  10  21  42  69  91 134 175 211 269 337 392
#     4  10  24  46  72  97 133 175 228 289 339 398
#     4  11  23  40  68  98 134 180 217 256 344 411
#     4  12  22  44  61  94 139 176 215 271 332 399
#     4  11  24  43  67  92 137 176 215 285 333 392
#
# _framework density 27.038353000000001
#
# number of rings (size 3 to 8) (size 9 to 14) (size 15 to 20)
#    0.000    1.143    4.286    0.857    4.000    2.857 
#    2.571    0.000    0.000    0.000    0.000    0.000 
#    0.000    0.000    0.000    0.000    0.000    0.000 
#
# Total GULP energy -78038.249139 kJ/mol
# GULP energy per Si atom -5574.160653 kJ/mol
# Density = 2.697681 g / cm^3
# Si number density = 27.038353 Si / 1000 Ang^3
#
#
#
# Elastic Constant Matrix: (Units=GPa)
#
#
# Indices 1 2 3 4 5 6 
#
# 1 69.6442 38.8633 11.4445 -4.8155 -11.5789 5.7342
# 2 38.8633 206.6312 52.4149 -1.6368 1.4789 -0.1851
# 3 11.4445 52.4149 133.3814 -13.3052 -36.6878 -15.3385
# 4 -4.8155 -1.6368 -13.3052 35.6393 4.5360 -15.3618
# 5 -11.5789 1.4789 -36.6878 4.5360 37.7314 16.1854
# 6 5.7342 -0.1851 -15.3385 -15.3618 16.1854 62.1535
#
#
#
# Elastic Compliance Matrix: (Units=1/GPa)
#
#
# Indices 1 2 3 4 5 6 
#
# 1 0.018110 -0.004043 0.002246 0.000424 0.009331 -0.003454
# 2 -0.004043 0.006565 -0.003671 -0.000636 -0.005295 0.000708
# 3 0.002246 -0.003671 0.012567 0.003463 0.012420 0.000505
# 4 0.000424 -0.000636 0.003463 0.034686 -0.005261 0.010757
# 5 0.009331 -0.005295 0.012420 -0.005261 0.047171 -0.011396
# 6 -0.003454 0.000708 0.000505 0.010757 -0.011396 0.022161
#
#
# Mechanical properties :
#
#
# Convention : Reuss Voigt Hill
#
# Bulk Modulus (GPa) = 38.01270 68.34469 53.17870
# Shear Modulus (GPa) = 31.06280 47.56711 39.31495
#
# Velocity S-wave (km/s) = 3.39313 4.19889 3.81733
# Velocity P-wave (km/s) = 5.42591 6.98852 6.25619
#
# Compressibility (1/GPa) = 0.02630700
#
# Stress axis : x y z
#
# Youngs Moduli (GPa) = 55.21685 152.33144 79.57371
#
# Poissons Ratio (x) = 0.61581 -0.17875
# Poissons Ratio (y) = 0.22322 0.29214
# Poissons Ratio (z) = -0.12404 0.55925
#
# Static dielectric constant tensor:
#      x y z
#    x 2.324740 -0.030810 -0.034660 
#    y -0.030810 2.002700 -0.027370 
#    z -0.034660 -0.027370 2.092570 
# 
# From -- ./inp_files/528890.got.cif
#   From: 2010.05.17/outbox.cif.g08.bks.cpg/sg2_265_cif.got.tgz:528890.got - 2010.06.03 11:33:40.
