data_PCOD9016693
_publ_section_title
;
Structure prediction by ZEFSAII (Michael W. Deem and Ramdas Pophale) SiO2 
 PCOD9016693
Probable space group: P -1
;
_chemical_formula_sum "Si O2"
_cell_formula_units_Z 14
_cell_length_a 24.461220
_cell_length_b 8.933695
_cell_length_c 9.374270
_cell_angle_alpha 132.193783
_cell_angle_beta 35.335643
_cell_angle_gamma 147.914408
_cell_volume 628.080923
_symmetry_space_group_name_H-M "P -1"
_symmetry_group_IT_number 2
_symmetry_cell_setting 'triclinic'
loop_
_space_group_symop_operation_xyz
x,y,z
-x,-y,-z
loop_
_atom_site_type_symbol
_atom_site_label
_atom_site_fract_x
_atom_site_fract_y
_atom_site_fract_z
Si Si1 0.430055 0.106944 0.246989
Si Si2 0.442378 0.504205 0.309197
Si Si3 0.809861 0.513085 0.649668
Si Si4 0.234278 0.372917 0.493947
Si Si5 0.644652 0.413244 0.197288
Si Si6 0.064675 0.759157 0.421452
Si Si7 0.696066 0.150887 0.141817
O O1 0.468462 0.315780 0.174712
O O2 0.503308 0.269179 0.341317
O O3 0.277230 0.822031 0.392663
O O4 0.500000 0.000000 0.000000
O O5 0.366826 0.440360 0.284049
O O6 0.336694 0.405742 0.596468
O O7 0.567896 0.837428 0.265469
O O8 0.790687 0.600042 0.598032
O O9 0.956784 0.671634 0.480955
O O10 0.747689 0.551402 0.937059
O O11 0.254683 0.606049 0.694204
O O12 0.118227 0.041133 0.565939
O O13 0.652247 0.208777 0.130019
O O14 0.000000 0.500000 0.500000
O O15 0.187365 0.828839 0.131090
#
# Coordination Sequence:
#
# PCOD9016693 Si02
#       7
#     2   2   2   2   2   2   2
#     4  10  22  38  68 102 136 177 223 284 343 408
#     4  11  23  44  70 106 135 180 231 284 352 401
#     4  11  23  46  65 104 141 180 230 280 341 407
#     4  11  26  46  72 103 139 182 233 288 341 409
#     4  10  21  42  68  99 140 174 224 289 334 409
#     4  12  26  47  71  99 141 188 234 278 345 411
#     4  11  25  46  72 103 139 181 233 286 339 416
#
# _framework density 22.290120000000002
#
# number of rings (size 3 to 8) (size 9 to 14) (size 15 to 20)
#    0.000    1.143    1.429    5.143    6.000    1.714 
#    2.571    0.000    0.000    0.000    0.000    0.000 
#    0.000    0.000    0.000    0.000    0.000    0.000 
#
# Total GULP energy -78208.982309 kJ/mol
# GULP energy per Si atom -5586.355879 kJ/mol
# Density = 2.223939 g / cm^3
# Si number density = 22.290120 Si / 1000 Ang^3
#
#
#
# Elastic Constant Matrix: (Units=GPa)
#
#
# Indices 1 2 3 4 5 6 
#
# 1 167.8367 79.1036 57.8681 3.6699 -0.8299 10.5196
# 2 79.1036 152.9295 34.2048 3.6472 -6.4125 -3.9317
# 3 57.8681 34.2048 74.3198 -0.6252 2.1669 -1.6013
# 4 3.6699 3.6472 -0.6252 23.9555 0.7324 -11.1816
# 5 -0.8299 -6.4125 2.1669 0.7324 38.5698 -10.1674
# 6 10.5196 -3.9317 -1.6013 -11.1816 -10.1674 33.6516
#
#
#
# Elastic Compliance Matrix: (Units=1/GPa)
#
#
# Indices 1 2 3 4 5 6 
#
# 1 0.010580 -0.004157 -0.006437 -0.003838 -0.001571 -0.005849
# 2 -0.004157 0.009060 -0.000925 0.000673 0.002309 0.003235
# 3 -0.006437 -0.000925 0.019016 0.003418 -0.000419 0.003818
# 4 -0.003838 0.000673 0.003418 0.051415 0.004068 0.019754
# 5 -0.001571 0.002309 -0.000419 0.004068 0.029092 0.010883
# 6 -0.005849 0.003235 0.003818 0.019754 0.010883 0.041956
#
#
# Mechanical properties :
#
#
# Convention : Reuss Voigt Hill
#
# Bulk Modulus (GPa) = 64.02810 81.93767 72.98289
# Shear Modulus (GPa) = 26.40423 34.16267 30.28345
#
# Velocity S-wave (km/s) = 3.44549 3.91914 3.68992
# Velocity P-wave (km/s) = 6.67951 7.57093 7.13914
#
# Compressibility (1/GPa) = 0.01561814
#
# Stress axis : x y z
#
# Youngs Moduli (GPa) = 94.51997 110.37305 52.58682
#
# Poissons Ratio (x) = 0.45887 0.33850
# Poissons Ratio (y) = 0.39296 0.04862
# Poissons Ratio (z) = 0.60842 0.10205
#
# Static dielectric constant tensor:
#      x y z
#    x 2.050670 0.201790 0.106620 
#    y 0.201790 2.031170 0.116730 
#    z 0.106620 0.116730 1.912950 
# 
# From -- ./inp_files/352394.got.cif
#   From: 2010.05.17/outbox.cif.g08.bks.cpg/sg2_177_cif.got.tgz:352394.got - 2010.06.03 11:33:40.
