data_PCOD9016721
_publ_section_title
;
Structure prediction by ZEFSAII (Michael W. Deem and Ramdas Pophale) SiO2 
 PCOD9016721
Probable space group: P -1
;
_chemical_formula_sum "Si O2"
_cell_formula_units_Z 14
_cell_length_a 9.920324
_cell_length_b 16.455541
_cell_length_c 19.977741
_cell_angle_alpha 160.483246
_cell_angle_beta 147.525393
_cell_angle_gamma 41.776693
_cell_volume 562.363867
_symmetry_space_group_name_H-M "P -1"
_symmetry_group_IT_number 2
_symmetry_cell_setting 'triclinic'
loop_
_space_group_symop_operation_xyz
x,y,z
-x,-y,-z
loop_
_atom_site_type_symbol
_atom_site_label
_atom_site_fract_x
_atom_site_fract_y
_atom_site_fract_z
Si Si1 0.605944 0.882679 0.357399
Si Si2 0.440615 0.585185 0.262217
Si Si3 0.243231 0.509037 0.562666
Si Si4 0.644686 0.760139 0.836226
Si Si5 0.435488 0.179966 0.298832
Si Si6 0.278039 0.171578 0.773540
Si Si7 0.856495 0.972163 0.663094
O O1 0.647272 0.167086 0.566497
O O2 0.839180 0.908225 0.527659
O O3 0.581418 0.720594 0.154275
O O4 0.343717 0.855630 0.270343
O O5 0.510394 0.463077 0.263171
O O6 0.259545 0.394737 0.988078
O O7 0.359649 0.722674 0.721888
O O8 0.219353 0.249871 0.310402
O O9 0.000000 0.500000 0.500000
O O10 0.716776 0.706796 0.434483
O O11 0.639112 0.461772 0.593663
O O12 0.661307 0.889575 0.871139
O O13 0.881258 0.888039 0.082454
O O14 0.560088 0.985801 0.238394
O O15 0.000000 0.000000 0.500000
#
# Coordination Sequence:
#
# PCOD9016721 Si02
#       7
#     2   2   2   2   2   2   2
#     4   9  21  44  63  97 140 174 231 284 339 396
#     4  10  23  42  62 103 132 179 229 273 350 410
#     4  10  21  42  69 101 137 176 228 292 349 401
#     4   9  20  42  77  94 135 189 226 287 349 398
#     4   9  21  44  66 104 140 175 239 284 343 408
#     4  12  26  40  70 106 137 183 226 283 355 417
#     4   9  20  42  71  92 135 191 218 285 344 396
#
# _framework density 24.894912999999999
#
# number of rings (size 3 to 8) (size 9 to 14) (size 15 to 20)
#    1.714    0.571    1.429    0.000    4.000    3.429 
#    2.571    3.571    0.000    0.000    0.000    1.000 
#    0.000    0.000    0.000    0.000    0.000    0.000 
#
# Total GULP energy -78149.153978 kJ/mol
# GULP energy per Si atom -5582.082427 kJ/mol
# Density = 2.483825 g / cm^3
# Si number density = 24.894913 Si / 1000 Ang^3
#
#
#
# Elastic Constant Matrix: (Units=GPa)
#
#
# Indices 1 2 3 4 5 6 
#
# 1 118.7285 31.4299 16.0840 -17.4994 -17.8747 5.0838
# 2 31.4299 78.8039 12.8064 -13.9252 -10.7929 18.3644
# 3 16.0840 12.8064 79.4991 -30.3091 -8.5086 -2.5469
# 4 -17.4994 -13.9252 -30.3091 38.8158 6.3058 -7.3438
# 5 -17.8747 -10.7929 -8.5086 6.3058 44.4404 -6.7807
# 6 5.0838 18.3644 -2.5469 -7.3438 -6.7807 40.9006
#
#
#
# Elastic Compliance Matrix: (Units=1/GPa)
#
#
# Indices 1 2 3 4 5 6 
#
# 1 0.010184 -0.003408 0.000071 0.003185 0.003035 0.001344
# 2 -0.003408 0.016239 -0.001300 0.001883 0.001076 -0.006432
# 3 0.000071 -0.001300 0.018777 0.014808 0.001927 0.004722
# 4 0.003185 0.001883 0.014808 0.040781 -0.000148 0.006979
# 5 0.003035 0.001076 0.001927 -0.000148 0.024887 0.003359
# 6 0.001344 -0.006432 0.004722 0.006979 0.003359 0.029275
#
#
# Mechanical properties :
#
#
# Convention : Reuss Voigt Hill
#
# Bulk Modulus (GPa) = 27.83435 44.18580 36.01008
# Shear Modulus (GPa) = 30.98062 39.27876 35.12969
#
# Velocity S-wave (km/s) = 3.53151 3.97644 3.76056
# Velocity P-wave (km/s) = 5.27577 6.23460 5.77512
#
# Compressibility (1/GPa) = 0.03592683
#
# Stress axis : x y z
#
# Youngs Moduli (GPa) = 98.19339 61.57960 53.25707
#
# Poissons Ratio (x) = 0.20986 -0.00377
# Poissons Ratio (y) = 0.33463 0.06921
# Poissons Ratio (z) = -0.00695 0.08002
#
# Static dielectric constant tensor:
#      x y z
#    x 2.067850 -0.005320 -0.002920 
#    y -0.005320 1.968980 0.043440 
#    z -0.002920 0.043440 1.998080 
# 
# From -- ./inp_files/596075.got.cif
#   From: 2010.05.17/outbox.cif.g08.bks.cpg/sg2_299_cif.got.tgz:596075.got - 2010.06.03 11:33:40.
