data_PCOD9016433
_publ_section_title
;
Structure prediction by ZEFSAII (Michael W. Deem and Ramdas Pophale) SiO2 
 PCOD9016433
Probable space group: P -1
;
_chemical_formula_sum "Si O2"
_cell_formula_units_Z 15
_cell_length_a 7.849341
_cell_length_b 11.291116
_cell_length_c 11.812986
_cell_angle_alpha 42.752314
_cell_angle_beta 81.298832
_cell_angle_gamma 60.534046
_cell_volume 578.429253
_symmetry_space_group_name_H-M "P -1"
_symmetry_group_IT_number 2
_symmetry_cell_setting 'triclinic'
loop_
_space_group_symop_operation_xyz
x,y,z
-x,-y,-z
loop_
_atom_site_type_symbol
_atom_site_label
_atom_site_fract_x
_atom_site_fract_y
_atom_site_fract_z
Si Si1 0.290502 0.985140 0.402052
Si Si2 0.869675 0.547881 0.305738
Si Si3 0.300937 0.485211 0.328571
Si Si4 0.379223 0.721147 0.980718
Si Si5 0.933726 0.920619 0.409307
Si Si6 0.500000 0.000000 0.000000
Si Si7 0.235976 0.881599 0.106170
Si Si8 0.217658 0.370729 0.008408
O O1 0.501595 0.752257 0.531922
O O2 0.095726 0.978336 0.386699
O O3 0.215991 0.062494 0.485312
O O4 0.319509 0.141363 0.215704
O O5 0.661286 0.765313 0.213726
O O6 0.079358 0.524450 0.340581
O O7 0.924371 0.315860 0.487803
O O8 0.840592 0.566406 0.159888
O O9 0.315491 0.645845 0.296747
O O10 0.296624 0.591428 0.134017
O O11 0.615017 0.573094 0.019712
O O12 0.219717 0.905240 0.787300
O O13 0.389565 0.842327 0.009166
O O14 0.290371 0.021859 0.068578
O O15 0.000000 0.000000 0.000000
O O16 0.000000 0.500000 0.000000
#
# Coordination Sequence:
#
# PCOD9016433 Si02
#       8
#     2   2   2   2   2   1   2   2
#     4  11  24  40  64  94 136 177 220 278 327 402
#     4  12  23  42  68  98 130 180 221 278 336 396
#     4  10  23  41  66  96 129 170 221 275 331 397
#     4  10  23  42  63  96 134 165 224 272 334 404
#     4  11  24  42  63  96 133 177 223 271 337 397
#     4  12  20  42  72  92 132 178 216 284 332 394
#     4  10  21  42  67  98 126 175 223 276 337 396
#     4  12  24  40  64  99 134 175 223 269 335 409
#
# _framework density 25.932300999999999
#
# number of rings (size 3 to 8) (size 9 to 14) (size 15 to 20)
#    0.800    0.267    4.000    3.200    3.733    1.600 
#    0.000    2.000    0.000    4.000    0.000    0.000 
#    0.000    0.000    0.000    0.000    0.000    0.000 
#
# Total GULP energy -83647.419932 kJ/mol
# GULP energy per Si atom -5576.494662 kJ/mol
# Density = 2.587328 g / cm^3
# Si number density = 25.932301 Si / 1000 Ang^3
#
#
#
# Elastic Constant Matrix: (Units=GPa)
#
#
# Indices 1 2 3 4 5 6 
#
# 1 96.1053 11.8834 16.5304 0.6600 13.0079 -27.5335
# 2 11.8834 52.6203 25.9191 4.2479 12.5329 -16.9878
# 3 16.5304 25.9191 140.5241 -19.9762 22.7688 -1.8792
# 4 0.6600 4.2479 -19.9762 41.8286 -12.7906 7.0564
# 5 13.0079 12.5329 22.7688 -12.7906 47.1112 -11.2897
# 6 -27.5335 -16.9878 -1.8792 7.0564 -11.2897 27.2219
#
#
#
# Elastic Compliance Matrix: (Units=1/GPa)
#
#
# Indices 1 2 3 4 5 6 
#
# 1 0.016565 0.005549 -0.003423 -0.006354 -0.001041 0.021197
# 2 0.005549 0.031841 -0.007382 -0.012400 -0.003383 0.026785
# 3 -0.003423 -0.007382 0.010100 0.006536 -0.002632 -0.010158
# 4 -0.006354 -0.012400 0.006536 0.033654 0.006278 -0.019833
# 5 -0.001041 -0.003383 -0.002632 0.006278 0.026869 0.006170
# 6 0.021197 0.026785 -0.010158 -0.019833 0.006170 0.081889
#
#
# Mechanical properties :
#
#
# Convention : Reuss Voigt Hill
#
# Bulk Modulus (GPa) = 20.83587 44.21284 32.52435
# Shear Modulus (GPa) = 21.98501 38.89344 30.43923
#
# Velocity S-wave (km/s) = 2.91483 3.87694 3.42979
# Velocity P-wave (km/s) = 4.40233 6.09321 5.31543
#
# Compressibility (1/GPa) = 0.04799415
#
# Stress axis : x y z
#
# Youngs Moduli (GPa) = 60.36757 31.40625 99.00727
#
# Poissons Ratio (x) = -0.17428 0.33893
# Poissons Ratio (y) = -0.33500 0.73088
# Poissons Ratio (z) = 0.20665 0.23184
#
# Static dielectric constant tensor:
#      x y z
#    x 1.927220 -0.066740 0.029950 
#    y -0.066740 2.060860 0.067660 
#    z 0.029950 0.067660 1.992940 
# 
# From -- ./inp_files/561122.got.cif
#   From: 2010.05.17/outbox.cif.g08.bks.cpg/sg2_281_cif.got.tgz:561122.got - 2010.06.03 11:33:40.
