data_PCOD9016516
_publ_section_title
;
Structure prediction by ZEFSAII (Michael W. Deem and Ramdas Pophale) SiO2 
 PCOD9016516
Probable space group: P -1
;
_chemical_formula_sum "Si O2"
_cell_formula_units_Z 16
_cell_length_a 10.170564
_cell_length_b 8.054624
_cell_length_c 12.884070
_cell_angle_alpha 47.909773
_cell_angle_beta 92.083180
_cell_angle_gamma 114.664689
_cell_volume 663.824869
_symmetry_space_group_name_H-M "P -1"
_symmetry_group_IT_number 2
_symmetry_cell_setting 'triclinic'
loop_
_space_group_symop_operation_xyz
x,y,z
-x,-y,-z
loop_
_atom_site_type_symbol
_atom_site_label
_atom_site_fract_x
_atom_site_fract_y
_atom_site_fract_z
Si Si1 0.907723 0.684748 0.116362
Si Si2 0.659343 0.589782 0.287232
Si Si3 0.364740 0.328359 0.982148
Si Si4 0.337409 0.972264 0.789046
Si Si5 0.622972 0.164455 0.840110
Si Si6 0.612743 0.926344 0.478325
Si Si7 0.839653 0.791336 0.637648
Si Si8 0.897262 0.499865 0.904451
O O1 0.783932 0.639245 0.040164
O O2 0.797250 0.553164 0.268965
O O3 0.025658 0.588731 0.144609
O O4 0.000000 0.000000 0.000000
O O5 0.584892 0.593817 0.170899
O O6 0.730980 0.859534 0.238504
O O7 0.500000 0.000000 0.500000
O O8 0.516787 0.367104 0.439931
O O9 0.500000 0.500000 0.000000
O O10 0.312543 0.022522 0.111146
O O11 0.518156 0.139916 0.749586
O O12 0.306644 0.914840 0.690825
O O13 0.270039 0.728079 0.967230
O O14 0.742280 0.477342 0.732796
O O15 0.500000 0.000000 0.000000
O O16 0.729021 0.902675 0.567607
O O17 0.893053 0.753749 0.767858
O O18 0.000000 0.000000 0.500000
O O19 0.000000 0.500000 0.000000
#
# Coordination Sequence:
#
# PCOD9016516 Si02
#       8
#     2   2   2   2   2   2   2   2
#     4  10  21  42  68 109 150 194 252 322 397 467
#     4  10  22  43  72  99 149 200 254 319 390 475
#     4  10  23  38  71 115 151 192 257 332 387 463
#     4  12  24  46  77 107 147 203 264 316 398 480
#     4  12  21  45  75 110 150 201 258 322 383 481
#     4  12  29  49  72 111 152 205 259 333 395 475
#     4  12  27  49  77 111 164 206 259 326 407 473
#     4  12  26  43  75 112 149 200 253 321 396 476
#
# _framework density 24.102744000000001
#
# number of rings (size 3 to 8) (size 9 to 14) (size 15 to 20)
#    0.750    0.000    5.000    1.875    7.000    0.000 
#    0.000    0.625    0.000    1.500    0.000    0.000 
#    0.000    0.000    0.000    0.000    0.000    0.000 
#
# Total GULP energy -89182.166308 kJ/mol
# GULP energy per Si atom -5573.885394 kJ/mol
# Density = 2.404789 g / cm^3
# Si number density = 24.102744 Si / 1000 Ang^3
#
#
#
# Elastic Constant Matrix: (Units=GPa)
#
#
# Indices 1 2 3 4 5 6 
#
# 1 147.0868 47.6789 56.8589 11.1337 26.3355 -2.2118
# 2 47.6789 85.5723 27.9844 2.6383 10.2567 5.8846
# 3 56.8589 27.9844 140.2542 7.6560 6.1277 1.8859
# 4 11.1337 2.6383 7.6560 41.5394 8.9729 0.3200
# 5 26.3355 10.2567 6.1277 8.9729 44.0295 -2.3341
# 6 -2.2118 5.8846 1.8859 0.3200 -2.3341 43.0370
#
#
#
# Elastic Compliance Matrix: (Units=1/GPa)
#
#
# Indices 1 2 3 4 5 6 
#
# 1 0.010238 -0.004201 -0.003078 -0.000952 -0.004469 0.001000
# 2 -0.004201 0.014666 -0.001185 0.000644 -0.000988 -0.002228
# 3 -0.003078 -0.001185 0.008621 -0.000921 0.001089 -0.000308
# 4 -0.000952 0.000644 -0.000921 0.025471 -0.004672 -0.000539
# 5 -0.004469 -0.000988 0.001089 -0.004672 0.026486 0.001329
# 6 0.001000 -0.002228 -0.000308 -0.000539 0.001329 0.023681
#
#
# Mechanical properties :
#
#
# Convention : Reuss Voigt Hill
#
# Bulk Modulus (GPa) = 60.25641 70.88419 65.57030
# Shear Modulus (GPa) = 37.98651 41.74727 39.86689
#
# Velocity S-wave (km/s) = 3.97422 4.16631 4.07140
# Velocity P-wave (km/s) = 6.79068 7.25377 7.02604
#
# Compressibility (1/GPa) = 0.01659574
#
# Stress axis : x y z
#
# Youngs Moduli (GPa) = 97.67576 68.18376 115.99313
#
# Poissons Ratio (x) = 0.28646 0.35707
# Poissons Ratio (y) = 0.41037 0.13746
# Poissons Ratio (z) = 0.30068 0.08080
#
# Static dielectric constant tensor:
#      x y z
#    x 1.997280 0.058710 -0.010480 
#    y 0.058710 2.185310 -0.049110 
#    z -0.010480 -0.049110 2.020440 
# 
# From -- ./inp_files/514918.got.cif
#   From: 2010.05.17/outbox.cif.g08.bks.cpg/sg2_258_cif.got.tgz:514918.got - 2010.06.03 11:33:40.
