data_PCOD9016465
_publ_section_title
;
Structure prediction by ZEFSAII (Michael W. Deem and Ramdas Pophale) SiO2 
 PCOD9016465
Probable space group: P -1
;
_chemical_formula_sum "Si O2"
_cell_formula_units_Z 15
_cell_length_a 9.550200
_cell_length_b 20.079148
_cell_length_c 16.133641
_cell_angle_alpha 26.193248
_cell_angle_beta 34.389704
_cell_angle_gamma 34.861586
_cell_volume 730.462170
_symmetry_space_group_name_H-M "P -1"
_symmetry_group_IT_number 2
_symmetry_cell_setting 'triclinic'
loop_
_space_group_symop_operation_xyz
x,y,z
-x,-y,-z
loop_
_atom_site_type_symbol
_atom_site_label
_atom_site_fract_x
_atom_site_fract_y
_atom_site_fract_z
Si Si1 0.000000 0.000000 0.500000
Si Si2 0.325260 0.466657 0.048772
Si Si3 0.053375 0.166154 0.778307
Si Si4 0.935017 0.353801 0.460558
Si Si5 0.800155 0.731522 0.958928
Si Si6 0.409519 0.294449 0.734302
Si Si7 0.545219 0.421393 0.812646
Si Si8 0.476022 0.791226 0.401399
O O1 0.819001 0.113794 0.535479
O O2 0.171415 0.121545 0.269015
O O3 0.167975 0.353278 0.286337
O O4 0.500000 0.500000 0.000000
O O5 0.488114 0.405747 0.954609
O O6 0.095708 0.627352 0.955366
O O7 0.031051 0.225384 0.628675
O O8 0.828043 0.302508 0.783803
O O9 0.330533 0.160490 0.685210
O O10 0.000000 0.000000 0.000000
O O11 0.684746 0.328994 0.566884
O O12 0.819775 0.534118 0.352514
O O13 0.644429 0.773703 0.074992
O O14 0.661802 0.629123 0.086827
O O15 0.434447 0.190509 0.756412
O O16 0.521719 0.603024 0.602198
#
# Coordination Sequence:
#
# PCOD9016465 Si02
#       8
#     1   2   2   2   2   2   2   2
#     4  12  28  44  66 104 148 172 226 284 348 404
#     4  11  24  39  68 104 137 177 234 283 334 400
#     4  12  26  46  68 103 142 173 222 291 349 402
#     4  10  21  42  68 100 137 171 229 287 329 408
#     4  11  24  45  69 101 140 178 228 286 339 409
#     4  10  21  42  71 101 126 181 236 279 325 407
#     4  12  23  46  75  98 130 192 234 269 341 418
#     4  12  25  43  73 102 134 187 230 277 338 412
#
# _framework density 20.534943999999999
#
# number of rings (size 3 to 8) (size 9 to 14) (size 15 to 20)
#    0.000    0.800    4.000    4.000    5.600    0.533 
#    0.000    0.667    0.000    0.000    0.000    0.000 
#    0.000    0.000    0.000    0.000    0.000    0.000 
#
# Total GULP energy -83608.686447 kJ/mol
# GULP energy per Si atom -5573.912430 kJ/mol
# Density = 2.048821 g / cm^3
# Si number density = 20.534944 Si / 1000 Ang^3
#
#
#
# Elastic Constant Matrix: (Units=GPa)
#
#
# Indices 1 2 3 4 5 6 
#
# 1 82.1798 6.9483 32.8332 -1.5770 15.1175 -0.8337
# 2 6.9483 53.6570 -13.8813 9.8260 -1.3075 14.2364
# 3 32.8332 -13.8813 55.3755 21.9114 -42.4147 32.0107
# 4 -1.5770 9.8260 21.9114 23.7340 17.6979 -6.5335
# 5 15.1175 -1.3075 -42.4147 17.6979 2.9055 23.4739
# 6 -0.8337 14.2364 32.0107 -6.5335 23.4739 16.9873
#
#
#
# Elastic Compliance Matrix: (Units=1/GPa)
#
#
# Indices 1 2 3 4 5 6 
#
# 1 0.011450 0.000584 -0.000002 -0.003189 0.003013 -0.005314
# 2 0.000584 0.018249 -0.001525 -0.000168 -0.008321 -0.000958
# 3 -0.000002 -0.001525 0.004975 0.004719 -0.009245 0.006493
# 4 -0.003189 -0.000168 0.004719 0.027502 0.009406 -0.011328
# 5 0.003013 -0.008321 -0.009245 0.009406 0.009348 0.015243
# 6 -0.005314 -0.000958 0.006493 -0.011328 0.015243 0.021754
#
#
# Mechanical properties :
#
#
# Convention : Reuss Voigt Hill
#
# Bulk Modulus (GPa) = 30.49725 27.00141 28.74933
# Shear Modulus (GPa) = 47.12768 19.74617 33.43693
#
# Velocity S-wave (km/s) = 4.79581 3.10431 4.03959
# Velocity P-wave (km/s) = 6.74908 5.10162 5.98233
#
# Compressibility (1/GPa) = 0.03278984
#
# Stress axis : x y z
#
# Youngs Moduli (GPa) = 87.33290 54.79748 200.98735
#
# Poissons Ratio (x) = -0.03200 0.00035
# Poissons Ratio (y) = -0.05100 0.30645
# Poissons Ratio (z) = 0.00015 0.08355
#
# Static dielectric constant tensor:
#      x y z
#    x 1.726490 -0.003630 0.023910 
#    y -0.003630 1.771990 -0.013680 
#    z 0.023910 -0.013680 1.740890 
# 
# From -- ./inp_files/237478.got.cif
#   From: 2010.05.17/outbox.cif.g08.bks.cpg/sg2_119_cif.got.tgz:237478.got - 2010.06.03 11:33:40.
