data_PCOD9016863
_publ_section_title
;
Structure prediction by ZEFSAII (Michael W. Deem and Ramdas Pophale) SiO2 
 PCOD9016863
Probable space group: P -1
;
_chemical_formula_sum "Si O2"
_cell_formula_units_Z 12
_cell_length_a 5.564186
_cell_length_b 22.115798
_cell_length_c 5.160719
_cell_angle_alpha 115.650513
_cell_angle_beta 83.019218
_cell_angle_gamma 126.235508
_cell_volume 453.805228
_symmetry_space_group_name_H-M "P -1"
_symmetry_group_IT_number 2
_symmetry_cell_setting 'triclinic'
loop_
_space_group_symop_operation_xyz
x,y,z
-x,-y,-z
loop_
_atom_site_type_symbol
_atom_site_label
_atom_site_fract_x
_atom_site_fract_y
_atom_site_fract_z
Si Si1 0.622750 0.363705 0.239163
Si Si2 0.883968 0.671351 0.361160
Si Si3 0.756490 0.517196 0.302671
Si Si4 0.783062 0.097868 0.667291
Si Si5 0.757868 0.243083 0.020852
Si Si6 0.870598 0.053315 0.073451
O O1 0.374646 0.340575 0.444434
O O2 0.671930 0.425173 0.112117
O O3 0.936473 0.423642 0.465392
O O4 0.584580 0.280088 0.013372
O O5 0.799993 0.578061 0.181710
O O6 0.960219 0.709928 0.136471
O O7 0.163353 0.730643 0.637819
O O8 0.500000 0.500000 0.500000
O O9 0.652595 0.149386 0.833234
O O10 0.959175 0.116549 0.413048
O O11 0.500000 0.000000 0.500000
O O12 0.982274 0.103751 0.886737
O O13 0.500000 0.000000 0.000000
O O14 0.000000 0.000000 0.000000
#
# Coordination Sequence:
#
# PCOD9016863 Si02
#       6
#     2   2   2   2   2   2
#     4   9  19  38  63  92 129 172 214 266 328 380
#     4  10  22  39  61  95 129 170 216 268 327 392
#     4   8  16  36  64  92 126 169 217 263 315 393
#     4  10  22  43  66  96 129 172 226 280 341 407
#     4  11  23  42  62  91 134 167 220 272 330 399
#     4  10  21  42  69  97 129 167 222 280 341 409
#
# _framework density 26.443062999999999
#
# number of rings (size 3 to 8) (size 9 to 14) (size 15 to 20)
#    0.000    2.333    0.000    1.500    0.000    3.333 
#   18.000   28.333    0.000    0.000    0.000    0.000 
#    0.000    0.000    0.000    0.000    0.000    0.000 
#
# Total GULP energy -67046.821575 kJ/mol
# GULP energy per Si atom -5587.235131 kJ/mol
# Density = 2.638288 g / cm^3
# Si number density = 26.443063 Si / 1000 Ang^3
#
#
#
# Elastic Constant Matrix: (Units=GPa)
#
#
# Indices 1 2 3 4 5 6 
#
# 1 96.7828 31.4133 19.2164 13.5681 -33.2093 -25.6391
# 2 31.4133 124.7441 47.2543 31.3784 -1.1204 -27.4451
# 3 19.2164 47.2543 146.4559 -8.5978 -11.2066 -28.7622
# 4 13.5681 31.3784 -8.5978 62.6983 -21.3083 -13.6537
# 5 -33.2093 -1.1204 -11.2066 -21.3083 34.6519 8.9305
# 6 -25.6391 -27.4451 -28.7622 -13.6537 8.9305 43.8851
#
#
#
# Elastic Compliance Matrix: (Units=1/GPa)
#
#
# Indices 1 2 3 4 5 6 
#
# 1 0.021580 -0.007293 0.003722 0.010038 0.025660 0.008387
# 2 -0.007293 0.015057 -0.005621 -0.011916 -0.015906 0.001001
# 3 0.003722 -0.005621 0.010634 0.008319 0.010366 0.006107
# 4 0.010038 -0.011916 0.008319 0.032832 0.030062 0.007962
# 5 0.025660 -0.015906 0.010366 0.030062 0.073149 0.006305
# 6 0.008387 0.001001 0.006107 0.007962 0.006305 0.033509
#
#
# Mechanical properties :
#
#
# Convention : Reuss Voigt Hill
#
# Bulk Modulus (GPa) = 34.61942 62.63899 48.62921
# Shear Modulus (GPa) = 23.27989 46.25364 34.76677
#
# Velocity S-wave (km/s) = 2.97034 4.18686 3.62992
# Velocity P-wave (km/s) = 4.98842 6.86387 5.99988
#
# Compressibility (1/GPa) = 0.02888552
#
# Stress axis : x y z
#
# Youngs Moduli (GPa) = 46.33859 66.41364 94.03448
#
# Poissons Ratio (x) = 0.48437 -0.34995
# Poissons Ratio (y) = 0.33796 0.52860
# Poissons Ratio (z) = -0.17245 0.37334
#
# Static dielectric constant tensor:
#      x y z
#    x 2.047110 -0.143880 0.055300 
#    y -0.143880 2.011960 -0.035240 
#    z 0.055300 -0.035240 2.225440 
# 
# From -- ./inp_files/5042.got.cif
#   From: 2010.05.17/outbox.cif.g08.bks.cpg/sg2_3_cif.got.tgz:5042.got - 2010.06.03 11:33:40.
