data_PCOD9016973
_publ_section_title
;
Structure prediction by ZEFSAII (Michael W. Deem and Ramdas Pophale) SiO2 
 PCOD9016973
Probable space group: P -1
;
_chemical_formula_sum "Si O2"
_cell_formula_units_Z 14
_cell_length_a 11.670218
_cell_length_b 7.905927
_cell_length_c 21.593344
_cell_angle_alpha 45.839610
_cell_angle_beta 151.792543
_cell_angle_gamma 116.728863
_cell_volume 591.106587
_symmetry_space_group_name_H-M "P -1"
_symmetry_group_IT_number 2
_symmetry_cell_setting 'triclinic'
loop_
_space_group_symop_operation_xyz
x,y,z
-x,-y,-z
loop_
_atom_site_type_symbol
_atom_site_label
_atom_site_fract_x
_atom_site_fract_y
_atom_site_fract_z
Si Si1 0.882481 0.577176 0.573135
Si Si2 0.765250 0.542258 0.926080
Si Si3 0.620839 0.852040 0.257579
Si Si4 0.696039 0.772529 0.572381
Si Si5 0.189848 0.684145 0.594598
Si Si6 0.069315 0.211826 0.946650
Si Si7 0.095349 0.991851 0.279224
O O1 0.642302 0.743966 0.365772
O O2 0.801207 0.693578 0.572835
O O3 0.943997 0.270383 0.672614
O O4 0.126721 0.627608 0.648867
O O5 0.456943 0.718764 0.708561
O O6 0.798107 0.687138 0.964040
O O7 0.000000 0.500000 0.000000
O O8 0.836145 0.247151 0.059808
O O9 0.711173 0.595151 0.323160
O O10 0.887032 0.900899 0.369701
O O11 0.307461 0.078430 0.041721
O O12 0.365441 0.925454 0.383121
O O13 0.801089 0.477143 0.728527
O O14 0.825272 0.920628 0.639328
O O15 0.000000 0.000000 0.000000
#
# Coordination Sequence:
#
# PCOD9016973 Si02
#       7
#     2   2   2   2   2   2   2
#     4  10  21  42  70  89 132 175 216 269 332 388
#     4  11  25  40  65  97 127 171 223 270 332 393
#     4   9  21  43  64  94 129 173 218 262 330 395
#     4  10  23  41  65  98 133 171 222 267 334 386
#     4   9  22  44  61  99 127 175 220 265 338 386
#     4  11  23  40  65  96 129 172 219 272 322 396
#     4  10  23  42  62  99 133 169 220 275 324 390
#
# _framework density 23.684393
#
# number of rings (size 3 to 8) (size 9 to 14) (size 15 to 20)
#    0.857    1.143    0.000    2.143    6.000    3.429 
#    2.571    1.429    0.000    0.000    0.000    0.000 
#    0.000    0.000    0.000    0.000    0.000    0.000 
#
# Total GULP energy -78201.895714 kJ/mol
# GULP energy per Si atom -5585.849694 kJ/mol
# Density = 2.363049 g / cm^3
# Si number density = 23.684393 Si / 1000 Ang^3
#
#
#
# Elastic Constant Matrix: (Units=GPa)
#
#
# Indices 1 2 3 4 5 6 
#
# 1 113.0038 25.6553 -2.9994 -0.7790 17.6827 -14.8228
# 2 25.6553 71.8364 26.4273 -13.0872 6.8402 1.9158
# 3 -2.9994 26.4273 89.8222 -9.3414 17.0866 8.8755
# 4 -0.7790 -13.0872 -9.3414 38.3143 2.5680 6.2188
# 5 17.6827 6.8402 17.0866 2.5680 29.5992 4.6260
# 6 -14.8228 1.9158 8.8755 6.2188 4.6260 42.7567
#
#
#
# Elastic Compliance Matrix: (Units=1/GPa)
#
#
# Indices 1 2 3 4 5 6 
#
# 1 0.011943 -0.004810 0.002826 -0.000933 -0.008324 0.004806
# 2 -0.004810 0.018379 -0.005071 0.005228 0.001468 -0.002358
# 3 0.002826 -0.005071 0.014875 0.002775 -0.009141 -0.001296
# 4 -0.000933 0.005228 0.002775 0.029627 -0.004040 -0.005006
# 5 -0.008324 0.001468 -0.009141 -0.004040 0.044878 -0.005322
# 6 0.004806 -0.002358 -0.001296 -0.005006 -0.005322 0.026733
#
#
# Mechanical properties :
#
#
# Convention : Reuss Voigt Hill
#
# Bulk Modulus (GPa) = 32.16852 41.42541 36.79697
# Shear Modulus (GPa) = 29.25566 37.17266 33.21416
#
# Velocity S-wave (km/s) = 3.51840 3.96599 3.74888
# Velocity P-wave (km/s) = 5.48791 6.20489 5.85738
#
# Compressibility (1/GPa) = 0.03108629
#
# Stress axis : x y z
#
# Youngs Moduli (GPa) = 83.73195 54.40866 67.22726
#
# Poissons Ratio (x) = 0.26172 -0.18996
# Poissons Ratio (y) = 0.40278 0.34090
# Poissons Ratio (z) = -0.23660 0.27590
#
# Static dielectric constant tensor:
#      x y z
#    x 1.886150 0.018730 -0.003650 
#    y 0.018730 1.919450 -0.013870 
#    z -0.003650 -0.013870 1.920760 
# 
# From -- ./inp_files/609763.got.cif
#   From: 2010.05.17/outbox.cif.g08.bks.cpg/sg2_305_cif.got.tgz:609763.got - 2010.06.03 11:33:40.
