data_PCOD9016179
_publ_section_title
;
Structure prediction by ZEFSAII (Michael W. Deem and Ramdas Pophale) SiO2 
 PCOD9016179
Probable space group: P -1
;
_chemical_formula_sum "Si O2"
_cell_formula_units_Z 16
_cell_length_a 7.763043
_cell_length_b 9.547742
_cell_length_c 10.815611
_cell_angle_alpha 100.430484
_cell_angle_beta 71.456903
_cell_angle_gamma 103.184216
_cell_volume 734.866926
_symmetry_space_group_name_H-M "P -1"
_symmetry_group_IT_number 2
_symmetry_cell_setting 'triclinic'
loop_
_space_group_symop_operation_xyz
x,y,z
-x,-y,-z
loop_
_atom_site_type_symbol
_atom_site_label
_atom_site_fract_x
_atom_site_fract_y
_atom_site_fract_z
Si Si1 0.249677 0.321187 0.064870
Si Si2 0.603992 0.070584 0.366392
Si Si3 0.587352 0.513500 0.168508
Si Si4 0.527129 0.905234 0.097450
Si Si5 0.295884 0.697758 0.279570
Si Si6 0.934288 0.132573 0.466468
Si Si7 0.962495 0.610866 0.666417
Si Si8 0.368213 0.600619 0.602507
O O1 0.422443 0.398178 0.124808
O O2 0.066788 0.310872 0.184862
O O3 0.265936 0.424951 0.959151
O O4 0.300950 0.172039 0.985022
O O5 0.817723 0.082387 0.360939
O O6 0.553136 0.229609 0.393832
O O7 0.500000 0.000000 0.500000
O O8 0.559951 0.991538 0.233211
O O9 0.489588 0.646534 0.259772
O O10 0.666452 0.444692 0.255376
O O11 0.350707 0.776783 0.148416
O O12 0.500000 0.000000 0.000000
O O13 0.208597 0.807566 0.400485
O O14 0.154917 0.547032 0.303180
O O15 0.080898 0.275058 0.410018
O O16 0.000000 0.000000 0.500000
O O17 0.167328 0.586039 0.584365
O O18 0.500000 0.500000 0.500000
#
# Coordination Sequence:
#
# PCOD9016179 Si02
#       8
#     2   2   2   2   2   2   2   2
#     4   9  20  37  64  89 129 171 216 269 328 401
#     4  11  24  43  66  97 134 171 228 280 328 411
#     4   9  18  38  64  90 125 170 218 269 328 395
#     4  11  23  41  73 100 137 181 225 276 346 409
#     4  10  21  42  66  98 131 174 228 279 331 410
#     4  11  24  41  65  94 136 179 223 281 345 393
#     4  10  23  41  64 101 132 171 227 283 333 403
#     4  11  24  40  67  97 130 173 224 280 339 395
#
# _framework density 21.772649000000001
#
# number of rings (size 3 to 8) (size 9 to 14) (size 15 to 20)
#    0.000    1.750    1.250    3.375    3.500    4.500 
#    0.000    3.750    0.000    0.000    0.000    0.000 
#    0.000    0.000    0.000    0.000    0.000    0.000 
#
# Total GULP energy -89207.789914 kJ/mol
# GULP energy per Si atom -5575.486870 kJ/mol
# Density = 2.172309 g / cm^3
# Si number density = 21.772649 Si / 1000 Ang^3
#
#
#
# Elastic Constant Matrix: (Units=GPa)
#
#
# Indices 1 2 3 4 5 6 
#
# 1 38.0193 45.9406 36.8505 -6.8287 1.8342 -10.4785
# 2 45.9406 170.9547 77.7171 -13.6910 5.1046 -18.2721
# 3 36.8505 77.7171 143.6481 -4.1939 -1.3729 -13.2478
# 4 -6.8287 -13.6910 -4.1939 54.7168 -7.8357 5.2161
# 5 1.8342 5.1046 -1.3729 -7.8357 37.3720 -5.8073
# 6 -10.4785 -18.2721 -13.2478 5.2161 -5.8073 26.8002
#
#
#
# Elastic Compliance Matrix: (Units=1/GPa)
#
#
# Indices 1 2 3 4 5 6 
#
# 1 0.044989 -0.008150 -0.006266 0.002348 0.000502 0.008587
# 2 -0.008150 0.009650 -0.002959 0.000933 -0.000579 0.001623
# 3 -0.006266 -0.002959 0.010250 -0.000672 0.001098 0.000968
# 4 0.002348 0.000933 -0.000672 0.019427 0.003527 -0.001795
# 5 0.000502 -0.000579 0.001098 0.003527 0.028499 0.005833
# 6 0.008587 0.001623 0.000968 -0.001795 0.005833 0.043869
#
#
# Mechanical properties :
#
#
# Convention : Reuss Voigt Hill
#
# Bulk Modulus (GPa) = 33.18047 74.84873 54.01460
# Shear Modulus (GPa) = 24.81628 36.58539 30.70084
#
# Velocity S-wave (km/s) = 3.37974 4.10364 3.75916
# Velocity P-wave (km/s) = 5.52294 7.54355 6.61090
#
# Compressibility (1/GPa) = 0.03013822
#
# Stress axis : x y z
#
# Youngs Moduli (GPa) = 22.22783 103.62370 97.56148
#
# Poissons Ratio (x) = 0.84455 0.61135
# Poissons Ratio (y) = 0.18116 0.28867
# Poissons Ratio (z) = 0.13929 0.30661
#
# Static dielectric constant tensor:
#      x y z
#    x 1.846130 0.076330 0.006730 
#    y 0.076330 1.869690 0.012580 
#    z 0.006730 0.012580 1.821120 
# 
# From -- ./inp_files/382226.got.cif
#   From: 2010.05.17/outbox.cif.g08.bks.cpg/sg2_192_cif.got.tgz:382226.got - 2010.06.03 11:33:40.
