data_PCOD9016756
_publ_section_title
;
Structure prediction by ZEFSAII (Michael W. Deem and Ramdas Pophale) SiO2 
 PCOD9016756
Probable space group: P -1
;
_chemical_formula_sum "Si O2"
_cell_formula_units_Z 16
_cell_length_a 11.633198
_cell_length_b 15.314804
_cell_length_c 9.076836
_cell_angle_alpha 113.420116
_cell_angle_beta 125.496913
_cell_angle_gamma 110.424506
_cell_volume 761.921325
_symmetry_space_group_name_H-M "P -1"
_symmetry_group_IT_number 2
_symmetry_cell_setting 'triclinic'
loop_
_space_group_symop_operation_xyz
x,y,z
-x,-y,-z
loop_
_atom_site_type_symbol
_atom_site_label
_atom_site_fract_x
_atom_site_fract_y
_atom_site_fract_z
Si Si1 0.342679 0.187283 0.966236
Si Si2 0.059761 0.877556 0.448109
Si Si3 0.817521 0.475279 0.413899
Si Si4 0.776459 0.645891 0.315383
Si Si5 0.948659 0.862778 0.831647
Si Si6 0.486437 0.387483 0.478326
Si Si7 0.748800 0.102533 0.700666
Si Si8 0.944675 0.562745 0.908759
O O1 0.143437 0.154861 0.753472
O O2 0.245545 0.030706 0.784930
O O3 0.557623 0.307277 0.099680
O O4 0.419664 0.269889 0.234986
O O5 0.187467 0.921737 0.418585
O O6 0.926008 0.723153 0.328749
O O7 0.832218 0.584957 0.419202
O O8 0.869871 0.507082 0.647450
O O9 0.000000 0.500000 0.500000
O O10 0.891513 0.799342 0.580959
O O11 0.500000 0.500000 0.000000
O O12 0.708538 0.713563 0.620140
O O13 0.127611 0.890047 0.069449
O O14 0.000000 0.000000 0.000000
O O15 0.500000 0.500000 0.500000
O O16 0.732303 0.495604 0.788523
O O17 0.500000 0.000000 0.500000
O O18 0.858692 0.260371 0.846586
O O19 0.000000 0.500000 0.000000
#
# Coordination Sequence:
#
# PCOD9016756 Si02
#       8
#     2   2   2   2   2   2   2   2
#     4  10  21  42  69 105 137 186 232 294 359 425
#     4  11  24  43  72 103 144 182 240 292 360 441
#     4  11  25  45  70 102 150 184 236 305 364 437
#     4  12  26  45  74 113 144 189 250 301 368 442
#     4  12  26  45  72 109 148 188 242 306 370 438
#     4  11  20  43  74  99 136 184 238 305 348 425
#     4  12  28  49  72 103 146 195 246 306 369 441
#     4  11  26  46  70 100 137 190 248 292 363 431
#
# _framework density 20.999542999999999
#
# number of rings (size 3 to 8) (size 9 to 14) (size 15 to 20)
#    0.000    0.750    5.000    1.500    8.750    0.000 
#    0.000    1.250    0.000    0.000    0.000    0.000 
#    0.000    0.000    0.000    0.000    0.000    0.000 
#
# Total GULP energy -89190.222828 kJ/mol
# GULP energy per Si atom -5574.388927 kJ/mol
# Density = 2.095175 g / cm^3
# Si number density = 20.999543 Si / 1000 Ang^3
#
#
#
# Elastic Constant Matrix: (Units=GPa)
#
#
# Indices 1 2 3 4 5 6 
#
# 1 114.8264 27.8132 68.2199 6.4833 26.4536 7.1420
# 2 27.8132 113.6592 56.1078 6.7252 16.8016 -12.7710
# 3 68.2199 56.1078 110.1976 18.8157 3.6638 -0.7929
# 4 6.4833 6.7252 18.8157 39.4222 2.5341 8.9623
# 5 26.4536 16.8016 3.6638 2.5341 53.0035 2.8027
# 6 7.1420 -12.7710 -0.7929 8.9623 2.8027 38.0199
#
#
#
# Elastic Compliance Matrix: (Units=1/GPa)
#
#
# Indices 1 2 3 4 5 6 
#
# 1 0.017534 0.002668 -0.012611 0.003911 -0.008757 -0.002937
# 2 0.002668 0.013513 -0.008446 0.000698 -0.005281 0.004087
# 3 -0.012611 -0.008446 0.022285 -0.007913 0.007741 0.001291
# 4 0.003911 0.000698 -0.007913 0.030282 -0.002672 -0.007607
# 5 -0.008757 -0.005281 0.007741 -0.002672 0.024564 -0.001148
# 6 -0.002937 0.004087 0.001291 -0.007607 -0.001148 0.030131
#
#
# Mechanical properties :
#
#
# Convention : Reuss Voigt Hill
#
# Bulk Modulus (GPa) = 60.40837 71.44058 65.92447
# Shear Modulus (GPa) = 27.68456 38.52527 33.10491
#
# Velocity S-wave (km/s) = 3.63484 4.28784 3.97477
# Velocity P-wave (km/s) = 6.81506 7.65559 7.24752
#
# Compressibility (1/GPa) = 0.01655400
#
# Stress axis : x y z
#
# Youngs Moduli (GPa) = 57.03156 74.00105 44.87348
#
# Poissons Ratio (x) = -0.19741 0.56589
# Poissons Ratio (y) = -0.15214 0.37900
# Poissons Ratio (z) = 0.71922 0.62501
#
# Static dielectric constant tensor:
#      x y z
#    x 1.858180 0.105560 -0.057660 
#    y 0.105560 1.812810 -0.031250 
#    z -0.057660 -0.031250 1.799100 
# 
# From -- ./inp_files/273914.got.cif
#   From: 2010.05.17/outbox.cif.g08.bks.cpg/sg2_137_cif.got.tgz:273914.got - 2010.06.03 11:33:40.
