data_PCOD9016278
_publ_section_title
;
Structure prediction by ZEFSAII (Michael W. Deem and Ramdas Pophale) SiO2 
 PCOD9016278
Probable space group: P -1
;
_chemical_formula_sum "Si O2"
_cell_formula_units_Z 16
_cell_length_a 12.676323
_cell_length_b 9.229762
_cell_length_c 9.886672
_cell_angle_alpha 61.901349
_cell_angle_beta 52.299413
_cell_angle_gamma 66.334120
_cell_volume 796.635515
_symmetry_space_group_name_H-M "P -1"
_symmetry_group_IT_number 2
_symmetry_cell_setting 'triclinic'
loop_
_space_group_symop_operation_xyz
x,y,z
-x,-y,-z
loop_
_atom_site_type_symbol
_atom_site_label
_atom_site_fract_x
_atom_site_fract_y
_atom_site_fract_z
Si Si1 0.967919 0.880619 0.461420
Si Si2 0.377196 0.066313 0.669993
Si Si3 0.748261 0.661983 0.742446
Si Si4 0.114276 0.951998 0.822106
Si Si5 0.573385 0.258362 0.061668
Si Si6 0.736662 0.416086 0.085718
Si Si7 0.232424 0.605462 0.369840
Si Si8 0.355806 0.446402 0.615499
O O1 0.090769 0.727790 0.421287
O O2 0.828027 0.813680 0.625307
O O3 0.950809 0.989748 0.293151
O O4 0.000000 0.000000 0.500000
O O5 0.239284 0.048239 0.710169
O O6 0.374495 0.253909 0.639601
O O7 0.500000 0.000000 0.500000
O O8 0.387248 0.934788 0.843835
O O9 0.585865 0.707282 0.857725
O O10 0.780622 0.567356 0.617451
O O11 0.797299 0.529407 0.879891
O O12 0.171107 0.757091 0.874532
O O13 0.000000 0.000000 0.000000
O O14 0.611364 0.359079 0.122545
O O15 0.659913 0.315324 0.844039
O O16 0.708812 0.517601 0.201386
O O17 0.280992 0.560985 0.503708
O O18 0.500000 0.500000 0.500000
#
# Coordination Sequence:
#
# PCOD9016278 Si02
#       8
#     2   2   2   2   2   2   2   2
#     4  12  26  42  60  91 128 163 204 256 306 358
#     4  11  23  40  65  94 123 164 209 251 306 373
#     4  11  22  42  66  90 123 166 206 248 305 373
#     4  11  23  44  66  88 123 169 209 249 305 375
#     4  10  21  42  67  91 121 162 208 251 303 374
#     4  10  22  39  64  96 124 156 206 263 308 356
#     4  11  23  42  65  91 123 164 205 248 306 373
#     4  12  23  39  64  97 128 158 202 262 311 356
#
# _framework density 20.084465999999999
#
# number of rings (size 3 to 8) (size 9 to 14) (size 15 to 20)
#    0.000    1.000    0.000   10.125    0.000    4.000 
#    0.000    3.750    0.000    0.000    0.000    0.000 
#    0.000    0.000    0.000    0.000    0.000    0.000 
#
# Total GULP energy -89449.416830 kJ/mol
# GULP energy per Si atom -5590.588552 kJ/mol
# Density = 2.003875 g / cm^3
# Si number density = 20.084466 Si / 1000 Ang^3
#
#
#
# Elastic Constant Matrix: (Units=GPa)
#
#
# Indices 1 2 3 4 5 6 
#
# 1 107.0926 37.8145 54.9924 3.6162 15.6864 -3.7004
# 2 37.8145 90.9306 36.4251 1.9845 3.2895 2.1334
# 3 54.9924 36.4251 98.0860 -7.8135 15.1880 15.0628
# 4 3.6162 1.9845 -7.8135 30.9969 -15.8441 9.0366
# 5 15.6864 3.2895 15.1880 -15.8441 33.8440 2.3639
# 6 -3.7004 2.1334 15.0628 9.0366 2.3639 26.5897
#
#
#
# Elastic Compliance Matrix: (Units=1/GPa)
#
#
# Indices 1 2 3 4 5 6 
#
# 1 0.018995 -0.002952 -0.011363 -0.015441 -0.011737 0.015608
# 2 -0.002952 0.013739 -0.003872 -0.001226 0.001127 0.000997
# 3 -0.011363 -0.003872 0.021390 0.014543 0.004158 -0.018700
# 4 -0.015441 -0.001226 0.014543 0.065502 0.033899 -0.035564
# 5 -0.011737 0.001127 0.004158 0.033899 0.050283 -0.020070
# 6 0.015608 0.000997 -0.018700 -0.035564 -0.020070 0.064165
#
#
# Mechanical properties :
#
#
# Convention : Reuss Voigt Hill
#
# Bulk Modulus (GPa) = 56.33987 61.61924 58.97956
# Shear Modulus (GPa) = 18.09204 29.41128 23.75166
#
# Velocity S-wave (km/s) = 3.00459 3.83087 3.44261
# Velocity P-wave (km/s) = 6.33633 7.09324 6.72544
#
# Compressibility (1/GPa) = 0.01774942
#
# Stress axis : x y z
#
# Youngs Moduli (GPa) = 52.64598 72.78688 46.75071
#
# Poissons Ratio (x) = 0.21487 0.53122
# Poissons Ratio (y) = 0.15541 0.18103
# Poissons Ratio (z) = 0.59821 0.28184
#
# Static dielectric constant tensor:
#      x y z
#    x 1.684280 -0.014690 -0.012900 
#    y -0.014690 1.699820 -0.000960 
#    z -0.012900 -0.000960 1.720820 
# 
# From -- ./inp_files/226186.got.cif
#   From: 2010.05.17/outbox.cif.g08.bks.cpg/sg2_114_cif.got.tgz:226186.got - 2010.06.03 11:33:40.
