data_PCOD9016206
_publ_section_title
;
Structure prediction by ZEFSAII (Michael W. Deem and Ramdas Pophale) SiO2 
 PCOD9016206
Probable space group: P -1
;
_chemical_formula_sum "Si O2"
_cell_formula_units_Z 14
_cell_length_a 12.094691
_cell_length_b 6.569144
_cell_length_c 11.935336
_cell_angle_alpha 107.950068
_cell_angle_beta 57.053696
_cell_angle_gamma 70.775348
_cell_volume 592.540934
_symmetry_space_group_name_H-M "P -1"
_symmetry_group_IT_number 2
_symmetry_cell_setting 'triclinic'
loop_
_space_group_symop_operation_xyz
x,y,z
-x,-y,-z
loop_
_atom_site_type_symbol
_atom_site_label
_atom_site_fract_x
_atom_site_fract_y
_atom_site_fract_z
Si Si1 0.556878 0.181067 0.480517
Si Si2 0.152946 0.316586 0.470271
Si Si3 0.313101 0.789363 0.157076
Si Si4 0.256088 0.033357 0.984313
Si Si5 0.079994 0.183792 0.892465
Si Si6 0.918292 0.345444 0.784107
Si Si7 0.394567 0.450221 0.397631
O O1 0.412608 0.414179 0.516299
O O2 0.587370 0.313074 0.588563
O O3 0.500000 0.000000 0.500000
O O4 0.732675 0.989706 0.288019
O O5 0.236223 0.466194 0.459308
O O6 0.000000 0.500000 0.500000
O O7 0.072759 0.299032 0.624521
O O8 0.285352 0.013373 0.295072
O O9 0.178169 0.737824 0.247115
O O10 0.500000 0.500000 0.000000
O O11 0.264637 0.927998 0.084939
O O12 0.442062 0.815620 0.794751
O O13 0.118192 0.071196 0.980004
O O14 0.209862 0.329907 0.068313
O O15 0.977660 0.191282 0.845159
O O16 0.000000 0.500000 0.000000
#
# Coordination Sequence:
#
# PCOD9016206 Si02
#       7
#     2   2   2   2   2   2   2
#     4  10  21  42  67 100 135 178 232 288 351 422
#     4  12  26  46  70 103 147 194 237 297 353 419
#     4  12  28  45  71 102 142 199 242 289 352 433
#     4  10  23  46  67 103 142 185 235 299 362 422
#     4   9  21  40  70  99 136 176 227 300 358 416
#     4  11  24  45  71 104 142 185 246 296 357 420
#     4  10  24  41  68  98 138 186 229 286 357 418
#
# _framework density 23.62706
#
# number of rings (size 3 to 8) (size 9 to 14) (size 15 to 20)
#    0.000    1.429    1.429    2.143    4.000    7.429 
#    0.000    4.286    0.000    0.000    0.000    0.000 
#    0.000    0.000    0.000    0.000    0.000    0.000 
#
# Total GULP energy -78196.557611 kJ/mol
# GULP energy per Si atom -5585.468401 kJ/mol
# Density = 2.357328 g / cm^3
# Si number density = 23.627060 Si / 1000 Ang^3
#
#
#
# Elastic Constant Matrix: (Units=GPa)
#
#
# Indices 1 2 3 4 5 6 
#
# 1 140.2772 57.2970 22.0645 8.8230 7.5600 23.5483
# 2 57.2970 107.0163 39.0473 -6.1223 3.2125 -2.1026
# 3 22.0645 39.0473 96.4531 19.6297 1.9243 4.3942
# 4 8.8230 -6.1223 19.6297 35.5862 -9.3292 8.9132
# 5 7.5600 3.2125 1.9243 -9.3292 24.1343 0.5455
# 6 23.5483 -2.1026 4.3942 8.9132 0.5455 51.8585
#
#
#
# Elastic Compliance Matrix: (Units=1/GPa)
#
#
# Indices 1 2 3 4 5 6 
#
# 1 0.010854 -0.006539 0.001389 -0.004592 -0.004314 -0.004477
# 2 -0.006539 0.015736 -0.006769 0.008343 0.003657 0.002709
# 3 0.001389 -0.006769 0.015169 -0.011143 -0.005046 -0.000222
# 4 -0.004592 0.008343 -0.011143 0.042505 0.017740 -0.004125
# 5 -0.004314 0.003657 -0.005046 0.017740 0.049583 -0.001036
# 6 -0.004477 0.002709 -0.000222 -0.004125 -0.001036 0.022165
#
#
# Mechanical properties :
#
#
# Convention : Reuss Voigt Hill
#
# Bulk Modulus (GPa) = 55.80123 64.50714 60.15418
# Shear Modulus (GPa) = 26.90730 37.33833 32.12281
#
# Velocity S-wave (km/s) = 3.37832 3.97964 3.69124
# Velocity P-wave (km/s) = 6.23588 6.96263 6.60925
#
# Compressibility (1/GPa) = 0.01792075
#
# Stress axis : x y z
#
# Youngs Moduli (GPa) = 92.13066 63.54876 65.92459
#
# Poissons Ratio (x) = 0.41556 -0.09156
# Poissons Ratio (y) = 0.60247 0.44622
# Poissons Ratio (z) = -0.12796 0.43014
#
# Static dielectric constant tensor:
#      x y z
#    x 1.926400 -0.019170 0.034940 
#    y -0.019170 1.946020 -0.073060 
#    z 0.034940 -0.073060 1.838170 
# 
# From -- ./inp_files/410996.got.cif
#   From: 2010.05.17/outbox.cif.g08.bks.cpg/sg2_206_cif.got.tgz:410996.got - 2010.06.03 11:33:40.
