data_PCOD9016987
_publ_section_title
;
Structure prediction by ZEFSAII (Michael W. Deem and Ramdas Pophale) SiO2 
 PCOD9016987
Probable space group: P -1
;
_chemical_formula_sum "Si O2"
_cell_formula_units_Z 15
_cell_length_a 9.117983
_cell_length_b 12.562916
_cell_length_c 9.162085
_cell_angle_alpha 128.297626
_cell_angle_beta 48.259331
_cell_angle_gamma 104.611003
_cell_volume 591.092032
_symmetry_space_group_name_H-M "P -1"
_symmetry_group_IT_number 2
_symmetry_cell_setting 'triclinic'
loop_
_space_group_symop_operation_xyz
x,y,z
-x,-y,-z
loop_
_atom_site_type_symbol
_atom_site_label
_atom_site_fract_x
_atom_site_fract_y
_atom_site_fract_z
Si Si1 0.282870 0.437658 0.188793
Si Si2 0.500000 0.000000 0.000000
Si Si3 0.046125 0.898865 0.629136
Si Si4 0.687199 0.273495 0.455984
Si Si5 0.936926 0.607481 0.404280
Si Si6 0.727589 0.751785 0.411683
Si Si7 0.137313 0.785647 0.021861
Si Si8 0.595077 0.193302 0.882099
O O1 0.329866 0.582037 0.325427
O O2 0.171999 0.399710 0.375213
O O3 0.138042 0.476858 0.177910
O O4 0.476948 0.305267 0.939450
O O5 0.627877 0.877169 0.697286
O O6 0.456063 0.113425 0.989157
O O7 0.157055 0.858032 0.675987
O O8 0.218040 0.913066 0.413295
O O9 0.997121 0.755121 0.491019
O O10 0.870191 0.046110 0.855809
O O11 0.464475 0.255077 0.563327
O O12 0.787903 0.285239 0.241188
O O13 0.809718 0.615057 0.347438
O O14 0.920734 0.772662 0.210934
O O15 0.303972 0.735873 0.995926
#
# Coordination Sequence:
#
# PCOD9016987 Si02
#       8
#     2   1   2   2   2   2   2   2
#     4  10  24  45  67 100 139 187 233 280 353 404
#     4  12  22  42  74 104 136 178 234 290 338 408
#     4  11  24  45  70 105 135 180 240 291 347 408
#     4  11  27  47  66 101 153 182 221 298 348 411
#     4  10  21  42  70  93 133 179 241 282 324 419
#     4  12  24  44  71 105 135 187 234 286 353 412
#     4  12  24  44  71 104 139 182 233 289 353 418
#     4  12  23  42  77  99 137 183 237 293 333 418
#
# _framework density 25.376760000000001
#
# number of rings (size 3 to 8) (size 9 to 14) (size 15 to 20)
#    0.000    0.800    5.333    1.600    0.000    4.800 
#    9.600    1.333    0.000    0.000    0.000    0.000 
#    0.000    0.000    0.000    0.000    0.000    0.000 
#
# Total GULP energy -83760.374980 kJ/mol
# GULP energy per Si atom -5584.024999 kJ/mol
# Density = 2.531900 g / cm^3
# Si number density = 25.376760 Si / 1000 Ang^3
#
#
#
# Elastic Constant Matrix: (Units=GPa)
#
#
# Indices 1 2 3 4 5 6 
#
# 1 103.4531 19.7423 -0.9896 12.7189 -4.8135 -35.3206
# 2 19.7423 121.1413 24.7090 -8.1445 -7.6018 -16.9391
# 3 -0.9896 24.7090 59.9653 -13.9697 0.4429 0.7164
# 4 12.7189 -8.1445 -13.9697 48.2970 -8.3008 -5.2962
# 5 -4.8135 -7.6018 0.4429 -8.3008 29.4511 -2.4431
# 6 -35.3206 -16.9391 0.7164 -5.2962 -2.4431 38.2225
#
#
#
# Elastic Compliance Matrix: (Units=1/GPa)
#
#
# Indices 1 2 3 4 5 6 
#
# 1 0.014655 -0.000454 -0.000232 -0.002071 0.002796 0.013237
# 2 -0.000454 0.010093 -0.003823 0.001819 0.003483 0.004600
# 3 -0.000232 -0.003823 0.019394 0.004835 -0.000087 -0.001608
# 4 -0.002071 0.001819 0.004835 0.024480 0.007178 0.002652
# 5 0.002796 0.003483 -0.000087 0.007178 0.037961 0.007550
# 6 0.013237 0.004600 -0.001608 0.002652 0.007550 0.041313
#
#
# Mechanical properties :
#
#
# Convention : Reuss Voigt Hill
#
# Bulk Modulus (GPa) = 28.47176 41.27589 34.87382
# Shear Modulus (GPa) = 29.65209 39.26731 34.45970
#
# Velocity S-wave (km/s) = 3.42200 3.93793 3.68900
# Velocity P-wave (km/s) = 5.18242 6.08087 5.64953
#
# Compressibility (1/GPa) = 0.03512253
#
# Stress axis : x y z
#
# Youngs Moduli (GPa) = 68.23785 99.08311 51.56226
#
# Poissons Ratio (x) = 0.04495 0.01199
# Poissons Ratio (y) = 0.03096 0.19713
# Poissons Ratio (z) = 0.01586 0.37881
#
# Static dielectric constant tensor:
#      x y z
#    x 2.249990 0.191970 -0.087780 
#    y 0.191970 2.213880 -0.020460 
#    z -0.087780 -0.020460 2.026790 
# 
# From -- ./inp_files/189667.got.cif
#   From: 2010.05.17/outbox.cif.g08.bks.cpg/sg2_95_cif.got.tgz:189667.got - 2010.06.03 11:33:40.
