data_PCOD9016763
_publ_section_title
;
Structure prediction by ZEFSAII (Michael W. Deem and Ramdas Pophale) SiO2 
 PCOD9016763
Probable space group: P -1
;
_chemical_formula_sum "Si O2"
_cell_formula_units_Z 14
_cell_length_a 5.235112
_cell_length_b 9.246716
_cell_length_c 13.836006
_cell_angle_alpha 62.721850
_cell_angle_beta 100.182246
_cell_angle_gamma 90.203315
_cell_volume 583.606694
_symmetry_space_group_name_H-M "P -1"
_symmetry_group_IT_number 2
_symmetry_cell_setting 'triclinic'
loop_
_space_group_symop_operation_xyz
x,y,z
-x,-y,-z
loop_
_atom_site_type_symbol
_atom_site_label
_atom_site_fract_x
_atom_site_fract_y
_atom_site_fract_z
Si Si1 0.153222 0.181864 0.972467
Si Si2 0.618218 0.491855 0.118635
Si Si3 0.300435 0.679364 0.207063
Si Si4 0.210012 0.880175 0.723826
Si Si5 0.664675 0.036172 0.594830
Si Si6 0.573847 0.960102 0.156802
Si Si7 0.779137 0.398505 0.565163
O O1 0.174067 0.375421 0.916027
O O2 0.313503 0.106742 0.916211
O O3 0.857684 0.185271 0.914953
O O4 0.325508 0.095961 0.095299
O O5 0.432974 0.551465 0.178474
O O6 0.734594 0.311764 0.206111
O O7 0.500000 0.500000 0.000000
O O8 0.498258 0.787524 0.244729
O O9 0.155796 0.613361 0.310753
O O10 0.465986 0.965339 0.680244
O O11 0.188551 0.956264 0.805871
O O12 0.942889 0.931597 0.637158
O O13 0.742855 0.219591 0.568996
O O14 0.500000 0.000000 0.500000
O O15 0.500000 0.500000 0.500000
O O16 0.000000 0.500000 0.500000
#
# Coordination Sequence:
#
# PCOD9016763 Si02
#       7
#     2   2   2   2   2   2   2
#     4  10  22  40  71 103 152 191 260 300 381 452
#     4  11  26  44  68 113 157 202 252 307 381 468
#     4  11  25  44  73 106 150 203 255 315 386 455
#     4  12  26  48  77 106 157 200 250 312 393 457
#     4  12  29  52  78 112 149 202 262 327 398 459
#     4  10  21  42  69 108 142 201 248 313 372 468
#     4  12  29  51  83 113 150 198 267 330 389 457
#
# _framework density 23.988761
#
# number of rings (size 3 to 8) (size 9 to 14) (size 15 to 20)
#    0.000    0.857    2.857    2.571    8.000    1.714 
#    0.000    0.000    0.000    0.000    0.000    0.000 
#    0.000    0.000    0.000    0.000    0.000    0.000 
#
# Total GULP energy -78065.755460 kJ/mol
# GULP energy per Si atom -5576.125390 kJ/mol
# Density = 2.393416 g / cm^3
# Si number density = 23.988761 Si / 1000 Ang^3
#
#
#
# Elastic Constant Matrix: (Units=GPa)
#
#
# Indices 1 2 3 4 5 6 
#
# 1 124.8743 55.1401 55.5801 -17.3589 0.5469 13.9043
# 2 55.1401 154.6629 66.0515 -16.2001 4.2546 14.1452
# 3 55.5801 66.0515 126.2195 -0.9520 18.3433 0.3840
# 4 -17.3589 -16.2001 -0.9520 46.8554 2.2234 2.1122
# 5 0.5469 4.2546 18.3433 2.2234 35.3149 -5.7579
# 6 13.9043 14.1452 0.3840 2.1122 -5.7579 33.2529
#
#
#
# Elastic Compliance Matrix: (Units=1/GPa)
#
#
# Indices 1 2 3 4 5 6 
#
# 1 0.011673 -0.001479 -0.004532 0.003843 0.001425 -0.004197
# 2 -0.001479 0.009426 -0.004306 0.002761 0.000388 -0.003450
# 3 -0.004532 -0.004306 0.012942 -0.002770 -0.005502 0.002800
# 4 0.003843 0.002761 -0.002770 0.023922 -0.001189 -0.004475
# 5 0.001425 0.000388 -0.005502 -0.001189 0.031982 0.004916
# 6 -0.004197 -0.003450 0.002800 -0.004475 0.004916 0.034398
#
#
# Mechanical properties :
#
#
# Convention : Reuss Voigt Hill
#
# Bulk Modulus (GPa) = 74.58800 84.36670 79.47735
# Shear Modulus (GPa) = 33.45650 38.35030 35.90340
#
# Velocity S-wave (km/s) = 3.73859 4.00268 3.87289
# Velocity P-wave (km/s) = 7.05666 7.52380 7.29397
#
# Compressibility (1/GPa) = 0.01340698
#
# Stress axis : x y z
#
# Youngs Moduli (GPa) = 85.66429 106.08704 77.26812
#
# Poissons Ratio (x) = 0.15695 0.35014
# Poissons Ratio (y) = 0.12673 0.33275
# Poissons Ratio (z) = 0.38819 0.45685
#
# Static dielectric constant tensor:
#      x y z
#    x 2.287520 0.313950 0.327470 
#    y 0.313950 2.316440 0.557030 
#    z 0.327470 0.557030 2.816560 
# 
# From -- ./inp_files/480236.got.cif
#   From: 2010.05.17/outbox.cif.g08.bks.cpg/sg2_241_cif.got.tgz:480236.got - 2010.06.03 11:33:40.
