data_PCOD9016534
_publ_section_title
;
Structure prediction by ZEFSAII (Michael W. Deem and Ramdas Pophale) SiO2 
 PCOD9016534
Probable space group: P -1
;
_chemical_formula_sum "Si O2"
_cell_formula_units_Z 16
_cell_length_a 13.992870
_cell_length_b 8.459479
_cell_length_c 13.717699
_cell_angle_alpha 66.037468
_cell_angle_beta 151.692383
_cell_angle_gamma 107.777256
_cell_volume 698.512058
_symmetry_space_group_name_H-M "P -1"
_symmetry_group_IT_number 2
_symmetry_cell_setting 'triclinic'
loop_
_space_group_symop_operation_xyz
x,y,z
-x,-y,-z
loop_
_atom_site_type_symbol
_atom_site_label
_atom_site_fract_x
_atom_site_fract_y
_atom_site_fract_z
Si Si1 0.424585 0.314975 0.450401
Si Si2 0.114044 0.225001 0.361361
Si Si3 0.261239 0.313615 0.853237
Si Si4 0.945743 0.131322 0.682392
Si Si5 0.746571 0.289796 0.275397
Si Si6 0.177484 0.854182 0.227535
Si Si7 0.731176 0.934638 0.257438
Si Si8 0.918439 0.555694 0.021169
O O1 0.500000 0.500000 0.500000
O O2 0.282743 0.260458 0.423396
O O3 0.617185 0.171937 0.641919
O O4 0.300524 0.346606 0.229071
O O5 0.229776 0.171108 0.579453
O O6 0.008319 0.060076 0.272649
O O7 0.943107 0.390968 0.156396
O O8 0.197952 0.520777 0.751615
O O9 0.197339 0.206417 0.727054
O O10 0.153665 0.214893 0.866949
O O11 0.503491 0.296131 0.067641
O O12 0.826641 0.252317 0.465213
O O13 0.799001 0.117315 0.644647
O O14 0.813479 0.122639 0.306972
O O15 0.076258 0.677853 0.170738
O O16 0.000000 0.000000 0.000000
O O17 0.500000 0.000000 0.000000
O O18 0.000000 0.500000 0.000000
#
# Coordination Sequence:
#
# PCOD9016534 Si02
#       8
#     2   2   2   2   2   2   2   2
#     4  11  23  44  71  95 136 185 224 289 349 403
#     4  10  22  42  68 100 139 176 240 284 339 426
#     4  10  21  42  68  90 139 174 217 286 341 398
#     4  11  25  41  63  97 133 175 220 276 346 401
#     4   9  21  41  64  97 130 169 230 276 334 421
#     4  12  26  42  68 100 138 175 229 285 349 412
#     4   9  20  40  65 101 133 180 226 281 346 410
#     4  10  21  43  65  98 131 172 231 281 337 419
#
# _framework density 22.905830999999999
#
# number of rings (size 3 to 8) (size 9 to 14) (size 15 to 20)
#    0.000    1.750    2.500    1.875    1.750    8.000 
#    2.250    1.250    0.000    0.000    0.000    0.000 
#    0.000    0.000    0.000    0.000    0.000    0.000 
#
# Total GULP energy -89295.713860 kJ/mol
# GULP energy per Si atom -5580.982116 kJ/mol
# Density = 2.285370 g / cm^3
# Si number density = 22.905831 Si / 1000 Ang^3
#
#
#
# Elastic Constant Matrix: (Units=GPa)
#
#
# Indices 1 2 3 4 5 6 
#
# 1 89.2789 17.3854 37.6177 -10.7558 2.4554 1.5906
# 2 17.3854 96.6510 20.0710 -8.5414 4.6825 14.2310
# 3 37.6177 20.0710 114.7086 -17.6107 -1.8168 4.2060
# 4 -10.7558 -8.5414 -17.6107 40.5938 -1.6415 1.4316
# 5 2.4554 4.6825 -1.8168 -1.6415 29.7629 -1.8318
# 6 1.5906 14.2310 4.2060 1.4316 -1.8318 36.9918
#
#
#
# Elastic Compliance Matrix: (Units=1/GPa)
#
#
# Indices 1 2 3 4 5 6 
#
# 1 0.013335 -0.001453 -0.003920 0.001475 -0.001010 0.000324
# 2 -0.001453 0.011759 -0.001195 0.001649 -0.001988 -0.004488
# 3 -0.003920 -0.001195 0.010790 0.003468 0.001320 -0.000667
# 4 0.001475 0.001649 0.003468 0.026998 0.001192 -0.002078
# 5 -0.001010 -0.001988 0.001320 0.001192 0.034284 0.002310
# 6 0.000324 -0.004488 -0.000667 -0.002078 0.002310 0.029016
#
#
# Mechanical properties :
#
#
# Convention : Reuss Voigt Hill
#
# Bulk Modulus (GPa) = 43.96049 50.08740 47.02395
# Shear Modulus (GPa) = 34.03650 36.50733 35.27192
#
# Velocity S-wave (km/s) = 3.85896 3.99657 3.92837
# Velocity P-wave (km/s) = 6.25211 6.57350 6.41482
#
# Compressibility (1/GPa) = 0.02274770
#
# Stress axis : x y z
#
# Youngs Moduli (GPa) = 74.98877 85.04274 92.67612
#
# Poissons Ratio (x) = 0.12358 0.36333
# Poissons Ratio (y) = 0.10897 0.11073
# Poissons Ratio (z) = 0.29399 0.10161
#
# Static dielectric constant tensor:
#      x y z
#    x 1.928350 -0.026870 0.024420 
#    y -0.026870 1.885260 -0.007660 
#    z 0.024420 -0.007660 1.920820 
# 
# From -- ./inp_files/529479.got.cif
#   From: 2010.05.17/outbox.cif.g08.bks.cpg/sg2_265_cif.got.tgz:529479.got - 2010.06.03 11:33:40.
