data_PCOD9016649
_publ_section_title
;
Structure prediction by ZEFSAII (Michael W. Deem and Ramdas Pophale) SiO2 
 PCOD9016649
Probable space group: P -1
;
_chemical_formula_sum "Si O2"
_cell_formula_units_Z 16
_cell_length_a 5.721711
_cell_length_b 11.781123
_cell_length_c 11.593884
_cell_angle_alpha 74.313392
_cell_angle_beta 108.459404
_cell_angle_gamma 121.006037
_cell_volume 629.833349
_symmetry_space_group_name_H-M "P -1"
_symmetry_group_IT_number 2
_symmetry_cell_setting 'triclinic'
loop_
_space_group_symop_operation_xyz
x,y,z
-x,-y,-z
loop_
_atom_site_type_symbol
_atom_site_label
_atom_site_fract_x
_atom_site_fract_y
_atom_site_fract_z
Si Si1 0.116822 0.147125 0.329701
Si Si2 0.582417 0.130777 0.552850
Si Si3 0.604799 0.416027 0.704070
Si Si4 0.028339 0.678276 0.593264
Si Si5 0.473266 0.686542 0.831378
Si Si6 0.349230 0.127656 0.735673
Si Si7 0.814604 0.596621 0.153417
Si Si8 0.746244 0.854199 0.023768
O O1 0.347014 0.163338 0.454493
O O2 0.234569 0.242323 0.210923
O O3 0.936705 0.196223 0.360814
O O4 0.951316 0.994832 0.305402
O O5 0.867354 0.263528 0.532217
O O6 0.554757 0.100704 0.692188
O O7 0.500000 0.000000 0.500000
O O8 0.399391 0.271767 0.660383
O O9 0.415851 0.434020 0.769828
O O10 0.741504 0.546790 0.609003
O O11 0.875463 0.392241 0.784382
O O12 0.261523 0.653823 0.700743
O O13 0.340674 0.540700 0.906827
O O14 0.511947 0.796211 0.903131
O O15 0.380396 0.139002 0.874194
O O16 0.845078 0.738342 0.074905
O O17 0.000000 0.000000 0.000000
#
# Coordination Sequence:
#
# PCOD9016649 Si02
#       8
#     2   2   2   2   2   2   2   2
#     4  11  21  42  69  97 128 175 232 276 334 415
#     4  11  24  40  71  98 129 179 229 282 342 410
#     4  10  23  44  69 102 142 179 224 290 348 402
#     4  10  22  42  69  97 132 177 230 276 334 415
#     4  10  21  42  68  97 134 178 228 274 339 412
#     4  11  24  42  64  99 137 173 225 283 345 407
#     4  10  22  44  69  99 140 186 232 274 340 420
#     4  11  23  42  66 102 138 178 221 287 347 400
#
# _framework density 25.403545000000001
#
# number of rings (size 3 to 8) (size 9 to 14) (size 15 to 20)
#    0.000    1.500    3.750    0.750    0.000    3.500 
#    4.500    9.375    0.000    0.000    0.000    0.000 
#    0.000    0.000    0.000    0.000    0.000    0.000 
#
# Total GULP energy -89199.065553 kJ/mol
# GULP energy per Si atom -5574.941597 kJ/mol
# Density = 2.534573 g / cm^3
# Si number density = 25.403545 Si / 1000 Ang^3
#
#
#
# Elastic Constant Matrix: (Units=GPa)
#
#
# Indices 1 2 3 4 5 6 
#
# 1 87.2408 25.1857 33.0916 -13.2257 -3.2020 13.6098
# 2 25.1857 199.9757 32.5469 -7.0256 -8.8767 26.5070
# 3 33.0916 32.5469 90.2371 0.2120 -25.4730 13.8974
# 4 -13.2257 -7.0256 0.2120 36.3541 -3.0520 -6.0980
# 5 -3.2020 -8.8767 -25.4730 -3.0520 38.4098 1.1846
# 6 13.6098 26.5070 13.8974 -6.0980 1.1846 38.7502
#
#
#
# Elastic Compliance Matrix: (Units=1/GPa)
#
#
# Indices 1 2 3 4 5 6 
#
# 1 0.014658 -0.000626 -0.005453 0.004739 -0.002102 -0.001954
# 2 -0.000626 0.005741 -0.001163 0.000397 0.000635 -0.003247
# 3 -0.005453 -0.001163 0.017126 -0.002105 0.010593 -0.004087
# 4 0.004739 0.000397 -0.002105 0.030023 0.001369 0.003501
# 5 -0.002102 0.000635 0.010593 0.001369 0.033273 -0.004297
# 6 -0.001954 -0.003247 -0.004087 0.003501 -0.004297 0.030862
#
#
# Mechanical properties :
#
#
# Convention : Reuss Voigt Hill
#
# Bulk Modulus (GPa) = 43.40146 62.12243 52.76195
# Shear Modulus (GPa) = 32.49993 41.81144 37.15569
#
# Velocity S-wave (km/s) = 3.58068 4.06136 3.82857
# Velocity P-wave (km/s) = 5.84952 6.81910 6.35284
#
# Compressibility (1/GPa) = 0.02304070
#
# Stress axis : x y z
#
# Youngs Moduli (GPa) = 68.22268 174.17684 58.39220
#
# Poissons Ratio (x) = 0.10910 0.31842
# Poissons Ratio (y) = 0.04273 0.06788
# Poissons Ratio (z) = 0.37202 0.20249
#
# Static dielectric constant tensor:
#      x y z
#    x 2.160320 -0.042190 0.055620 
#    y -0.042190 2.048880 -0.101600 
#    z 0.055620 -0.101600 2.165560 
# 
# From -- ./inp_files/364339.got.cif
#   From: 2010.05.17/outbox.cif.g08.bks.cpg/sg2_183_cif.got.tgz:364339.got - 2010.06.03 11:33:40.
