data_PCOD9016594
_publ_section_title
;
Structure prediction by ZEFSAII (Michael W. Deem and Ramdas Pophale) SiO2 
 PCOD9016594
Probable space group: P -1
;
_chemical_formula_sum "Si O2"
_cell_formula_units_Z 16
_cell_length_a 19.842015
_cell_length_b 8.328666
_cell_length_c 12.227229
_cell_angle_alpha 41.238958
_cell_angle_beta 130.013101
_cell_angle_gamma 149.098117
_cell_volume 684.063725
_symmetry_space_group_name_H-M "P -1"
_symmetry_group_IT_number 2
_symmetry_cell_setting 'triclinic'
loop_
_space_group_symop_operation_xyz
x,y,z
-x,-y,-z
loop_
_atom_site_type_symbol
_atom_site_label
_atom_site_fract_x
_atom_site_fract_y
_atom_site_fract_z
Si Si1 0.447412 0.158540 0.056814
Si Si2 0.032124 0.808006 0.944674
Si Si3 0.701244 0.665798 0.925268
Si Si4 0.792508 0.380235 0.063889
Si Si5 0.503011 0.909261 0.427865
Si Si6 0.720339 0.887853 0.432031
Si Si7 0.979604 0.204590 0.560195
Si Si8 0.750112 0.167794 0.555612
O O1 0.434351 0.926551 0.254188
O O2 0.500000 0.500000 0.000000
O O3 0.559650 0.314343 0.006967
O O4 0.311875 0.937710 0.968507
O O5 0.001003 0.000471 0.753955
O O6 0.938030 0.626409 0.046748
O O7 0.000000 0.500000 0.000000
O O8 0.184364 0.107450 0.981855
O O9 0.699577 0.924868 0.733625
O O10 0.752813 0.580383 0.932423
O O11 0.764510 0.206353 0.241813
O O12 0.424389 0.494041 0.554759
O O13 0.500000 0.000000 0.500000
O O14 0.656796 0.201696 0.414254
O O15 0.832184 0.916464 0.509367
O O16 0.728104 0.959075 0.531679
O O17 0.000000 0.500000 0.500000
O O18 0.097372 0.457966 0.466615
#
# Coordination Sequence:
#
# PCOD9016594 Si02
#       8
#     2   2   2   2   2   2   2   2
#     4  12  25  44  65  96 134 172 220 280 340 399
#     4  12  26  44  67 101 139 177 221 284 346 398
#     4  12  24  43  69  98 131 177 226 276 333 403
#     4  12  24  43  69  98 131 177 226 276 333 403
#     4  12  25  42  63  92 130 172 212 264 329 397
#     4  11  23  42  66  95 127 168 219 273 325 389
#     4  10  21  42  68  95 128 171 218 270 325 396
#     4  11  23  42  66  95 127 168 219 273 325 389
#
# _framework density 23.389633
#
# number of rings (size 3 to 8) (size 9 to 14) (size 15 to 20)
#    0.000    0.500    0.000   10.875    0.000    2.000 
#    0.000    1.875    0.000    0.000    0.000    0.000 
#    0.000    0.000    0.000    0.000    0.000    0.000 
#
# Total GULP energy -89539.427573 kJ/mol
# GULP energy per Si atom -5596.214223 kJ/mol
# Density = 2.333640 g / cm^3
# Si number density = 23.389633 Si / 1000 Ang^3
#
#
#
# Elastic Constant Matrix: (Units=GPa)
#
#
# Indices 1 2 3 4 5 6 
#
# 1 67.7329 13.7025 -2.9945 -8.6231 -3.3691 7.2814
# 2 13.7025 67.9949 -2.2908 9.1638 1.2869 18.3168
# 3 -2.9945 -2.2908 113.7403 1.4689 -0.3671 4.6388
# 4 -8.6231 9.1638 1.4689 35.0552 6.5587 3.9953
# 5 -3.3691 1.2869 -0.3671 6.5587 33.7939 -6.5330
# 6 7.2814 18.3168 4.6388 3.9953 -6.5330 41.7337
#
#
#
# Elastic Compliance Matrix: (Units=1/GPa)
#
#
# Indices 1 2 3 4 5 6 
#
# 1 0.016340 -0.003490 0.000369 0.005035 0.000446 -0.001772
# 2 -0.003490 0.017996 0.000616 -0.004483 -0.001543 -0.007170
# 3 0.000369 0.000616 0.008871 -0.000276 -0.000090 -0.001308
# 4 0.005035 -0.004483 -0.000276 0.032445 -0.006199 -0.002957
# 5 0.000446 -0.001543 -0.000090 -0.006199 0.032100 0.006228
# 6 -0.001772 -0.007170 -0.001308 -0.002957 0.006228 0.028821
#
#
# Mechanical properties :
#
#
# Convention : Reuss Voigt Hill
#
# Bulk Modulus (GPa) = 26.18106 29.58918 27.88512
# Shear Modulus (GPa) = 32.40106 38.18661 35.29383
#
# Velocity S-wave (km/s) = 3.72597 4.04496 3.88874
# Velocity P-wave (km/s) = 5.45235 5.87313 5.66665
#
# Compressibility (1/GPa) = 0.03819554
#
# Stress axis : x y z
#
# Youngs Moduli (GPa) = 61.19993 55.56804 112.73069
#
# Poissons Ratio (x) = 0.19393 -0.04155
# Poissons Ratio (y) = 0.21359 -0.06943
# Poissons Ratio (z) = -0.02256 -0.03422
#
# Static dielectric constant tensor:
#      x y z
#    x 1.854010 0.062260 -0.014100 
#    y 0.062260 1.828830 -0.041030 
#    z -0.014100 -0.041030 1.919260 
# 
# From -- ./inp_files/469775.got.cif
#   From: 2010.05.17/outbox.cif.g08.bks.cpg/sg2_235_cif.got.tgz:469775.got - 2010.06.03 11:33:40.
