data_PCOD9016562
_publ_section_title
;
Structure prediction by ZEFSAII (Michael W. Deem and Ramdas Pophale) SiO2 
 PCOD9016562
Probable space group: P -1
;
_chemical_formula_sum "Si O2"
_cell_formula_units_Z 16
_cell_length_a 14.648367
_cell_length_b 9.156152
_cell_length_c 14.447784
_cell_angle_alpha 132.272550
_cell_angle_beta 51.404194
_cell_angle_gamma 88.351978
_cell_volume 707.788481
_symmetry_space_group_name_H-M "P -1"
_symmetry_group_IT_number 2
_symmetry_cell_setting 'triclinic'
loop_
_space_group_symop_operation_xyz
x,y,z
-x,-y,-z
loop_
_atom_site_type_symbol
_atom_site_label
_atom_site_fract_x
_atom_site_fract_y
_atom_site_fract_z
Si Si1 0.896925 0.146213 0.032036
Si Si2 0.448605 0.839591 0.477904
Si Si3 0.299855 0.862509 0.148915
Si Si4 0.672872 0.178089 0.081422
Si Si5 0.554023 0.690166 0.055789
Si Si6 0.493223 0.811430 0.634943
Si Si7 0.062336 0.888043 0.517386
Si Si8 0.916080 0.819637 0.219519
O O1 0.859280 0.983202 0.937034
O O2 0.701194 0.503787 0.336715
O O3 0.015567 0.119917 0.875886
O O4 0.000000 0.000000 0.000000
O O5 0.621652 0.467587 0.203636
O O6 0.375420 0.909877 0.659866
O O7 0.500000 0.000000 0.500000
O O8 0.299546 0.948054 0.549132
O O9 0.399111 0.534489 0.990421
O O10 0.088409 0.081142 0.348669
O O11 0.356617 0.888488 0.026268
O O12 0.359637 0.920744 0.222333
O O13 0.544391 0.262730 0.280210
O O14 0.721558 0.452166 0.773059
O O15 0.553391 0.903440 0.192491
O O16 0.000000 0.000000 0.500000
O O17 0.039355 0.119462 0.688906
O O18 0.000000 0.500000 0.000000
#
# Coordination Sequence:
#
# PCOD9016562 Si02
#       8
#     2   2   2   2   2   2   2   2
#     4  11  23  42  62  93 136 174 217 277 349 406
#     4  11  23  39  66  96 133 171 223 277 343 406
#     4  10  21  42  68  93 130 179 222 285 340 403
#     4  11  21  41  64  89 137 172 224 275 348 400
#     4  10  23  42  69  95 134 177 235 278 344 413
#     4  11  24  41  64  99 130 182 223 284 340 413
#     4  10  23  42  66  97 138 175 223 281 344 400
#     4  12  24  39  68 106 130 170 226 285 342 401
#
# _framework density 22.605622
#
# number of rings (size 3 to 8) (size 9 to 14) (size 15 to 20)
#    0.000    1.250    1.250    6.000    3.500    5.500 
#    2.250    0.625    0.000    0.000    0.000    0.000 
#    0.000    0.000    0.000    0.000    0.000    0.000 
#
# Total GULP energy -89117.713015 kJ/mol
# GULP energy per Si atom -5569.857063 kJ/mol
# Density = 2.255417 g / cm^3
# Si number density = 22.605622 Si / 1000 Ang^3
#
#
#
# Elastic Constant Matrix: (Units=GPa)
#
#
# Indices 1 2 3 4 5 6 
#
# 1 140.4182 10.5558 15.0028 -8.6146 6.0491 -22.0931
# 2 10.5558 54.3426 -6.4103 -27.1424 7.1059 -17.9693
# 3 15.0028 -6.4103 47.1993 -13.2156 -1.9118 -3.6010
# 4 -8.6146 -27.1424 -13.2156 29.4542 -0.7432 5.1763
# 5 6.0491 7.1059 -1.9118 -0.7432 36.2492 -7.2425
# 6 -22.0931 -17.9693 -3.6010 5.1763 -7.2425 37.2494
#
#
#
# Elastic Compliance Matrix: (Units=1/GPa)
#
#
# Indices 1 2 3 4 5 6 
#
# 1 0.008101 0.000122 -0.002025 0.000776 -0.000578 0.004447
# 2 0.000122 0.064423 0.029441 0.068351 -0.004994 0.023527
# 3 -0.002025 0.029441 0.038352 0.041835 -0.000391 0.010820
# 4 0.000776 0.068351 0.041835 0.112130 -0.004836 0.020955
# 5 -0.000578 -0.004994 -0.000391 -0.004836 0.029256 0.003570
# 6 0.004447 0.023527 0.010820 0.020955 0.003570 0.039661
#
#
# Mechanical properties :
#
#
# Convention : Reuss Voigt Hill
#
# Bulk Modulus (GPa) = 6.02586 31.13964 18.58275
# Shear Modulus (GPa) = 17.11362 35.44467 26.27915
#
# Velocity S-wave (km/s) = 2.75444 3.96404 3.41325
# Velocity P-wave (km/s) = 3.57594 5.89547 4.87565
#
# Compressibility (1/GPa) = 0.16595129
#
# Stress axis : x y z
#
# Youngs Moduli (GPa) = 123.43968 15.52250 26.07410
#
# Poissons Ratio (x) = -0.00189 0.05281
# Poissons Ratio (y) = -0.01500 -0.76766
# Poissons Ratio (z) = 0.24999 -0.45700
#
# Static dielectric constant tensor:
#      x y z
#    x 1.908090 -0.012830 -0.077960 
#    y -0.012830 1.881210 -0.042840 
#    z -0.077960 -0.042840 2.066770 
# 
# From -- ./inp_files/529065.got.cif
#   From: 2010.05.17/outbox.cif.g08.bks.cpg/sg2_265_cif.got.tgz:529065.got - 2010.06.03 11:33:40.
