data_PCOD9016209
_publ_section_title
;
Structure prediction by ZEFSAII (Michael W. Deem and Ramdas Pophale) SiO2 
 PCOD9016209
Probable space group: P -1
;
_chemical_formula_sum "Si O2"
_cell_formula_units_Z 14
_cell_length_a 12.200627
_cell_length_b 15.574518
_cell_length_c 8.635174
_cell_angle_alpha 125.540086
_cell_angle_beta 48.223463
_cell_angle_gamma 153.470424
_cell_volume 546.019230
_symmetry_space_group_name_H-M "P -1"
_symmetry_group_IT_number 2
_symmetry_cell_setting 'triclinic'
loop_
_space_group_symop_operation_xyz
x,y,z
-x,-y,-z
loop_
_atom_site_type_symbol
_atom_site_label
_atom_site_fract_x
_atom_site_fract_y
_atom_site_fract_z
Si Si1 0.332671 0.270607 0.802135
Si Si2 0.514485 0.424051 0.136824
Si Si3 0.340399 0.717340 0.068746
Si Si4 0.281452 0.893849 0.725305
Si Si5 0.003622 0.079013 0.431437
Si Si6 0.524118 0.119897 0.201332
Si Si7 0.079172 0.449223 0.482553
O O1 0.315331 0.367625 0.821239
O O2 0.090472 0.049332 0.758485
O O3 0.605773 0.373611 0.601389
O O4 0.373421 0.322379 0.996631
O O5 0.673937 0.412401 0.004620
O O6 0.289211 0.297835 0.348768
O O7 0.100910 0.640863 0.290197
O O8 0.612769 0.935486 0.113729
O O9 0.355666 0.729896 0.882183
O O10 0.303245 0.813898 0.747088
O O11 0.009670 0.710953 0.694170
O O12 0.500000 0.000000 0.500000
O O13 0.769504 0.022159 0.618236
O O14 0.000000 0.000000 0.500000
O O15 0.500000 0.000000 0.000000
O O16 0.000000 0.500000 0.500000
#
# Coordination Sequence:
#
# PCOD9016209 Si02
#       7
#     2   2   2   2   2   2   2
#     4  11  27  46  71 107 139 186 238 289 352 411
#     4  11  25  47  70 104 143 182 240 285 351 418
#     4  10  21  42  67 100 138 182 233 283 352 415
#     4   9  21  37  70  97 129 177 232 286 340 408
#     4  12  26  48  73  99 142 190 229 288 355 423
#     4  10  22  43  66 104 134 179 237 280 350 414
#     4  11  21  41  67  98 137 174 234 298 337 402
#
# _framework density 25.640124
#
# number of rings (size 3 to 8) (size 9 to 14) (size 15 to 20)
#    0.000    1.429    2.857    1.286    8.000    2.857 
#    0.000    4.286    0.000    0.000    0.000    0.000 
#    0.000    0.000    0.000    0.000    0.000    0.000 
#
# Total GULP energy -78446.903340 kJ/mol
# GULP energy per Si atom -5603.350239 kJ/mol
# Density = 2.558177 g / cm^3
# Si number density = 25.640124 Si / 1000 Ang^3
#
#
#
# Elastic Constant Matrix: (Units=GPa)
#
#
# Indices 1 2 3 4 5 6 
#
# 1 89.8554 13.5643 35.3646 -2.8638 -6.9347 -24.0802
# 2 13.5643 86.7213 23.2313 -1.6865 -6.0351 -5.9840
# 3 35.3646 23.2313 123.0881 -20.4768 -6.2318 -4.2826
# 4 -2.8638 -1.6865 -20.4768 42.1889 -3.7631 4.5084
# 5 -6.9347 -6.0351 -6.2318 -3.7631 51.4166 0.9322
# 6 -24.0802 -5.9840 -4.2826 4.5084 0.9322 40.7563
#
#
#
# Elastic Compliance Matrix: (Units=1/GPa)
#
#
# Indices 1 2 3 4 5 6 
#
# 1 0.015225 -0.000612 -0.004206 -0.001851 0.001180 0.008641
# 2 -0.000612 0.012355 -0.002166 -0.000643 0.001035 0.001272
# 3 -0.004206 -0.002166 0.010550 0.005069 0.000869 -0.002275
# 4 -0.001851 -0.000643 0.005069 0.026607 0.002303 -0.003651
# 5 0.001180 0.001035 0.000869 0.002303 0.019999 0.000228
# 6 0.008641 0.001272 -0.002275 -0.003651 0.000228 0.029988
#
#
# Mechanical properties :
#
#
# Convention : Reuss Voigt Hill
#
# Bulk Modulus (GPa) = 41.39101 49.33169 45.36135
# Shear Modulus (GPa) = 36.56421 42.03935 39.30178
#
# Velocity S-wave (km/s) = 3.78041 4.05358 3.91938
# Velocity P-wave (km/s) = 5.93578 6.41798 6.18158
#
# Compressibility (1/GPa) = 0.02415984
#
# Stress axis : x y z
#
# Youngs Moduli (GPa) = 65.68313 80.94206 94.78940
#
# Poissons Ratio (x) = 0.04955 0.39870
# Poissons Ratio (y) = 0.04021 0.20533
# Poissons Ratio (z) = 0.27628 0.17533
#
# Static dielectric constant tensor:
#      x y z
#    x 2.056890 -0.018680 0.042450 
#    y -0.018680 2.133420 -0.027310 
#    z 0.042450 -0.027310 2.024170 
# 
# From -- ./inp_files/274001.got.cif
#   From: 2010.05.17/outbox.cif.g08.bks.cpg/sg2_138_cif.got.tgz:274001.got - 2010.06.03 11:33:40.
