data_PCOD9016139
_publ_section_title
;
Structure prediction by ZEFSAII (Michael W. Deem and Ramdas Pophale) SiO2 
 PCOD9016139
Probable space group: P -1
;
_chemical_formula_sum "Si O2"
_cell_formula_units_Z 16
_cell_length_a 21.432747
_cell_length_b 5.718290
_cell_length_c 23.120063
_cell_angle_alpha 107.592651
_cell_angle_beta 167.681661
_cell_angle_gamma 71.870685
_cell_volume 574.489445
_symmetry_space_group_name_H-M "P -1"
_symmetry_group_IT_number 2
_symmetry_cell_setting 'triclinic'
loop_
_space_group_symop_operation_xyz
x,y,z
-x,-y,-z
loop_
_atom_site_type_symbol
_atom_site_label
_atom_site_fract_x
_atom_site_fract_y
_atom_site_fract_z
Si Si1 0.503985 0.017022 0.595053
Si Si2 0.932420 0.149850 0.146478
Si Si3 0.327349 0.953684 0.585025
Si Si4 0.193804 0.390459 0.220625
Si Si5 0.778107 0.547574 0.123116
Si Si6 0.228251 0.873141 0.612791
Si Si7 0.320988 0.359049 0.780244
Si Si8 0.336014 0.425042 0.198349
O O1 0.150087 0.069915 0.284572
O O2 0.587862 0.297988 0.697644
O O3 0.707041 0.896759 0.717944
O O4 0.587050 0.801463 0.702950
O O5 0.954430 0.402592 0.220565
O O6 0.064325 0.968250 0.302654
O O7 0.592142 0.125240 0.823803
O O8 0.200598 0.015353 0.537380
O O9 0.498035 0.684318 0.715273
O O10 0.500000 0.500000 0.500000
O O11 0.000000 0.500000 0.000000
O O12 0.013898 0.516905 0.120137
O O13 0.986038 0.675470 0.367506
O O14 0.549971 0.741957 0.900600
O O15 0.551527 0.378574 0.937421
O O16 0.241663 0.076855 0.690190
O O17 0.000000 0.500000 0.500000
O O18 0.500000 0.500000 0.000000
#
# Coordination Sequence:
#
# PCOD9016139 Si02
#       8
#     2   2   2   2   2   2   2   2
#     4  10  22  42  66 101 138 187 238 297 359 428
#     4  11  23  43  70 101 138 180 230 289 352 420
#     4  11  23  43  70 101 138 180 230 289 352 420
#     4  10  21  42  66  96 138 186 236 296 358 428
#     4  12  26  45  74 105 137 183 235 288 349 421
#     4  12  26  45  74 105 137 183 235 288 349 421
#     4  12  28  48  72 102 144 181 226 287 350 426
#     4  10  22  42  66 101 138 187 238 297 359 428
#
# _framework density 27.850818
#
# number of rings (size 3 to 8) (size 9 to 14) (size 15 to 20)
#    0.000    1.000    1.250    4.875    1.750    5.000 
#    0.000   20.000    0.000    0.000    0.000    0.000 
#    0.000    0.000    0.000    0.000    0.000    0.000 
#
# Total GULP energy -89322.854371 kJ/mol
# GULP energy per Si atom -5582.678398 kJ/mol
# Density = 2.778743 g / cm^3
# Si number density = 27.850818 Si / 1000 Ang^3
#
#
#
# Elastic Constant Matrix: (Units=GPa)
#
#
# Indices 1 2 3 4 5 6 
#
# 1 61.3189 29.9066 18.3141 -0.9653 -10.2604 -0.2770
# 2 29.9066 190.6576 63.4233 7.2736 -3.8616 -29.8485
# 3 18.3141 63.4233 183.9007 9.5873 4.0907 -1.3370
# 4 -0.9653 7.2736 9.5873 53.8713 1.7651 -3.1611
# 5 -10.2604 -3.8616 4.0907 1.7651 46.7948 1.6716
# 6 -0.2770 -29.8485 -1.3370 -3.1611 1.6716 48.5955
#
#
#
# Elastic Compliance Matrix: (Units=1/GPa)
#
#
# Indices 1 2 3 4 5 6 
#
# 1 0.018650 -0.002800 -0.001027 0.000663 0.003985 -0.001736
# 2 -0.002800 0.007064 -0.002107 -0.000381 0.000016 0.004239
# 3 -0.001027 -0.002107 0.006325 -0.000899 -0.000877 -0.001154
# 4 0.000663 -0.000381 -0.000899 0.018862 -0.000554 0.000991
# 5 0.003985 0.000016 -0.000877 -0.000554 0.022371 -0.000797
# 6 -0.001736 0.004239 -0.001154 0.000991 -0.000797 0.023232
#
#
# Mechanical properties :
#
#
# Convention : Reuss Voigt Hill
#
# Bulk Modulus (GPa) = 49.57960 73.24057 61.41009
# Shear Modulus (GPa) = 43.44205 51.46786 47.45496
#
# Velocity S-wave (km/s) = 3.95373 4.30348 4.13231
# Velocity P-wave (km/s) = 6.21958 7.14478 6.69817
#
# Compressibility (1/GPa) = 0.02016959
#
# Stress axis : x y z
#
# Youngs Moduli (GPa) = 53.61915 141.56998 158.11192
#
# Poissons Ratio (x) = 0.39639 0.16245
# Poissons Ratio (y) = 0.15013 0.33313
# Poissons Ratio (z) = 0.05509 0.29828
#
# Static dielectric constant tensor:
#      x y z
#    x 2.299640 0.112100 0.042850 
#    y 0.112100 2.078410 0.057330 
#    z 0.042850 0.057330 2.125440 
# 
# From -- ./inp_files/624253.got.cif
#   From: 2010.05.17/outbox.cif.g08.bks.cpg/sg2_313_cif.got.tgz:624253.got - 2010.06.03 11:33:40.
