data_PCOD9016589
_publ_section_title
;
Structure prediction by ZEFSAII (Michael W. Deem and Ramdas Pophale) SiO2 
 PCOD9016589
Probable space group: P -1
;
_chemical_formula_sum "Si O2"
_cell_formula_units_Z 16
_cell_length_a 16.546661
_cell_length_b 13.355360
_cell_length_c 11.149892
_cell_angle_alpha 121.532676
_cell_angle_beta 75.816180
_cell_angle_gamma 154.220882
_cell_volume 724.159022
_symmetry_space_group_name_H-M "P -1"
_symmetry_group_IT_number 2
_symmetry_cell_setting 'triclinic'
loop_
_space_group_symop_operation_xyz
x,y,z
-x,-y,-z
loop_
_atom_site_type_symbol
_atom_site_label
_atom_site_fract_x
_atom_site_fract_y
_atom_site_fract_z
Si Si1 0.007193 0.883970 0.988425
Si Si2 0.245926 0.186897 0.339402
Si Si3 0.445858 0.778695 0.112039
Si Si4 0.826837 0.516669 0.200336
Si Si5 0.309265 0.531121 0.559691
Si Si6 0.424492 0.976505 0.399600
Si Si7 0.905907 0.256929 0.187952
Si Si8 0.762953 0.168921 0.950060
O O1 0.203835 0.134434 0.178681
O O2 0.043410 0.813851 0.849752
O O3 0.756691 0.542894 0.933227
O O4 0.000000 0.000000 0.000000
O O5 0.500000 0.500000 0.500000
O O6 0.188157 0.246043 0.430308
O O7 0.070700 0.864482 0.263773
O O8 0.437311 0.903343 0.235919
O O9 0.700548 0.053743 0.207684
O O10 0.351644 0.648990 0.928166
O O11 0.837357 0.574676 0.369067
O O12 0.743661 0.273351 0.079494
O O13 0.391838 0.681628 0.491929
O O14 0.557036 0.858243 0.744236
O O15 0.155458 0.652888 0.328152
O O16 0.500000 0.000000 0.500000
O O17 0.804943 0.128809 0.010448
O O18 0.000000 0.500000 0.000000
#
# Coordination Sequence:
#
# PCOD9016589 Si02
#       8
#     2   2   2   2   2   2   2   2
#     4  10  24  45  66  91 132 179 224 267 328 402
#     4  11  25  41  62  97 134 169 214 277 341 388
#     4  10  21  42  68  95 126 167 225 279 316 391
#     4  11  22  40  64 100 130 162 218 278 330 389
#     4  12  22  38  65  93 127 170 203 271 336 376
#     4  11  25  41  61  94 137 171 214 271 324 385
#     4  11  22  39  70  94 120 171 226 272 316 391
#     4  12  19  36  67  97 122 161 218 263 329 386
#
# _framework density 22.094594000000001
#
# number of rings (size 3 to 8) (size 9 to 14) (size 15 to 20)
#    0.000    1.000    3.750    4.500    3.500    1.000 
#    0.000    1.250    0.000    0.000    0.000    0.000 
#    0.000    0.000    0.000    0.000    0.000    0.000 
#
# Total GULP energy -89270.061172 kJ/mol
# GULP energy per Si atom -5579.378823 kJ/mol
# Density = 2.204431 g / cm^3
# Si number density = 22.094594 Si / 1000 Ang^3
#
#
#
# Elastic Constant Matrix: (Units=GPa)
#
#
# Indices 1 2 3 4 5 6 
#
# 1 100.4069 32.9942 9.6277 14.3444 -8.5099 -4.8568
# 2 32.9942 81.2139 3.4255 22.9730 3.5614 2.5291
# 3 9.6277 3.4255 46.8788 8.9315 0.3654 0.7255
# 4 14.3444 22.9730 8.9315 25.4219 1.2803 -0.5752
# 5 -8.5099 3.5614 0.3654 1.2803 48.4087 3.9828
# 6 -4.8568 2.5291 0.7255 -0.5752 3.9828 47.6410
#
#
#
# Elastic Compliance Matrix: (Units=1/GPa)
#
#
# Indices 1 2 3 4 5 6 
#
# 1 0.012164 -0.004326 -0.001757 -0.002431 0.002430 0.001264
# 2 -0.004326 0.018301 0.002426 -0.014902 -0.001608 -0.001495
# 3 -0.001757 0.002426 0.023319 -0.009392 -0.000354 -0.000747
# 4 -0.002431 -0.014902 -0.009392 0.057552 -0.000902 0.001457
# 5 0.002430 -0.001608 -0.000354 -0.000902 0.021349 -0.001457
# 6 0.001264 -0.001495 -0.000747 0.001457 -0.001457 0.021349
#
#
# Mechanical properties :
#
#
# Convention : Reuss Voigt Hill
#
# Bulk Modulus (GPa) = 21.51979 35.62160 28.57070
# Shear Modulus (GPa) = 28.27428 36.45781 32.36605
#
# Velocity S-wave (km/s) = 3.58116 4.06652 3.83153
# Velocity P-wave (km/s) = 5.18272 6.18111 5.70380
#
# Compressibility (1/GPa) = 0.04646885
#
# Stress axis : x y z
#
# Youngs Moduli (GPa) = 82.21069 54.64267 42.88334
#
# Poissons Ratio (x) = 0.23638 0.07537
# Poissons Ratio (y) = 0.35564 -0.10404
# Poissons Ratio (z) = 0.14448 -0.13257
#
# Static dielectric constant tensor:
#      x y z
#    x 1.876470 0.058320 0.006990 
#    y 0.058320 1.877940 -0.030200 
#    z 0.006990 -0.030200 1.853280 
# 
# From -- ./inp_files/259247.got.cif
#   From: 2010.05.17/outbox.cif.g08.bks.cpg/sg2_130_cif.got.tgz:259247.got - 2010.06.03 11:33:40.
