data_PCOD9016782
_publ_section_title
;
Structure prediction by ZEFSAII (Michael W. Deem and Ramdas Pophale) SiO2 
 PCOD9016782
Probable space group: P -1
;
_chemical_formula_sum "Si O2"
_cell_formula_units_Z 16
_cell_length_a 9.178752
_cell_length_b 9.310884
_cell_length_c 14.178785
_cell_angle_alpha 44.859048
_cell_angle_beta 100.090228
_cell_angle_gamma 77.805887
_cell_volume 736.846787
_symmetry_space_group_name_H-M "P -1"
_symmetry_group_IT_number 2
_symmetry_cell_setting 'triclinic'
loop_
_space_group_symop_operation_xyz
x,y,z
-x,-y,-z
loop_
_atom_site_type_symbol
_atom_site_label
_atom_site_fract_x
_atom_site_fract_y
_atom_site_fract_z
Si Si1 0.143431 0.381747 0.406723
Si Si2 0.581869 0.082245 0.056288
Si Si3 0.596660 0.710620 0.373600
Si Si4 0.780308 0.947512 0.823376
Si Si5 0.238104 0.440795 0.876817
Si Si6 0.151576 0.672228 0.554421
Si Si7 0.891439 0.824826 0.695778
Si Si8 0.043369 0.064067 0.874442
O O1 0.324379 0.309150 0.505776
O O2 0.153105 0.286540 0.346731
O O3 0.033962 0.659769 0.267781
O O4 0.036659 0.291422 0.500200
O O5 0.620087 0.902826 0.228374
O O6 0.438603 0.333909 0.957931
O O7 0.756441 0.065677 0.054172
O O8 0.500000 0.000000 0.000000
O O9 0.713200 0.473163 0.442080
O O10 0.395636 0.813004 0.300069
O O11 0.792117 0.835153 0.774684
O O12 0.939163 0.992009 0.824755
O O13 0.788476 0.772623 0.988238
O O14 0.204321 0.517967 0.727697
O O15 0.093211 0.663541 0.809030
O O16 0.145427 0.916911 0.454425
O O17 0.000000 0.000000 0.000000
#
# Coordination Sequence:
#
# PCOD9016782 Si02
#       8
#     2   2   2   2   2   2   2   2
#     4  11  23  41  66  97 134 173 223 268 334 394
#     4  11  20  40  67  96 129 167 220 269 330 385
#     4  11  23  41  71  99 129 172 223 278 327 388
#     4  11  26  43  68  98 138 172 221 274 337 389
#     4  10  21  42  69  92 130 179 216 266 331 397
#     4  11  21  40  72  96 131 170 225 275 328 393
#     4  11  24  43  68  94 137 179 217 271 331 398
#     4  12  24  40  68 104 131 170 222 277 331 386
#
# _framework density 21.71415
#
# number of rings (size 3 to 8) (size 9 to 14) (size 15 to 20)
#    0.000    1.000    2.500    6.750    1.750    2.500 
#    0.000    0.625   11.000    0.000    0.000    0.000 
#    0.000    0.000    0.000    0.000    0.000    0.000 
#
# Total GULP energy -89410.713987 kJ/mol
# GULP energy per Si atom -5588.169624 kJ/mol
# Density = 2.166473 g / cm^3
# Si number density = 21.714150 Si / 1000 Ang^3
#
#
#
# Elastic Constant Matrix: (Units=GPa)
#
#
# Indices 1 2 3 4 5 6 
#
# 1 115.2525 23.6852 25.5269 -1.2767 13.2747 -9.0500
# 2 23.6852 98.8719 19.3554 -6.0700 7.3649 -5.6177
# 3 25.5269 19.3554 81.9600 -7.9972 2.7520 10.7814
# 4 -1.2767 -6.0700 -7.9972 25.2706 -9.5168 -1.2461
# 5 13.2747 7.3649 2.7520 -9.5168 37.6288 -1.3742
# 6 -9.0500 -5.6177 10.7814 -1.2461 -1.3742 24.1921
#
#
#
# Elastic Compliance Matrix: (Units=1/GPa)
#
#
# Indices 1 2 3 4 5 6 
#
# 1 0.010552 -0.001386 -0.003694 -0.002049 -0.003518 0.004967
# 2 -0.001386 0.011288 -0.002465 0.001641 -0.001007 0.003228
# 3 -0.003694 -0.002465 0.015419 0.004212 0.001412 -0.008529
# 4 -0.002049 0.001641 0.004212 0.045623 0.011660 0.000750
# 5 -0.003518 -0.001007 0.001412 0.011660 0.030866 0.000175
# 6 0.004967 0.003228 -0.008529 0.000750 0.000175 0.047793
#
#
# Mechanical properties :
#
#
# Convention : Reuss Voigt Hill
#
# Bulk Modulus (GPa) = 45.10808 48.13549 46.62179
# Shear Modulus (GPa) = 27.17080 32.58610 29.87845
#
# Velocity S-wave (km/s) = 3.54120 3.87807 3.71346
# Velocity P-wave (km/s) = 6.12689 6.50142 6.31693
#
# Compressibility (1/GPa) = 0.02216898
#
# Stress axis : x y z
#
# Youngs Moduli (GPa) = 94.76702 88.59072 64.85396
#
# Poissons Ratio (x) = 0.12280 0.23959
# Poissons Ratio (y) = 0.13136 0.15985
# Poissons Ratio (z) = 0.35010 0.21835
#
# Static dielectric constant tensor:
#      x y z
#    x 1.831810 0.006420 0.020230 
#    y 0.006420 1.820180 0.029330 
#    z 0.020230 0.029330 1.801020 
# 
# From -- ./inp_files/494398.got.cif
#   From: 2010.05.17/outbox.cif.g08.bks.cpg/sg2_248_cif.got.tgz:494398.got - 2010.06.03 11:33:40.
