data_PCOD9016770
_publ_section_title
;
Structure prediction by ZEFSAII (Michael W. Deem and Ramdas Pophale) SiO2 
 PCOD9016770
Probable space group: P -1
;
_chemical_formula_sum "Si O2"
_cell_formula_units_Z 14
_cell_length_a 20.247907
_cell_length_b 8.139205
_cell_length_c 8.895832
_cell_angle_alpha 99.271567
_cell_angle_beta 42.588697
_cell_angle_gamma 128.318291
_cell_volume 646.829307
_symmetry_space_group_name_H-M "P -1"
_symmetry_group_IT_number 2
_symmetry_cell_setting 'triclinic'
loop_
_space_group_symop_operation_xyz
x,y,z
-x,-y,-z
loop_
_atom_site_type_symbol
_atom_site_label
_atom_site_fract_x
_atom_site_fract_y
_atom_site_fract_z
Si Si1 0.512751 0.892505 0.322741
Si Si2 0.246696 0.627536 0.210573
Si Si3 0.737715 0.913086 0.026263
Si Si4 0.019485 0.409208 0.805994
Si Si5 0.203362 0.221934 0.365219
Si Si6 0.130119 0.241810 0.110973
Si Si7 0.802788 0.636250 0.321290
O O1 0.589210 0.827399 0.256971
O O2 0.351960 0.651244 0.491787
O O3 0.500000 0.000000 0.500000
O O4 0.615337 0.097292 0.047831
O O5 0.280121 0.491099 0.215992
O O6 0.162947 0.454168 0.175120
O O7 0.142558 0.597519 0.495714
O O8 0.763192 0.896565 0.806479
O O9 0.747315 0.741793 0.057966
O O10 0.867026 0.179812 0.936633
O O11 0.086537 0.332590 0.762328
O O12 0.000000 0.500000 0.000000
O O13 0.230382 0.246648 0.501372
O O14 0.028290 0.021595 0.606701
O O15 0.125625 0.250741 0.942749
#
# Coordination Sequence:
#
# PCOD9016770 Si02
#       7
#     2   2   2   2   2   2   2
#     4  12  26  44  62  97 135 182 213 258 326 399
#     4  10  21  42  69  89 134 173 209 267 330 379
#     4  11  23  42  67  94 128 168 223 264 331 380
#     4  11  23  41  65 104 127 168 219 273 324 386
#     4  10  21  42  69  98 123 166 223 277 324 372
#     4  11  19  43  70  99 124 170 218 279 317 383
#     4  11  24  40  67  94 138 169 218 266 322 383
#
# _framework density 21.644041000000001
#
# number of rings (size 3 to 8) (size 9 to 14) (size 15 to 20)
#    0.000    1.143    5.714    2.143    0.000    5.143 
#    0.000    0.000    0.000    0.000    0.000    0.000 
#    0.000    0.000    0.000    0.000    0.000    0.000 
#
# Total GULP energy -78025.590574 kJ/mol
# GULP energy per Si atom -5573.256470 kJ/mol
# Density = 2.159478 g / cm^3
# Si number density = 21.644041 Si / 1000 Ang^3
#
#
#
# Elastic Constant Matrix: (Units=GPa)
#
#
# Indices 1 2 3 4 5 6 
#
# 1 -42.9342 0.1299 7.1383 31.2625 11.2209 -29.7405
# 2 0.1299 112.6003 41.4795 32.6412 3.6149 33.4880
# 3 7.1383 41.4795 74.6763 18.7827 21.2079 4.0342
# 4 31.2625 32.6412 18.7827 50.7028 6.5367 24.2614
# 5 11.2209 3.6149 21.2079 6.5367 38.2627 15.3701
# 6 -29.7405 33.4880 4.0342 24.2614 15.3701 17.2409
#
#
#
# Elastic Compliance Matrix: (Units=1/GPa)
#
#
# Indices 1 2 3 4 5 6 
#
# 1 0.005701 0.011027 -0.010876 0.006686 0.014929 -0.031756
# 2 0.011027 0.022141 -0.013919 -0.007024 0.012377 -0.021877
# 3 -0.010876 -0.013919 0.025820 0.000480 -0.016381 0.016161
# 4 0.006686 -0.007024 0.000480 0.017795 -0.007185 0.006428
# 5 0.014929 0.012377 -0.016381 -0.007185 0.038334 -0.018519
# 6 -0.031756 -0.021877 0.016161 0.006428 -0.018519 0.049397
#
#
# Mechanical properties :
#
#
# Convention : Reuss Voigt Hill
#
# Bulk Modulus (GPa) = 38.27477 26.87086 32.57282
# Shear Modulus (GPa) = 25.58435 27.61426 26.59930
#
# Velocity S-wave (km/s) = 3.44183 3.57576 3.50943
# Velocity P-wave (km/s) = 5.78939 5.43046 5.61280
#
# Compressibility (1/GPa) = 0.02612687
#
# Stress axis : x y z
#
# Youngs Moduli (GPa) = 175.41089 45.16581 38.72907
#
# Poissons Ratio (x) = -0.49804 0.42120
# Poissons Ratio (y) = -1.93423 0.53906
# Poissons Ratio (z) = 1.90771 0.62865
#
# Static dielectric constant tensor:
#      x y z
#    x 1.821170 -0.005080 0.039520 
#    y -0.005080 1.899630 0.063300 
#    z 0.039520 0.063300 1.826240 
# 
# From -- ./inp_files/237402.got.cif
#   From: 2010.05.17/outbox.cif.g08.bks.cpg/sg2_119_cif.got.tgz:237402.got - 2010.06.03 11:33:40.
