data_PCOD9016180
_publ_section_title
;
Structure prediction by ZEFSAII (Michael W. Deem and Ramdas Pophale) SiO2 
 PCOD9016180
Probable space group: P -1
;
_chemical_formula_sum "Si O2"
_cell_formula_units_Z 12
_cell_length_a 23.078799
_cell_length_b 28.433321
_cell_length_c 25.881246
_cell_angle_alpha 10.201546
_cell_angle_beta 10.281444
_cell_angle_gamma 9.761000
_cell_volume 451.147473
_symmetry_space_group_name_H-M "P -1"
_symmetry_group_IT_number 2
_symmetry_cell_setting 'triclinic'
loop_
_space_group_symop_operation_xyz
x,y,z
-x,-y,-z
loop_
_atom_site_type_symbol
_atom_site_label
_atom_site_fract_x
_atom_site_fract_y
_atom_site_fract_z
Si Si1 0.208345 0.890804 0.881203
Si Si2 0.297255 0.119367 0.895648
Si Si3 0.511518 0.073375 0.224762
Si Si4 0.737743 0.477215 0.132637
Si Si5 0.341381 0.293545 0.882613
Si Si6 0.174293 0.727592 0.945428
O O1 0.500000 0.000000 0.500000
O O2 0.477157 0.515222 0.060969
O O3 0.000000 0.000000 0.000000
O O4 0.867717 0.051878 0.964702
O O5 0.529817 0.290677 0.507108
O O6 0.895073 0.346154 0.972765
O O7 0.493231 0.793297 0.041931
O O8 0.330944 0.993714 0.060173
O O9 0.274927 0.989121 0.561428
O O10 0.243478 0.371481 0.101394
O O11 0.785968 0.802129 0.234758
O O12 0.122717 0.252698 0.070773
O O13 0.500000 0.500000 0.500000
O O14 0.000000 0.500000 0.000000
#
# Coordination Sequence:
#
# PCOD9016180 Si02
#       6
#     2   2   2   2   2   2
#     4  12  24  40  64  96 130 174 221 276 333 396
#     4  10  22  42  67  98 134 176 222 274 331 394
#     4  11  23  42  64  93 130 176 221 273 331 396
#     4  10  22  42  67  98 134 176 222 274 331 394
#     4  10  21  42  66  98 134 176 222 274 330 394
#     4  11  23  42  64  93 130 176 221 273 331 396
#
# _framework density 26.598842000000001
#
# number of rings (size 3 to 8) (size 9 to 14) (size 15 to 20)
#    0.000    1.333    0.000    5.500    0.000    2.667 
#    0.000   26.667    0.000    0.000    0.000    0.000 
#    0.000    0.000    0.000    0.000    0.000    0.000 
#
# Total GULP energy -67123.435420 kJ/mol
# GULP energy per Si atom -5593.619618 kJ/mol
# Density = 2.653830 g / cm^3
# Si number density = 26.598842 Si / 1000 Ang^3
#
#
#
# Elastic Constant Matrix: (Units=GPa)
#
#
# Indices 1 2 3 4 5 6 
#
# 1 179.1286 35.5222 47.0966 0.6496 -1.0261 -50.1612
# 2 35.5222 141.1549 24.9770 -4.6673 3.9192 -20.8721
# 3 47.0966 24.9770 187.8244 -1.6779 1.8285 -3.4294
# 4 0.6496 -4.6673 -1.6779 41.3351 -9.7907 1.5787
# 5 -1.0261 3.9192 1.8285 -9.7907 63.3254 8.2922
# 6 -50.1612 -20.8721 -3.4294 1.5787 8.2922 48.9897
#
#
#
# Elastic Compliance Matrix: (Units=1/GPa)
#
#
# Indices 1 2 3 4 5 6 
#
# 1 0.008621 -0.000547 -0.001928 -0.000852 -0.001037 0.008662
# 2 -0.000547 0.007828 -0.000840 0.000573 -0.000750 0.002825
# 3 -0.001928 -0.000840 0.005885 0.000285 0.000151 -0.001955
# 4 -0.000852 0.000573 0.000285 0.025344 0.004139 -0.002126
# 5 -0.001037 -0.000750 0.000151 0.004139 0.017031 -0.004387
# 6 0.008662 0.002825 -0.001955 -0.002126 -0.004387 0.031159
#
#
# Mechanical properties :
#
#
# Convention : Reuss Voigt Hill
#
# Bulk Modulus (GPa) = 63.67959 80.36662 72.02310
# Shear Modulus (GPa) = 46.41142 57.43085 51.92114
#
# Velocity S-wave (km/s) = 4.18169 4.65170 4.42295
# Velocity P-wave (km/s) = 6.87809 7.68967 7.29518
#
# Compressibility (1/GPa) = 0.01570362
#
# Stress axis : x y z
#
# Youngs Moduli (GPa) = 115.99963 127.74411 169.93219
#
# Poissons Ratio (x) = 0.06985 0.32768
# Poissons Ratio (y) = 0.06343 0.14272
# Poissons Ratio (z) = 0.22368 0.10729
#
# Static dielectric constant tensor:
#      x y z
#    x 2.190260 0.005890 -0.003380 
#    y 0.005890 2.346830 -0.060710 
#    z -0.003380 -0.060710 1.951280 
# 
# From -- ./inp_files/5480.got.cif
#   From: 2010.05.17/outbox.cif.g08.bks.cpg/sg2_3_cif.got.tgz:5480.got - 2010.06.03 11:33:40.
