data_PCOD9016684
_publ_section_title
;
Structure prediction by ZEFSAII (Michael W. Deem and Ramdas Pophale) SiO2 
 PCOD9016684
Probable space group: P -1
;
_chemical_formula_sum "Si O2"
_cell_formula_units_Z 12
_cell_length_a 15.485265
_cell_length_b 25.254323
_cell_length_c 9.103564
_cell_angle_alpha 32.537376
_cell_angle_beta 150.586757
_cell_angle_gamma 159.757773
_cell_volume 597.946020
_symmetry_space_group_name_H-M "P -1"
_symmetry_group_IT_number 2
_symmetry_cell_setting 'triclinic'
loop_
_space_group_symop_operation_xyz
x,y,z
-x,-y,-z
loop_
_atom_site_type_symbol
_atom_site_label
_atom_site_fract_x
_atom_site_fract_y
_atom_site_fract_z
Si Si1 0.115149 0.946648 0.847463
Si Si2 0.762536 0.561924 0.822491
Si Si3 0.211451 0.394763 0.896535
Si Si4 0.137606 0.596331 0.826741
Si Si5 0.639751 0.083726 0.166618
Si Si6 0.626366 0.955376 0.720370
O O1 0.000000 0.000000 0.500000
O O2 0.958880 0.781523 0.946582
O O3 0.429522 0.069190 0.967960
O O4 0.107419 0.944860 0.017778
O O5 0.500000 0.500000 0.500000
O O6 0.052033 0.742080 0.796869
O O7 0.738106 0.551443 0.986986
O O8 0.796208 0.468211 0.025070
O O9 0.049353 0.406823 0.533601
O O10 0.500000 0.500000 0.000000
O O11 0.419696 0.776460 0.855793
O O12 0.000000 0.500000 0.000000
O O13 0.655963 0.994363 0.503093
O O14 0.500000 0.000000 0.000000
O O15 0.500000 0.000000 0.500000
#
# Coordination Sequence:
#
# PCOD9016684 Si02
#       6
#     2   2   2   2   2   2
#     4  11  25  44  72 103 138 185 241 289 357 425
#     4  12  28  46  71 108 145 187 244 297 360 425
#     4  12  27  46  69 104 146 188 241 294 357 429
#     4  12  24  45  75 102 143 189 232 293 362 423
#     4  11  22  47  74  97 144 184 236 298 352 423
#     4  10  21  42  68  99 133 181 233 285 350 421
#
# _framework density 20.068701000000001
#
# number of rings (size 3 to 8) (size 9 to 14) (size 15 to 20)
#    0.000    0.667    5.000    3.500    9.333    0.000 
#    0.000    1.667    0.000    0.000    0.000    0.000 
#    0.000    0.000    0.000    0.000    0.000    0.000 
#
# Total GULP energy -67048.751092 kJ/mol
# GULP energy per Si atom -5587.395924 kJ/mol
# Density = 2.002302 g / cm^3
# Si number density = 20.068701 Si / 1000 Ang^3
#
#
#
# Elastic Constant Matrix: (Units=GPa)
#
#
# Indices 1 2 3 4 5 6 
#
# 1 143.8390 63.0063 68.7904 -6.5239 -14.9994 -17.9755
# 2 63.0063 123.2689 38.3849 -12.0929 10.2981 -13.4705
# 3 68.7904 38.3849 165.3182 2.3319 -1.5606 -20.9939
# 4 -6.5239 -12.0929 2.3319 40.0544 -0.5444 -0.3357
# 5 -14.9994 10.2981 -1.5606 -0.5444 37.8834 9.2387
# 6 -17.9755 -13.4705 -20.9939 -0.3357 9.2387 43.7462
#
#
#
# Elastic Compliance Matrix: (Units=1/GPa)
#
#
# Indices 1 2 3 4 5 6 
#
# 1 0.011596 -0.005228 -0.003535 0.000597 0.005818 0.000234
# 2 -0.005228 0.011946 -0.000358 0.002717 -0.005935 0.002633
# 3 -0.003535 -0.000358 0.007931 -0.001146 -0.001620 0.002577
# 4 0.000597 0.002717 -0.001146 0.025952 -0.000374 0.000810
# 5 0.005818 -0.005935 -0.001620 -0.000374 0.031940 -0.006963
# 6 0.000234 0.002633 0.002577 0.000810 -0.006963 0.026479
#
#
# Mechanical properties :
#
#
# Convention : Reuss Voigt Hill
#
# Bulk Modulus (GPa) = 75.58332 85.86548 80.72440
# Shear Modulus (GPa) = 36.10162 41.81978 38.96070
#
# Velocity S-wave (km/s) = 4.24595 4.56985 4.41087
# Velocity P-wave (km/s) = 7.86012 8.40972 8.13956
#
# Compressibility (1/GPa) = 0.01323043
#
# Stress axis : x y z
#
# Youngs Moduli (GPa) = 86.23627 83.70782 126.08439
#
# Poissons Ratio (x) = 0.43764 0.44571
# Poissons Ratio (y) = 0.45086 0.04518
# Poissons Ratio (z) = 0.30485 0.03000
#
# Static dielectric constant tensor:
#      x y z
#    x 1.731780 0.011410 -0.081400 
#    y 0.011410 1.660720 0.127560 
#    z -0.081400 0.127560 1.554120 
# 
# From -- ./inp_files/146614.got.cif
#   From: 2010.05.17/outbox.cif.g08.bks.cpg/sg2_74_cif.got.tgz:146614.got - 2010.06.03 11:33:40.
