data_PCOD9016931
_publ_section_title
;
Structure prediction by ZEFSAII (Michael W. Deem and Ramdas Pophale) SiO2 
 PCOD9016931
Probable space group: P -1
;
_chemical_formula_sum "Si O2"
_cell_formula_units_Z 16
_cell_length_a 7.860928
_cell_length_b 5.049863
_cell_length_c 21.703953
_cell_angle_alpha 67.773671
_cell_angle_beta 115.601623
_cell_angle_gamma 78.853201
_cell_volume 650.257855
_symmetry_space_group_name_H-M "P -1"
_symmetry_group_IT_number 2
_symmetry_cell_setting 'triclinic'
loop_
_space_group_symop_operation_xyz
x,y,z
-x,-y,-z
loop_
_atom_site_type_symbol
_atom_site_label
_atom_site_fract_x
_atom_site_fract_y
_atom_site_fract_z
Si Si1 0.998301 0.288776 0.935655
Si Si2 0.490342 0.624354 0.247122
Si Si3 0.815704 0.842273 0.158753
Si Si4 0.189290 0.209387 0.522711
Si Si5 0.417893 0.021316 0.317744
Si Si6 0.923351 0.241497 0.376856
Si Si7 0.653056 0.810177 0.911476
Si Si8 0.028759 0.861670 0.737873
O O1 0.063874 0.187900 0.884563
O O2 0.781889 0.580378 0.895524
O O3 0.191668 0.331200 0.994201
O O4 0.000000 0.000000 0.000000
O O5 0.475715 0.291805 0.273930
O O6 0.732346 0.567045 0.298839
O O7 0.383734 0.850166 0.153466
O O8 0.399882 0.798595 0.281260
O O9 0.579716 0.114622 0.107861
O O10 0.808780 0.500235 0.191463
O O11 0.944087 0.916148 0.226343
O O12 0.000000 0.500000 0.500000
O O13 0.130218 0.241418 0.438656
O O14 0.409502 0.170286 0.587050
O O15 0.172326 0.896313 0.572859
O O16 0.187126 0.172293 0.294436
O O17 0.955278 0.037458 0.338270
#
# Coordination Sequence:
#
# PCOD9016931 Si02
#       8
#     2   2   2   2   2   2   2   2
#     4  11  29  49  76 114 153 197 248 304 384 452
#     4  11  23  43  73 103 136 191 243 296 369 435
#     4  12  29  51  76 111 154 195 253 312 370 448
#     4  10  21  42  70 100 145 196 241 300 366 452
#     4  11  25  42  71 104 148 186 242 307 363 440
#     4  10  23  42  69 105 140 188 251 295 365 443
#     4  11  27  48  80 109 148 203 243 314 373 451
#     4  12  28  46  72 112 145 193 249 314 369 433
#
# _framework density 24.605623000000001
#
# number of rings (size 3 to 8) (size 9 to 14) (size 15 to 20)
#    0.000    1.000    2.500    1.875   15.750    1.000 
#    0.000    0.625    0.000    0.000    0.000    0.000 
#    0.000    0.000    0.000    0.000    0.000    0.000 
#
# Total GULP energy -89322.206657 kJ/mol
# GULP energy per Si atom -5582.637916 kJ/mol
# Density = 2.454962 g / cm^3
# Si number density = 24.605623 Si / 1000 Ang^3
#
#
#
# Elastic Constant Matrix: (Units=GPa)
#
#
# Indices 1 2 3 4 5 6 
#
# 1 89.7484 34.3225 25.7446 6.4611 9.1111 -28.6515
# 2 34.3225 109.5444 66.4410 13.9451 12.8002 -16.8074
# 3 25.7446 66.4410 107.1933 27.4371 1.6891 -18.6843
# 4 6.4611 13.9451 27.4371 53.5698 -7.0323 -2.3450
# 5 9.1111 12.8002 1.6891 -7.0323 38.0982 -1.0328
# 6 -28.6515 -16.8074 -18.6843 -2.3450 -1.0328 37.5784
#
#
#
# Elastic Compliance Matrix: (Units=1/GPa)
#
#
# Indices 1 2 3 4 5 6 
#
# 1 0.016068 -0.003066 0.000278 -0.001167 -0.002746 0.010869
# 2 -0.003066 0.016209 -0.009305 0.000370 -0.004227 0.000193
# 3 0.000278 -0.009305 0.017332 -0.006132 0.001277 0.004320
# 4 -0.001167 0.000370 -0.006132 0.022343 0.004490 -0.002255
# 5 -0.002746 -0.004227 0.001277 0.004490 0.029035 -0.002271
# 6 0.010869 0.000193 0.004320 -0.002255 -0.002271 0.036929
#
#
# Mechanical properties :
#
#
# Convention : Reuss Voigt Hill
#
# Bulk Modulus (GPa) = 39.33447 62.16694 50.75070
# Shear Modulus (GPa) = 29.31219 37.84779 33.57999
#
# Velocity S-wave (km/s) = 3.45524 3.92621 3.69823
# Velocity P-wave (km/s) = 5.65145 6.77301 6.23749
#
# Compressibility (1/GPa) = 0.02542300
#
# Stress axis : x y z
#
# Youngs Moduli (GPa) = 62.23653 61.69234 57.69642
#
# Poissons Ratio (x) = 0.18913 -0.01602
# Poissons Ratio (y) = 0.19080 0.53687
# Poissons Ratio (z) = -0.01729 0.57405
#
# Static dielectric constant tensor:
#      x y z
#    x 2.054860 -0.058170 0.023810 
#    y -0.058170 2.045510 -0.003430 
#    z 0.023810 -0.003430 2.021100 
# 
# From -- ./inp_files/585223.got.cif
#   From: 2010.05.17/outbox.cif.g08.bks.cpg/sg2_293_cif.got.tgz:585223.got - 2010.06.03 11:33:40.
