data_PCOD9016079
_publ_section_title
;
Structure prediction by ZEFSAII (Michael W. Deem and Ramdas Pophale) SiO2 
 PCOD9016079
Probable space group: P -1
;
_chemical_formula_sum "Si O2"
_cell_formula_units_Z 14
_cell_length_a 6.832148
_cell_length_b 9.001856
_cell_length_c 25.563160
_cell_angle_alpha 28.927487
_cell_angle_beta 54.797477
_cell_angle_gamma 50.313925
_cell_volume 584.571589
_symmetry_space_group_name_H-M "P -1"
_symmetry_group_IT_number 2
_symmetry_cell_setting 'triclinic'
loop_
_space_group_symop_operation_xyz
x,y,z
-x,-y,-z
loop_
_atom_site_type_symbol
_atom_site_label
_atom_site_fract_x
_atom_site_fract_y
_atom_site_fract_z
Si Si1 0.686801 0.202812 0.528574
Si Si2 0.438291 0.922881 0.091648
Si Si3 0.161084 0.099861 0.293235
Si Si4 0.603884 0.251339 0.325467
Si Si5 0.331837 0.403144 0.684089
Si Si6 0.304856 0.625500 0.057539
Si Si7 0.864177 0.176330 0.089342
O O1 0.500000 0.500000 0.500000
O O2 0.803388 0.367044 0.414874
O O3 0.839689 0.976232 0.621696
O O4 0.535694 0.008766 0.579723
O O5 0.482766 0.551427 0.212408
O O6 0.140930 0.121695 0.087263
O O7 0.500000 0.000000 0.000000
O O8 0.653639 0.028301 0.054924
O O9 0.173236 0.459905 0.169879
O O10 0.898617 0.084827 0.316059
O O11 0.400484 0.843107 0.305487
O O12 0.602024 0.407271 0.335357
O O13 0.172801 0.175624 0.796444
O O14 0.601085 0.398178 0.087653
O O15 0.164630 0.646152 0.017456
#
# Coordination Sequence:
#
# PCOD9016079 Si02
#       7
#     2   2   2   2   2   2   2
#     4  10  24  47  68  99 132 175 229 274 338 397
#     4  12  25  38  64 101 134 172 220 268 329 401
#     4  10  24  45  69  97 138 176 222 276 332 395
#     4  12  25  43  69 101 133 175 227 275 337 392
#     4  10  23  46  67  98 133 176 226 279 329 395
#     4  10  21  42  66  94 132 175 213 268 326 388
#     4  10  22  42  64  94 132 172 219 267 326 392
#
# _framework density 23.949159999999999
#
# number of rings (size 3 to 8) (size 9 to 14) (size 15 to 20)
#    0.000    1.429    1.429    2.571    4.000    4.000 
#   12.857    0.000    0.000    0.000    0.000    0.000 
#    0.000    0.000    0.000    0.000    0.000    0.000 
#
# Total GULP energy -78194.988187 kJ/mol
# GULP energy per Si atom -5585.356299 kJ/mol
# Density = 2.389465 g / cm^3
# Si number density = 23.949160 Si / 1000 Ang^3
#
#
#
# Elastic Constant Matrix: (Units=GPa)
#
#
# Indices 1 2 3 4 5 6 
#
# 1 73.3907 7.9228 21.2429 -6.8584 12.0512 -3.9311
# 2 7.9228 82.0357 24.4427 2.6824 7.6990 0.0804
# 3 21.2429 24.4427 132.6659 3.5792 14.9253 9.0637
# 4 -6.8584 2.6824 3.5792 27.4901 14.7805 1.8334
# 5 12.0512 7.6990 14.9253 14.7805 29.5852 -8.7985
# 6 -3.9311 0.0804 9.0637 1.8334 -8.7985 38.2161
#
#
#
# Elastic Compliance Matrix: (Units=1/GPa)
#
#
# Indices 1 2 3 4 5 6 
#
# 1 0.017022 -0.000432 -0.001530 0.010937 -0.011852 -0.001139
# 2 -0.000432 0.013059 -0.002078 0.000111 -0.002260 -0.000105
# 3 -0.001530 -0.002078 0.008958 0.001736 -0.005286 -0.003578
# 4 0.010937 0.000111 0.001736 0.060538 -0.038920 -0.011152
# 5 -0.011852 -0.002260 -0.005286 -0.038920 0.066444 0.017204
# 6 -0.001139 -0.000105 -0.003578 -0.011152 0.017204 0.031395
#
#
# Mechanical properties :
#
#
# Convention : Reuss Voigt Hill
#
# Bulk Modulus (GPa) = 32.30131 43.92324 38.11228
# Shear Modulus (GPa) = 23.16769 34.69055 28.92912
#
# Velocity S-wave (km/s) = 3.11363 3.81006 3.47931
# Velocity P-wave (km/s) = 5.14228 6.14291 5.66473
#
# Compressibility (1/GPa) = 0.03095849
#
# Stress axis : x y z
#
# Youngs Moduli (GPa) = 58.74602 76.57297 111.63239
#
# Poissons Ratio (x) = 0.03311 0.17079
# Poissons Ratio (y) = 0.02540 0.23202
# Poissons Ratio (z) = 0.08988 0.15915
#
# Static dielectric constant tensor:
#      x y z
#    x 2.311170 0.287850 0.126070 
#    y 0.287850 2.188190 -0.015450 
#    z 0.126070 -0.015450 1.942020 
# 
# From -- ./inp_files/525699.got.cif
#   From: 2010.05.17/outbox.cif.g08.bks.cpg/sg2_263_cif.got.tgz:525699.got - 2010.06.03 11:33:40.
