data_PCOD9016514
_publ_section_title
;
Structure prediction by ZEFSAII (Michael W. Deem and Ramdas Pophale) SiO2 
 PCOD9016514
Probable space group: P -1
;
_chemical_formula_sum "Si O2"
_cell_formula_units_Z 16
_cell_length_a 11.674858
_cell_length_b 11.438172
_cell_length_c 13.042041
_cell_angle_alpha 67.028410
_cell_angle_beta 32.305263
_cell_angle_gamma 88.441470
_cell_volume 675.661177
_symmetry_space_group_name_H-M "P -1"
_symmetry_group_IT_number 2
_symmetry_cell_setting 'triclinic'
loop_
_space_group_symop_operation_xyz
x,y,z
-x,-y,-z
loop_
_atom_site_type_symbol
_atom_site_label
_atom_site_fract_x
_atom_site_fract_y
_atom_site_fract_z
Si Si1 0.972958 0.644275 0.953735
Si Si2 0.768575 0.808800 0.431357
Si Si3 0.812946 0.238441 0.906764
Si Si4 0.226548 0.618497 0.512628
Si Si5 0.659788 0.523063 0.039725
Si Si6 0.323970 0.641445 0.207437
Si Si7 0.386132 0.980959 0.480573
Si Si8 0.335272 0.309116 0.686153
O O1 0.220952 0.792919 0.651978
O O2 0.000000 0.500000 0.000000
O O3 0.718552 0.577723 0.095432
O O4 0.938315 0.729030 0.045541
O O5 0.522268 0.667999 0.737495
O O6 0.808197 0.967623 0.378310
O O7 0.703899 0.766957 0.371201
O O8 0.024637 0.813698 0.255196
O O9 0.633625 0.251327 0.956705
O O10 0.061289 0.421218 0.696418
O O11 0.619317 0.103405 0.182801
O O12 0.363016 0.703813 0.272017
O O13 0.473000 0.701776 0.378886
O O14 0.954360 0.603486 0.741830
O O15 0.492406 0.572652 0.095444
O O16 0.000000 0.500000 0.500000
O O17 0.500000 0.000000 0.500000
O O18 0.500000 0.500000 0.500000
#
# Coordination Sequence:
#
# PCOD9016514 Si02
#       8
#     2   2   2   2   2   2   2   2
#     4  12  26  45  71 102 139 186 236 288 349 431
#     4  12  24  43  68 106 144 184 227 292 353 417
#     4  11  23  44  69 101 145 183 234 291 350 408
#     4  11  22  37  68 104 137 184 233 288 337 403
#     4  12  22  39  72 104 136 183 241 284 343 408
#     4  10  21  42  68 107 138 179 245 291 333 407
#     4  12  29  44  66 104 148 183 226 288 360 423
#     4  12  21  39  70  99 145 183 229 286 345 416
#
# _framework density 23.680509000000001
#
# number of rings (size 3 to 8) (size 9 to 14) (size 15 to 20)
#    0.000    0.500    7.500    2.250    1.750    5.000 
#    0.000    0.625    0.000    1.500    0.000    0.000 
#    0.000    0.000    0.000    0.000    0.000    0.000 
#
# Total GULP energy -89259.437371 kJ/mol
# GULP energy per Si atom -5578.714836 kJ/mol
# Density = 2.362661 g / cm^3
# Si number density = 23.680509 Si / 1000 Ang^3
#
#
#
# Elastic Constant Matrix: (Units=GPa)
#
#
# Indices 1 2 3 4 5 6 
#
# 1 136.2445 27.7016 36.7879 0.8232 5.5090 -27.2692
# 2 27.7016 98.2094 38.8722 19.4069 -5.8422 -14.6747
# 3 36.7879 38.8722 100.1162 0.1298 19.1214 -10.2566
# 4 0.8232 19.4069 0.1298 43.6327 -7.6297 3.6616
# 5 5.5090 -5.8422 19.1214 -7.6297 40.1816 11.2414
# 6 -27.2692 -14.6747 -10.2566 3.6616 11.2414 32.2062
#
#
#
# Elastic Compliance Matrix: (Units=1/GPa)
#
#
# Indices 1 2 3 4 5 6 
#
# 1 0.009860 -0.000720 -0.001832 -0.001156 -0.003237 0.008698
# 2 -0.000720 0.014554 -0.005410 -0.006374 0.002409 0.004183
# 3 -0.001832 -0.005410 0.014732 0.000628 -0.008418 0.003542
# 4 -0.001156 -0.006374 0.000628 0.027730 0.006772 -0.009200
# 5 -0.003237 0.002409 -0.008418 0.006772 0.035904 -0.017626
# 6 0.008698 0.004183 0.003542 -0.009200 -0.017626 0.048647
#
#
# Mechanical properties :
#
#
# Convention : Reuss Voigt Hill
#
# Bulk Modulus (GPa) = 43.06371 60.14374 51.60372
# Shear Modulus (GPa) = 28.55646 38.61800 33.58723
#
# Velocity S-wave (km/s) = 3.47638 4.04269 3.77018
# Velocity P-wave (km/s) = 5.85990 6.87344 6.38681
#
# Compressibility (1/GPa) = 0.02322141
#
# Stress axis : x y z
#
# Youngs Moduli (GPa) = 101.42236 68.70735 67.88002
#
# Poissons Ratio (x) = 0.04949 0.12438
# Poissons Ratio (y) = 0.07305 0.36721
# Poissons Ratio (z) = 0.18585 0.37169
#
# Static dielectric constant tensor:
#      x y z
#    x 2.083770 0.429070 -0.200440 
#    y 0.429070 3.198190 -0.713490 
#    z -0.200440 -0.713490 3.039010 
# 
# From -- ./inp_files/519565.got.cif
#   From: 2010.05.17/outbox.cif.g08.bks.cpg/sg2_260_cif.got.tgz:519565.got - 2010.06.03 11:33:40.
