data_PCOD9016156
_publ_section_title
;
Structure prediction by ZEFSAII (Michael W. Deem and Ramdas Pophale) SiO2 
 PCOD9016156
Probable space group: P -1
;
_chemical_formula_sum "Si O2"
_cell_formula_units_Z 15
_cell_length_a 12.323755
_cell_length_b 8.691093
_cell_length_c 11.703627
_cell_angle_alpha 107.553078
_cell_angle_beta 42.582232
_cell_angle_gamma 83.315655
_cell_volume 688.478859
_symmetry_space_group_name_H-M "P -1"
_symmetry_group_IT_number 2
_symmetry_cell_setting 'triclinic'
loop_
_space_group_symop_operation_xyz
x,y,z
-x,-y,-z
loop_
_atom_site_type_symbol
_atom_site_label
_atom_site_fract_x
_atom_site_fract_y
_atom_site_fract_z
Si Si1 0.500000 0.000000 0.000000
Si Si2 0.495636 0.619554 0.921716
Si Si3 0.143718 0.777415 0.062424
Si Si4 0.794190 0.536287 0.193299
Si Si5 0.434745 0.117899 0.693855
Si Si6 0.779231 0.798685 0.453899
Si Si7 0.828412 0.871371 0.913400
Si Si8 0.131735 0.482863 0.497169
O O1 0.483744 0.815082 0.005312
O O2 0.673705 0.930682 0.946527
O O3 0.694501 0.502033 0.674705
O O4 0.500000 0.500000 0.000000
O O5 0.322630 0.675160 0.984257
O O6 0.973541 0.772144 0.254876
O O7 0.094470 0.988742 0.126227
O O8 0.189105 0.662731 0.881884
O O9 0.656522 0.668480 0.228310
O O10 0.733984 0.660976 0.382894
O O11 0.000000 0.500000 0.000000
O O12 0.500000 0.000000 0.500000
O O13 0.618006 0.014666 0.607452
O O14 0.277520 0.100238 0.878631
O O15 0.784582 0.726974 0.561201
O O16 0.993999 0.652368 0.725703
O O17 0.000000 0.500000 0.500000
#
# Coordination Sequence:
#
# PCOD9016156 Si02
#       8
#     1   2   2   2   2   2   2   2
#     4  10  22  42  66  96 136 184 218 292 346 404
#     4  11  24  43  65  99 136 177 239 287 347 415
#     4  10  22  40  63 102 132 174 228 287 338 412
#     4   9  19  39  66  93 130 176 220 269 346 402
#     4  10  22  41  69  97 131 185 223 276 350 407
#     4  10  21  42  66  97 134 178 225 281 343 417
#     4  11  23  42  65  96 139 172 231 282 342 412
#     4  12  24  44  69  98 133 190 225 281 356 410
#
# _framework density 21.787161999999999
#
# number of rings (size 3 to 8) (size 9 to 14) (size 15 to 20)
#    0.000    1.600    1.333    4.000    1.867    1.067 
#    2.400   18.667    0.000    0.000    0.000    0.000 
#    0.000    0.000    0.000    0.000    0.000    0.000 
#
# Total GULP energy -83548.435861 kJ/mol
# GULP energy per Si atom -5569.895724 kJ/mol
# Density = 2.173757 g / cm^3
# Si number density = 21.787162 Si / 1000 Ang^3
#
#
#
# Elastic Constant Matrix: (Units=GPa)
#
#
# Indices 1 2 3 4 5 6 
#
# 1 72.8414 38.2485 17.5351 3.6657 -9.7065 1.6308
# 2 38.2485 100.4604 16.4736 -0.8474 -4.0808 2.1070
# 3 17.5351 16.4736 101.2673 -15.5833 -13.3448 -6.7737
# 4 3.6657 -0.8474 -15.5833 35.4746 -7.4114 -2.2819
# 5 -9.7065 -4.0808 -13.3448 -7.4114 31.5301 5.0164
# 6 1.6308 2.1070 -6.7737 -2.2819 5.0164 46.1662
#
#
#
# Elastic Compliance Matrix: (Units=1/GPa)
#
#
# Indices 1 2 3 4 5 6 
#
# 1 0.018227 -0.006452 -0.002066 -0.002278 0.003549 -0.001151
# 2 -0.006452 0.012557 -0.000975 0.000383 -0.000620 -0.000402
# 3 -0.002066 -0.000975 0.012335 0.006932 0.005827 0.001637
# 4 -0.002278 0.000383 0.006932 0.033660 0.009929 0.001665
# 5 0.003549 -0.000620 0.005827 0.009929 0.037986 -0.002879
# 6 -0.001151 -0.000402 0.001637 0.001665 -0.002879 0.022355
#
#
# Mechanical properties :
#
#
# Convention : Reuss Voigt Hill
#
# Bulk Modulus (GPa) = 41.43734 46.56485 44.00110
# Shear Modulus (GPa) = 30.45961 36.12164 33.29063
#
# Velocity S-wave (km/s) = 3.74311 4.07619 3.91320
# Velocity P-wave (km/s) = 6.14342 6.60097 6.37630
#
# Compressibility (1/GPa) = 0.02413282
#
# Stress axis : x y z
#
# Youngs Moduli (GPa) = 54.86374 79.63740 81.06776
#
# Poissons Ratio (x) = 0.51379 0.16752
# Poissons Ratio (y) = 0.35396 0.07905
# Poissons Ratio (z) = 0.11337 0.07766
#
# Static dielectric constant tensor:
#      x y z
#    x 1.874670 -0.050730 0.164870 
#    y -0.050730 1.779360 -0.006800 
#    z 0.164870 -0.006800 2.075080 
# 
# From -- ./inp_files/417737.got.cif
#   From: 2010.05.17/outbox.cif.g08.bks.cpg/sg2_209_cif.got.tgz:417737.got - 2010.06.03 11:33:40.
