data_PCOD9016598
_publ_section_title
;
Structure prediction by ZEFSAII (Michael W. Deem and Ramdas Pophale) SiO2 
 PCOD9016598
Probable space group: P -1
;
_chemical_formula_sum "Si O2"
_cell_formula_units_Z 16
_cell_length_a 10.190287
_cell_length_b 9.655106
_cell_length_c 11.494860
_cell_angle_alpha 52.264609
_cell_angle_beta 50.836064
_cell_angle_gamma 57.376385
_cell_volume 671.657336
_symmetry_space_group_name_H-M "P -1"
_symmetry_group_IT_number 2
_symmetry_cell_setting 'triclinic'
loop_
_space_group_symop_operation_xyz
x,y,z
-x,-y,-z
loop_
_atom_site_type_symbol
_atom_site_label
_atom_site_fract_x
_atom_site_fract_y
_atom_site_fract_z
Si Si1 0.773178 0.843652 0.518871
Si Si2 0.635670 0.194746 0.915562
Si Si3 0.581890 0.576886 0.685033
Si Si4 0.972546 0.986303 0.158294
Si Si5 0.047441 0.346367 0.956270
Si Si6 0.899728 0.429398 0.400646
Si Si7 0.669956 0.250827 0.452693
Si Si8 0.444040 0.147553 0.813589
O O1 0.615145 0.749106 0.644387
O O2 0.827201 0.892630 0.333521
O O3 0.934458 0.703325 0.562323
O O4 0.737289 0.037165 0.501462
O O5 0.574423 0.408032 0.856969
O O6 0.843525 0.131478 0.836806
O O7 0.575851 0.153999 0.840832
O O8 0.557460 0.059027 0.107633
O O9 0.753087 0.508429 0.540076
O O10 0.409512 0.632795 0.674291
O O11 0.943931 0.192208 0.111705
O O12 0.000000 0.000000 0.000000
O O13 0.034944 0.426233 0.791128
O O14 0.249381 0.241657 0.913343
O O15 0.000000 0.500000 0.000000
O O16 0.808267 0.324077 0.412082
O O17 0.498708 0.259795 0.622623
#
# Coordination Sequence:
#
# PCOD9016598 Si02
#       8
#     2   2   2   2   2   2   2   2
#     4  12  27  42  67 102 139 169 223 281 331 391
#     4  10  22  39  69  93 127 171 222 266 324 398
#     4  12  23  43  67 100 131 174 223 271 331 396
#     4  11  24  43  65  93 135 178 213 262 338 395
#     4  11  24  41  68  99 129 168 223 275 320 386
#     4  12  23  43  73  98 131 175 230 270 324 397
#     4  12  24  44  69  98 132 177 220 274 333 393
#     4  10  21  42  68  95 130 172 216 271 335 387
#
# _framework density 23.821669
#
# number of rings (size 3 to 8) (size 9 to 14) (size 15 to 20)
#    0.000    0.750    3.750    3.750    3.500    3.000 
#    0.000    0.625    0.000    0.000    0.000    0.000 
#    0.000    0.000    0.000    0.000    0.000    0.000 
#
# Total GULP energy -89590.763675 kJ/mol
# GULP energy per Si atom -5599.422730 kJ/mol
# Density = 2.376745 g / cm^3
# Si number density = 23.821669 Si / 1000 Ang^3
#
#
#
# Elastic Constant Matrix: (Units=GPa)
#
#
# Indices 1 2 3 4 5 6 
#
# 1 43.8487 36.3343 26.4047 -9.2160 5.7881 -2.6467
# 2 36.3343 83.8746 17.3572 -18.2441 12.8701 8.7551
# 3 26.4047 17.3572 87.4064 -33.7445 -2.9627 -1.3792
# 4 -9.2160 -18.2441 -33.7445 45.3848 2.1989 -7.1235
# 5 5.7881 12.8701 -2.9627 2.1989 25.8086 -15.1944
# 6 -2.6467 8.7551 -1.3792 -7.1235 -15.1944 34.7405
#
#
#
# Elastic Compliance Matrix: (Units=1/GPa)
#
#
# Indices 1 2 3 4 5 6 
#
# 1 0.045208 -0.020043 -0.011980 -0.006659 0.003995 0.008402
# 2 -0.020043 0.025471 0.002931 0.007012 -0.016472 -0.013596
# 3 -0.011980 0.002931 0.020173 0.014163 0.004772 0.004141
# 4 -0.006659 0.007012 0.014163 0.034881 -0.000197 0.005354
# 5 0.003995 -0.016472 0.004772 -0.000197 0.066451 0.033668
# 6 0.008402 -0.013596 0.004141 0.005354 0.033668 0.048839
#
#
# Mechanical properties :
#
#
# Convention : Reuss Voigt Hill
#
# Bulk Modulus (GPa) = 30.61084 41.70246 36.15665
# Shear Modulus (GPa) = 16.12405 30.18901 23.15653
#
# Velocity S-wave (km/s) = 2.60449 3.56377 3.12120
# Velocity P-wave (km/s) = 4.68213 5.87180 5.31038
#
# Compressibility (1/GPa) = 0.03266817
#
# Stress axis : x y z
#
# Youngs Moduli (GPa) = 22.11979 39.26076 49.57216
#
# Poissons Ratio (x) = 0.78692 0.59386
# Poissons Ratio (y) = 0.44336 -0.14531
# Poissons Ratio (z) = 0.26499 -0.11508
#
# Static dielectric constant tensor:
#      x y z
#    x 1.847340 0.032100 0.018450 
#    y 0.032100 1.955420 -0.000610 
#    z 0.018450 -0.000610 1.934800 
# 
# From -- ./inp_files/418820.got.cif
#   From: 2010.05.17/outbox.cif.g08.bks.cpg/sg2_210_cif.got.tgz:418820.got - 2010.06.03 11:33:40.
