data_PCOD9016549
_publ_section_title
;
Structure prediction by ZEFSAII (Michael W. Deem and Ramdas Pophale) SiO2 
 PCOD9016549
Probable space group: P -1
;
_chemical_formula_sum "Si O2"
_cell_formula_units_Z 14
_cell_length_a 15.159728
_cell_length_b 9.441331
_cell_length_c 9.217045
_cell_angle_alpha 109.503483
_cell_angle_beta 143.511328
_cell_angle_gamma 75.752088
_cell_volume 738.892267
_symmetry_space_group_name_H-M "P -1"
_symmetry_group_IT_number 2
_symmetry_cell_setting 'triclinic'
loop_
_space_group_symop_operation_xyz
x,y,z
-x,-y,-z
loop_
_atom_site_type_symbol
_atom_site_label
_atom_site_fract_x
_atom_site_fract_y
_atom_site_fract_z
Si Si1 0.076502 0.657723 0.203761
Si Si2 0.918531 0.145242 0.001960
Si Si3 0.890380 0.861443 0.244771
Si Si4 0.351799 0.965897 0.195647
Si Si5 0.180795 0.276253 0.590322
Si Si6 0.676384 0.480406 0.327824
Si Si7 0.461861 0.251123 0.811456
O O1 0.217468 0.608381 0.461880
O O2 0.978909 0.761525 0.213541
O O3 0.113995 0.751378 0.141848
O O4 0.000000 0.500000 0.000000
O O5 0.033862 0.230150 0.291785
O O6 0.771121 0.100593 0.879201
O O7 0.000000 0.000000 0.000000
O O8 0.843805 0.759825 0.287258
O O9 0.744594 0.918902 0.987608
O O10 0.000000 0.000000 0.500000
O O11 0.500000 0.000000 0.500000
O O12 0.417105 0.851458 0.127682
O O13 0.233746 0.444965 0.666301
O O14 0.317556 0.179295 0.676155
O O15 0.610549 0.633198 0.359540
O O16 0.545333 0.365097 0.070515
#
# Coordination Sequence:
#
# PCOD9016549 Si02
#       7
#     2   2   2   2   2   2   2
#     4  12  24  41  70 101 135 175 226 283 331 397
#     4  12  23  43  66  97 135 181 219 275 339 399
#     4  12  25  42  68 102 131 179 233 274 329 405
#     4  12  26  41  67  97 138 173 222 282 333 396
#     4  10  21  42  68  92 130 174 222 272 327 403
#     4   9  21  41  67  92 135 166 216 273 339 394
#     4   9  21  43  65  93 135 168 213 278 340 395
#
# _framework density 18.947281
#
# number of rings (size 3 to 8) (size 9 to 14) (size 15 to 20)
#    0.857    0.286    4.286    1.714    2.000    3.429 
#    0.000    0.714    0.000    0.000    0.000    0.000 
#    0.000    0.000    0.000    0.000    0.000    0.000 
#
# Total GULP energy -77959.834012 kJ/mol
# GULP energy per Si atom -5568.559572 kJ/mol
# Density = 1.890416 g / cm^3
# Si number density = 18.947281 Si / 1000 Ang^3
#
#
#
# Elastic Constant Matrix: (Units=GPa)
#
#
# Indices 1 2 3 4 5 6 
#
# 1 119.6342 19.6807 53.7634 -19.4070 1.3041 17.7228
# 2 19.6807 56.2363 42.4866 -30.4273 -8.1618 5.8966
# 3 53.7634 42.4866 136.7976 -26.3496 12.9408 11.0810
# 4 -19.4070 -30.4273 -26.3496 44.6644 6.8875 -4.2189
# 5 1.3041 -8.1618 12.9408 6.8875 34.1469 -5.9433
# 6 17.7228 5.8966 11.0810 -4.2189 -5.9433 44.8406
#
#
#
# Elastic Compliance Matrix: (Units=1/GPa)
#
#
# Indices 1 2 3 4 5 6 
#
# 1 0.010818 0.000903 -0.003746 0.002788 0.000104 -0.003192
# 2 0.000903 0.034574 -0.008397 0.017777 0.007805 -0.000121
# 3 -0.003746 -0.008397 0.012318 0.000865 -0.006932 -0.001296
# 4 0.002788 0.017777 0.000865 0.036729 -0.003714 -0.000690
# 5 0.000104 0.007805 -0.006932 -0.003714 0.035391 0.004987
# 6 -0.003192 -0.000121 -0.001296 -0.000690 0.004987 0.024495
#
#
# Mechanical properties :
#
#
# Convention : Reuss Voigt Hill
#
# Bulk Modulus (GPa) = 28.38646 60.50327 44.44486
# Shear Modulus (GPa) = 26.51831 37.84621 32.18226
#
# Velocity S-wave (km/s) = 3.74516 4.47413 4.12578
# Velocity P-wave (km/s) = 5.80654 7.66108 6.79736
#
# Compressibility (1/GPa) = 0.03522807
#
# Stress axis : x y z
#
# Youngs Moduli (GPa) = 92.43942 28.92343 81.18320
#
# Poissons Ratio (x) = -0.02611 0.30413
# Poissons Ratio (y) = -0.08343 0.68171
# Poissons Ratio (z) = 0.34630 0.24287
#
# Static dielectric constant tensor:
#      x y z
#    x 1.577860 -0.325320 1.107130 
#    y -0.325320 0.315190 4.973230 
#    z 1.107130 4.973230 -16.244780 
# 
# From -- ./inp_files/299371.got.cif
#   From: 2010.05.17/outbox.cif.g08.bks.cpg/sg2_150_cif.got.tgz:299371.got - 2010.06.03 11:33:40.
