data_PCOD9016144
_publ_section_title
;
Structure prediction by ZEFSAII (Michael W. Deem and Ramdas Pophale) SiO2 
 PCOD9016144
Probable space group: P -1
;
_chemical_formula_sum "Si O2"
_cell_formula_units_Z 14
_cell_length_a 14.276131
_cell_length_b 8.029329
_cell_length_c 11.451996
_cell_angle_alpha 54.278491
_cell_angle_beta 148.897216
_cell_angle_gamma 125.952867
_cell_volume 538.505187
_symmetry_space_group_name_H-M "P -1"
_symmetry_group_IT_number 2
_symmetry_cell_setting 'triclinic'
loop_
_space_group_symop_operation_xyz
x,y,z
-x,-y,-z
loop_
_atom_site_type_symbol
_atom_site_label
_atom_site_fract_x
_atom_site_fract_y
_atom_site_fract_z
Si Si1 0.076271 0.163616 0.227234
Si Si2 0.823976 0.432103 0.988917
Si Si3 0.417684 0.257859 0.685808
Si Si4 0.393126 0.281124 0.913374
Si Si5 0.067932 0.489426 0.446112
Si Si6 0.361930 0.692833 0.504796
Si Si7 0.709035 0.933829 0.881106
O O1 0.141827 0.335237 0.125751
O O2 0.249685 0.104174 0.504659
O O3 0.945664 0.283899 0.116561
O O4 0.929323 0.959418 0.109328
O O5 0.609364 0.325880 0.796335
O O6 0.897615 0.448780 0.192792
O O7 0.462427 0.226873 0.882829
O O8 0.328438 0.466212 0.505263
O O9 0.185012 0.306370 0.651923
O O10 0.500000 0.500000 0.000000
O O11 0.374610 0.104445 0.063050
O O12 0.224112 0.672439 0.476769
O O13 0.000000 0.500000 0.500000
O O14 0.577182 0.745536 0.748870
O O15 0.324290 0.863813 0.305500
#
# Coordination Sequence:
#
# PCOD9016144 Si02
#       7
#     2   2   2   2   2   2   2
#     4  11  22  42  65  97 133 170 214 265 326 384
#     4  11  22  41  70  94 129 176 215 264 316 396
#     4  11  22  42  70  94 125 174 226 255 322 395
#     4  11  21  41  65  91 126 174 213 265 329 382
#     4  11  21  39  67  97 124 169 223 262 315 388
#     4  10  21  42  66  97 128 172 216 266 323 382
#     4  11  22  39  67  93 134 170 209 276 328 373
#
# _framework density 25.997893999999999
#
# number of rings (size 3 to 8) (size 9 to 14) (size 15 to 20)
#    0.000    1.143    7.143    2.143    0.000    0.571 
#    0.000    6.429    0.000    0.000    0.000    0.000 
#    0.000    0.000    0.000    0.000    0.000    0.000 
#
# Total GULP energy -78350.711949 kJ/mol
# GULP energy per Si atom -5596.479425 kJ/mol
# Density = 2.593872 g / cm^3
# Si number density = 25.997894 Si / 1000 Ang^3
#
#
#
# Elastic Constant Matrix: (Units=GPa)
#
#
# Indices 1 2 3 4 5 6 
#
# 1 111.3284 38.8623 47.0239 1.8862 2.9066 38.1658
# 2 38.8623 100.4193 40.0860 4.0284 -4.5841 26.4616
# 3 47.0239 40.0860 174.1397 46.7571 -9.4940 24.6338
# 4 1.8862 4.0284 46.7571 59.6217 14.9842 -5.9847
# 5 2.9066 -4.5841 -9.4940 14.9842 45.6540 -1.9392
# 6 38.1658 26.4616 24.6338 -5.9847 -1.9392 40.6570
#
#
#
# Elastic Compliance Matrix: (Units=1/GPa)
#
#
# Indices 1 2 3 4 5 6 
#
# 1 0.014386 -0.001948 -0.002305 0.000997 -0.002377 -0.010807
# 2 -0.001948 0.012853 -0.001430 -0.000520 0.001046 -0.005697
# 3 -0.002305 -0.001430 0.010085 -0.009418 0.005015 -0.004163
# 4 0.000997 -0.000520 -0.009418 0.027750 -0.010814 0.008678
# 5 -0.002377 0.001046 0.005015 -0.010814 0.026675 -0.001807
# 6 -0.010807 -0.005697 -0.004163 0.008678 -0.001807 0.042162
#
#
# Mechanical properties :
#
#
# Convention : Reuss Voigt Hill
#
# Bulk Modulus (GPa) = 38.52397 70.87020 54.69708
# Shear Modulus (GPa) = 32.48229 46.51423 39.49826
#
# Velocity S-wave (km/s) = 3.53855 4.23443 3.90203
# Velocity P-wave (km/s) = 5.61653 7.15726 6.43318
#
# Compressibility (1/GPa) = 0.02595787
#
# Stress axis : x y z
#
# Youngs Moduli (GPa) = 69.51230 77.80427 99.15654
#
# Poissons Ratio (x) = 0.15157 0.22853
# Poissons Ratio (y) = 0.13542 0.14181
# Poissons Ratio (z) = 0.16020 0.11127
#
# Static dielectric constant tensor:
#      x y z
#    x 2.065880 -0.025240 -0.029560 
#    y -0.025240 2.036070 0.023310 
#    z -0.029560 0.023310 2.037570 
# 
# From -- ./inp_files/417203.got.cif
#   From: 2010.05.17/outbox.cif.g08.bks.cpg/sg2_209_cif.got.tgz:417203.got - 2010.06.03 11:33:40.
