data_PCOD9016995
_publ_section_title
;
Structure prediction by ZEFSAII (Michael W. Deem and Ramdas Pophale) SiO2 
 PCOD9016995
Probable space group: P -1
;
_chemical_formula_sum "Si O2"
_cell_formula_units_Z 14
_cell_length_a 13.723146
_cell_length_b 7.356775
_cell_length_c 8.612449
_cell_angle_alpha 59.605352
_cell_angle_beta 99.695802
_cell_angle_gamma 66.905338
_cell_volume 611.706319
_symmetry_space_group_name_H-M "P -1"
_symmetry_group_IT_number 2
_symmetry_cell_setting 'triclinic'
loop_
_space_group_symop_operation_xyz
x,y,z
-x,-y,-z
loop_
_atom_site_type_symbol
_atom_site_label
_atom_site_fract_x
_atom_site_fract_y
_atom_site_fract_z
Si Si1 0.621694 0.836723 0.007596
Si Si2 0.315751 0.755037 0.107219
Si Si3 0.887285 0.245984 0.788571
Si Si4 0.762986 0.998783 0.339416
Si Si5 0.943849 0.620038 0.764993
Si Si6 0.146406 0.499399 0.628839
Si Si7 0.499012 0.205198 0.302652
O O1 0.586470 0.765010 0.872591
O O2 0.666865 0.024348 0.930722
O O3 0.727380 0.583812 0.229683
O O4 0.500000 0.000000 0.000000
O O5 0.229605 0.746439 0.209699
O O6 0.439592 0.480067 0.247093
O O7 0.255956 0.819362 0.889761
O O8 0.876422 0.483057 0.767762
O O9 0.907976 0.265987 0.604289
O O10 0.000000 0.000000 0.000000
O O11 0.630179 0.100855 0.317902
O O12 0.848554 0.911514 0.552225
O O13 0.821663 0.736249 0.370937
O O14 0.056735 0.529661 0.723068
O O15 0.000000 0.500000 0.000000
O O16 0.500000 0.000000 0.500000
#
# Coordination Sequence:
#
# PCOD9016995 Si02
#       7
#     2   2   2   2   2   2   2
#     4  11  24  45  71  99 138 183 231 273 350 410
#     4  11  24  43  72 103 139 179 233 281 343 410
#     4  11  22  44  67  98 136 178 230 277 342 405
#     4  10  21  44  65  95 134 182 222 276 343 400
#     4  11  24  42  69  99 133 175 227 285 342 404
#     4  10  21  42  70  94 133 182 221 278 340 412
#     4  12  25  43  69 102 142 179 227 289 339 407
#
# _framework density 22.886801999999999
#
# number of rings (size 3 to 8) (size 9 to 14) (size 15 to 20)
#    0.000    1.143    2.857    6.429    4.000    0.571 
#    2.571    1.429    0.000    0.000    0.000    0.000 
#    0.000    0.000    0.000    0.000    0.000    0.000 
#
# Total GULP energy -78199.279097 kJ/mol
# GULP energy per Si atom -5585.662793 kJ/mol
# Density = 2.283471 g / cm^3
# Si number density = 22.886802 Si / 1000 Ang^3
#
#
#
# Elastic Constant Matrix: (Units=GPa)
#
#
# Indices 1 2 3 4 5 6 
#
# 1 100.8527 18.5038 19.2421 11.4984 -0.8703 -24.8894
# 2 18.5038 55.2487 22.4858 -3.1889 1.1298 -10.8961
# 3 19.2421 22.4858 121.5341 -1.0701 13.7235 -25.6529
# 4 11.4984 -3.1889 -1.0701 32.9111 -4.4312 1.6843
# 5 -0.8703 1.1298 13.7235 -4.4312 40.0395 8.5525
# 6 -24.8894 -10.8961 -25.6529 1.6843 8.5525 36.5292
#
#
#
# Elastic Compliance Matrix: (Units=1/GPa)
#
#
# Indices 1 2 3 4 5 6 
#
# 1 0.013343 -0.003166 0.000716 -0.005773 -0.002536 0.009510
# 2 -0.003166 0.020895 -0.003006 0.002988 0.000329 0.001749
# 3 0.000716 -0.003006 0.011182 -0.001410 -0.005781 0.008862
# 4 -0.005773 0.002988 -0.001410 0.033734 0.005474 -0.006870
# 5 -0.002536 0.000329 -0.005781 0.005474 0.030282 -0.013032
# 6 0.009510 0.001749 0.008862 -0.006870 -0.013032 0.043968
#
#
# Mechanical properties :
#
#
# Convention : Reuss Voigt Hill
#
# Bulk Modulus (GPa) = 28.97937 44.23322 36.60629
# Shear Modulus (GPa) = 28.43836 36.38955 32.41396
#
# Velocity S-wave (km/s) = 3.52883 3.99178 3.76742
# Velocity P-wave (km/s) = 5.41230 6.37296 5.91218
#
# Compressibility (1/GPa) = 0.03450731
#
# Stress axis : x y z
#
# Youngs Moduli (GPa) = 74.94564 47.85935 89.42953
#
# Poissons Ratio (x) = 0.15153 -0.06404
# Poissons Ratio (y) = 0.23728 0.26884
# Poissons Ratio (z) = -0.05367 0.14387
#
# Static dielectric constant tensor:
#      x y z
#    x 1.787630 0.022780 0.039860 
#    y 0.022780 1.882310 0.033890 
#    z 0.039860 0.033890 2.005570 
# 
# From -- ./inp_files/294092.got.cif
#   From: 2010.05.17/outbox.cif.g08.bks.cpg/sg2_148_cif.got.tgz:294092.got - 2010.06.03 11:33:40.
