data_PCOD9016913
_publ_section_title
;
Structure prediction by ZEFSAII (Michael W. Deem and Ramdas Pophale) SiO2 
 PCOD9016913
Probable space group: P -1
;
_chemical_formula_sum "Si O2"
_cell_formula_units_Z 14
_cell_length_a 9.556252
_cell_length_b 25.668862
_cell_length_c 5.759237
_cell_angle_alpha 130.189197
_cell_angle_beta 53.594092
_cell_angle_gamma 143.552972
_cell_volume 632.460050
_symmetry_space_group_name_H-M "P -1"
_symmetry_group_IT_number 2
_symmetry_cell_setting 'triclinic'
loop_
_space_group_symop_operation_xyz
x,y,z
-x,-y,-z
loop_
_atom_site_type_symbol
_atom_site_label
_atom_site_fract_x
_atom_site_fract_y
_atom_site_fract_z
Si Si1 0.457950 0.104365 0.867284
Si Si2 0.052239 0.590806 0.766122
Si Si3 0.191906 0.262594 0.162829
Si Si4 0.625964 0.551798 0.275900
Si Si5 0.876190 0.276124 0.267291
Si Si6 0.531713 0.241828 0.884236
Si Si7 0.696617 0.055346 0.169850
O O1 0.376389 0.145036 0.902662
O O2 0.573687 0.076403 0.520467
O O3 0.280687 0.014810 0.949594
O O4 0.678486 0.192073 0.050853
O O5 0.030422 0.630004 0.669180
O O6 0.000000 0.500000 0.500000
O O7 0.316439 0.672744 0.839458
O O8 0.864425 0.570339 0.075949
O O9 0.292650 0.346681 0.486549
O O10 0.094485 0.283476 0.111004
O O11 0.953837 0.156717 0.158753
O O12 0.387284 0.256561 0.913206
O O13 0.500000 0.500000 0.500000
O O14 0.500000 0.500000 0.000000
O O15 0.725972 0.251259 0.575125
O O16 0.500000 0.000000 0.000000
#
# Coordination Sequence:
#
# PCOD9016913 Si02
#       7
#     2   2   2   2   2   2   2
#     4  10  21  42  69  99 139 186 235 297 366 436
#     4  11  25  46  72 102 148 193 244 314 370 439
#     4  12  24  45  74 104 144 194 243 300 376 435
#     4  12  27  48  75 111 148 196 256 308 375 457
#     4  11  22  47  69  98 150 184 240 302 367 439
#     4  11  24  43  68 104 139 191 243 297 370 441
#     4  11  21  42  74 100 140 187 236 296 372 436
#
# _framework density 22.135784999999998
#
# number of rings (size 3 to 8) (size 9 to 14) (size 15 to 20)
#    0.000    0.857    4.286    2.571    2.000    1.143 
#   10.286    2.857    0.000    0.000    0.000    0.000 
#    0.000    0.000    0.000    0.000    0.000    0.000 
#
# Total GULP energy -78128.158895 kJ/mol
# GULP energy per Si atom -5580.582778 kJ/mol
# Density = 2.208540 g / cm^3
# Si number density = 22.135785 Si / 1000 Ang^3
#
#
#
# Elastic Constant Matrix: (Units=GPa)
#
#
# Indices 1 2 3 4 5 6 
#
# 1 112.8774 42.0876 16.0092 6.5319 -15.2353 -21.7947
# 2 42.0876 138.2534 35.9326 21.2652 -0.9056 -30.2820
# 3 16.0092 35.9326 73.2969 25.3669 6.9316 -11.5817
# 4 6.5319 21.2652 25.3669 35.0052 -1.0347 -5.3807
# 5 -15.2353 -0.9056 6.9316 -1.0347 39.6466 6.7738
# 6 -21.7947 -30.2820 -11.5817 -5.3807 6.7738 39.1848
#
#
#
# Elastic Compliance Matrix: (Units=1/GPa)
#
#
# Indices 1 2 3 4 5 6 
#
# 1 0.011072 -0.002399 -0.001456 0.001076 0.003911 0.003345
# 2 -0.002399 0.010329 -0.002380 -0.003262 -0.001334 0.005727
# 3 -0.001456 -0.002380 0.020437 -0.012858 -0.004946 0.002481
# 4 0.001076 -0.003262 -0.012858 0.039634 0.003781 -0.000934
# 5 0.003911 -0.001334 -0.004946 0.003781 0.028465 -0.004719
# 6 0.003345 0.005727 0.002481 -0.000934 -0.004719 0.033228
#
#
# Mechanical properties :
#
#
# Convention : Reuss Voigt Hill
#
# Bulk Modulus (GPa) = 34.04970 56.94296 45.49633
# Shear Modulus (GPa) = 30.22523 38.12720 34.17622
#
# Velocity S-wave (km/s) = 3.69920 4.15471 3.93356
# Velocity P-wave (km/s) = 5.80182 6.98540 6.42094
#
# Compressibility (1/GPa) = 0.02936884
#
# Stress axis : x y z
#
# Youngs Moduli (GPa) = 90.31975 96.81022 48.92969
#
# Poissons Ratio (x) = 0.23228 0.07123
# Poissons Ratio (y) = 0.21671 0.11645
# Poissons Ratio (z) = 0.13148 0.23039
#
# Static dielectric constant tensor:
#      x y z
#    x 1.849720 -0.077180 0.021680 
#    y -0.077180 1.771620 -0.136630 
#    z 0.021680 -0.136630 1.706460 
# 
# From -- ./inp_files/49112.got.cif
#   From: 2010.05.17/outbox.cif.g08.bks.cpg/sg2_25_cif.got.tgz:49112.got - 2010.06.03 11:33:40.
