data_PCOD9016225
_publ_section_title
;
Structure prediction by ZEFSAII (Michael W. Deem and Ramdas Pophale) SiO2 
 PCOD9016225
Probable space group: P -1
;
_chemical_formula_sum "Si O2"
_cell_formula_units_Z 14
_cell_length_a 20.203921
_cell_length_b 9.570234
_cell_length_c 5.246764
_cell_angle_alpha 91.492418
_cell_angle_beta 76.543493
_cell_angle_gamma 40.970421
_cell_volume 613.680320
_symmetry_space_group_name_H-M "P -1"
_symmetry_group_IT_number 2
_symmetry_cell_setting 'triclinic'
loop_
_space_group_symop_operation_xyz
x,y,z
-x,-y,-z
loop_
_atom_site_type_symbol
_atom_site_label
_atom_site_fract_x
_atom_site_fract_y
_atom_site_fract_z
Si Si1 0.878130 0.483022 0.971688
Si Si2 0.881149 0.655100 0.495742
Si Si3 0.561105 0.344193 0.183099
Si Si4 0.673599 0.635535 0.272607
Si Si5 0.753147 0.241431 0.010000
Si Si6 0.509339 0.107002 0.204144
Si Si7 0.873313 0.979645 0.401595
O O1 0.831985 0.640520 0.770009
O O2 0.891768 0.557386 0.213965
O O3 0.795458 0.496215 0.135746
O O4 0.996986 0.234792 0.773741
O O5 0.000000 0.500000 0.500000
O O6 0.833441 0.882852 0.475637
O O7 0.500000 0.500000 0.500000
O O8 0.556854 0.185062 0.139518
O O9 0.500000 0.500000 0.000000
O O10 0.681463 0.216602 0.069047
O O11 0.614697 0.672802 0.577200
O O12 0.597234 0.891810 0.301546
O O13 0.671522 0.504560 0.084882
O O14 0.838544 0.110366 0.698054
O O15 0.815148 0.140243 0.218748
O O16 0.500000 0.000000 0.000000
#
# Coordination Sequence:
#
# PCOD9016225 Si02
#       7
#     2   2   2   2   2   2   2
#     4  11  24  43  71 104 144 192 234 293 357 434
#     4  10  21  42  67 101 142 183 240 295 343 416
#     4  12  26  49  78 106 141 189 243 302 364 423
#     4  11  28  46  70 104 145 189 241 296 366 430
#     4  12  26  45  72 107 146 189 234 300 359 430
#     4  11  27  50  75 104 145 189 246 307 365 432
#     4  11  24  42  70 104 147 185 240 287 360 427
#
# _framework density 22.813182000000001
#
# number of rings (size 3 to 8) (size 9 to 14) (size 15 to 20)
#    0.000    0.857    1.429    6.000   10.000    1.143 
#    0.000    0.000    0.000    0.000    0.000    0.000 
#    0.000    0.000    0.000    0.000    0.000    0.000 
#
# Total GULP energy -78168.970185 kJ/mol
# GULP energy per Si atom -5583.497870 kJ/mol
# Density = 2.276126 g / cm^3
# Si number density = 22.813182 Si / 1000 Ang^3
#
#
#
# Elastic Constant Matrix: (Units=GPa)
#
#
# Indices 1 2 3 4 5 6 
#
# 1 104.5015 23.4961 51.1014 11.5234 -15.9010 27.2968
# 2 23.4961 102.1726 46.4697 -10.8715 0.2143 18.2301
# 3 51.1014 46.4697 173.7268 15.0614 13.0527 -3.6057
# 4 11.5234 -10.8715 15.0614 40.0338 -6.5955 9.4094
# 5 -15.9010 0.2143 13.0527 -6.5955 41.8143 6.2318
# 6 27.2968 18.2301 -3.6057 9.4094 6.2318 32.2403
#
#
#
# Elastic Compliance Matrix: (Units=1/GPa)
#
#
# Indices 1 2 3 4 5 6 
#
# 1 0.024010 0.006556 -0.011778 0.009958 0.019106 -0.031952
# 2 0.006556 0.017946 -0.009190 0.013578 0.010806 -0.022777
# 3 -0.011778 -0.009190 0.014294 -0.012265 -0.014272 0.023106
# 4 0.009958 0.013578 -0.012265 0.041357 0.019021 -0.033227
# 5 0.019106 0.010806 -0.014272 0.019021 0.044242 -0.037986
# 6 -0.031952 -0.022777 0.023106 -0.033227 -0.037986 0.090573
#
#
# Mechanical properties :
#
#
# Convention : Reuss Voigt Hill
#
# Bulk Modulus (GPa) = 36.46352 69.17059 52.81705
# Shear Modulus (GPa) = 18.49185 40.10661 29.29923
#
# Velocity S-wave (km/s) = 2.85015 4.19745 3.58762
# Velocity P-wave (km/s) = 5.18164 7.34015 6.35323
#
# Compressibility (1/GPa) = 0.02742467
#
# Stress axis : x y z
#
# Youngs Moduli (GPa) = 41.64922 55.72364 69.95833
#
# Poissons Ratio (x) = -0.36532 0.82398
# Poissons Ratio (y) = -0.27305 0.64295
# Poissons Ratio (z) = 0.49055 0.51212
#
# Static dielectric constant tensor:
#      x y z
#    x 2.001650 0.089490 0.012380 
#    y 0.089490 1.959550 -0.018900 
#    z 0.012380 -0.018900 1.889370 
# 
# From -- ./inp_files/117012.got.cif
#   From: 2010.05.17/outbox.cif.g08.bks.cpg/sg2_59_cif.got.tgz:117012.got - 2010.06.03 11:33:40.
