data_PCOD9016096
_publ_section_title
;
Structure prediction by ZEFSAII (Michael W. Deem and Ramdas Pophale) SiO2 
 PCOD9016096
Probable space group: P -1
;
_chemical_formula_sum "Si O2"
_cell_formula_units_Z 16
_cell_length_a 13.258434
_cell_length_b 15.101276
_cell_length_c 15.141737
_cell_angle_alpha 150.212988
_cell_angle_beta 137.783873
_cell_angle_gamma 31.347128
_cell_volume 783.485005
_symmetry_space_group_name_H-M "P -1"
_symmetry_group_IT_number 2
_symmetry_cell_setting 'triclinic'
loop_
_space_group_symop_operation_xyz
x,y,z
-x,-y,-z
loop_
_atom_site_type_symbol
_atom_site_label
_atom_site_fract_x
_atom_site_fract_y
_atom_site_fract_z
Si Si1 0.974366 0.467609 0.558016
Si Si2 0.449717 0.271765 0.519063
Si Si3 0.861717 0.833614 0.941779
Si Si4 0.077572 0.544539 0.004826
Si Si5 0.467003 0.539913 0.115378
Si Si6 0.516188 0.860863 0.144749
Si Si7 0.055853 0.033062 0.292556
Si Si8 0.136907 0.893497 0.410754
O O1 0.756822 0.554724 0.511496
O O2 0.984049 0.632623 0.771816
O O3 0.000000 0.500000 0.500000
O O4 0.096805 0.198241 0.424589
O O5 0.425827 0.390782 0.698717
O O6 0.641382 0.197341 0.526713
O O7 0.476930 0.040239 0.347511
O O8 0.636791 0.984345 0.898629
O O9 0.927300 0.701116 0.963653
O O10 0.902835 0.015846 0.131863
O O11 0.153084 0.675632 0.204624
O O12 0.260078 0.298397 0.873869
O O13 0.000000 0.500000 0.000000
O O14 0.245944 0.767097 0.178743
O O15 0.500000 0.500000 0.000000
O O16 0.514963 0.313978 0.992621
O O17 0.024754 0.073928 0.413026
O O18 0.000000 0.000000 0.500000
#
# Coordination Sequence:
#
# PCOD9016096 Si02
#       8
#     2   2   2   2   2   2   2   2
#     4  11  26  41  64  96 134 181 220 274 337 387
#     4  10  23  42  62  94 130 171 225 275 325 408
#     4  10  24  43  65  95 133 172 222 275 332 398
#     4  11  23  41  70  98 128 176 218 280 341 398
#     4  11  24  39  65  96 128 177 224 277 338 385
#     4  11  22  43  65  91 135 170 220 278 326 401
#     4  10  23  41  65  95 130 171 222 274 327 404
#     4  10  21  42  66  95 125 173 216 273 342 386
#
# _framework density 20.421576999999999
#
# number of rings (size 3 to 8) (size 9 to 14) (size 15 to 20)
#    0.000    1.500    3.750    1.500   10.500    1.500 
#    0.000    1.875    0.000    0.000    0.000    0.000 
#    0.000    0.000    0.000    0.000    0.000    0.000 
#
# Total GULP energy -89159.872056 kJ/mol
# GULP energy per Si atom -5572.492003 kJ/mol
# Density = 2.037510 g / cm^3
# Si number density = 20.421577 Si / 1000 Ang^3
#
#
#
# Elastic Constant Matrix: (Units=GPa)
#
#
# Indices 1 2 3 4 5 6 
#
# 1 73.0252 37.4530 33.1517 -3.1022 -16.3314 21.9598
# 2 37.4530 77.8290 24.4081 6.9362 6.0080 10.4795
# 3 33.1517 24.4081 104.6958 11.8269 -3.8143 18.4843
# 4 -3.1022 6.9362 11.8269 30.9368 0.7688 4.8392
# 5 -16.3314 6.0080 -3.8143 0.7688 31.0099 -3.9758
# 6 21.9598 10.4795 18.4843 4.8392 -3.9758 30.6595
#
#
#
# Elastic Compliance Matrix: (Units=1/GPa)
#
#
# Indices 1 2 3 4 5 6 
#
# 1 0.031334 -0.013839 -0.004682 0.009861 0.016529 -0.014303
# 2 -0.013839 0.020713 -0.000659 -0.005941 -0.010882 0.002756
# 3 -0.004682 -0.000659 0.012221 -0.004460 -0.001139 -0.003233
# 4 0.009861 -0.005941 -0.004460 0.037466 0.003873 -0.007755
# 5 0.016529 -0.010882 -0.001139 0.003873 0.042500 -0.002533
# 6 -0.014303 0.002756 -0.003233 -0.007755 -0.002533 0.044763
#
#
# Mechanical properties :
#
#
# Convention : Reuss Voigt Hill
#
# Bulk Modulus (GPa) = 38.59820 49.50839 44.05329
# Shear Modulus (GPa) = 21.18701 29.22373 25.20537
#
# Velocity S-wave (km/s) = 3.22449 3.78699 3.51700
# Velocity P-wave (km/s) = 5.72755 6.58920 6.17343
#
# Compressibility (1/GPa) = 0.02590795
#
# Stress axis : x y z
#
# Youngs Moduli (GPa) = 31.91450 48.27807 81.82855
#
# Poissons Ratio (x) = 0.66813 0.38312
# Poissons Ratio (y) = 0.44167 0.05391
# Poissons Ratio (z) = 0.14942 0.03181
#
# Static dielectric constant tensor:
#      x y z
#    x 2.827080 -0.003770 -0.619700 
#    y -0.003770 1.745700 0.009590 
#    z -0.619700 0.009590 2.125520 
# 
# From -- ./inp_files/534611.got.cif
#   From: 2010.05.17/outbox.cif.g08.bks.cpg/sg2_268_cif.got.tgz:534611.got - 2010.06.03 11:33:40.
