data_PCOD9016838
_publ_section_title
;
Structure prediction by ZEFSAII (Michael W. Deem and Ramdas Pophale) SiO2 
 PCOD9016838
Probable space group: P -1
;
_chemical_formula_sum "Si O2"
_cell_formula_units_Z 14
_cell_length_a 12.407363
_cell_length_b 10.681492
_cell_length_c 10.777350
_cell_angle_alpha 112.904654
_cell_angle_beta 93.530689
_cell_angle_gamma 144.003308
_cell_volume 555.732375
_symmetry_space_group_name_H-M "P -1"
_symmetry_group_IT_number 2
_symmetry_cell_setting 'triclinic'
loop_
_space_group_symop_operation_xyz
x,y,z
-x,-y,-z
loop_
_atom_site_type_symbol
_atom_site_label
_atom_site_fract_x
_atom_site_fract_y
_atom_site_fract_z
Si Si1 0.744227 0.012141 0.880742
Si Si2 0.192067 0.606328 0.602498
Si Si3 0.379471 0.553878 0.912747
Si Si4 0.153450 0.585607 0.860554
Si Si5 0.121900 0.282266 0.153662
Si Si6 0.173978 0.025234 0.729188
Si Si7 0.427502 0.117120 0.432600
O O1 0.552683 0.752248 0.877025
O O2 0.630405 0.848973 0.675492
O O3 0.777826 0.212369 0.967333
O O4 0.016286 0.260208 0.031756
O O5 0.284533 0.759574 0.802769
O O6 0.397235 0.799866 0.587249
O O7 0.000000 0.500000 0.500000
O O8 0.014322 0.271380 0.487702
O O9 0.224556 0.516889 0.885323
O O10 0.219641 0.232221 0.774879
O O11 0.559748 0.741172 0.119973
O O12 0.848602 0.248599 0.687898
O O13 0.415596 0.633050 0.349073
O O14 0.982162 0.158202 0.224384
O O15 0.000000 0.000000 0.000000
#
# Coordination Sequence:
#
# PCOD9016838 Si02
#       7
#     2   2   2   2   2   2   2
#     4  11  24  46  69 102 142 183 240 291 341 429
#     4  11  24  45  71  99 139 186 229 290 357 411
#     4  10  21  42  69  95 139 184 230 288 353 409
#     4  12  25  43  71 105 139 186 231 292 357 410
#     4  10  24  46  68  99 143 183 230 293 359 415
#     4   9  22  42  67 101 134 184 238 286 345 431
#     4  11  26  46  68 109 137 178 240 290 341 431
#
# _framework density 25.191980999999998
#
# number of rings (size 3 to 8) (size 9 to 14) (size 15 to 20)
#    0.000    1.429    1.429    3.429    4.000    6.857 
#    2.571    0.000    0.000    0.000    0.000    0.000 
#    0.000    0.000    0.000    0.000    0.000    0.000 
#
# Total GULP energy -78365.732587 kJ/mol
# GULP energy per Si atom -5597.552328 kJ/mol
# Density = 2.513464 g / cm^3
# Si number density = 25.191981 Si / 1000 Ang^3
#
#
#
# Elastic Constant Matrix: (Units=GPa)
#
#
# Indices 1 2 3 4 5 6 
#
# 1 115.2867 8.8905 38.4364 6.9375 20.9697 -14.4476
# 2 8.8905 74.6364 -3.1330 -4.9538 12.0517 10.0733
# 3 38.4364 -3.1330 120.4948 -3.9733 15.4104 7.9683
# 4 6.9375 -4.9538 -3.9733 51.0048 1.7700 4.4596
# 5 20.9697 12.0517 15.4104 1.7700 29.7419 -6.8648
# 6 -14.4476 10.0733 7.9683 4.4596 -6.8648 30.1691
#
#
#
# Elastic Compliance Matrix: (Units=1/GPa)
#
#
# Indices 1 2 3 4 5 6 
#
# 1 0.011835 -0.002077 -0.003895 -0.002591 -0.003732 0.006924
# 2 -0.002077 0.016907 0.003103 0.003383 -0.009533 -0.010128
# 3 -0.003895 0.003103 0.010988 0.002561 -0.006104 -0.007571
# 4 -0.002591 0.003383 0.002561 0.021232 -0.003760 -0.007041
# 5 -0.003732 -0.009533 -0.006104 -0.003760 0.046783 0.014209
# 6 0.006924 -0.010128 -0.007571 -0.007041 0.014209 0.046118
#
#
# Mechanical properties :
#
#
# Convention : Reuss Voigt Hill
#
# Bulk Modulus (GPa) = 29.41967 44.31175 36.86571
# Shear Modulus (GPa) = 29.25120 39.93143 34.59131
#
# Velocity S-wave (km/s) = 3.41123 3.98563 3.70957
# Velocity P-wave (km/s) = 5.21717 6.22962 5.74574
#
# Compressibility (1/GPa) = 0.03399086
#
# Stress axis : x y z
#
# Youngs Moduli (GPa) = 84.49240 59.14795 91.00720
#
# Poissons Ratio (x) = 0.12286 0.35450
# Poissons Ratio (y) = 0.17550 -0.28237
# Poissons Ratio (z) = 0.32912 -0.18352
#
# Static dielectric constant tensor:
#      x y z
#    x 1.994630 0.042100 0.028870 
#    y 0.042100 2.001160 0.019670 
#    z 0.028870 0.019670 2.083640 
# 
# From -- ./inp_files/426509.got.cif
#   From: 2010.05.17/outbox.cif.g08.bks.cpg/sg2_214_cif.got.tgz:426509.got - 2010.06.03 11:33:40.
