data_PCOD9016124
_publ_section_title
;
Structure prediction by ZEFSAII (Michael W. Deem and Ramdas Pophale) SiO2 
 PCOD9016124
Probable space group: P -1
;
_chemical_formula_sum "Si O2"
_cell_formula_units_Z 16
_cell_length_a 5.047531
_cell_length_b 5.435209
_cell_length_c 23.811815
_cell_angle_alpha 114.105447
_cell_angle_beta 96.342527
_cell_angle_gamma 79.144194
_cell_volume 585.213562
_symmetry_space_group_name_H-M "P -1"
_symmetry_group_IT_number 2
_symmetry_cell_setting 'triclinic'
loop_
_space_group_symop_operation_xyz
x,y,z
-x,-y,-z
loop_
_atom_site_type_symbol
_atom_site_label
_atom_site_fract_x
_atom_site_fract_y
_atom_site_fract_z
Si Si1 0.747401 0.077070 0.614687
Si Si2 0.616443 0.267838 0.741400
Si Si3 0.451819 0.286174 0.130079
Si Si4 0.916311 0.444504 0.360057
Si Si5 0.669216 0.693094 0.988177
Si Si6 0.290937 0.348764 0.513030
Si Si7 0.992961 0.964501 0.107480
Si Si8 0.818684 0.995514 0.234681
O O1 0.536953 0.197175 0.669901
O O2 0.914324 0.319361 0.629106
O O3 0.685348 0.952238 0.541408
O O4 0.907132 0.808469 0.625427
O O5 0.556888 0.556914 0.797116
O O6 0.466879 0.079853 0.760873
O O7 0.940079 0.197683 0.745481
O O8 0.290864 0.425818 0.085345
O O9 0.764676 0.232224 0.114334
O O10 0.291532 0.033885 0.114465
O O11 0.701800 0.580043 0.414233
O O12 0.835201 0.293479 0.288250
O O13 0.500000 0.500000 0.000000
O O14 0.500000 0.000000 0.000000
O O15 0.912956 0.761530 0.039118
O O16 0.500000 0.500000 0.500000
O O17 0.000000 0.500000 0.500000
O O18 0.899925 0.932047 0.166282
#
# Coordination Sequence:
#
# PCOD9016124 Si02
#       8
#     2   2   2   2   2   2   2   2
#     4  10  22  42  66  96 131 172 218 270 326 388
#     4  11  23  41  64  97 132 173 218 270 326 389
#     4  11  23  42  66  98 132 173 218 270 326 389
#     4  10  22  42  66  96 131 172 218 270 326 388
#     4  10  23  44  68  98 132 172 218 270 326 388
#     4  10  21  42  66  96 130 172 218 270 326 388
#     4  11  23  42  66  98 132 173 218 270 326 389
#     4  11  23  41  64  97 132 173 218 270 326 389
#
# _framework density 27.340440999999998
#
# number of rings (size 3 to 8) (size 9 to 14) (size 15 to 20)
#    0.000    1.500    0.000    4.500    0.000    4.000 
#    0.000   25.625    0.000    0.000    0.000    0.000 
#    0.000    0.000    0.000    0.000    0.000    0.000 
#
# Total GULP energy -89553.572032 kJ/mol
# GULP energy per Si atom -5597.098252 kJ/mol
# Density = 2.727821 g / cm^3
# Si number density = 27.340441 Si / 1000 Ang^3
#
#
#
# Elastic Constant Matrix: (Units=GPa)
#
#
# Indices 1 2 3 4 5 6 
#
# 1 86.0063 28.3601 32.4951 8.1107 -3.9909 17.1667
# 2 28.3601 146.5405 68.6679 9.9650 2.2960 38.9135
# 3 32.4951 68.6679 271.0680 0.8105 -4.9689 4.3058
# 4 8.1107 9.9650 0.8105 75.8882 -7.6999 -0.1936
# 5 -3.9909 2.2960 -4.9689 -7.6999 62.4784 -1.4512
# 6 17.1667 38.9135 4.3058 -0.1936 -1.4512 57.7807
#
#
#
# Elastic Compliance Matrix: (Units=1/GPa)
#
#
# Indices 1 2 3 4 5 6 
#
# 1 0.013212 -0.001076 -0.001248 -0.001208 0.000563 -0.003097
# 2 -0.001076 0.009836 -0.002278 -0.001260 -0.000910 -0.006162
# 3 -0.001248 -0.002278 0.004397 0.000435 0.000444 0.001590
# 4 -0.001208 -0.001260 0.000435 0.013644 0.001715 0.001264
# 5 0.000563 -0.000910 0.000444 0.001715 0.016341 0.000828
# 6 -0.003097 -0.006162 0.001590 0.001264 0.000828 0.022283
#
#
# Mechanical properties :
#
#
# Convention : Reuss Voigt Hill
#
# Bulk Modulus (GPa) = 54.82161 84.74011 69.78086
# Shear Modulus (GPa) = 52.63287 64.16889 58.40088
#
# Velocity S-wave (km/s) = 4.39235 4.84987 4.62677
# Velocity P-wave (km/s) = 6.76895 7.90085 7.35670
#
# Compressibility (1/GPa) = 0.01824098
#
# Stress axis : x y z
#
# Youngs Moduli (GPa) = 75.69015 101.66931 227.41247
#
# Poissons Ratio (x) = 0.10942 0.28381
# Poissons Ratio (y) = 0.08146 0.51797
# Poissons Ratio (z) = 0.09446 0.23157
#
# Static dielectric constant tensor:
#      x y z
#    x 2.188140 -0.271850 0.093370 
#    y -0.271850 2.261860 -0.117380 
#    z 0.093370 -0.117380 2.348990 
# 
# From -- ./inp_files/603439.got.cif
#   From: 2010.05.17/outbox.cif.g08.bks.cpg/sg2_302_cif.got.tgz:603439.got - 2010.06.03 11:33:40.
