data_PCOD9016751
_publ_section_title
;
Structure prediction by ZEFSAII (Michael W. Deem and Ramdas Pophale) SiO2 
 PCOD9016751
Probable space group: P -1
;
_chemical_formula_sum "Si O2"
_cell_formula_units_Z 12
_cell_length_a 20.440921
_cell_length_b 4.950833
_cell_length_c 5.316124
_cell_angle_alpha 89.449474
_cell_angle_beta 123.519644
_cell_angle_gamma 80.707487
_cell_volume 439.432391
_symmetry_space_group_name_H-M "P -1"
_symmetry_group_IT_number 2
_symmetry_cell_setting 'triclinic'
loop_
_space_group_symop_operation_xyz
x,y,z
-x,-y,-z
loop_
_atom_site_type_symbol
_atom_site_label
_atom_site_fract_x
_atom_site_fract_y
_atom_site_fract_z
Si Si1 0.742917 0.121677 0.633327
Si Si2 0.998207 0.318312 0.247221
Si Si3 0.570063 0.129565 0.423142
Si Si4 0.133959 0.850451 0.736233
Si Si5 0.766933 0.611547 0.376121
Si Si6 0.407986 0.384945 0.197998
O O1 0.647969 0.132643 0.423917
O O2 0.757566 0.422236 0.599245
O O3 0.779858 0.899056 0.507065
O O4 0.788803 0.041962 0.993141
O O5 0.166768 0.569661 0.657493
O O6 0.000000 0.500000 0.500000
O O7 0.917583 0.201706 0.126425
O O8 0.000000 0.500000 0.000000
O O9 0.479490 0.269460 0.155607
O O10 0.587023 0.313147 0.698877
O O11 0.572438 0.821842 0.522630
O O12 0.071743 0.061581 0.434990
O O13 0.680310 0.635494 0.066675
#
# Coordination Sequence:
#
# PCOD9016751 Si02
#       6
#     2   2   2   2   2   2
#     4  12  28  45  78 115 155 210 266 331 406 477
#     4  11  30  55  89 118 164 218 266 340 426 508
#     4  10  21  42  69 103 154 209 264 327 395 468
#     4  11  30  52  77 120 166 196 277 332 416 495
#     4  12  28  45  78 115 155 210 266 331 406 477
#     4  10  21  42  69 103 154 209 264 327 395 468
#
# _framework density 27.307955
#
# number of rings (size 3 to 8) (size 9 to 14) (size 15 to 20)
#    0.000    1.000    1.667    2.000    9.333    2.667 
#    0.000    2.500    0.000    0.000    0.000    0.000 
#    0.000    0.000    0.000    0.000    0.000    0.000 
#
# Total GULP energy -67341.034897 kJ/mol
# GULP energy per Si atom -5611.752908 kJ/mol
# Density = 2.724580 g / cm^3
# Si number density = 27.307955 Si / 1000 Ang^3
#
#
#
# Elastic Constant Matrix: (Units=GPa)
#
#
# Indices 1 2 3 4 5 6 
#
# 1 188.3996 28.6363 52.4258 -23.6418 21.5177 -14.9356
# 2 28.6363 68.1406 35.8632 -8.3174 -0.8265 -8.9726
# 3 52.4258 35.8632 110.6618 -14.9165 0.2451 -15.3528
# 4 -23.6418 -8.3174 -14.9165 43.2391 1.0213 -2.5787
# 5 21.5177 -0.8265 0.2451 1.0213 54.8740 -3.8993
# 6 -14.9356 -8.9726 -15.3528 -2.5787 -3.8993 59.8237
#
#
#
# Elastic Compliance Matrix: (Units=1/GPa)
#
#
# Indices 1 2 3 4 5 6 
#
# 1 0.006882 -0.001225 -0.002354 0.002831 -0.002697 0.000877
# 2 -0.001225 0.018119 -0.004965 0.001157 0.000842 0.001242
# 3 -0.002354 -0.004965 0.012317 0.002104 0.000895 0.001977
# 4 0.002831 0.001157 0.002104 0.025802 -0.001409 0.002441
# 5 -0.002697 0.000842 0.000895 -0.001409 0.019379 0.000885
# 6 0.000877 0.001242 0.001977 0.002441 0.000885 0.017791
#
#
# Mechanical properties :
#
#
# Convention : Reuss Voigt Hill
#
# Bulk Modulus (GPa) = 49.43414 66.78362 58.10888
# Shear Modulus (GPa) = 40.28330 48.27247 44.27788
#
# Velocity S-wave (km/s) = 3.84493 4.20897 4.03106
# Velocity P-wave (km/s) = 6.15249 6.93754 6.55677
#
# Compressibility (1/GPa) = 0.02022894
#
# Stress axis : x y z
#
# Youngs Moduli (GPa) = 145.30860 55.19219 81.18978
#
# Poissons Ratio (x) = 0.06760 0.19113
# Poissons Ratio (y) = 0.17798 0.40312
# Poissons Ratio (z) = 0.34208 0.27404
#
# Static dielectric constant tensor:
#      x y z
#    x 2.182150 0.049200 -0.001420 
#    y 0.049200 2.077100 -0.011130 
#    z -0.001420 -0.011130 2.130080 
# 
# From -- ./inp_files/5272.got.cif
#   From: 2010.05.17/outbox.cif.g08.bks.cpg/sg2_3_cif.got.tgz:5272.got - 2010.06.03 11:33:40.
