data_PCOD9016955
_publ_section_title
;
Structure prediction by ZEFSAII (Michael W. Deem and Ramdas Pophale) SiO2 
 PCOD9016955
Probable space group: P -1
;
_chemical_formula_sum "Si O2"
_cell_formula_units_Z 16
_cell_length_a 12.736581
_cell_length_b 9.761059
_cell_length_c 7.008944
_cell_angle_alpha 71.389624
_cell_angle_beta 65.649107
_cell_angle_gamma 58.284686
_cell_volume 669.387435
_symmetry_space_group_name_H-M "P -1"
_symmetry_group_IT_number 2
_symmetry_cell_setting 'triclinic'
loop_
_space_group_symop_operation_xyz
x,y,z
-x,-y,-z
loop_
_atom_site_type_symbol
_atom_site_label
_atom_site_fract_x
_atom_site_fract_y
_atom_site_fract_z
Si Si1 0.710842 0.841419 0.424650
Si Si2 0.869443 0.500175 0.357743
Si Si3 0.492682 0.918950 0.236182
Si Si4 0.082512 0.598063 0.029911
Si Si5 0.483931 0.589808 0.275031
Si Si6 0.853228 0.042032 0.151768
Si Si7 0.934695 0.169320 0.361734
Si Si8 0.707850 0.353984 0.925119
O O1 0.772208 0.647932 0.491357
O O2 0.614935 0.880626 0.299164
O O3 0.629438 0.951632 0.610340
O O4 0.824347 0.892164 0.278358
O O5 0.998476 0.522606 0.224099
O O6 0.896665 0.318569 0.467890
O O7 0.825525 0.516686 0.158594
O O8 0.481875 0.758661 0.256167
O O9 0.401651 0.522284 0.904565
O O10 0.500000 0.000000 0.000000
O O11 0.166121 0.630693 0.108890
O O12 0.002680 0.758533 0.881177
O O13 0.500000 0.500000 0.500000
O O14 0.355209 0.613340 0.249408
O O15 0.830279 0.147057 0.318000
O O16 0.750379 0.164745 0.025586
O O17 0.000000 0.000000 0.000000
O O18 0.000000 0.000000 0.500000
#
# Coordination Sequence:
#
# PCOD9016955 Si02
#       8
#     2   2   2   2   2   2   2   2
#     4  11  23  44  74 103 145 200 247 309 372 451
#     4   9  18  39  73  98 144 196 238 291 366 458
#     4  11  26  48  71 102 146 193 255 314 377 437
#     4   8  17  36  70 101 145 192 238 291 366 453
#     4  11  24  45  74 103 140 190 254 321 371 439
#     4  11  23  43  69 108 158 191 242 304 382 460
#     4   9  19  39  63  99 144 183 230 290 353 430
#     4  10  21  42  70 104 143 192 242 303 379 439
#
# _framework density 23.902450999999999
#
# number of rings (size 3 to 8) (size 9 to 14) (size 15 to 20)
#    0.750    1.250    0.000    3.750    0.000    3.000 
#   11.250    3.125    0.000    0.000    0.000    0.000 
#    0.000    0.000    0.000    0.000    0.000    0.000 
#
# Total GULP energy -89302.244505 kJ/mol
# GULP energy per Si atom -5581.390282 kJ/mol
# Density = 2.384805 g / cm^3
# Si number density = 23.902451 Si / 1000 Ang^3
#
#
#
# Elastic Constant Matrix: (Units=GPa)
#
#
# Indices 1 2 3 4 5 6 
#
# 1 106.5980 59.7078 71.0766 -11.9217 4.8932 20.9344
# 2 59.7078 207.5951 79.1460 -23.0168 -11.2339 13.4392
# 3 71.0766 79.1460 146.2235 -6.0827 19.8128 5.9057
# 4 -11.9217 -23.0168 -6.0827 40.1272 1.3341 -1.0906
# 5 4.8932 -11.2339 19.8128 1.3341 36.1084 1.1607
# 6 20.9344 13.4392 5.9057 -1.0906 1.1607 39.0265
#
#
#
# Elastic Compliance Matrix: (Units=1/GPa)
#
#
# Indices 1 2 3 4 5 6 
#
# 1 0.016513 -0.001123 -0.007203 0.002921 0.001493 -0.007344
# 2 -0.001123 0.007256 -0.003798 0.003069 0.004425 -0.001367
# 3 -0.007203 -0.003798 0.013192 -0.001980 -0.007478 0.003343
# 4 0.002921 0.003069 -0.001980 0.027182 0.000692 -0.001585
# 5 0.001493 0.004425 -0.007478 0.000692 0.033016 -0.002156
# 6 -0.007344 -0.001367 0.003343 -0.001585 -0.002156 0.029548
#
#
# Mechanical properties :
#
#
# Convention : Reuss Voigt Hill
#
# Bulk Modulus (GPa) = 78.66296 97.80859 88.23578
# Shear Modulus (GPa) = 32.21758 39.75148 35.98453
#
# Velocity S-wave (km/s) = 3.67533 4.08250 3.88425
# Velocity P-wave (km/s) = 7.14088 7.95180 7.55723
#
# Compressibility (1/GPa) = 0.01271246
#
# Stress axis : x y z
#
# Youngs Moduli (GPa) = 60.55689 137.80900 75.80352
#
# Poissons Ratio (x) = 0.15480 0.54602
# Poissons Ratio (y) = 0.06802 0.28793
# Poissons Ratio (z) = 0.43620 0.52344
#
# Static dielectric constant tensor:
#      x y z
#    x 1.905800 -0.048950 -0.040730 
#    y -0.048950 2.036730 0.053390 
#    z -0.040730 0.053390 1.994880 
# 
# From -- ./inp_files/252053.got.cif
#   From: 2010.05.17/outbox.cif.g08.bks.cpg/sg2_127_cif.got.tgz:252053.got - 2010.06.03 11:33:40.
