data_PCOD9016722
_publ_section_title
;
Structure prediction by ZEFSAII (Michael W. Deem and Ramdas Pophale) SiO2 
 PCOD9016722
Probable space group: P -1
;
_chemical_formula_sum "Si O2"
_cell_formula_units_Z 10
_cell_length_a 9.537424
_cell_length_b 9.335040
_cell_length_c 7.268956
_cell_angle_alpha 110.715882
_cell_angle_beta 137.362492
_cell_angle_gamma 63.663452
_cell_volume 392.466256
_symmetry_space_group_name_H-M "P -1"
_symmetry_group_IT_number 2
_symmetry_cell_setting 'triclinic'
loop_
_space_group_symop_operation_xyz
x,y,z
-x,-y,-z
loop_
_atom_site_type_symbol
_atom_site_label
_atom_site_fract_x
_atom_site_fract_y
_atom_site_fract_z
Si Si1 0.907828 0.736234 0.110790
Si Si2 0.268528 0.994789 0.681106
Si Si3 0.797550 0.501477 0.442019
Si Si4 0.708749 0.849091 0.591507
Si Si5 0.526336 0.362195 0.308683
O O1 0.092654 0.587701 0.303627
O O2 0.890343 0.902937 0.273154
O O3 0.876708 0.790432 0.893712
O O4 0.702212 0.674520 0.939282
O O5 0.318553 0.814025 0.576628
O O6 0.197821 0.102105 0.481336
O O7 0.500000 0.000000 0.000000
O O8 0.660059 0.683844 0.422555
O O9 0.617585 0.405308 0.221004
O O10 0.000000 0.500000 0.500000
O O11 0.500000 0.000000 0.500000
O O12 0.500000 0.500000 0.500000
#
# Coordination Sequence:
#
# PCOD9016722 Si02
#       5
#     2   2   2   2   2
#     4  11  24  45  73  99 144 182 231 290 350 410
#     4  10  21  42  69 101 137 183 227 285 346 413
#     4  12  26  45  70 106 142 182 236 293 344 413
#     4  12  21  42  74  98 139 188 226 284 352 412
#     4  11  23  43  73 101 142 186 233 281 356 418
#
# _framework density 25.479897999999999
#
# number of rings (size 3 to 8) (size 9 to 14) (size 15 to 20)
#    0.000    0.800    8.000    0.600    0.000    1.600 
#    0.000    1.000    0.000    0.000    0.000    0.000 
#    0.000    0.000    0.000    0.000    0.000    0.000 
#
# Total GULP energy -55715.608482 kJ/mol
# GULP energy per Si atom -5571.560848 kJ/mol
# Density = 2.542190 g / cm^3
# Si number density = 25.479898 Si / 1000 Ang^3
#
#
#
# Elastic Constant Matrix: (Units=GPa)
#
#
# Indices 1 2 3 4 5 6 
#
# 1 99.8519 24.1225 36.4322 -12.1058 -8.2713 8.6234
# 2 24.1225 203.2970 47.5930 -3.1987 -13.5045 -0.5334
# 3 36.4322 47.5930 80.8843 -12.3771 -26.8004 4.5599
# 4 -12.1058 -3.1987 -12.3771 61.5790 5.3532 -7.2867
# 5 -8.2713 -13.5045 -26.8004 5.3532 40.5681 -17.4379
# 6 8.6234 -0.5334 4.5599 -7.2867 -17.4379 65.1481
#
#
#
# Elastic Compliance Matrix: (Units=1/GPa)
#
#
# Indices 1 2 3 4 5 6 
#
# 1 0.012331 -0.000218 -0.005928 0.001224 -0.002375 -0.001718
# 2 -0.000218 0.005724 -0.003429 -0.000388 -0.000267 0.000201
# 3 -0.005928 -0.003429 0.021463 0.002204 0.012796 0.002926
# 4 0.001224 -0.000388 0.002204 0.017091 0.000007 0.001594
# 5 -0.002375 -0.000267 0.012796 0.000007 0.036476 0.009181
# 6 -0.001718 0.000201 0.002926 0.001594 0.009181 0.018009
#
#
# Mechanical properties :
#
#
# Convention : Reuss Voigt Hill
#
# Bulk Modulus (GPa) = 49.09817 66.70316 57.90066
# Shear Modulus (GPa) = 36.48718 51.85141 44.16930
#
# Velocity S-wave (km/s) = 3.78828 4.51598 4.16804
# Velocity P-wave (km/s) = 6.20048 7.30943 6.77767
#
# Compressibility (1/GPa) = 0.02036736
#
# Stress axis : x y z
#
# Youngs Moduli (GPa) = 81.09887 174.69532 46.59092
#
# Poissons Ratio (x) = 0.03813 0.27620
# Poissons Ratio (y) = 0.01770 0.15976
# Poissons Ratio (z) = 0.48078 0.59901
#
# Static dielectric constant tensor:
#      x y z
#    x 2.620420 0.012640 1.309020 
#    y 0.012640 1.955530 -0.019260 
#    z 1.309020 -0.019260 5.250490 
# 
# From -- ./inp_files/240794.got.cif
#   From: 2010.05.17/outbox.cif.g08.bks.cpg/sg2_121_cif.got.tgz:240794.got - 2010.06.03 11:33:40.
