data_PCOD9016905
_publ_section_title
;
Structure prediction by ZEFSAII (Michael W. Deem and Ramdas Pophale) SiO2 
 PCOD9016905
Probable space group: P -1
;
_chemical_formula_sum "Si O2"
_cell_formula_units_Z 14
_cell_length_a 8.605972
_cell_length_b 8.387333
_cell_length_c 12.863173
_cell_angle_alpha 72.974606
_cell_angle_beta 128.039571
_cell_angle_gamma 69.380783
_cell_volume 494.343648
_symmetry_space_group_name_H-M "P -1"
_symmetry_group_IT_number 2
_symmetry_cell_setting 'triclinic'
loop_
_space_group_symop_operation_xyz
x,y,z
-x,-y,-z
loop_
_atom_site_type_symbol
_atom_site_label
_atom_site_fract_x
_atom_site_fract_y
_atom_site_fract_z
Si Si1 0.030472 0.029160 0.629167
Si Si2 0.091950 0.127663 0.975898
Si Si3 0.147491 0.610448 0.852887
Si Si4 0.367288 0.330925 0.374116
Si Si5 0.438028 0.200589 0.203369
Si Si6 0.359829 0.285858 0.813018
Si Si7 0.257931 0.495589 0.507114
O O1 0.096944 0.832754 0.766085
O O2 0.302171 0.984292 0.730756
O O3 0.000000 0.000000 0.500000
O O4 0.789911 0.280270 0.536308
O O5 0.233926 0.166068 0.112017
O O6 0.331638 0.980276 0.012540
O O7 0.820721 0.391932 0.777982
O O8 0.000000 0.000000 0.000000
O O9 0.336374 0.429686 0.870144
O O10 0.854583 0.690125 0.708296
O O11 0.290664 0.453831 0.046248
O O12 0.520302 0.185395 0.358781
O O13 0.454862 0.307710 0.533798
O O14 0.356379 0.373100 0.681963
O O15 0.053058 0.385380 0.669664
#
# Coordination Sequence:
#
# PCOD9016905 Si02
#       7
#     2   2   2   2   2   2   2
#     4  12  24  43  73 107 132 185 239 285 339 418
#     4  11  24  41  71 101 140 181 231 284 350 410
#     4  10  22  41  72  97 139 175 234 283 349 402
#     4  10  25  44  68 103 144 182 224 288 353 414
#     4  11  25  47  66 103 146 180 225 290 349 413
#     4  10  21  42  69  99 135 182 230 290 335 406
#     4  10  22  43  71  96 137 182 234 281 343 404
#
# _framework density 28.320381999999999
#
# number of rings (size 3 to 8) (size 9 to 14) (size 15 to 20)
#    0.000    1.429    2.857    2.143    4.000    4.000 
#    0.000    7.143    0.000    0.000    0.000    0.000 
#    0.000    0.000    0.000    0.000    0.000    0.000 
#
# Total GULP energy -78453.339813 kJ/mol
# GULP energy per Si atom -5603.809987 kJ/mol
# Density = 2.825592 g / cm^3
# Si number density = 28.320382 Si / 1000 Ang^3
#
#
#
# Elastic Constant Matrix: (Units=GPa)
#
#
# Indices 1 2 3 4 5 6 
#
# 1 155.4612 44.1051 19.3876 6.2419 -11.1366 -21.8016
# 2 44.1051 91.7398 30.3800 8.6935 -16.4746 -23.4425
# 3 19.3876 30.3800 103.0793 -1.6924 -26.0689 1.8354
# 4 6.2419 8.6935 -1.6924 45.7835 -9.8605 1.8103
# 5 -11.1366 -16.4746 -26.0689 -9.8605 42.3321 2.2261
# 6 -21.8016 -23.4425 1.8354 1.8103 2.2261 75.5256
#
#
#
# Elastic Compliance Matrix: (Units=1/GPa)
#
#
# Indices 1 2 3 4 5 6 
#
# 1 0.007578 -0.003067 -0.000463 -0.000443 0.000346 0.001247
# 2 -0.003067 0.015112 -0.003416 -0.002248 0.002244 0.003876
# 3 -0.000463 -0.003416 0.012665 0.002777 0.007088 -0.001777
# 4 -0.000443 -0.002248 0.002777 0.023868 0.006365 -0.001653
# 5 0.000346 0.002244 0.007088 0.006365 0.030457 -0.000426
# 6 0.001247 0.003876 -0.001777 -0.001653 -0.000426 0.014899
#
#
# Mechanical properties :
#
#
# Convention : Reuss Voigt Hill
#
# Bulk Modulus (GPa) = 46.59104 59.78065 53.18585
# Shear Modulus (GPa) = 39.80074 49.82209 44.81141
#
# Velocity S-wave (km/s) = 3.75290 4.19887 3.98213
# Velocity P-wave (km/s) = 5.93853 6.68295 6.32171
#
# Compressibility (1/GPa) = 0.02146335
#
# Stress axis : x y z
#
# Youngs Moduli (GPa) = 131.96407 66.17093 78.95770
#
# Poissons Ratio (x) = 0.20294 0.03659
# Poissons Ratio (y) = 0.40472 0.26969
# Poissons Ratio (z) = 0.06115 0.22602
#
# Static dielectric constant tensor:
#      x y z
#    x 2.330430 0.056060 0.126760 
#    y 0.056060 2.179510 0.003300 
#    z 0.126760 0.003300 2.217220 
# 
# From -- ./inp_files/298077.got.cif
#   From: 2010.05.17/outbox.cif.g08.bks.cpg/sg2_150_cif.got.tgz:298077.got - 2010.06.03 11:33:40.
