data_PCOD9016608
_publ_section_title
;
Structure prediction by ZEFSAII (Michael W. Deem and Ramdas Pophale) SiO2 
 PCOD9016608
Probable space group: P -1
;
_chemical_formula_sum "Si O2"
_cell_formula_units_Z 14
_cell_length_a 19.603996
_cell_length_b 17.321880
_cell_length_c 5.183800
_cell_angle_alpha 72.086650
_cell_angle_beta 69.110530
_cell_angle_gamma 20.079441
_cell_volume 562.577474
_symmetry_space_group_name_H-M "P -1"
_symmetry_group_IT_number 2
_symmetry_cell_setting 'triclinic'
loop_
_space_group_symop_operation_xyz
x,y,z
-x,-y,-z
loop_
_atom_site_type_symbol
_atom_site_label
_atom_site_fract_x
_atom_site_fract_y
_atom_site_fract_z
Si Si1 0.084369 0.004042 0.897522
Si Si2 0.802197 0.350491 0.536517
Si Si3 0.644290 0.900113 0.596629
Si Si4 0.947910 0.488271 0.872394
Si Si5 0.391640 0.877663 0.484364
Si Si6 0.116454 0.143368 0.084107
Si Si7 0.289339 0.738683 0.402170
O O1 0.203396 0.885291 0.590226
O O2 0.246013 0.829972 0.095752
O O3 0.885467 0.262631 0.810984
O O4 0.000000 0.000000 0.000000
O O5 0.796994 0.262903 0.529933
O O6 0.959083 0.235864 0.262987
O O7 0.587114 0.618450 0.529098
O O8 0.720501 0.750148 0.838674
O O9 0.558578 0.077307 0.604829
O O10 0.866704 0.695165 0.393186
O O11 0.500000 0.000000 0.500000
O O12 0.000000 0.500000 0.000000
O O13 0.977152 0.367936 0.056156
O O14 0.287403 0.974331 0.247504
O O15 0.227282 0.025095 0.778350
O O16 0.500000 0.500000 0.500000
#
# Coordination Sequence:
#
# PCOD9016608 Si02
#       7
#     2   2   2   2   2   2   2
#     4  10  23  47  73 105 140 186 237 289 357 437
#     4  11  27  49  78 105 155 194 236 307 375 428
#     4  10  23  41  70 100 137 189 250 299 355 433
#     4  10  21  42  68  95 139 189 243 301 351 421
#     4  11  27  47  70 113 146 193 249 301 369 432
#     4  11  27  47  72 106 151 192 248 304 366 432
#     4  11  25  48  78 110 140 187 247 291 361 443
#
# _framework density 24.885463000000001
#
# number of rings (size 3 to 8) (size 9 to 14) (size 15 to 20)
#    0.000    1.429    1.429    2.143    4.000   10.857 
#    0.000    0.000    0.000    0.000    0.000    0.000 
#    0.000    0.000    0.000    0.000    0.000    0.000 
#
# Total GULP energy -78144.834819 kJ/mol
# GULP energy per Si atom -5581.773916 kJ/mol
# Density = 2.482882 g / cm^3
# Si number density = 24.885463 Si / 1000 Ang^3
#
#
#
# Elastic Constant Matrix: (Units=GPa)
#
#
# Indices 1 2 3 4 5 6 
#
# 1 119.5783 44.9335 38.5266 -29.3304 -1.4073 -0.6458
# 2 44.9335 176.0172 47.1592 -57.3283 8.5407 13.6194
# 3 38.5266 47.1592 126.5724 -38.6572 21.3524 -7.1264
# 4 -29.3304 -57.3283 -38.6572 55.4833 -8.3192 7.8106
# 5 -1.4073 8.5407 21.3524 -8.3192 59.3592 -14.1480
# 6 -0.6458 13.6194 -7.1264 7.8106 -14.1480 50.2257
#
#
#
# Elastic Compliance Matrix: (Units=1/GPa)
#
#
# Indices 1 2 3 4 5 6 
#
# 1 0.010208 -0.001181 -0.002014 0.002991 0.001591 0.000149
# 2 -0.001181 0.009554 -0.000398 0.009443 -0.000987 -0.004409
# 3 -0.002014 -0.000398 0.010921 0.005680 -0.003157 -0.000141
# 4 0.002991 0.009443 0.005680 0.034286 -0.000220 -0.007110
# 5 0.001591 -0.000987 -0.003157 -0.000220 0.019404 0.005340
# 6 0.000149 -0.004409 -0.000141 -0.007110 0.005340 0.023697
#
#
# Mechanical properties :
#
#
# Convention : Reuss Voigt Hill
#
# Bulk Modulus (GPa) = 42.55754 75.93408 59.24581
# Shear Modulus (GPa) = 40.62091 52.45019 46.53555
#
# Velocity S-wave (km/s) = 4.04457 4.59591 4.32903
# Velocity P-wave (km/s) = 6.24099 7.66439 6.98902
#
# Compressibility (1/GPa) = 0.02349760
#
# Stress axis : x y z
#
# Youngs Moduli (GPa) = 97.95790 104.67027 91.56510
#
# Poissons Ratio (x) = 0.12363 0.18440
# Poissons Ratio (y) = 0.11570 0.03644
# Poissons Ratio (z) = 0.19727 0.04165
#
# Static dielectric constant tensor:
#      x y z
#    x 27.206490 11.032030 -15.672600 
#    y 11.032030 6.819690 -6.767300 
#    z -15.672600 -6.767300 12.026010 
# 
# From -- ./inp_files/119855.got.cif
#   From: 2010.05.17/outbox.cif.g08.bks.cpg/sg2_60_cif.got.tgz:119855.got - 2010.06.03 11:33:40.
