data_PCOD9016895
_publ_section_title
;
Structure prediction by ZEFSAII (Michael W. Deem and Ramdas Pophale) SiO2 
 PCOD9016895
Probable space group: P -1
;
_chemical_formula_sum "Si O2"
_cell_formula_units_Z 16
_cell_length_a 15.002002
_cell_length_b 7.740908
_cell_length_c 11.773246
_cell_angle_alpha 83.785644
_cell_angle_beta 150.321811
_cell_angle_gamma 101.617746
_cell_volume 656.774704
_symmetry_space_group_name_H-M "P -1"
_symmetry_group_IT_number 2
_symmetry_cell_setting 'triclinic'
loop_
_space_group_symop_operation_xyz
x,y,z
-x,-y,-z
loop_
_atom_site_type_symbol
_atom_site_label
_atom_site_fract_x
_atom_site_fract_y
_atom_site_fract_z
Si Si1 0.198106 0.643397 0.557769
Si Si2 0.808118 0.464812 0.144565
Si Si3 0.560088 0.998306 0.697213
Si Si4 0.835605 0.327575 0.943484
Si Si5 0.570446 0.756608 0.285805
Si Si6 0.596630 0.750147 0.949271
Si Si7 0.238091 0.524087 0.373321
Si Si8 0.803409 0.990308 0.341808
O O1 0.410384 0.630850 0.804954
O O2 0.184673 0.648122 0.405264
O O3 0.186720 0.823152 0.596778
O O4 0.025488 0.483562 0.410534
O O5 0.801028 0.448328 0.001650
O O6 0.633405 0.306088 0.992277
O O7 0.752975 0.639072 0.120368
O O8 0.764677 0.124859 0.916683
O O9 0.441654 0.101814 0.639120
O O10 0.500000 0.000000 0.500000
O O11 0.562436 0.818162 0.780052
O O12 0.722414 0.370407 0.706861
O O13 0.051075 0.375827 0.152325
O O14 0.618694 0.584240 0.411501
O O15 0.728215 0.840269 0.364830
O O16 0.658426 0.923470 0.084184
O O17 0.000000 0.000000 0.500000
#
# Coordination Sequence:
#
# PCOD9016895 Si02
#       8
#     2   2   2   2   2   2   2   2
#     4  11  22  46  69  97 134 185 231 283 346 406
#     4  10  23  43  70 102 137 180 233 283 345 420
#     4  11  25  41  69 102 139 183 231 279 358 420
#     4   9  22  40  65 103 140 180 230 278 349 420
#     4  11  25  44  69 104 140 177 239 287 344 418
#     4  12  24  45  71  98 144 185 230 291 343 404
#     4  10  21  42  69  98 141 181 228 291 341 413
#     4  12  27  47  70 100 143 187 236 290 346 409
#
# _framework density 24.361473
#
# number of rings (size 3 to 8) (size 9 to 14) (size 15 to 20)
#    0.000    1.250    3.750    1.125    3.500    1.500 
#    0.000    1.875    0.000    0.000    0.000    0.000 
#    0.000    0.000    0.000    0.000    0.000    0.000 
#
# Total GULP energy -89368.629423 kJ/mol
# GULP energy per Si atom -5585.539339 kJ/mol
# Density = 2.430603 g / cm^3
# Si number density = 24.361473 Si / 1000 Ang^3
#
#
#
# Elastic Constant Matrix: (Units=GPa)
#
#
# Indices 1 2 3 4 5 6 
#
# 1 132.7495 39.9806 45.0631 1.4687 -10.9510 17.7233
# 2 39.9806 81.8994 34.8249 0.9733 1.1890 -0.7540
# 3 45.0631 34.8249 122.1616 20.0790 13.9900 15.5870
# 4 1.4687 0.9733 20.0790 29.1314 6.0598 -2.3632
# 5 -10.9510 1.1890 13.9900 6.0598 62.1091 7.1498
# 6 17.7233 -0.7540 15.5870 -2.3632 7.1498 40.8051
#
#
#
# Elastic Compliance Matrix: (Units=1/GPa)
#
#
# Indices 1 2 3 4 5 6 
#
# 1 0.010416 -0.004081 -0.002561 0.000435 0.002922 -0.004108
# 2 -0.004081 0.015866 -0.003878 0.002844 -0.000872 0.003865
# 3 -0.002561 -0.003878 0.012270 -0.008107 -0.001915 -0.003780
# 4 0.000435 0.002844 -0.008107 0.040854 -0.002807 0.005818
# 5 0.002922 -0.000872 -0.001915 -0.002807 0.017779 -0.003832
# 6 -0.004108 0.003865 -0.003780 0.005818 -0.003832 0.028815
#
#
# Mechanical properties :
#
#
# Convention : Reuss Voigt Hill
#
# Bulk Modulus (GPa) = 57.10407 64.06087 60.58247
# Shear Modulus (GPa) = 32.70587 40.87192 36.78890
#
# Velocity S-wave (km/s) = 3.66802 4.10045 3.89025
# Velocity P-wave (km/s) = 6.43664 6.98365 6.71572
#
# Compressibility (1/GPa) = 0.01751189
#
# Stress axis : x y z
#
# Youngs Moduli (GPa) = 96.00451 63.02820 81.49836
#
# Poissons Ratio (x) = 0.25724 0.20870
# Poissons Ratio (y) = 0.39183 0.31605
# Poissons Ratio (z) = 0.24585 0.24442
#
# Static dielectric constant tensor:
#      x y z
#    x 1.935800 0.040890 -0.011070 
#    y 0.040890 1.960520 0.032560 
#    z -0.011070 0.032560 1.988190 
# 
# From -- ./inp_files/447586.got.cif
#   From: 2010.05.17/outbox.cif.g08.bks.cpg/sg2_224_cif.got.tgz:447586.got - 2010.06.03 11:33:40.
