data_PCOD9016177
_publ_section_title
;
Structure prediction by ZEFSAII (Michael W. Deem and Ramdas Pophale) SiO2 
 PCOD9016177
Probable space group: P -1
;
_chemical_formula_sum "Si O2"
_cell_formula_units_Z 16
_cell_length_a 14.773693
_cell_length_b 13.955281
_cell_length_c 12.629634
_cell_angle_alpha 41.983646
_cell_angle_beta 61.524234
_cell_angle_gamma 29.673406
_cell_volume 741.426056
_symmetry_space_group_name_H-M "P -1"
_symmetry_group_IT_number 2
_symmetry_cell_setting 'triclinic'
loop_
_space_group_symop_operation_xyz
x,y,z
-x,-y,-z
loop_
_atom_site_type_symbol
_atom_site_label
_atom_site_fract_x
_atom_site_fract_y
_atom_site_fract_z
Si Si1 0.016556 0.589397 0.015665
Si Si2 0.031138 0.008894 0.856583
Si Si3 0.770652 0.496061 0.450235
Si Si4 0.862825 0.065055 0.446494
Si Si5 0.382905 0.789223 0.359469
Si Si6 0.257350 0.018096 0.749136
Si Si7 0.711004 0.483768 0.037921
Si Si8 0.988318 0.517161 0.327515
O O1 0.209293 0.466600 0.994673
O O2 0.037034 0.494607 0.197858
O O3 0.000000 0.500000 0.000000
O O4 0.796194 0.946274 0.840528
O O5 0.215277 0.905592 0.833125
O O6 0.822423 0.340190 0.653796
O O7 0.104759 0.789139 0.922434
O O8 0.000000 0.000000 0.000000
O O9 0.553454 0.706442 0.348702
O O10 0.799715 0.627943 0.345872
O O11 0.967248 0.214898 0.495229
O O12 0.738788 0.099942 0.555213
O O13 0.707411 0.359831 0.227011
O O14 0.000000 0.000000 0.500000
O O15 0.500000 0.500000 0.500000
O O16 0.096265 0.249358 0.745979
O O17 0.182729 0.208079 0.536963
O O18 0.492793 0.760304 0.869641
#
# Coordination Sequence:
#
# PCOD9016177 Si02
#       8
#     2   2   2   2   2   2   2   2
#     4  12  27  44  65 102 142 180 228 276 341 423
#     4  10  21  42  66  98 130 166 227 286 335 400
#     4  10  23  41  63  95 133 177 220 274 339 397
#     4  11  21  41  63  95 141 166 221 289 327 403
#     4  12  24  40  68  98 129 183 228 269 346 399
#     4  10  23  43  68  95 128 180 225 280 344 393
#     4  11  24  41  68 101 132 173 224 280 349 399
#     4  10  24  45  65  91 139 173 228 279 327 419
#
# _framework density 21.580036
#
# number of rings (size 3 to 8) (size 9 to 14) (size 15 to 20)
#    0.000    1.250    2.500    2.625    5.250    1.000 
#    2.250    0.000    0.000    0.000    0.000    0.000 
#    0.000    0.000    0.000    0.000    0.000    0.000 
#
# Total GULP energy -89489.375828 kJ/mol
# GULP energy per Si atom -5593.085989 kJ/mol
# Density = 2.153092 g / cm^3
# Si number density = 21.580036 Si / 1000 Ang^3
#
#
#
# Elastic Constant Matrix: (Units=GPa)
#
#
# Indices 1 2 3 4 5 6 
#
# 1 113.3338 9.6129 20.7879 -16.0454 12.6343 -5.9381
# 2 9.6129 41.2170 33.9061 9.6397 2.0621 -2.4774
# 3 20.7879 33.9061 117.9775 8.0996 17.6299 -9.0127
# 4 -16.0454 9.6397 8.0996 35.3153 -3.5616 15.5307
# 5 12.6343 2.0621 17.6299 -3.5616 30.1929 -7.3870
# 6 -5.9381 -2.4774 -9.0127 15.5307 -7.3870 42.5422
#
#
#
# Elastic Compliance Matrix: (Units=1/GPa)
#
#
# Indices 1 2 3 4 5 6 
#
# 1 0.010422 -0.002959 -0.001068 0.006247 -0.003236 -0.001786
# 2 -0.002959 0.034843 -0.009072 -0.010177 0.003957 0.004097
# 3 -0.001068 -0.009072 0.012462 -0.002237 -0.006051 0.001729
# 4 0.006247 -0.010177 -0.002237 0.041151 0.000542 -0.015124
# 5 -0.003236 0.003957 -0.006051 0.000542 0.039044 0.005079
# 6 -0.001786 0.004097 0.001729 -0.015124 0.005079 0.030265
#
#
# Mechanical properties :
#
#
# Convention : Reuss Voigt Hill
#
# Bulk Modulus (GPa) = 31.71665 44.57135 38.14400
# Shear Modulus (GPa) = 24.40297 35.49150 29.94723
#
# Velocity S-wave (km/s) = 3.36640 4.05982 3.72926
# Velocity P-wave (km/s) = 5.46254 6.53261 6.02139
#
# Compressibility (1/GPa) = 0.03152918
#
# Stress axis : x y z
#
# Youngs Moduli (GPa) = 95.95239 28.69993 80.24692
#
# Poissons Ratio (x) = 0.08491 0.08569
# Poissons Ratio (y) = 0.28389 0.72802
# Poissons Ratio (z) = 0.10246 0.26037
#
# Static dielectric constant tensor:
#      x y z
#    x 1.761640 0.047470 -0.017920 
#    y 0.047470 1.743910 0.006470 
#    z -0.017920 0.006470 1.783250 
# 
# From -- ./inp_files/455471.got.cif
#   From: 2010.05.17/outbox.cif.g08.bks.cpg/sg2_228_cif.got.tgz:455471.got - 2010.06.03 11:33:40.
