data_PCOD9016817
_publ_section_title
;
Structure prediction by ZEFSAII (Michael W. Deem and Ramdas Pophale) SiO2 
 PCOD9016817
Probable space group: P -1
;
_chemical_formula_sum "Si O2"
_cell_formula_units_Z 16
_cell_length_a 10.972972
_cell_length_b 7.955256
_cell_length_c 13.745125
_cell_angle_alpha 83.503732
_cell_angle_beta 33.724621
_cell_angle_gamma 88.107904
_cell_volume 657.811889
_symmetry_space_group_name_H-M "P -1"
_symmetry_group_IT_number 2
_symmetry_cell_setting 'triclinic'
loop_
_space_group_symop_operation_xyz
x,y,z
-x,-y,-z
loop_
_atom_site_type_symbol
_atom_site_label
_atom_site_fract_x
_atom_site_fract_y
_atom_site_fract_z
Si Si1 0.373726 0.760965 0.184753
Si Si2 0.002008 0.606742 0.329895
Si Si3 0.832402 0.429616 0.982241
Si Si4 0.004667 0.779351 0.930000
Si Si5 0.636781 0.969722 0.261870
Si Si6 0.218942 0.116360 0.211887
Si Si7 0.756420 0.235072 0.505372
Si Si8 0.625173 0.751047 0.688303
O O1 0.341098 0.779620 0.319319
O O2 0.210092 0.601951 0.264443
O O3 0.274534 0.922749 0.189775
O O4 0.621034 0.778168 0.978664
O O5 0.866026 0.425867 0.413200
O O6 0.826565 0.713906 0.489453
O O7 0.104176 0.656916 0.154253
O O8 0.928150 0.322294 0.011978
O O9 0.935673 0.625407 0.912439
O O10 0.566411 0.408079 0.167963
O O11 0.804621 0.884620 0.085384
O O12 0.212337 0.921941 0.766186
O O13 0.501862 0.101077 0.284296
O O14 0.448010 0.820540 0.426015
O O15 0.284004 0.192789 0.269888
O O16 0.961590 0.125603 0.365091
#
# Coordination Sequence:
#
# PCOD9016817 Si02
#       8
#     2   2   2   2   2   2   2   2
#     4  11  23  41  62  94 132 173 214 253 315 386
#     4  12  25  39  64  97 134 177 209 255 324 389
#     4  10  22  45  67  97 127 169 214 268 327 382
#     4   9  21  44  74  91 125 165 220 279 323 369
#     4  10  21  42  69  95 121 172 211 270 327 369
#     4  11  23  39  65  93 129 177 212 257 312 380
#     4  12  24  40  62  96 138 169 209 261 315 382
#     4  11  21  41  66  93 133 170 210 265 318 377
#
# _framework density 24.323065
#
# number of rings (size 3 to 8) (size 9 to 14) (size 15 to 20)
#    0.000    1.250    3.750    2.250    0.000    2.500 
#    0.000   13.750    0.000    0.000    0.000    0.000 
#    0.000    0.000    0.000    0.000    0.000    0.000 
#
# Total GULP energy -89587.773763 kJ/mol
# GULP energy per Si atom -5599.235860 kJ/mol
# Density = 2.426770 g / cm^3
# Si number density = 24.323065 Si / 1000 Ang^3
#
#
#
# Elastic Constant Matrix: (Units=GPa)
#
#
# Indices 1 2 3 4 5 6 
#
# 1 67.9054 20.7551 50.7959 15.1277 -17.6728 13.0012
# 2 20.7551 90.2757 35.2551 -5.8349 -12.7665 22.8303
# 3 50.7959 35.2551 157.0208 19.6169 -20.3668 26.8173
# 4 15.1277 -5.8349 19.6169 47.4285 18.0374 -9.9213
# 5 -17.6728 -12.7665 -20.3668 18.0374 44.8192 -1.3364
# 6 13.0012 22.8303 26.8173 -9.9213 -1.3364 37.8108
#
#
#
# Elastic Compliance Matrix: (Units=1/GPa)
#
#
# Indices 1 2 3 4 5 6 
#
# 1 0.026061 -0.001442 -0.002806 -0.014720 0.014232 -0.009459
# 2 -0.001442 0.014015 -0.001182 0.000231 0.002585 -0.006976
# 3 -0.002806 -0.001182 0.010589 -0.007574 0.006190 -0.007600
# 4 -0.014720 0.000231 -0.007574 0.043127 -0.025920 0.020694
# 5 0.014232 0.002585 0.006190 -0.025920 0.041422 -0.016182
# 6 -0.009459 -0.006976 -0.007600 0.020694 -0.016182 0.044161
#
#
# Mechanical properties :
#
#
# Convention : Reuss Voigt Hill
#
# Bulk Modulus (GPa) = 25.12327 58.75713 41.94020
# Shear Modulus (GPa) = 24.56951 39.90476 32.23714
#
# Velocity S-wave (km/s) = 3.18171 4.05484 3.64452
# Velocity P-wave (km/s) = 4.88355 6.79204 5.91527
#
# Compressibility (1/GPa) = 0.03980374
#
# Stress axis : x y z
#
# Youngs Moduli (GPa) = 38.37181 71.35110 94.43786
#
# Poissons Ratio (x) = 0.10290 0.26501
# Poissons Ratio (y) = 0.05534 0.11165
# Poissons Ratio (z) = 0.10768 0.08435
#
# Static dielectric constant tensor:
#      x y z
#    x 1.897450 -0.002190 -0.008810 
#    y -0.002190 2.001450 -0.083930 
#    z -0.008810 -0.083930 1.934380 
# 
# From -- ./inp_files/399218.got.cif
#   From: 2010.05.17/outbox.cif.g08.bks.cpg/sg2_200_cif.got.tgz:399218.got - 2010.06.03 11:33:40.
