data_PCOD9016496
_publ_section_title
;
Structure prediction by ZEFSAII (Michael W. Deem and Ramdas Pophale) SiO2 
 PCOD9016496
Probable space group: P -1
;
_chemical_formula_sum "Si O2"
_cell_formula_units_Z 14
_cell_length_a 5.303313
_cell_length_b 20.606960
_cell_length_c 9.240872
_cell_angle_alpha 140.228796
_cell_angle_beta 74.345931
_cell_angle_gamma 107.215986
_cell_volume 615.621483
_symmetry_space_group_name_H-M "P -1"
_symmetry_group_IT_number 2
_symmetry_cell_setting 'triclinic'
loop_
_space_group_symop_operation_xyz
x,y,z
-x,-y,-z
loop_
_atom_site_type_symbol
_atom_site_label
_atom_site_fract_x
_atom_site_fract_y
_atom_site_fract_z
Si Si1 0.088002 0.394833 0.399117
Si Si2 0.365668 0.757214 0.647397
Si Si3 0.548026 0.718399 0.016515
Si Si4 0.755835 0.942975 0.352574
Si Si5 0.599523 0.615332 0.136897
Si Si6 0.101121 0.105415 0.080309
Si Si7 0.924759 0.410876 0.137946
O O1 0.807944 0.332917 0.385410
O O2 0.096744 0.435706 0.301182
O O3 0.193236 0.481931 0.650469
O O4 0.291396 0.314584 0.202117
O O5 0.494494 0.695438 0.396113
O O6 0.616760 0.832525 0.802987
O O7 0.136366 0.824855 0.753403
O O8 0.666865 0.830050 0.236048
O O9 0.523300 0.646848 0.040667
O O10 0.245681 0.696718 0.978097
O O11 0.500000 0.000000 0.500000
O O12 0.847360 0.926782 0.147370
O O13 0.000000 0.000000 0.500000
O O14 0.500000 0.500000 0.000000
O O15 0.912907 0.611654 0.065196
O O16 0.000000 0.000000 0.000000
#
# Coordination Sequence:
#
# PCOD9016496 Si02
#       7
#     2   2   2   2   2   2   2
#     4  10  21  42  68 102 139 189 238 299 358 447
#     4  12  26  47  75 106 152 194 241 302 379 437
#     4  11  25  43  72  99 145 193 247 304 372 435
#     4  12  29  49  79 108 144 192 254 313 372 437
#     4  11  26  43  66 108 150 194 242 298 367 451
#     4  12  29  50  76 109 147 193 254 311 380 441
#     4  10  22  41  69 101 143 185 247 288 366 434
#
# _framework density 22.741246
#
# number of rings (size 3 to 8) (size 9 to 14) (size 15 to 20)
#    0.000    0.857    2.857    2.571   10.000    1.714 
#    0.000    0.000    0.000    0.000    0.000    0.000 
#    0.000    0.000    0.000    0.000    0.000    0.000 
#
# Total GULP energy -78043.040351 kJ/mol
# GULP energy per Si atom -5574.502882 kJ/mol
# Density = 2.268949 g / cm^3
# Si number density = 22.741246 Si / 1000 Ang^3
#
#
#
# Elastic Constant Matrix: (Units=GPa)
#
#
# Indices 1 2 3 4 5 6 
#
# 1 109.2208 40.3756 77.4593 12.5905 -4.6329 36.2431
# 2 40.3756 130.6173 63.3374 7.5305 9.5590 21.5120
# 3 77.4593 63.3374 177.7936 -4.2942 -18.2767 29.9607
# 4 12.5905 7.5305 -4.2942 43.4220 11.2866 -1.4939
# 5 -4.6329 9.5590 -18.2767 11.2866 41.0093 1.9518
# 6 36.2431 21.5120 29.9607 -1.4939 1.9518 46.4119
#
#
#
# Elastic Compliance Matrix: (Units=1/GPa)
#
#
# Indices 1 2 3 4 5 6 
#
# 1 0.017594 -0.000827 -0.005646 -0.006351 0.001888 -0.009996
# 2 -0.000827 0.010148 -0.003349 -0.000977 -0.003598 -0.001776
# 3 -0.005646 -0.003349 0.009814 0.002146 0.003949 -0.000472
# 4 -0.006351 -0.000977 0.002146 0.027331 -0.007304 0.005214
# 5 0.001888 -0.003598 0.003949 -0.007304 0.029389 -0.003827
# 6 -0.009996 -0.001776 -0.000472 0.005214 -0.003827 0.030808
#
#
# Mechanical properties :
#
#
# Convention : Reuss Voigt Hill
#
# Bulk Modulus (GPa) = 55.82383 86.66401 71.24392
# Shear Modulus (GPa) = 33.17889 41.93261 37.55575
#
# Velocity S-wave (km/s) = 3.82380 4.29873 4.06820
# Velocity P-wave (km/s) = 6.64047 7.92655 7.31184
#
# Compressibility (1/GPa) = 0.01791350
#
# Stress axis : x y z
#
# Youngs Moduli (GPa) = 56.83610 98.54547 101.89086
#
# Poissons Ratio (x) = 0.08148 0.57525
# Poissons Ratio (y) = 0.04699 0.34123
# Poissons Ratio (z) = 0.32088 0.33002
#
# Static dielectric constant tensor:
#      x y z
#    x 3.678790 -0.277360 -0.487740 
#    y -0.277360 1.997520 0.175620 
#    z -0.487740 0.175620 2.077690 
# 
# From -- ./inp_files/39657.got.cif
#   From: 2010.05.17/outbox.cif.g08.bks.cpg/sg2_20_cif.got.tgz:39657.got - 2010.06.03 11:33:40.
