data_PCOD9016141
_publ_section_title
;
Structure prediction by ZEFSAII (Michael W. Deem and Ramdas Pophale) SiO2 
 PCOD9016141
Probable space group: P -1
;
_chemical_formula_sum "Si O2"
_cell_formula_units_Z 12
_cell_length_a 17.531638
_cell_length_b 6.391468
_cell_length_c 5.007320
_cell_angle_alpha 102.765649
_cell_angle_beta 77.235511
_cell_angle_gamma 83.004962
_cell_volume 525.037557
_symmetry_space_group_name_H-M "P -1"
_symmetry_group_IT_number 2
_symmetry_cell_setting 'triclinic'
loop_
_space_group_symop_operation_xyz
x,y,z
-x,-y,-z
loop_
_atom_site_type_symbol
_atom_site_label
_atom_site_fract_x
_atom_site_fract_y
_atom_site_fract_z
Si Si1 0.588211 0.994728 0.528744
Si Si2 0.327239 0.898797 0.022207
Si Si3 0.726126 0.684365 0.486344
Si Si4 0.125454 0.333881 0.988479
Si Si5 0.804441 0.308610 0.693403
Si Si6 0.923838 0.888204 0.504437
O O1 0.599379 0.122355 0.829679
O O2 0.500000 0.000000 0.500000
O O3 0.636250 0.746138 0.464751
O O4 0.638589 0.095465 0.295152
O O5 0.267871 0.733060 0.074384
O O6 0.279035 0.134072 0.223969
O O7 0.786480 0.731970 0.226264
O O8 0.763482 0.457724 0.527305
O O9 0.070017 0.306902 0.770089
O O10 0.133194 0.567730 0.169716
O O11 0.100756 0.193507 0.212122
O O12 0.854474 0.078777 0.502727
O O13 0.000000 0.000000 0.500000
#
# Coordination Sequence:
#
# PCOD9016141 Si02
#       6
#     2   2   2   2   2   2
#     4  10  21  42  66  96 140 176 214 280 335 383
#     4  10  23  41  68  95 132 180 222 269 333 395
#     4  10  23  41  68  98 129 173 232 263 327 397
#     4  12  25  47  68 101 133 176 226 274 330 405
#     4  12  24  43  74  95 135 175 229 274 332 391
#     4  12  28  47  68 100 138 174 220 276 340 399
#
# _framework density 22.855508
#
# number of rings (size 3 to 8) (size 9 to 14) (size 15 to 20)
#    1.000    0.000    3.333    3.000    4.667    1.333 
#    0.000    1.667    0.000    0.000    0.000    0.000 
#    0.000    0.000    0.000    0.000    0.000    0.000 
#
# Total GULP energy -66998.896881 kJ/mol
# GULP energy per Si atom -5583.241407 kJ/mol
# Density = 2.280349 g / cm^3
# Si number density = 22.855508 Si / 1000 Ang^3
#
#
#
# Elastic Constant Matrix: (Units=GPa)
#
#
# Indices 1 2 3 4 5 6 
#
# 1 89.8442 29.6014 -3.2222 -6.8253 -0.6179 2.1634
# 2 29.6014 71.3361 30.7198 -18.5675 -8.4866 7.9477
# 3 -3.2222 30.7198 81.3963 -19.2325 13.1920 -9.4338
# 4 -6.8253 -18.5675 -19.2325 38.1641 5.2254 3.2645
# 5 -0.6179 -8.4866 13.1920 5.2254 33.7257 -1.1169
# 6 2.1634 7.9477 -9.4338 3.2645 -1.1169 25.3736
#
#
#
# Elastic Compliance Matrix: (Units=1/GPa)
#
#
# Indices 1 2 3 4 5 6 
#
# 1 0.014111 -0.008521 0.005048 0.001205 -0.003947 0.003014
# 2 -0.008521 0.026774 -0.012382 0.004923 0.010250 -0.012446
# 3 0.005048 -0.012382 0.021928 0.006742 -0.012308 0.010192
# 4 0.001205 0.004923 0.006742 0.033445 -0.006682 -0.003735
# 5 -0.003947 0.010250 -0.012308 -0.006682 0.037844 -0.004924
# 6 0.003014 -0.012446 0.010192 -0.003735 -0.004924 0.047105
#
#
# Mechanical properties :
#
#
# Convention : Reuss Voigt Hill
#
# Bulk Modulus (GPa) = 32.15284 39.64161 35.89723
# Shear Modulus (GPa) = 22.39293 31.81785 27.10539
#
# Velocity S-wave (km/s) = 3.13351 3.73517 3.44749
# Velocity P-wave (km/s) = 5.21443 5.99868 5.62025
#
# Compressibility (1/GPa) = 0.03110145
#
# Stress axis : x y z
#
# Youngs Moduli (GPa) = 70.86810 37.35009 45.60459
#
# Poissons Ratio (x) = 0.31827 -0.23022
# Poissons Ratio (y) = 0.60388 0.56469
# Poissons Ratio (z) = -0.35776 0.46248
#
# Static dielectric constant tensor:
#      x y z
#    x 1.882680 -0.023980 0.038730 
#    y -0.023980 1.858280 0.026240 
#    z 0.038730 0.026240 1.836880 
# 
# From -- ./inp_files/102528.got.cif
#   From: 2010.05.17/outbox.cif.g08.bks.cpg/sg2_52_cif.got.tgz:102528.got - 2010.06.03 11:33:40.
