data_PCOD9016094
_publ_section_title
;
Structure prediction by ZEFSAII (Michael W. Deem and Ramdas Pophale) SiO2 
 PCOD9016094
Probable space group: P -1
;
_chemical_formula_sum "Si O2"
_cell_formula_units_Z 16
_cell_length_a 8.320586
_cell_length_b 12.278887
_cell_length_c 14.258113
_cell_angle_alpha 144.797339
_cell_angle_beta 65.789327
_cell_angle_gamma 130.708515
_cell_volume 610.895794
_symmetry_space_group_name_H-M "P -1"
_symmetry_group_IT_number 2
_symmetry_cell_setting 'triclinic'
loop_
_space_group_symop_operation_xyz
x,y,z
-x,-y,-z
loop_
_atom_site_type_symbol
_atom_site_label
_atom_site_fract_x
_atom_site_fract_y
_atom_site_fract_z
Si Si1 0.115816 0.026267 0.700996
Si Si2 0.586189 0.208011 0.700858
Si Si3 0.513732 0.210819 0.249551
Si Si4 0.216046 0.333774 0.735418
Si Si5 0.039054 0.902896 0.830717
Si Si6 0.413922 0.520168 0.384840
Si Si7 0.557379 0.159234 0.880920
Si Si8 0.021660 0.444554 0.689343
O O1 0.381620 0.214257 0.770324
O O2 0.057106 0.111385 0.684611
O O3 0.019755 0.009229 0.812879
O O4 0.049500 0.765008 0.515039
O O5 0.625052 0.144442 0.749567
O O6 0.812837 0.431640 0.761682
O O7 0.500000 0.000000 0.500000
O O8 0.437796 0.313578 0.263183
O O9 0.529283 0.329429 0.429145
O O10 0.760452 0.316082 0.231791
O O11 0.378112 0.938758 0.118719
O O12 0.408370 0.337378 0.639667
O O13 0.087127 0.361573 0.705467
O O14 0.338118 0.571390 0.934563
O O15 0.842652 0.620973 0.678279
O O16 0.290621 0.994494 0.830131
O O17 0.000000 0.000000 0.000000
#
# Coordination Sequence:
#
# PCOD9016094 Si02
#       8
#     2   2   2   2   2   2   2   2
#     4  10  22  42  66  91 129 165 218 260 306 388
#     4   9  22  41  61  92 127 167 210 261 315 372
#     4  10  23  42  68  95 126 166 215 268 308 380
#     4  11  24  41  65  97 130 168 206 264 322 376
#     4  11  22  44  64  96 129 167 215 259 321 374
#     4  10  22  42  67  96 124 169 216 257 322 372
#     4  11  25  43  62  97 134 162 213 263 320 380
#     4  10  21  42  66  95 122 166 220 257 317 373
#
# _framework density 26.191046
#
# number of rings (size 3 to 8) (size 9 to 14) (size 15 to 20)
#    0.000    1.750    2.500    0.375    3.500    7.000 
#    2.250    0.000    0.000    0.000    0.000    0.000 
#    0.000    0.000    0.000    0.000    0.000    0.000 
#
# Total GULP energy -89584.095706 kJ/mol
# GULP energy per Si atom -5599.005982 kJ/mol
# Density = 2.613143 g / cm^3
# Si number density = 26.191046 Si / 1000 Ang^3
#
#
#
# Elastic Constant Matrix: (Units=GPa)
#
#
# Indices 1 2 3 4 5 6 
#
# 1 41.9471 25.5239 2.3258 -2.3044 4.0625 12.2338
# 2 25.5239 184.9162 36.0674 -34.9893 -9.2377 -5.9974
# 3 2.3258 36.0674 81.0427 -13.8097 6.8062 -2.0140
# 4 -2.3044 -34.9893 -13.8097 41.5799 -7.7526 -3.1765
# 5 4.0625 -9.2377 6.8062 -7.7526 20.3698 3.2445
# 6 12.2338 -5.9974 -2.0140 -3.1765 3.2445 52.5132
#
#
#
# Elastic Compliance Matrix: (Units=1/GPa)
#
#
# Indices 1 2 3 4 5 6 
#
# 1 0.030509 -0.006376 0.001697 -0.005638 -0.010500 -0.007463
# 2 -0.006376 0.008938 -0.003136 0.007990 0.009045 0.002310
# 3 0.001697 -0.003136 0.014400 0.001102 -0.006192 0.000248
# 4 -0.005638 0.007990 0.001102 0.034226 0.016881 0.003296
# 5 -0.010500 0.009045 -0.006192 0.016881 0.063730 0.000325
# 6 -0.007463 0.002310 0.000248 0.003296 0.000325 0.021234
#
#
# Mechanical properties :
#
#
# Convention : Reuss Voigt Hill
#
# Bulk Modulus (GPa) = 26.16502 48.41559 37.29030
# Shear Modulus (GPa) = 24.82566 39.15852 31.99209
#
# Velocity S-wave (km/s) = 3.08209 3.87086 3.49877
# Velocity P-wave (km/s) = 4.76208 6.20514 5.53088
#
# Compressibility (1/GPa) = 0.03821897
#
# Stress axis : x y z
#
# Youngs Moduli (GPa) = 32.77766 111.88112 69.44444
#
# Poissons Ratio (x) = 0.71332 -0.11788
# Poissons Ratio (y) = 0.20898 0.21775
# Poissons Ratio (z) = -0.05564 0.35082
#
# Static dielectric constant tensor:
#      x y z
#    x 2.145700 -0.033510 -0.005710 
#    y -0.033510 2.016900 0.013200 
#    z -0.005710 0.013200 2.016680 
# 
# From -- ./inp_files/398472.got.cif
#   From: 2010.05.17/outbox.cif.g08.bks.cpg/sg2_200_cif.got.tgz:398472.got - 2010.06.03 11:33:40.
