data_PCOD9016427
_publ_section_title
;
Structure prediction by ZEFSAII (Michael W. Deem and Ramdas Pophale) SiO2 
 PCOD9016427
Probable space group: P -1
;
_chemical_formula_sum "Si O2"
_cell_formula_units_Z 14
_cell_length_a 5.884611
_cell_length_b 9.708840
_cell_length_c 18.214663
_cell_angle_alpha 40.325054
_cell_angle_beta 118.084695
_cell_angle_gamma 128.834763
_cell_volume 524.519390
_symmetry_space_group_name_H-M "P -1"
_symmetry_group_IT_number 2
_symmetry_cell_setting 'triclinic'
loop_
_space_group_symop_operation_xyz
x,y,z
-x,-y,-z
loop_
_atom_site_type_symbol
_atom_site_label
_atom_site_fract_x
_atom_site_fract_y
_atom_site_fract_z
Si Si1 0.696453 0.477776 0.620093
Si Si2 0.097079 0.129757 0.614973
Si Si3 0.868630 0.463573 0.089055
Si Si4 0.948662 0.095118 0.157862
Si Si5 0.537284 0.768230 0.111600
Si Si6 0.399651 0.207700 0.407654
Si Si7 0.801748 0.509196 0.214676
O O1 0.435048 0.239998 0.643609
O O2 0.896964 0.636079 0.518258
O O3 0.575875 0.646025 0.573910
O O4 0.890009 0.437009 0.726931
O O5 0.933326 0.004170 0.716558
O O6 0.942331 0.927310 0.611924
O O7 0.798840 0.243380 0.113805
O O8 0.714958 0.374837 0.179578
O O9 0.209121 0.565852 0.124280
O O10 0.851334 0.690698 0.955973
O O11 0.720985 0.851770 0.181628
O O12 0.761048 0.742851 0.100722
O O13 0.500000 0.000000 0.000000
O O14 0.578882 0.388225 0.296694
O O15 0.500000 0.000000 0.500000
#
# Coordination Sequence:
#
# PCOD9016427 Si02
#       7
#     2   2   2   2   2   2   2
#     4  11  26  46  69 105 144 184 242 291 349 427
#     4  11  23  46  70  98 146 187 227 294 350 419
#     4  10  23  43  68 100 140 184 235 290 348 424
#     4  10  21  42  67  97 140 181 228 287 347 413
#     4  10  23  45  69 100 143 185 233 294 351 414
#     4  12  26  45  70 104 142 188 235 291 355 417
#     4  12  23  45  76 103 143 191 238 292 356 426
#
# _framework density 26.691102999999998
#
# number of rings (size 3 to 8) (size 9 to 14) (size 15 to 20)
#    0.000    1.143    1.429    4.714    2.000    2.857 
#    5.143   18.571    0.000    0.000    0.000    1.000 
#    0.000    0.000    0.000    0.000    0.000    0.000 
#
# Total GULP energy -78116.210145 kJ/mol
# GULP energy per Si atom -5579.729296 kJ/mol
# Density = 2.663035 g / cm^3
# Si number density = 26.691103 Si / 1000 Ang^3
#
#
#
# Elastic Constant Matrix: (Units=GPa)
#
#
# Indices 1 2 3 4 5 6 
#
# 1 62.2806 28.3617 32.1636 -5.8789 -0.5378 -4.4313
# 2 28.3617 152.1637 14.6158 3.7352 -6.5657 5.9488
# 3 32.1636 14.6158 114.8843 4.6402 -11.2611 -4.9368
# 4 -5.8789 3.7352 4.6402 51.4580 0.3988 -5.3483
# 5 -0.5378 -6.5657 -11.2611 0.3988 47.5864 -2.2276
# 6 -4.4313 5.9488 -4.9368 -5.3483 -2.2276 40.4370
#
#
#
# Elastic Compliance Matrix: (Units=1/GPa)
#
#
# Indices 1 2 3 4 5 6 
#
# 1 0.021116 -0.003644 -0.005626 0.003460 -0.001506 0.002538
# 2 -0.003644 0.007366 0.000155 -0.001135 0.000948 -0.001562
# 3 -0.005626 0.000155 0.010594 -0.001568 0.002505 0.000585
# 4 0.003460 -0.001135 -0.001568 0.020370 -0.000518 0.003020
# 5 -0.001506 0.000948 0.002505 -0.000518 0.021778 0.001133
# 6 0.002538 -0.001562 0.000585 0.003020 0.001133 0.025771
#
#
# Mechanical properties :
#
#
# Convention : Reuss Voigt Hill
#
# Bulk Modulus (GPa) = 47.97557 53.29008 50.63283
# Shear Modulus (GPa) = 37.82859 44.84213 41.33536
#
# Velocity S-wave (km/s) = 3.76875 4.10328 3.93957
# Velocity P-wave (km/s) = 6.07877 6.51598 6.30117
#
# Compressibility (1/GPa) = 0.02084394
#
# Stress axis : x y z
#
# Youngs Moduli (GPa) = 47.35808 135.75675 94.39387
#
# Poissons Ratio (x) = 0.49476 0.53109
# Poissons Ratio (y) = 0.17259 -0.01462
# Poissons Ratio (z) = 0.26645 -0.02102
#
# Static dielectric constant tensor:
#      x y z
#    x 1.956360 0.585590 -0.460950 
#    y 0.585590 0.402260 1.246320 
#    z -0.460950 1.246320 1.375410 
# 
# From -- ./inp_files/547807.got.cif
#   From: 2010.05.17/outbox.cif.g08.bks.cpg/sg2_274_cif.got.tgz:547807.got - 2010.06.03 11:33:40.
