data_PCOD9016431
_publ_section_title
;
Structure prediction by ZEFSAII (Michael W. Deem and Ramdas Pophale) SiO2 
 PCOD9016431
Probable space group: P -1
;
_chemical_formula_sum "Si O2"
_cell_formula_units_Z 14
_cell_length_a 7.717158
_cell_length_b 12.551783
_cell_length_c 9.356151
_cell_angle_alpha 62.490046
_cell_angle_beta 73.282580
_cell_angle_gamma 117.777221
_cell_volume 545.930060
_symmetry_space_group_name_H-M "P -1"
_symmetry_group_IT_number 2
_symmetry_cell_setting 'triclinic'
loop_
_space_group_symop_operation_xyz
x,y,z
-x,-y,-z
loop_
_atom_site_type_symbol
_atom_site_label
_atom_site_fract_x
_atom_site_fract_y
_atom_site_fract_z
Si Si1 0.711524 0.019353 0.518781
Si Si2 0.285260 0.967303 0.161111
Si Si3 0.589404 0.765290 0.498445
Si Si4 0.130647 0.439767 0.456084
Si Si5 0.312088 0.236713 0.837851
Si Si6 0.660654 0.549315 0.078087
Si Si7 0.968110 0.374902 0.237393
O O1 0.743324 0.914015 0.487455
O O2 0.500000 0.000000 0.500000
O O3 0.638913 0.972621 0.729614
O O4 0.946973 0.218685 0.336667
O O5 0.047896 0.759973 0.348830
O O6 0.500000 0.000000 0.000000
O O7 0.280497 0.095255 0.011074
O O8 0.740805 0.824644 0.277517
O O9 0.538308 0.612888 0.672484
O O10 0.308316 0.701564 0.601023
O O11 0.405893 0.577133 0.374339
O O12 0.000000 0.500000 0.500000
O O13 0.158514 0.484814 0.254020
O O14 0.218552 0.291332 0.944689
O O15 0.500000 0.500000 0.000000
O O16 0.874515 0.545636 0.996254
#
# Coordination Sequence:
#
# PCOD9016431 Si02
#       7
#     2   2   2   2   2   2   2
#     4   9  20  39  63  96 131 164 223 280 321 384
#     4  11  21  38  69  98 132 177 224 274 329 395
#     4  11  23  44  68  93 135 178 219 280 327 399
#     4  11  20  39  69 102 128 174 223 277 321 398
#     4  12  24  44  64 100 139 171 224 273 342 392
#     4  12  25  42  66  97 135 175 221 275 343 392
#     4  10  21  42  67  98 125 173 232 266 326 400
#
# _framework density 25.644310999999998
#
# number of rings (size 3 to 8) (size 9 to 14) (size 15 to 20)
#    0.000    1.143    4.286    3.429    0.000    0.000 
#   10.286    2.857    0.000    0.000    0.000    0.000 
#    0.000    0.000    0.000    0.000    0.000    0.000 
#
# Total GULP energy -78019.237043 kJ/mol
# GULP energy per Si atom -5572.802646 kJ/mol
# Density = 2.558594 g / cm^3
# Si number density = 25.644311 Si / 1000 Ang^3
#
#
#
# Elastic Constant Matrix: (Units=GPa)
#
#
# Indices 1 2 3 4 5 6 
#
# 1 86.5318 41.7794 39.2118 10.4340 -10.9775 -17.9269
# 2 41.7794 182.4229 45.5373 30.0009 4.1373 -22.6806
# 3 39.2118 45.5373 116.0997 30.1137 4.9267 0.5734
# 4 10.4340 30.0009 30.1137 61.3597 -6.8197 -3.2960
# 5 -10.9775 4.1373 4.9267 -6.8197 47.2486 2.4382
# 6 -17.9269 -22.6806 0.5734 -3.2960 2.4382 38.3997
#
#
#
# Elastic Compliance Matrix: (Units=1/GPa)
#
#
# Indices 1 2 3 4 5 6 
#
# 1 0.016783 -0.002028 -0.005545 0.001720 0.004564 0.006578
# 2 -0.002028 0.007132 -0.001436 -0.002429 -0.001460 0.003171
# 3 -0.005545 -0.001436 0.012500 -0.005030 -0.002992 -0.003865
# 4 0.001720 -0.002429 -0.005030 0.020155 0.003998 0.000919
# 5 0.004564 -0.001460 -0.002992 0.003998 0.023233 0.000181
# 6 0.006578 0.003171 -0.003865 0.000919 0.000181 0.031111
#
#
# Mechanical properties :
#
#
# Convention : Reuss Voigt Hill
#
# Bulk Modulus (GPa) = 54.35788 70.90127 62.62958
# Shear Modulus (GPa) = 37.01994 46.63665 41.82830
#
# Velocity S-wave (km/s) = 3.80359 4.26913 4.04306
# Velocity P-wave (km/s) = 6.36652 7.21170 6.80225
#
# Compressibility (1/GPa) = 0.01839660
#
# Stress axis : x y z
#
# Youngs Moduli (GPa) = 59.58544 140.22219 80.00027
#
# Poissons Ratio (x) = 0.28437 0.44360
# Poissons Ratio (y) = 0.12084 0.11487
# Poissons Ratio (z) = 0.33040 0.20134
#
# Static dielectric constant tensor:
#      x y z
#    x 2.159820 0.087810 -0.112570 
#    y 0.087810 2.207130 -0.012620 
#    z -0.112570 -0.012620 2.262480 
# 
# From -- ./inp_files/155251.got.cif
#   From: 2010.05.17/outbox.cif.g08.bks.cpg/sg2_78_cif.got.tgz:155251.got - 2010.06.03 11:33:40.
