data_PCOD9016840
_publ_section_title
;
Structure prediction by ZEFSAII (Michael W. Deem and Ramdas Pophale) SiO2 
 PCOD9016840
Probable space group: P -1
;
_chemical_formula_sum "Si O2"
_cell_formula_units_Z 16
_cell_length_a 15.550666
_cell_length_b 8.486011
_cell_length_c 6.421522
_cell_angle_alpha 98.769828
_cell_angle_beta 116.000794
_cell_angle_gamma 86.528830
_cell_volume 752.713283
_symmetry_space_group_name_H-M "P -1"
_symmetry_group_IT_number 2
_symmetry_cell_setting 'triclinic'
loop_
_space_group_symop_operation_xyz
x,y,z
-x,-y,-z
loop_
_atom_site_type_symbol
_atom_site_label
_atom_site_fract_x
_atom_site_fract_y
_atom_site_fract_z
Si Si1 0.800152 0.176828 0.189107
Si Si2 0.425178 0.241728 0.939874
Si Si3 0.306092 0.311804 0.214499
Si Si4 0.945530 0.092337 0.645347
Si Si5 0.873427 0.895534 0.910947
Si Si6 0.691447 0.323445 0.764536
Si Si7 0.518041 0.637773 0.374501
Si Si8 0.375101 0.886033 0.719548
O O1 0.872769 0.204235 0.463661
O O2 0.699721 0.124269 0.172802
O O3 0.774116 0.310662 0.020823
O O4 0.842022 0.038105 0.059872
O O5 0.335862 0.283434 0.001016
O O6 0.527526 0.215037 0.159492
O O7 0.437267 0.380457 0.809708
O O8 0.405767 0.070556 0.777441
O O9 0.212001 0.229420 0.183214
O O10 0.301235 0.500786 0.289593
O O11 0.402550 0.249589 0.413804
O O12 0.890512 0.967274 0.713552
O O13 0.000000 0.000000 0.500000
O O14 0.026126 0.166263 0.898691
O O15 0.588480 0.303370 0.762058
O O16 0.682492 0.187855 0.552022
O O17 0.500000 0.500000 0.500000
#
# Coordination Sequence:
#
# PCOD9016840 Si02
#       8
#     2   2   2   2   2   2   2   2
#     4  11  21  39  64  93 129 168 207 266 326 379
#     4  11  23  39  63  88 127 175 227 261 303 377
#     4  11  24  41  63  93 128 178 214 263 315 380
#     4   9  21  40  69  98 123 159 210 274 328 381
#     4  10  21  42  69  96 124 160 221 266 319 388
#     4  11  24  39  58  91 139 172 212 260 323 371
#     4  10  23  38  55  85 129 175 210 256 305 368
#     4  11  23  37  61  94 127 170 217 270 313 367
#
# _framework density 21.256433999999999
#
# number of rings (size 3 to 8) (size 9 to 14) (size 15 to 20)
#    0.000    1.500    3.750    0.750    3.500    4.500 
#    0.000    0.625    0.000   10.500    0.000    0.000 
#    0.000    0.000    0.000    0.000    0.000    0.000 
#
# Total GULP energy -89150.611404 kJ/mol
# GULP energy per Si atom -5571.913213 kJ/mol
# Density = 2.120805 g / cm^3
# Si number density = 21.256434 Si / 1000 Ang^3
#
#
#
# Elastic Constant Matrix: (Units=GPa)
#
#
# Indices 1 2 3 4 5 6 
#
# 1 109.4760 33.5154 48.5721 -6.9063 -1.5376 28.9645
# 2 33.5154 48.3559 37.4489 5.8498 -2.6063 13.6432
# 3 48.5721 37.4489 115.3049 -20.3641 -1.7577 10.7739
# 4 -6.9063 5.8498 -20.3641 23.9537 -3.5460 -0.5638
# 5 -1.5376 -2.6063 -1.7577 -3.5460 39.2436 -7.1659
# 6 28.9645 13.6432 10.7739 -0.5638 -7.1659 29.3740
#
#
#
# Elastic Compliance Matrix: (Units=1/GPa)
#
#
# Indices 1 2 3 4 5 6 
#
# 1 0.015514 -0.005106 -0.003370 0.002291 -0.001886 -0.012106
# 2 -0.005106 0.041188 -0.014690 -0.024561 -0.002112 -0.009694
# 3 -0.003370 -0.014690 0.017661 0.018054 0.002143 0.004538
# 4 0.002291 -0.024561 0.018054 0.064778 0.006080 0.005253
# 5 -0.001886 -0.002112 0.002143 0.006080 0.027536 0.008889
# 6 -0.012106 -0.009694 0.004538 0.005253 0.008889 0.051088
#
#
# Mechanical properties :
#
#
# Convention : Reuss Voigt Hill
#
# Bulk Modulus (GPa) = 35.67575 56.91218 46.29397
# Shear Modulus (GPa) = 18.28550 28.75429 23.51989
#
# Velocity S-wave (km/s) = 2.93616 3.68194 3.32999
# Velocity P-wave (km/s) = 5.32115 6.70133 6.05072
#
# Compressibility (1/GPa) = 0.02803024
#
# Stress axis : x y z
#
# Youngs Moduli (GPa) = 64.45954 24.27870 56.62330
#
# Poissons Ratio (x) = 0.12397 0.19081
# Poissons Ratio (y) = 0.32913 0.83182
# Poissons Ratio (z) = 0.21721 0.35666
#
# Static dielectric constant tensor:
#      x y z
#    x 1.798450 -0.030230 0.022770 
#    y -0.030230 1.779930 -0.013500 
#    z 0.022770 -0.013500 1.870530 
# 
# From -- ./inp_files/56975.got.cif
#   From: 2010.05.17/outbox.cif.g08.bks.cpg/sg2_29_cif.got.tgz:56975.got - 2010.06.03 11:33:40.
