data_PCOD9016646
_publ_section_title
;
Structure prediction by ZEFSAII (Michael W. Deem and Ramdas Pophale) SiO2 
 PCOD9016646
Probable space group: P -1
;
_chemical_formula_sum "Si O2"
_cell_formula_units_Z 14
_cell_length_a 10.391270
_cell_length_b 18.054064
_cell_length_c 23.174279
_cell_angle_alpha 20.880757
_cell_angle_beta 145.150637
_cell_angle_gamma 155.025874
_cell_volume 644.177102
_symmetry_space_group_name_H-M "P -1"
_symmetry_group_IT_number 2
_symmetry_cell_setting 'triclinic'
loop_
_space_group_symop_operation_xyz
x,y,z
-x,-y,-z
loop_
_atom_site_type_symbol
_atom_site_label
_atom_site_fract_x
_atom_site_fract_y
_atom_site_fract_z
Si Si1 0.712629 0.316964 0.573668
Si Si2 0.363031 0.235222 0.960990
Si Si3 0.316357 0.666540 0.874787
Si Si4 0.812802 0.224406 0.090224
Si Si5 0.695054 0.701059 0.480992
Si Si6 0.733100 0.252718 0.326499
Si Si7 0.251052 0.594253 0.652541
O O1 0.525012 0.394610 0.474512
O O2 0.000000 0.500000 0.500000
O O3 0.912391 0.373893 0.661041
O O4 0.443187 0.985740 0.696473
O O5 0.441602 0.512125 0.763129
O O6 0.482232 0.304839 0.020260
O O7 0.483537 0.125307 0.045819
O O8 0.000000 0.000000 0.000000
O O9 0.324282 0.643987 0.825878
O O10 0.977230 0.369346 0.984823
O O11 0.819200 0.002155 0.282918
O O12 0.000000 0.500000 0.000000
O O13 0.500000 0.500000 0.500000
O O14 0.968423 0.713304 0.589088
O O15 0.763982 0.404383 0.285302
O O16 0.432301 0.915096 0.467339
#
# Coordination Sequence:
#
# PCOD9016646 Si02
#       7
#     2   2   2   2   2   2   2
#     4  12  23  43  68 103 135 171 234 281 330 407
#     4  11  21  39  68  93 127 178 221 273 331 402
#     4  11  23  42  66 101 132 173 231 284 326 411
#     4  10  21  42  68  97 129 177 229 272 342 401
#     4  12  24  45  73  96 139 183 225 277 352 409
#     4  11  25  41  65 100 136 176 221 283 345 399
#     4  11  23  42  66  95 138 180 219 274 351 405
#
# _framework density 21.733153999999999
#
# number of rings (size 3 to 8) (size 9 to 14) (size 15 to 20)
#    0.000    0.857    7.143    1.714    0.000    2.286 
#    0.000    2.143    0.000    0.000    0.000    0.000 
#    0.000    0.000    0.000    0.000    0.000    0.000 
#
# Total GULP energy -77949.708478 kJ/mol
# GULP energy per Si atom -5567.836320 kJ/mol
# Density = 2.168369 g / cm^3
# Si number density = 21.733154 Si / 1000 Ang^3
#
#
#
# Elastic Constant Matrix: (Units=GPa)
#
#
# Indices 1 2 3 4 5 6 
#
# 1 72.3085 19.3407 25.5895 -2.9497 -22.6845 11.7418
# 2 19.3407 82.4206 4.1066 -0.0302 -7.8174 9.9705
# 3 25.5895 4.1066 64.9921 -10.0696 -9.2304 4.9486
# 4 -2.9497 -0.0302 -10.0696 30.6796 1.9039 -1.1462
# 5 -22.6845 -7.8174 -9.2304 1.9039 41.5612 4.9333
# 6 11.7418 9.9705 4.9486 -1.1462 4.9333 41.0619
#
#
#
# Elastic Compliance Matrix: (Units=1/GPa)
#
#
# Indices 1 2 3 4 5 6 
#
# 1 0.020952 -0.002936 -0.006316 -0.000910 0.010207 -0.005769
# 2 -0.002936 0.013235 0.000677 -0.000229 0.001359 -0.002625
# 3 -0.006316 0.000677 0.018822 0.005509 0.000674 -0.000554
# 4 -0.000910 -0.000229 0.005509 0.034403 -0.000979 0.000730
# 5 0.010207 0.001359 0.000674 -0.000979 0.030922 -0.007072
# 6 -0.005769 -0.002625 -0.000554 0.000730 -0.007072 0.027577
#
#
# Mechanical properties :
#
#
# Convention : Reuss Voigt Hill
#
# Bulk Modulus (GPa) = 27.88754 35.31054 31.59904
# Shear Modulus (GPa) = 28.56918 34.03952 31.30435
#
# Velocity S-wave (km/s) = 3.62960 3.96188 3.79937
# Velocity P-wave (km/s) = 5.51588 6.10010 5.81533
#
# Compressibility (1/GPa) = 0.03585830
#
# Stress axis : x y z
#
# Youngs Moduli (GPa) = 47.72796 75.55971 53.12972
#
# Poissons Ratio (x) = 0.22186 0.33557
# Poissons Ratio (y) = 0.14014 -0.03598
# Poissons Ratio (z) = 0.30145 -0.05117
#
# Static dielectric constant tensor:
#      x y z
#    x 2.027520 0.279500 -0.063610 
#    y 0.279500 2.119610 -0.118350 
#    z -0.063610 -0.118350 1.922060 
# 
# From -- ./inp_files/610907.got.cif
#   From: 2010.05.17/outbox.cif.g08.bks.cpg/sg2_306_cif.got.tgz:610907.got - 2010.06.03 11:33:40.
