data_PCOD9016636
_publ_section_title
;
Structure prediction by ZEFSAII (Michael W. Deem and Ramdas Pophale) SiO2 
 PCOD9016636
Probable space group: P -1
;
_chemical_formula_sum "Si O2"
_cell_formula_units_Z 12
_cell_length_a 12.260173
_cell_length_b 17.708698
_cell_length_c 12.482858
_cell_angle_alpha 157.782838
_cell_angle_beta 43.697188
_cell_angle_gamma 148.604848
_cell_volume 501.791348
_symmetry_space_group_name_H-M "P -1"
_symmetry_group_IT_number 2
_symmetry_cell_setting 'triclinic'
loop_
_space_group_symop_operation_xyz
x,y,z
-x,-y,-z
loop_
_atom_site_type_symbol
_atom_site_label
_atom_site_fract_x
_atom_site_fract_y
_atom_site_fract_z
Si Si1 0.549735 0.504794 0.593015
Si Si2 0.757062 0.707553 0.052840
Si Si3 0.114776 0.941069 0.267457
Si Si4 0.186955 0.532597 0.506232
Si Si5 0.204557 0.832237 0.278819
Si Si6 0.325327 0.937200 0.764815
O O1 0.500000 0.500000 0.500000
O O2 0.712204 0.469653 0.461390
O O3 0.320482 0.235133 0.454371
O O4 0.642859 0.804475 0.951576
O O5 0.918873 0.723545 0.036444
O O6 0.839656 0.009261 0.409262
O O7 0.500000 0.500000 0.000000
O O8 0.772212 0.607123 0.796411
O O9 0.206145 0.872477 0.201943
O O10 0.000000 0.000000 0.500000
O O11 0.299814 0.832658 0.769829
O O12 0.926306 0.331787 0.444709
O O13 0.451284 0.971646 0.315521
O O14 0.000000 0.500000 0.000000
#
# Coordination Sequence:
#
# PCOD9016636 Si02
#       6
#     2   2   2   2   2   2
#     4  12  25  46  71 103 145 197 237 295 373 432
#     4  11  21  43  70  99 143 194 229 299 365 414
#     4  10  21  42  68  96 143 188 233 297 351 426
#     4  11  24  46  68 105 149 185 243 299 360 434
#     4  11  23  45  71 108 143 189 247 293 357 436
#     4  11  23  43  70 104 141 184 245 294 358 428
#
# _framework density 23.91432
#
# number of rings (size 3 to 8) (size 9 to 14) (size 15 to 20)
#    0.000    1.000    3.333    4.500    0.000    0.667 
#    9.000    1.667    0.000    0.000    0.000    0.000 
#    0.000    0.000    0.000    0.000    0.000    0.000 
#
# Total GULP energy -66975.739224 kJ/mol
# GULP energy per Si atom -5581.311602 kJ/mol
# Density = 2.385989 g / cm^3
# Si number density = 23.914320 Si / 1000 Ang^3
#
#
#
# Elastic Constant Matrix: (Units=GPa)
#
#
# Indices 1 2 3 4 5 6 
#
# 1 142.9557 37.6742 22.2984 31.5392 -6.0997 12.0344
# 2 37.6742 112.7270 67.7598 37.8911 -3.8042 15.8291
# 3 22.2984 67.7598 126.2651 13.2201 -8.0676 8.6215
# 4 31.5392 37.8911 13.2201 41.4854 -1.0866 -3.5383
# 5 -6.0997 -3.8042 -8.0676 -1.0866 29.8255 9.6864
# 6 12.0344 15.8291 8.6215 -3.5383 9.6864 54.8590
#
#
#
# Elastic Compliance Matrix: (Units=1/GPa)
#
#
# Indices 1 2 3 4 5 6 
#
# 1 0.008899 0.000182 -0.000608 -0.006913 0.002325 -0.002765
# 2 0.000182 0.020585 -0.008834 -0.016590 0.001599 -0.005944
# 3 -0.000608 -0.008834 0.012359 0.004704 0.002042 0.000683
# 4 -0.006913 -0.016590 0.004704 0.043689 -0.003594 0.009016
# 5 0.002325 0.001599 0.002042 -0.003594 0.037261 -0.008103
# 6 -0.002765 -0.005944 0.000683 0.009016 -0.008103 0.022455
#
#
# Mechanical properties :
#
#
# Convention : Reuss Voigt Hill
#
# Bulk Modulus (GPa) = 42.87608 70.82362 56.84985
# Shear Modulus (GPa) = 29.14703 42.18167 35.66435
#
# Velocity S-wave (km/s) = 3.49493 4.20440 3.86597
# Velocity P-wave (km/s) = 5.85270 7.29720 6.61450
#
# Compressibility (1/GPa) = 0.02332303
#
# Stress axis : x y z
#
# Youngs Moduli (GPa) = 112.36891 48.57796 80.91047
#
# Poissons Ratio (x) = -0.00882 0.04919
# Poissons Ratio (y) = -0.02041 0.71478
# Poissons Ratio (z) = 0.06831 0.42915
#
# Static dielectric constant tensor:
#      x y z
#    x 1.999850 -0.049180 0.094850 
#    y -0.049180 1.894710 -0.060070 
#    z 0.094850 -0.060070 1.578730 
# 
# From -- ./inp_files/433490.got.cif
#   From: 2010.05.17/outbox.cif.g08.bks.cpg/sg2_217_cif.got.tgz:433490.got - 2010.06.03 11:33:40.
