data_PCOD9016070
_publ_section_title
;
Structure prediction by ZEFSAII (Michael W. Deem and Ramdas Pophale) SiO2 
 PCOD9016070
Probable space group: P -1
;
_chemical_formula_sum "Si O2"
_cell_formula_units_Z 16
_cell_length_a 9.412138
_cell_length_b 11.836376
_cell_length_c 9.523536
_cell_angle_alpha 120.261183
_cell_angle_beta 69.194918
_cell_angle_gamma 120.078089
_cell_volume 785.493299
_symmetry_space_group_name_H-M "P -1"
_symmetry_group_IT_number 2
_symmetry_cell_setting 'triclinic'
loop_
_space_group_symop_operation_xyz
x,y,z
-x,-y,-z
loop_
_atom_site_type_symbol
_atom_site_label
_atom_site_fract_x
_atom_site_fract_y
_atom_site_fract_z
Si Si1 0.771982 0.609472 0.950956
Si Si2 0.124811 0.149491 0.713459
Si Si3 0.527596 0.149188 0.159225
Si Si4 0.526057 0.859887 0.364355
Si Si5 0.543046 0.320878 0.986108
Si Si6 0.100213 0.366536 0.381863
Si Si7 0.186833 0.145002 0.374449
Si Si8 0.740171 0.312325 0.434342
O O1 0.695288 0.461480 0.968858
O O2 0.876110 0.606060 0.776222
O O3 0.870636 0.731769 0.103463
O O4 0.618308 0.643916 0.965983
O O5 0.283036 0.113415 0.670340
O O6 0.155693 0.198113 0.571191
O O7 0.957283 0.010212 0.694260
O O8 0.361811 0.133300 0.291417
O O9 0.675580 0.210363 0.258480
O O10 0.553529 0.268165 0.104914
O O11 0.500000 0.000000 0.000000
O O12 0.472619 0.807424 0.193123
O O13 0.409340 0.735663 0.431353
O O14 0.500000 0.000000 0.500000
O O15 0.171637 0.253481 0.333915
O O16 0.199158 0.519718 0.514948
O O17 0.903881 0.304355 0.439915
#
# Coordination Sequence:
#
# PCOD9016070 Si02
#       8
#     2   2   2   2   2   2   2   2
#     4  10  21  42  66  94 127 165 223 263 318 386
#     4  10  24  40  64  96 126 169 215 266 316 386
#     4  12  26  43  65 100 133 172 215 270 325 381
#     4  11  20  40  64  91 129 172 207 262 323 382
#     4  10  22  39  65  96 123 169 218 262 320 381
#     4  11  24  45  67  96 129 173 215 267 323 386
#     4  11  24  44  66  95 129 170 219 264 322 387
#     4  11  25  43  65  97 132 167 216 266 325 386
#
# _framework density 20.369364000000001
#
# number of rings (size 3 to 8) (size 9 to 14) (size 15 to 20)
#    0.000    1.250    3.750    1.500    3.500    2.000 
#    0.000    0.625    0.000    0.000    0.000    0.000 
#    0.000    0.000    0.000    0.000    0.000    0.000 
#
# Total GULP energy -89416.140846 kJ/mol
# GULP energy per Si atom -5588.508803 kJ/mol
# Density = 2.032300 g / cm^3
# Si number density = 20.369364 Si / 1000 Ang^3
#
#
#
# Elastic Constant Matrix: (Units=GPa)
#
#
# Indices 1 2 3 4 5 6 
#
# 1 44.9988 22.8242 3.4211 9.7697 1.0946 14.9574
# 2 22.8242 69.8528 21.4410 2.4250 5.6642 2.6689
# 3 3.4211 21.4410 83.6949 9.9213 11.9548 11.1282
# 4 9.7697 2.4250 9.9213 18.4154 -1.9784 4.0455
# 5 1.0946 5.6642 11.9548 -1.9784 30.6169 1.9537
# 6 14.9574 2.6689 11.1282 4.0455 1.9537 21.5044
#
#
#
# Elastic Compliance Matrix: (Units=1/GPa)
#
#
# Indices 1 2 3 4 5 6 
#
# 1 0.042584 -0.014577 0.008228 -0.019033 -0.001459 -0.028355
# 2 -0.014577 0.020586 -0.006609 0.006308 -0.000931 0.009903
# 3 0.008228 -0.006609 0.016860 -0.010747 -0.005641 -0.011093
# 4 -0.019033 0.006308 -0.010747 0.069272 0.007914 0.004266
# 5 -0.001459 -0.000931 -0.005641 0.007914 0.035643 -0.000678
# 6 -0.028355 0.009903 -0.011093 0.004266 -0.000678 0.069995
#
#
# Mechanical properties :
#
#
# Convention : Reuss Voigt Hill
#
# Bulk Modulus (GPa) = 18.47985 32.65767 25.56876
# Shear Modulus (GPa) = 16.72833 24.16468 20.44651
#
# Velocity S-wave (km/s) = 2.86885 3.44804 3.17170
# Velocity P-wave (km/s) = 4.47949 5.64974 5.09830
#
# Compressibility (1/GPa) = 0.05411299
#
# Stress axis : x y z
#
# Youngs Moduli (GPa) = 23.48304 48.57724 59.31291
#
# Poissons Ratio (x) = 0.70813 -0.48806
# Poissons Ratio (y) = 0.34232 0.39201
# Poissons Ratio (z) = -0.19323 0.32106
#
# Static dielectric constant tensor:
#      x y z
#    x 1.702960 -0.007830 0.001100 
#    y -0.007830 1.716970 -0.008700 
#    z 0.001100 -0.008700 1.720300 
# 
# From -- ./inp_files/189899.got.cif
#   From: 2010.05.17/outbox.cif.g08.bks.cpg/sg2_95_cif.got.tgz:189899.got - 2010.06.03 11:33:40.
