data_PCOD9016969
_publ_section_title
;
Structure prediction by ZEFSAII (Michael W. Deem and Ramdas Pophale) SiO2 
 PCOD9016969
Probable space group: P -1
;
_chemical_formula_sum "Si O2"
_cell_formula_units_Z 12
_cell_length_a 15.433625
_cell_length_b 18.710106
_cell_length_c 7.681813
_cell_angle_alpha 56.386675
_cell_angle_beta 124.856240
_cell_angle_gamma 164.380081
_cell_volume 490.062920
_symmetry_space_group_name_H-M "P -1"
_symmetry_group_IT_number 2
_symmetry_cell_setting 'triclinic'
loop_
_space_group_symop_operation_xyz
x,y,z
-x,-y,-z
loop_
_atom_site_type_symbol
_atom_site_label
_atom_site_fract_x
_atom_site_fract_y
_atom_site_fract_z
Si Si1 0.019470 0.088281 0.547499
Si Si2 0.623821 0.191112 0.929470
Si Si3 0.370417 0.102381 0.432469
Si Si4 0.471356 0.193151 0.049333
Si Si5 0.694849 0.535742 0.828203
Si Si6 0.812841 0.680584 0.121737
O O1 0.350964 0.321449 0.713621
O O2 0.070419 0.218311 0.332816
O O3 0.712867 0.867448 0.620806
O O4 0.000000 0.000000 0.500000
O O5 0.534104 0.174968 0.674806
O O6 0.444818 0.092459 0.027698
O O7 0.000000 0.500000 0.000000
O O8 0.500000 0.000000 0.000000
O O9 0.996273 0.789797 0.358643
O O10 0.570763 0.245239 0.290155
O O11 0.673415 0.423977 0.877872
O O12 0.121443 0.967828 0.999604
O O13 0.758339 0.569281 0.059594
O O14 0.500000 0.500000 0.000000
#
# Coordination Sequence:
#
# PCOD9016969 Si02
#       6
#     2   2   2   2   2   2
#     4  11  23  39  67 106 156 205 252 295 385 468
#     4  12  30  54  84 112 151 203 274 347 400 445
#     4  10  25  48  72 112 149 202 262 316 394 464
#     4  10  26  47  75 110 152 196 267 316 393 464
#     4  11  21  39  68 103 156 200 243 310 370 472
#     4  10  21  42  70 107 155 196 246 304 384 476
#
# _framework density 24.486650999999998
#
# number of rings (size 3 to 8) (size 9 to 14) (size 15 to 20)
#    1.000    0.333    1.667    3.000    4.667    6.667 
#    0.000    0.000    0.000    0.000    0.000    0.000 
#    0.000    0.000    0.000    0.000    0.000    0.000 
#
# Total GULP energy -66842.636816 kJ/mol
# GULP energy per Si atom -5570.219735 kJ/mol
# Density = 2.443092 g / cm^3
# Si number density = 24.486651 Si / 1000 Ang^3
#
#
#
# Elastic Constant Matrix: (Units=GPa)
#
#
# Indices 1 2 3 4 5 6 
#
# 1 161.9545 44.6004 72.7502 -9.9272 -14.2046 -25.5904
# 2 44.6004 102.2014 54.3300 19.8711 1.9879 -2.5937
# 3 72.7502 54.3300 139.0113 26.2600 -27.3304 -13.6179
# 4 -9.9272 19.8711 26.2600 51.8458 -9.5144 0.5660
# 5 -14.2046 1.9879 -27.3304 -9.5144 38.3524 2.2064
# 6 -25.5904 -2.5937 -13.6179 0.5660 2.2064 43.1390
#
#
#
# Elastic Compliance Matrix: (Units=1/GPa)
#
#
# Indices 1 2 3 4 5 6 
#
# 1 0.010219 -0.003177 -0.004368 0.005707 0.002005 0.004315
# 2 -0.003177 0.014641 -0.004547 -0.005053 -0.006311 -0.002050
# 3 -0.004368 -0.004547 0.013659 -0.004719 0.007115 0.001145
# 4 0.005707 -0.005053 -0.004719 0.025674 0.005326 0.000983
# 5 0.002005 -0.006311 0.007115 0.005326 0.033462 0.001274
# 6 0.004315 -0.002050 0.001145 0.000983 0.001274 0.025901
#
#
# Mechanical properties :
#
#
# Convention : Reuss Voigt Hill
#
# Bulk Modulus (GPa) = 69.75320 82.94761 76.35040
# Shear Modulus (GPa) = 32.78331 42.09988 37.44160
#
# Velocity S-wave (km/s) = 3.66296 4.15094 3.91456
# Velocity P-wave (km/s) = 6.81453 7.54466 7.18887
#
# Compressibility (1/GPa) = 0.01433626
#
# Stress axis : x y z
#
# Youngs Moduli (GPa) = 97.85896 68.30062 73.21193
#
# Poissons Ratio (x) = 0.21697 0.31977
# Poissons Ratio (y) = 0.31087 0.33289
# Poissons Ratio (z) = 0.42742 0.31056
#
# Static dielectric constant tensor:
#      x y z
#    x 2.034320 -0.005160 -0.068560 
#    y -0.005160 2.158020 -0.001940 
#    z -0.068560 -0.001940 1.981700 
# 
# From -- ./inp_files/318012.got.cif
#   From: 2010.05.17/outbox.cif.g08.bks.cpg/sg2_160_cif.got.tgz:318012.got - 2010.06.03 11:33:40.
