data_PCOD9016324
_publ_section_title
;
Structure prediction by ZEFSAII (Michael W. Deem and Ramdas Pophale) SiO2 
 PCOD9016324
Probable space group: P -1
;
_chemical_formula_sum "Si O2"
_cell_formula_units_Z 16
_cell_length_a 11.086996
_cell_length_b 18.077737
_cell_length_c 10.010089
_cell_angle_alpha 47.545272
_cell_angle_beta 93.769049
_cell_angle_gamma 131.134643
_cell_volume 816.641766
_symmetry_space_group_name_H-M "P -1"
_symmetry_group_IT_number 2
_symmetry_cell_setting 'triclinic'
loop_
_space_group_symop_operation_xyz
x,y,z
-x,-y,-z
loop_
_atom_site_type_symbol
_atom_site_label
_atom_site_fract_x
_atom_site_fract_y
_atom_site_fract_z
Si Si1 0.088296 0.203293 0.158188
Si Si2 0.647972 0.793363 0.721436
Si Si3 0.197219 0.565827 0.485895
Si Si4 0.246896 0.534152 0.828027
Si Si5 0.607816 0.063909 0.242689
Si Si6 0.954288 0.201053 0.898085
Si Si7 0.332566 0.726715 0.822260
Si Si8 0.404557 0.026969 0.049009
O O1 0.282279 0.265031 0.144438
O O2 0.130685 0.346789 0.032869
O O3 0.868127 0.006285 0.445924
O O4 0.056388 0.185607 0.016712
O O5 0.498259 0.684676 0.708948
O O6 0.492418 0.750150 0.861363
O O7 0.229966 0.581900 0.629336
O O8 0.000000 0.500000 0.500000
O O9 0.133805 0.409975 0.629747
O O10 0.416516 0.762697 0.202409
O O11 0.177167 0.556278 0.920100
O O12 0.739142 0.242144 0.112584
O O13 0.411718 0.984520 0.247638
O O14 0.494690 0.904861 0.522822
O O15 0.772723 0.125038 0.078003
O O16 0.819526 0.090177 0.888864
O O17 0.500000 0.000000 0.000000
#
# Coordination Sequence:
#
# PCOD9016324 Si02
#       8
#     2   2   2   2   2   2   2   2
#     4  10  17  30  51  74  92 119 160 206 233 275
#     4   9  18  31  50  68  98 123 158 195 240 274
#     4  11  18  27  46  72  94 118 154 199 233 279
#     4   9  19  31  47  71  99 121 156 193 247 276
#     4  10  17  31  49  68  99 135 157 181 240 293
#     4  10  19  30  50  71  98 119 158 202 239 271
#     4   9  19  31  49  66 100 137 153 184 235 297
#     4  10  18  29  49  65  96 127 154 198 235 274
#
# _framework density 19.592434000000001
#
# number of rings (size 3 to 8) (size 9 to 14) (size 15 to 20)
#    0.750    1.500    3.750    2.625    0.000    0.000 
#    0.000    2.500    8.250    0.750    0.000    3.500 
#    0.000    0.000    0.000    0.000    0.000    0.000 
#
# Total GULP energy -89073.099694 kJ/mol
# GULP energy per Si atom -5567.068731 kJ/mol
# Density = 1.954784 g / cm^3
# Si number density = 19.592434 Si / 1000 Ang^3
#
#
#
# Elastic Constant Matrix: (Units=GPa)
#
#
# Indices 1 2 3 4 5 6 
#
# 1 70.9994 35.8524 17.0915 12.6229 21.2592 25.2273
# 2 35.8524 96.8622 0.8232 -3.9501 11.6737 31.6221
# 3 17.0915 0.8232 39.1228 -6.5906 13.9185 5.0037
# 4 12.6229 -3.9501 -6.5906 25.0809 6.9986 8.0755
# 5 21.2592 11.6737 13.9185 6.9986 21.7716 2.8243
# 6 25.2273 31.6221 5.0037 8.0755 2.8243 32.7776
#
#
#
# Elastic Compliance Matrix: (Units=1/GPa)
#
#
# Indices 1 2 3 4 5 6 
#
# 1 0.029623 -0.004056 -0.005248 -0.006793 -0.019299 -0.014748
# 2 -0.004056 0.025725 0.019625 0.028419 -0.027712 -0.029305
# 3 -0.005248 0.019625 0.057892 0.045545 -0.053108 -0.030377
# 4 -0.006793 0.028419 0.045545 0.091774 -0.061193 -0.046479
# 5 -0.019299 -0.027712 -0.053108 -0.061193 0.126266 0.053893
# 6 -0.014748 -0.029305 -0.030377 -0.046479 0.053893 0.081577
#
#
# Mechanical properties :
#
#
# Convention : Reuss Voigt Hill
#
# Bulk Modulus (GPa) = 7.46933 34.94651 21.20792
# Shear Modulus (GPa) = 11.44579 26.14053 18.79316
#
# Velocity S-wave (km/s) = 2.41963 3.65665 3.10046
# Velocity P-wave (km/s) = 3.40981 5.97525 4.86469
#
# Compressibility (1/GPa) = 0.13388086
#
# Stress axis : x y z
#
# Youngs Moduli (GPa) = 33.75767 38.87337 17.27361
#
# Poissons Ratio (x) = 0.15768 0.09066
# Poissons Ratio (y) = 0.13693 -0.33900
# Poissons Ratio (z) = 0.17717 -0.76290
#
# Static dielectric constant tensor:
#      x y z
#    x 1.746030 0.022750 -0.014770 
#    y 0.022750 1.782040 -0.002570 
#    z -0.014770 -0.002570 1.684590 
# 
# From -- ./inp_files/437599.got.cif
#   From: 2010.05.17/outbox.cif.g08.bks.cpg/sg2_219_cif.got.tgz:437599.got - 2010.06.03 11:33:40.
