data_PCOD9016229
_publ_section_title
;
Structure prediction by ZEFSAII (Michael W. Deem and Ramdas Pophale) SiO2 
 PCOD9016229
Probable space group: P -1
;
_chemical_formula_sum "Si O2"
_cell_formula_units_Z 15
_cell_length_a 5.517560
_cell_length_b 19.211382
_cell_length_c 9.982530
_cell_angle_alpha 142.815583
_cell_angle_beta 65.970510
_cell_angle_gamma 108.368968
_cell_volume 584.019409
_symmetry_space_group_name_H-M "P -1"
_symmetry_group_IT_number 2
_symmetry_cell_setting 'triclinic'
loop_
_space_group_symop_operation_xyz
x,y,z
-x,-y,-z
loop_
_atom_site_type_symbol
_atom_site_label
_atom_site_fract_x
_atom_site_fract_y
_atom_site_fract_z
Si Si1 0.663892 0.910997 0.691167
Si Si2 0.873772 0.112853 0.063451
Si Si3 0.304336 0.950246 0.356624
Si Si4 0.721563 0.653945 0.258479
Si Si5 0.174947 0.308929 0.410266
Si Si6 0.000000 0.500000 0.500000
Si Si7 0.253230 0.725386 0.895570
Si Si8 0.228673 0.513072 0.247975
O O1 0.425319 0.884295 0.805625
O O2 0.731908 0.787717 0.424225
O O3 0.575302 0.001451 0.736109
O O4 0.903540 0.979499 0.812878
O O5 0.903945 0.188012 0.038090
O O6 0.049603 0.184195 0.234131
O O7 0.500000 0.000000 0.500000
O O8 0.296581 0.810815 0.142302
O O9 0.000000 0.000000 0.500000
O O10 0.857668 0.647031 0.363017
O O11 0.428818 0.606113 0.283827
O O12 0.821057 0.574879 0.994348
O O13 0.466731 0.296703 0.272943
O O14 0.012510 0.405202 0.507532
O O15 0.107744 0.605963 0.742115
O O16 0.312850 0.472282 0.313202
#
# Coordination Sequence:
#
# PCOD9016229 Si02
#       8
#     2   2   2   2   2   1   2   2
#     4  10  21  44  72  97 136 187 234 291 371 436
#     4  10  21  42  67 102 132 173 237 302 355 431
#     4  11  29  51  72 110 156 195 242 309 377 450
#     4  11  23  45  64 104 139 182 233 305 360 429
#     4  12  20  43  70 100 137 178 240 310 366 426
#     4  12  22  48  66  94 142 196 240 294 374 452
#     4  11  25  45  71 101 143 185 244 310 363 443
#     4  11  25  42  67  96 145 180 236 302 358 436
#
# _framework density 25.684076000000001
#
# number of rings (size 3 to 8) (size 9 to 14) (size 15 to 20)
#    0.000    1.067    5.333    0.400    5.600    2.133 
#    0.000    0.000    0.000    0.000    0.000    0.000 
#    0.000    0.000    0.000    0.000    0.000    0.000 
#
# Total GULP energy -83639.242260 kJ/mol
# GULP energy per Si atom -5575.949484 kJ/mol
# Density = 2.562562 g / cm^3
# Si number density = 25.684076 Si / 1000 Ang^3
#
#
#
# Elastic Constant Matrix: (Units=GPa)
#
#
# Indices 1 2 3 4 5 6 
#
# 1 76.3938 20.6242 64.9603 8.1629 28.0227 11.9944
# 2 20.6242 87.0914 62.9878 10.8551 18.5929 11.0587
# 3 64.9603 62.9878 226.9752 25.3428 63.4222 26.3416
# 4 8.1629 10.8551 25.3428 65.5862 13.8356 9.6381
# 5 28.0227 18.5929 63.4222 13.8356 39.9084 2.1655
# 6 11.9944 11.0587 26.3416 9.6381 2.1655 38.8504
#
#
#
# Elastic Compliance Matrix: (Units=1/GPa)
#
#
# Indices 1 2 3 4 5 6 
#
# 1 0.019299 -0.000430 -0.002313 0.001240 -0.009887 -0.004024
# 2 -0.000430 0.014503 -0.003497 -0.000661 -0.000590 -0.001427
# 3 -0.002313 -0.003497 0.010028 0.000294 -0.012543 -0.004464
# 4 0.001240 -0.000661 0.000294 0.017138 -0.006739 -0.004270
# 5 -0.009887 -0.000590 -0.012543 -0.006739 0.053981 0.010388
# 6 -0.004024 -0.001427 -0.004464 -0.004270 0.010388 0.030895
#
#
# Mechanical properties :
#
#
# Convention : Reuss Voigt Hill
#
# Bulk Modulus (GPa) = 31.89826 76.40056 54.14941
# Shear Modulus (GPa) = 29.62534 44.99488 37.31011
#
# Velocity S-wave (km/s) = 3.39993 4.19006 3.81551
# Velocity P-wave (km/s) = 5.27818 7.29518 6.36706
#
# Compressibility (1/GPa) = 0.03134967
#
# Stress axis : x y z
#
# Youngs Moduli (GPa) = 51.81665 68.95096 99.71786
#
# Poissons Ratio (x) = 0.02968 0.23062
# Poissons Ratio (y) = 0.02230 0.34873
# Poissons Ratio (z) = 0.11984 0.24113
#
# Static dielectric constant tensor:
#      x y z
#    x 2.145290 -0.058400 -0.006440 
#    y -0.058400 2.254230 -0.015020 
#    z -0.006440 -0.015020 2.071540 
# 
# From -- ./inp_files/371086.got.cif
#   From: 2010.05.17/outbox.cif.g08.bks.cpg/sg2_186_cif.got.tgz:371086.got - 2010.06.03 11:33:40.
