data_PCOD9016149
_publ_section_title
;
Structure prediction by ZEFSAII (Michael W. Deem and Ramdas Pophale) SiO2 
 PCOD9016149
Probable space group: P -1
;
_chemical_formula_sum "Si O2"
_cell_formula_units_Z 16
_cell_length_a 9.016121
_cell_length_b 11.002625
_cell_length_c 8.999570
_cell_angle_alpha 81.675785
_cell_angle_beta 51.943100
_cell_angle_gamma 91.466255
_cell_volume 687.960593
_symmetry_space_group_name_H-M "P -1"
_symmetry_group_IT_number 2
_symmetry_cell_setting 'triclinic'
loop_
_space_group_symop_operation_xyz
x,y,z
-x,-y,-z
loop_
_atom_site_type_symbol
_atom_site_label
_atom_site_fract_x
_atom_site_fract_y
_atom_site_fract_z
Si Si1 0.021849 0.777325 0.086553
Si Si2 0.043770 0.224343 0.326812
Si Si3 0.949647 0.619948 0.425968
Si Si4 0.307110 0.802298 0.645257
Si Si5 0.536062 0.117970 0.758563
Si Si6 0.676825 0.668681 0.097224
Si Si7 0.490378 0.425462 0.366290
Si Si8 0.830494 0.021188 0.820634
O O1 0.022375 0.889864 0.182652
O O2 0.050143 0.663147 0.199694
O O3 0.835530 0.727746 0.111215
O O4 0.191776 0.827775 0.859450
O O5 0.021737 0.264821 0.499373
O O6 0.866225 0.262367 0.339792
O O7 0.061882 0.082100 0.304628
O O8 0.234979 0.296001 0.123639
O O9 0.725898 0.594036 0.542662
O O10 0.000000 0.500000 0.500000
O O11 0.417212 0.898730 0.441365
O O12 0.441782 0.705679 0.629384
O O13 0.505485 0.261636 0.774732
O O14 0.703145 0.079815 0.765338
O O15 0.336086 0.045211 0.954095
O O16 0.625445 0.521546 0.164288
O O17 0.500000 0.500000 0.500000
#
# Coordination Sequence:
#
# PCOD9016149 Si02
#       8
#     2   2   2   2   2   2   2   2
#     4  11  25  43  66 101 136 177 230 270 335 395
#     4  10  25  45  67 101 133 182 224 271 338 393
#     4  12  27  44  68 102 134 176 224 277 339 403
#     4  11  24  40  68  99 134 180 222 275 330 404
#     4  10  21  42  66  97 130 181 225 272 334 382
#     4  10  23  43  68  98 138 176 226 274 335 401
#     4  12  23  43  69  97 138 178 218 284 335 398
#     4  10  24  45  70  94 139 178 223 285 321 401
#
# _framework density 23.257145999999999
#
# number of rings (size 3 to 8) (size 9 to 14) (size 15 to 20)
#    0.000    1.250    2.500    1.500    3.500   11.500 
#    0.000    0.000    0.000    0.000    0.000    0.000 
#    0.000    0.000    0.000    0.000    0.000    0.000 
#
# Total GULP energy -89389.690906 kJ/mol
# GULP energy per Si atom -5586.855682 kJ/mol
# Density = 2.320421 g / cm^3
# Si number density = 23.257146 Si / 1000 Ang^3
#
#
#
# Elastic Constant Matrix: (Units=GPa)
#
#
# Indices 1 2 3 4 5 6 
#
# 1 95.9143 38.9259 27.0842 8.2880 0.6734 -18.8792
# 2 38.9259 61.2442 36.8830 -13.1482 8.4802 -6.0138
# 3 27.0842 36.8830 139.0861 -15.4647 22.3863 -13.8435
# 4 8.2880 -13.1482 -15.4647 33.3661 -4.8788 2.9939
# 5 0.6734 8.4802 22.3863 -4.8788 37.8213 -2.6463
# 6 -18.8792 -6.0138 -13.8435 2.9939 -2.6463 39.2749
#
#
#
# Elastic Compliance Matrix: (Units=1/GPa)
#
#
# Indices 1 2 3 4 5 6 
#
# 1 0.018240 -0.012846 -0.000926 -0.010353 0.002287 0.007417
# 2 -0.012846 0.029590 -0.003874 0.013033 -0.002724 -0.004187
# 3 -0.000926 -0.003874 0.009538 0.002324 -0.004331 0.001854
# 4 -0.010353 0.013033 0.002324 0.039302 0.000598 -0.005117
# 5 0.002287 -0.002724 -0.004331 0.000598 0.029729 0.001113
# 6 0.007417 -0.004187 0.001854 -0.005117 0.001113 0.029505
#
#
# Mechanical properties :
#
#
# Convention : Reuss Voigt Hill
#
# Bulk Modulus (GPa) = 45.30222 55.78118 50.54170
# Shear Modulus (GPa) = 25.18212 34.98256 30.08234
#
# Velocity S-wave (km/s) = 3.29412 3.88256 3.60038
# Velocity P-wave (km/s) = 5.83004 6.64347 6.25000
#
# Compressibility (1/GPa) = 0.02207397
#
# Stress axis : x y z
#
# Youngs Moduli (GPa) = 54.82597 33.79508 104.84839
#
# Poissons Ratio (x) = 0.43413 0.09712
# Poissons Ratio (y) = 0.70429 0.40622
# Poissons Ratio (z) = 0.05078 0.13093
#
# Static dielectric constant tensor:
#      x y z
#    x 1.857340 0.014940 0.000560 
#    y 0.014940 1.962140 -0.127570 
#    z 0.000560 -0.127570 2.013300 
# 
# From -- ./inp_files/187288.got.cif
#   From: 2010.05.17/outbox.cif.g08.bks.cpg/sg2_94_cif.got.tgz:187288.got - 2010.06.03 11:33:40.
