data_PCOD9016236
_publ_section_title
;
Structure prediction by ZEFSAII (Michael W. Deem and Ramdas Pophale) SiO2 
 PCOD9016236
Probable space group: P -1
;
_chemical_formula_sum "Si O2"
_cell_formula_units_Z 15
_cell_length_a 12.387869
_cell_length_b 21.695235
_cell_length_c 8.698790
_cell_angle_alpha 35.187106
_cell_angle_beta 42.798358
_cell_angle_gamma 25.809386
_cell_volume 586.519975
_symmetry_space_group_name_H-M "P -1"
_symmetry_group_IT_number 2
_symmetry_cell_setting 'triclinic'
loop_
_space_group_symop_operation_xyz
x,y,z
-x,-y,-z
loop_
_atom_site_type_symbol
_atom_site_label
_atom_site_fract_x
_atom_site_fract_y
_atom_site_fract_z
Si Si1 0.775164 0.031477 0.356911
Si Si2 0.489543 0.640621 0.573482
Si Si3 0.526148 0.149411 0.051284
Si Si4 0.955714 0.398944 0.785683
Si Si5 0.692722 0.864838 0.264712
Si Si6 0.200753 0.638447 0.689682
Si Si7 0.965735 0.639002 0.710591
Si Si8 0.000000 0.000000 0.500000
O O1 0.671868 0.114755 0.123409
O O2 0.551553 0.079566 0.571115
O O3 0.002964 0.835652 0.483878
O O4 0.874440 0.058618 0.331358
O O5 0.704876 0.501552 0.749500
O O6 0.430207 0.569983 0.674299
O O7 0.238640 0.806770 0.584496
O O8 0.553017 0.709598 0.257615
O O9 0.295396 0.200381 0.256569
O O10 0.664905 0.996007 0.102011
O O11 0.000000 0.500000 0.500000
O O12 0.190512 0.204532 0.884769
O O13 0.906354 0.399697 0.012229
O O14 0.904193 0.694853 0.487257
O O15 0.196460 0.586966 0.634766
O O16 0.000000 0.500000 0.000000
#
# Coordination Sequence:
#
# PCOD9016236 Si02
#       8
#     2   2   2   2   2   2   2   1
#     4  10  21  42  67 103 131 174 220 279 335 393
#     4  11  26  45  65 102 133 180 224 276 342 401
#     4  11  22  43  71 101 134 171 237 276 329 409
#     4  12  26  44  67  99 138 180 229 278 333 409
#     4  11  22  40  72 100 131 176 232 280 333 392
#     4  11  23  43  65  95 143 174 217 287 334 401
#     4  11  21  42  70  99 130 179 227 281 334 394
#     4  10  24  40  68  92 138 174 214 270 342 400
#
# _framework density 25.574577000000001
#
# number of rings (size 3 to 8) (size 9 to 14) (size 15 to 20)
#    0.000    1.067    2.667    4.400    3.733    3.733 
#    0.000    2.667    0.000    0.000    0.000    0.000 
#    0.000    0.000    0.000    0.000    0.000    0.000 
#
# Total GULP energy -83709.140237 kJ/mol
# GULP energy per Si atom -5580.609349 kJ/mol
# Density = 2.551637 g / cm^3
# Si number density = 25.574577 Si / 1000 Ang^3
#
#
#
# Elastic Constant Matrix: (Units=GPa)
#
#
# Indices 1 2 3 4 5 6 
#
# 1 125.7688 20.5908 -2.3367 0.4626 3.1563 3.0021
# 2 20.5908 98.9794 -1.6407 7.5472 -3.5250 22.7380
# 3 -2.3367 -1.6407 75.0053 1.0934 11.4077 8.5532
# 4 0.4626 7.5472 1.0934 24.7786 -3.8938 3.9781
# 5 3.1563 -3.5250 11.4077 -3.8938 36.0182 -6.4648
# 6 3.0021 22.7380 8.5532 3.9781 -6.4648 33.4311
#
#
#
# Elastic Compliance Matrix: (Units=1/GPa)
#
#
# Indices 1 2 3 4 5 6 
#
# 1 0.008272 -0.001809 0.000338 0.000201 -0.000953 0.000193
# 2 -0.001809 0.012661 0.001380 -0.002631 -0.000878 -0.008658
# 3 0.000338 0.001380 0.014926 -0.001065 -0.005774 -0.005777
# 4 0.000201 -0.002631 -0.001065 0.042215 0.004238 -0.002160
# 5 -0.000953 -0.000878 -0.005774 0.004238 0.031436 0.007735
# 6 0.000193 -0.008658 -0.005777 -0.002160 0.007735 0.039015
#
#
# Mechanical properties :
#
#
# Convention : Reuss Voigt Hill
#
# Bulk Modulus (GPa) = 28.02946 36.99781 32.51364
# Shear Modulus (GPa) = 31.13361 37.72160 34.42760
#
# Velocity S-wave (km/s) = 3.49286 3.84469 3.67299
# Velocity P-wave (km/s) = 5.22020 5.84867 5.54335
#
# Compressibility (1/GPa) = 0.03567675
#
# Stress axis : x y z
#
# Youngs Moduli (GPa) = 120.88859 78.98473 66.99891
#
# Poissons Ratio (x) = 0.14287 -0.02265
# Poissons Ratio (y) = 0.21866 -0.09245
# Poissons Ratio (z) = -0.04088 -0.10899
#
# Static dielectric constant tensor:
#      x y z
#    x 2.023900 0.003490 0.002890 
#    y 0.003490 2.077750 0.046330 
#    z 0.002890 0.046330 1.985650 
# 
# From -- ./inp_files/154284.got.cif
#   From: 2010.05.17/outbox.cif.g08.bks.cpg/sg2_78_cif.got.tgz:154284.got - 2010.06.03 11:33:40.
