data_PCOD9016892
_publ_section_title
;
Structure prediction by ZEFSAII (Michael W. Deem and Ramdas Pophale) SiO2 
 PCOD9016892
Probable space group: P -1
;
_chemical_formula_sum "Si O2"
_cell_formula_units_Z 10
_cell_length_a 7.115483
_cell_length_b 7.252087
_cell_length_c 11.842684
_cell_angle_alpha 84.814953
_cell_angle_beta 40.593134
_cell_angle_gamma 69.201326
_cell_volume 355.216334
_symmetry_space_group_name_H-M "P -1"
_symmetry_group_IT_number 2
_symmetry_cell_setting 'triclinic'
loop_
_space_group_symop_operation_xyz
x,y,z
-x,-y,-z
loop_
_atom_site_type_symbol
_atom_site_label
_atom_site_fract_x
_atom_site_fract_y
_atom_site_fract_z
Si Si1 0.232663 0.412065 0.281269
Si Si2 0.219026 0.921277 0.067174
Si Si3 0.447497 0.525489 0.387543
Si Si4 0.829274 0.908037 0.428953
Si Si5 0.318931 0.161570 0.816041
O O1 0.465071 0.362554 0.289624
O O2 0.939812 0.357532 0.441770
O O3 0.043795 0.660244 0.334153
O O4 0.450944 0.285450 0.086105
O O5 0.063482 0.987224 0.256649
O O6 0.958320 0.865919 0.124792
O O7 0.268224 0.098662 0.968106
O O8 0.500000 0.500000 0.500000
O O9 0.665182 0.625701 0.230539
O O10 0.500000 0.000000 0.500000
O O11 0.668307 0.007192 0.614707
#
# Coordination Sequence:
#
# PCOD9016892 Si02
#       5
#     2   2   2   2   2
#     4  11  24  43  70 103 138 181 236 283 338 416
#     4  10  22  42  69 104 139 177 232 288 336 409
#     4  11  24  43  70 102 140 184 228 285 349 407
#     4  10  21  42  69  98 138 181 222 283 347 401
#     4  10  22  41  67  98 139 184 226 279 348 411
#
# _framework density 28.151855999999999
#
# number of rings (size 3 to 8) (size 9 to 14) (size 15 to 20)
#    0.000    1.600    0.000    5.400    0.000    7.200 
#    0.000    6.000    0.000    0.000    0.000    0.000 
#    0.000    0.000    0.000    0.000    0.000    0.000 
#
# Total GULP energy -55876.166568 kJ/mol
# GULP energy per Si atom -5587.616657 kJ/mol
# Density = 2.808778 g / cm^3
# Si number density = 28.151856 Si / 1000 Ang^3
#
#
#
# Elastic Constant Matrix: (Units=GPa)
#
#
# Indices 1 2 3 4 5 6 
#
# 1 157.3307 32.8196 38.1896 -13.2844 -11.3331 5.6934
# 2 32.8196 88.4622 47.2515 -20.7854 2.9959 -5.3542
# 3 38.1896 47.2515 246.2532 -24.4390 11.5180 6.0601
# 4 -13.2844 -20.7854 -24.4390 67.1006 6.9979 -8.0502
# 5 -11.3331 2.9959 11.5180 6.9979 50.1253 -6.9666
# 6 5.6934 -5.3542 6.0601 -8.0502 -6.9666 38.3614
#
#
#
# Elastic Compliance Matrix: (Units=1/GPa)
#
#
# Indices 1 2 3 4 5 6 
#
# 1 0.007197 -0.002379 -0.000707 0.000132 0.001783 -0.000937
# 2 -0.002379 0.014397 -0.002057 0.003737 -0.000990 0.003292
# 3 -0.000707 -0.002057 0.004753 0.000982 -0.001402 -0.000982
# 4 0.000132 0.003737 0.000982 0.017108 -0.002319 0.003516
# 5 0.001783 -0.000990 -0.001402 -0.002319 0.021508 0.003238
# 6 -0.000937 0.003292 -0.000982 0.003516 0.003238 0.028147
#
#
# Mechanical properties :
#
#
# Convention : Reuss Voigt Hill
#
# Bulk Modulus (GPa) = 62.26457 80.95195 71.60826
# Shear Modulus (GPa) = 45.97704 56.03649 51.00677
#
# Velocity S-wave (km/s) = 4.04565 4.46635 4.26119
# Velocity P-wave (km/s) = 6.63238 7.44417 7.04997
#
# Compressibility (1/GPa) = 0.01606050
#
# Stress axis : x y z
#
# Youngs Moduli (GPa) = 138.93987 69.46087 210.41543
#
# Poissons Ratio (x) = 0.16522 0.14876
# Poissons Ratio (y) = 0.33048 0.43290
# Poissons Ratio (z) = 0.09823 0.14291
#
# Static dielectric constant tensor:
#      x y z
#    x 2.337840 -0.071790 0.104290 
#    y -0.071790 2.430570 -0.076340 
#    z 0.104290 -0.076340 2.141440 
# 
# From -- ./inp_files/488803.got.cif
#   From: 2010.05.17/outbox.cif.g08.bks.cpg/sg2_245_cif.got.tgz:488803.got - 2010.06.03 11:33:40.
