data_PCOD9016910
_publ_section_title
;
Structure prediction by ZEFSAII (Michael W. Deem and Ramdas Pophale) SiO2 
 PCOD9016910
Probable space group: P -1
;
_chemical_formula_sum "Si O2"
_cell_formula_units_Z 16
_cell_length_a 27.450579
_cell_length_b 25.836921
_cell_length_c 5.677493
_cell_angle_alpha 124.914759
_cell_angle_beta 55.531067
_cell_angle_gamma 169.614194
_cell_volume 595.132285
_symmetry_space_group_name_H-M "P -1"
_symmetry_group_IT_number 2
_symmetry_cell_setting 'triclinic'
loop_
_space_group_symop_operation_xyz
x,y,z
-x,-y,-z
loop_
_atom_site_type_symbol
_atom_site_label
_atom_site_fract_x
_atom_site_fract_y
_atom_site_fract_z
Si Si1 0.425352 0.851173 0.744486
Si Si2 0.757167 0.440255 0.181249
Si Si3 0.468332 0.601074 0.332269
Si Si4 0.757541 0.741104 0.175926
Si Si5 0.982110 0.442359 0.644523
Si Si6 0.778193 0.562945 0.808939
Si Si7 0.687366 0.942827 0.856582
Si Si8 0.989226 0.087769 0.682664
O O1 0.304796 0.692462 0.889365
O O2 0.227972 0.650931 0.543036
O O3 0.704857 0.115061 0.572931
O O4 0.500000 0.000000 0.000000
O O5 0.856301 0.581325 0.510442
O O6 0.479883 0.183615 0.185516
O O7 0.012459 0.718579 0.038915
O O8 0.342460 0.514652 0.253369
O O9 0.699382 0.884096 0.557990
O O10 0.227728 0.343695 0.507652
O O11 0.494269 0.558410 0.034011
O O12 0.884571 0.827565 0.249353
O O13 0.735614 0.787588 0.475226
O O14 0.000000 0.000000 0.000000
O O15 0.000000 0.500000 0.500000
O O16 0.000000 0.500000 0.000000
O O17 0.526958 0.286536 0.945128
O O18 0.025865 0.858530 0.023993
#
# Coordination Sequence:
#
# PCOD9016910 Si02
#       8
#     2   2   2   2   2   2   2   2
#     4  10  22  43  66  96 132 170 216 273 335 401
#     4  11  23  43  64  91 128 163 216 262 322 390
#     4   8  15  29  51  77 120 158 207 259 312 380
#     4   8  12  20  42  80 118 159 203 256 312 375
#     4  10  21  42  69  99 137 177 219 268 335 405
#     4   9  19  36  56  86 117 164 210 263 321 378
#     4  10  22  39  62  89 123 166 212 265 318 383
#     4   8  13  24  46  80 117 159 206 256 317 373
#
# _framework density 26.884775999999999
#
# number of rings (size 3 to 8) (size 9 to 14) (size 15 to 20)
#    0.000    2.750    0.000    1.125    0.000    2.000 
#   13.500    0.000    0.000    0.750    0.000  170.625 
#    0.000    0.000    0.000    0.000    0.000    0.000 
#
# Total GULP energy -89480.630534 kJ/mol
# GULP energy per Si atom -5592.539408 kJ/mol
# Density = 2.682359 g / cm^3
# Si number density = 26.884776 Si / 1000 Ang^3
#
#
#
# Elastic Constant Matrix: (Units=GPa)
#
#
# Indices 1 2 3 4 5 6 
#
# 1 118.0083 52.9789 24.1492 -3.9785 18.7750 -26.4686
# 2 52.9789 133.8079 11.4562 5.2014 3.3690 -2.5975
# 3 24.1492 11.4562 92.2805 0.1484 3.9256 -18.9667
# 4 -3.9785 5.2014 0.1484 31.0294 -15.7218 3.4724
# 5 18.7750 3.3690 3.9256 -15.7218 45.5318 0.0845
# 6 -26.4686 -2.5975 -18.9667 3.4724 0.0845 62.8592
#
#
#
# Elastic Compliance Matrix: (Units=1/GPa)
#
#
# Indices 1 2 3 4 5 6 
#
# 1 0.012721 -0.004660 -0.001564 -0.000642 -0.004996 0.004734
# 2 -0.004660 0.009359 -0.000293 -0.001638 0.000692 -0.001574
# 3 -0.001564 -0.000293 0.011924 -0.000882 -0.000672 0.002977
# 4 -0.000642 -0.001638 -0.000882 0.039970 0.014269 -0.002831
# 5 -0.004996 0.000692 -0.000672 0.014269 0.028962 -0.003105
# 6 0.004734 -0.001574 0.002977 -0.002831 -0.003105 0.018896
#
#
# Mechanical properties :
#
#
# Convention : Reuss Voigt Hill
#
# Bulk Modulus (GPa) = 47.68512 57.91836 52.80174
# Shear Modulus (GPa) = 35.24672 44.91825 40.08249
#
# Velocity S-wave (km/s) = 3.62474 4.09194 3.86541
# Velocity P-wave (km/s) = 5.94085 6.62686 6.29321
#
# Compressibility (1/GPa) = 0.02097090
#
# Stress axis : x y z
#
# Youngs Moduli (GPa) = 78.60783 106.84520 83.86474
#
# Poissons Ratio (x) = 0.49793 0.13116
# Poissons Ratio (y) = 0.36633 0.02455
# Poissons Ratio (z) = 0.12293 0.03128
#
# Static dielectric constant tensor:
#      x y z
#    x 2.054370 -0.018970 0.025070 
#    y -0.018970 2.069390 0.133660 
#    z 0.025070 0.133660 2.120730 
# 
# From -- ./inp_files/121775.got.cif
#   From: 2010.05.17/outbox.cif.g08.bks.cpg/sg2_61_cif.got.tgz:121775.got - 2010.06.03 11:33:40.
