data_PCOD9016477
_publ_section_title
;
Structure prediction by ZEFSAII (Michael W. Deem and Ramdas Pophale) SiO2 
 PCOD9016477
Probable space group: P -1
;
_chemical_formula_sum "Si O2"
_cell_formula_units_Z 16
_cell_length_a 19.612310
_cell_length_b 10.722783
_cell_length_c 8.930768
_cell_angle_alpha 61.234716
_cell_angle_beta 130.028265
_cell_angle_gamma 151.407437
_cell_volume 670.151684
_symmetry_space_group_name_H-M "P -1"
_symmetry_group_IT_number 2
_symmetry_cell_setting 'triclinic'
loop_
_space_group_symop_operation_xyz
x,y,z
-x,-y,-z
loop_
_atom_site_type_symbol
_atom_site_label
_atom_site_fract_x
_atom_site_fract_y
_atom_site_fract_z
Si Si1 0.892355 0.451454 0.096670
Si Si2 0.439543 0.108847 0.478965
Si Si3 0.603773 0.586486 0.238641
Si Si4 0.861536 0.718515 0.047168
Si Si5 0.514827 0.659317 0.327272
Si Si6 0.802008 0.636620 0.340756
Si Si7 0.112105 0.514987 0.271310
Si Si8 0.528394 0.980741 0.879725
O O1 0.887445 0.589774 0.106360
O O2 0.944849 0.565227 0.934762
O O3 0.703927 0.140287 0.027981
O O4 0.008821 0.472021 0.267339
O O5 0.524055 0.344393 0.360202
O O6 0.376936 0.093067 0.556161
O O7 0.292662 0.835141 0.341854
O O8 0.550424 0.135002 0.696085
O O9 0.602953 0.718774 0.271199
O O10 0.768767 0.740707 0.313396
O O11 0.500000 0.500000 0.000000
O O12 0.671394 0.523931 0.858700
O O13 0.896846 0.779246 0.237634
O O14 0.000000 0.000000 0.000000
O O15 0.500000 0.500000 0.500000
O O16 0.873954 0.622739 0.566266
O O17 0.625841 0.324313 0.215876
O O18 0.500000 0.000000 0.000000
#
# Coordination Sequence:
#
# PCOD9016477 Si02
#       8
#     2   2   2   2   2   2   2   2
#     4  11  23  44  68  98 137 171 219 269 348 396
#     4  10  21  42  68 101 134 169 224 278 333 392
#     4  11  22  37  67  96 137 169 225 275 320 391
#     4  12  26  45  67  93 141 182 217 269 333 405
#     4  10  22  41  66 100 129 180 225 264 324 397
#     4  11  23  44  68 100 130 170 229 275 333 389
#     4  10  25  43  70 100 131 172 216 285 345 392
#     4  11  20  40  70 100 128 169 220 283 325 387
#
# _framework density 23.875191000000001
#
# number of rings (size 3 to 8) (size 9 to 14) (size 15 to 20)
#    0.000    1.250    3.750    1.500    5.250    2.500 
#    0.000    1.875    8.250    0.000    0.000    0.000 
#    0.000    0.000    0.000    0.000    0.000    0.000 
#
# Total GULP energy -89356.374833 kJ/mol
# GULP energy per Si atom -5584.773427 kJ/mol
# Density = 2.382085 g / cm^3
# Si number density = 23.875191 Si / 1000 Ang^3
#
#
#
# Elastic Constant Matrix: (Units=GPa)
#
#
# Indices 1 2 3 4 5 6 
#
# 1 201.6437 10.4759 31.4168 0.1342 1.8406 19.2189
# 2 10.4759 66.7015 5.7846 -19.2616 0.6133 3.9693
# 3 31.4168 5.7846 66.1809 -21.1601 7.7508 1.3583
# 4 0.1342 -19.2616 -21.1601 29.5598 2.2993 -4.3095
# 5 1.8406 0.6133 7.7508 2.2993 43.8846 -1.8725
# 6 19.2189 3.9693 1.3583 -4.3095 -1.8725 24.3984
#
#
#
# Elastic Compliance Matrix: (Units=1/GPa)
#
#
# Indices 1 2 3 4 5 6 
#
# 1 0.006238 -0.001780 -0.004417 -0.005161 0.000590 -0.005244
# 2 -0.001780 0.019539 0.004522 0.016220 -0.001817 0.000697
# 3 -0.004417 0.004522 0.024123 0.021325 -0.005052 0.004780
# 4 -0.005161 0.016220 0.021325 0.061749 -0.006558 0.010643
# 5 0.000590 -0.001817 -0.005052 -0.006558 0.024058 0.000800
# 6 -0.005244 0.000697 0.004780 0.010643 0.000800 0.046679
#
#
# Mechanical properties :
#
#
# Convention : Reuss Voigt Hill
#
# Bulk Modulus (GPa) = 21.48293 47.76451 34.62372
# Shear Modulus (GPa) = 24.84441 38.69183 31.76812
#
# Velocity S-wave (km/s) = 3.22933 4.03002 3.65168
# Velocity P-wave (km/s) = 4.78772 6.45787 5.68447
#
# Compressibility (1/GPa) = 0.04654858
#
# Stress axis : x y z
#
# Youngs Moduli (GPa) = 160.31260 51.18072 41.45355
#
# Poissons Ratio (x) = 0.09111 0.18310
# Poissons Ratio (y) = 0.28539 -0.18744
# Poissons Ratio (z) = 0.70811 -0.23142
#
# Static dielectric constant tensor:
#      x y z
#    x 2.034310 0.013340 -0.005200 
#    y 0.013340 1.915690 0.021030 
#    z -0.005200 0.021030 1.963570 
# 
# From -- ./inp_files/333066.got.cif
#   From: 2010.05.17/outbox.cif.g08.bks.cpg/sg2_167_cif.got.tgz:333066.got - 2010.06.03 11:33:40.
