data_PCOD9016091
_publ_section_title
;
Structure prediction by ZEFSAII (Michael W. Deem and Ramdas Pophale) SiO2 
 PCOD9016091
Probable space group: P -1
;
_chemical_formula_sum "Si O2"
_cell_formula_units_Z 14
_cell_length_a 12.082740
_cell_length_b 12.412848
_cell_length_c 5.289050
_cell_angle_alpha 90.408312
_cell_angle_beta 52.577572
_cell_angle_gamma 106.457670
_cell_volume 589.821963
_symmetry_space_group_name_H-M "P -1"
_symmetry_group_IT_number 2
_symmetry_cell_setting 'triclinic'
loop_
_space_group_symop_operation_xyz
x,y,z
-x,-y,-z
loop_
_atom_site_type_symbol
_atom_site_label
_atom_site_fract_x
_atom_site_fract_y
_atom_site_fract_z
Si Si1 0.557973 0.345272 0.801156
Si Si2 0.229251 0.901301 0.960282
Si Si3 0.618462 0.121238 0.762922
Si Si4 0.106997 0.222391 0.761761
Si Si5 0.152429 0.106265 0.217862
Si Si6 0.633590 0.542457 0.112489
Si Si7 0.847342 0.523392 0.176134
O O1 0.554085 0.222343 0.880983
O O2 0.401580 0.344449 0.909009
O O3 0.708438 0.407169 0.429432
O O4 0.587352 0.438127 0.982067
O O5 0.333670 0.885525 0.592491
O O6 0.252709 0.854993 0.202595
O O7 0.065563 0.832462 0.078547
O O8 0.253396 0.035744 0.973283
O O9 0.500000 0.000000 0.000000
O O10 0.187045 0.169721 0.441326
O O11 0.153886 0.361173 0.676911
O O12 0.126128 0.179176 0.017239
O O13 0.000000 0.000000 0.500000
O O14 0.500000 0.500000 0.500000
O O15 0.798252 0.555097 0.970784
O O16 0.000000 0.500000 0.000000
#
# Coordination Sequence:
#
# PCOD9016091 Si02
#       7
#     2   2   2   2   2   2   2
#     4  10  24  47  70  97 142 189 236 293 352 422
#     4  11  23  46  66 101 141 180 222 303 359 407
#     4  12  27  45  70 101 131 184 242 296 352 414
#     4  11  23  40  69 104 139 188 225 282 364 434
#     4  10  21  42  66  94 140 181 228 268 344 434
#     4   9  22  47  69  94 138 190 237 288 351 414
#     4  11  25  41  69 109 141 180 235 295 363 423
#
# _framework density 23.735976000000001
#
# number of rings (size 3 to 8) (size 9 to 14) (size 15 to 20)
#    0.000    1.429    0.000    5.571    8.000    1.714 
#   12.857    0.000    0.000    0.000    0.000    0.000 
#    0.000    0.000    0.000    0.000    0.000    0.000 
#
# Total GULP energy -78131.451035 kJ/mol
# GULP energy per Si atom -5580.817931 kJ/mol
# Density = 2.368195 g / cm^3
# Si number density = 23.735976 Si / 1000 Ang^3
#
#
#
# Elastic Constant Matrix: (Units=GPa)
#
#
# Indices 1 2 3 4 5 6 
#
# 1 153.1737 45.2425 21.5249 11.7289 -2.6500 -29.8823
# 2 45.2425 143.4322 16.8529 -2.6700 1.1309 -36.9910
# 3 21.5249 16.8529 74.0559 0.4789 8.4675 -6.6003
# 4 11.7289 -2.6700 0.4789 40.3454 2.4383 -6.1170
# 5 -2.6500 1.1309 8.4675 2.4383 39.0655 5.1165
# 6 -29.8823 -36.9910 -6.6003 -6.1170 5.1165 42.2644
#
#
#
# Elastic Compliance Matrix: (Units=1/GPa)
#
#
# Indices 1 2 3 4 5 6 
#
# 1 0.008096 -0.001381 -0.001744 -0.001867 0.000573 0.003903
# 2 -0.001381 0.009570 -0.000950 0.002300 -0.001323 0.007744
# 3 -0.001744 -0.000950 0.014676 0.000586 -0.003403 0.000724
# 4 -0.001867 0.002300 0.000586 0.026377 -0.002611 0.004918
# 5 0.000573 -0.001323 -0.003403 -0.002611 0.027225 -0.004958
# 6 0.003903 0.007744 0.000724 0.004918 -0.004958 0.034623
#
#
# Mechanical properties :
#
#
# Convention : Reuss Voigt Hill
#
# Bulk Modulus (GPa) = 41.33772 59.76696 50.55234
# Shear Modulus (GPa) = 36.55457 43.47116 40.01286
#
# Velocity S-wave (km/s) = 3.92860 4.28418 4.11024
# Velocity P-wave (km/s) = 6.16701 7.05031 6.62340
#
# Compressibility (1/GPa) = 0.02419098
#
# Stress axis : x y z
#
# Youngs Moduli (GPa) = 123.51753 104.49798 68.13695
#
# Poissons Ratio (x) = 0.14436 0.11885
# Poissons Ratio (y) = 0.17063 0.06471
# Poissons Ratio (z) = 0.21546 0.09924
#
# Static dielectric constant tensor:
#      x y z
#    x 1.994050 -0.030910 0.068890 
#    y -0.030910 1.958060 -0.044350 
#    z 0.068890 -0.044350 1.927200 
# 
# From -- ./inp_files/70243.got.cif
#   From: 2010.05.17/outbox.cif.g08.bks.cpg/sg2_36_cif.got.tgz:70243.got - 2010.06.03 11:33:40.
