data_PCOD9016512
_publ_section_title
;
Structure prediction by ZEFSAII (Michael W. Deem and Ramdas Pophale) SiO2 
 PCOD9016512
Probable space group: P -1
;
_chemical_formula_sum "Si O2"
_cell_formula_units_Z 16
_cell_length_a 24.155363
_cell_length_b 18.393721
_cell_length_c 5.112889
_cell_angle_alpha 104.649378
_cell_angle_beta 99.935601
_cell_angle_gamma 17.600691
_cell_volume 646.099661
_symmetry_space_group_name_H-M "P -1"
_symmetry_group_IT_number 2
_symmetry_cell_setting 'triclinic'
loop_
_space_group_symop_operation_xyz
x,y,z
-x,-y,-z
loop_
_atom_site_type_symbol
_atom_site_label
_atom_site_fract_x
_atom_site_fract_y
_atom_site_fract_z
Si Si1 0.103978 0.402353 0.750925
Si Si2 0.077320 0.983002 0.150258
Si Si3 0.437530 0.514009 0.662870
Si Si4 0.023908 0.277760 0.854135
Si Si5 0.250253 0.609328 0.375352
Si Si6 0.259925 0.977796 0.265422
Si Si7 0.182223 0.580461 0.930850
Si Si8 0.480897 0.839577 0.466281
O O1 0.000000 0.500000 0.500000
O O2 0.075997 0.526287 0.895803
O O3 0.319477 0.100808 0.668425
O O4 0.000000 0.500000 0.000000
O O5 0.288217 0.719440 0.965032
O O6 0.967579 0.120531 0.465384
O O7 0.993352 0.170731 0.157924
O O8 0.000000 0.000000 0.000000
O O9 0.500000 0.500000 0.500000
O O10 0.330436 0.588964 0.464030
O O11 0.609951 0.251309 0.703896
O O12 0.888302 0.379438 0.853765
O O13 0.197934 0.039159 0.975815
O O14 0.094503 0.202079 0.550586
O O15 0.392618 0.370758 0.421838
O O16 0.252357 0.574702 0.056475
O O17 0.367832 0.919725 0.289240
O O18 0.361569 0.315571 0.703048
#
# Coordination Sequence:
#
# PCOD9016512 Si02
#       8
#     2   2   2   2   2   2   2   2
#     4  12  24  45  74 106 139 179 232 287 350 422
#     4   9  20  43  61  93 131 181 228 283 345 406
#     4  10  21  42  68 105 132 183 240 299 334 414
#     4  12  26  47  71 104 143 186 229 292 354 413
#     4   9  22  42  68  92 140 181 227 283 355 412
#     4  11  25  46  71 101 144 184 235 289 356 409
#     4  11  25  43  68  98 139 185 230 285 352 419
#     4  10  23  43  72  99 135 181 232 281 350 413
#
# _framework density 24.763983
#
# number of rings (size 3 to 8) (size 9 to 14) (size 15 to 20)
#    0.000    1.500    2.500    1.500    8.750    2.500 
#    4.500    1.875    0.000    0.000    0.000    0.000 
#    0.000    0.000    0.000    0.000    0.000    0.000 
#
# Total GULP energy -89341.204808 kJ/mol
# GULP energy per Si atom -5583.825300 kJ/mol
# Density = 2.470762 g / cm^3
# Si number density = 24.763983 Si / 1000 Ang^3
#
#
#
# Elastic Constant Matrix: (Units=GPa)
#
#
# Indices 1 2 3 4 5 6 
#
# 1 101.7355 21.4555 27.4911 11.8113 -3.4989 0.4786
# 2 21.4555 102.4169 48.5942 34.7042 -3.2091 7.6372
# 3 27.4911 48.5942 121.6493 34.4832 -8.4992 3.7813
# 4 11.8113 34.7042 34.4832 54.0000 -4.3008 1.9796
# 5 -3.4989 -3.2091 -8.4992 -4.3008 42.2629 0.8943
# 6 0.4786 7.6372 3.7813 1.9796 0.8943 23.2590
#
#
#
# Elastic Compliance Matrix: (Units=1/GPa)
#
#
# Indices 1 2 3 4 5 6 
#
# 1 0.010633 -0.001292 -0.001777 -0.000349 0.000379 0.000510
# 2 -0.001292 0.014108 -0.003414 -0.006501 -0.000310 -0.003485
# 3 -0.001777 -0.003414 0.011390 -0.004564 0.001427 -0.000361
# 4 -0.000349 -0.006501 -0.004564 0.025756 0.001167 0.000647
# 5 0.000379 -0.000310 0.001427 0.001167 0.024100 -0.001164
# 6 0.000510 -0.003485 -0.000361 0.000647 -0.001164 0.044176
#
#
# Mechanical properties :
#
#
# Convention : Reuss Voigt Hill
#
# Bulk Modulus (GPa) = 43.16999 57.87591 50.52295
# Shear Modulus (GPa) = 33.14505 39.12179 36.13342
#
# Velocity S-wave (km/s) = 3.66244 3.97896 3.82398
# Velocity P-wave (km/s) = 5.94601 6.67318 6.32006
#
# Compressibility (1/GPa) = 0.02316424
#
# Stress axis : x y z
#
# Youngs Moduli (GPa) = 94.04396 70.88404 87.79319
#
# Poissons Ratio (x) = 0.09160 0.15603
# Poissons Ratio (y) = 0.12153 0.29973
# Poissons Ratio (z) = 0.16714 0.24200
#
# Static dielectric constant tensor:
#      x y z
#    x 2.022330 0.002690 0.067180 
#    y 0.002690 2.141120 0.018260 
#    z 0.067180 0.018260 1.999470 
# 
# From -- ./inp_files/124809.got.cif
#   From: 2010.05.17/outbox.cif.g08.bks.cpg/sg2_63_cif.got.tgz:124809.got - 2010.06.03 11:33:40.
