data_PCOD9016908
_publ_section_title
;
Structure prediction by ZEFSAII (Michael W. Deem and Ramdas Pophale) SiO2 
 PCOD9016908
Probable space group: P -1
;
_chemical_formula_sum "Si O2"
_cell_formula_units_Z 16
_cell_length_a 16.732459
_cell_length_b 8.216055
_cell_length_c 11.144332
_cell_angle_alpha 119.215368
_cell_angle_beta 32.107659
_cell_angle_gamma 120.561861
_cell_volume 695.651564
_symmetry_space_group_name_H-M "P -1"
_symmetry_group_IT_number 2
_symmetry_cell_setting 'triclinic'
loop_
_space_group_symop_operation_xyz
x,y,z
-x,-y,-z
loop_
_atom_site_type_symbol
_atom_site_label
_atom_site_fract_x
_atom_site_fract_y
_atom_site_fract_z
Si Si1 0.272387 0.130262 0.397188
Si Si2 0.541134 0.487572 0.582471
Si Si3 0.338808 0.129853 0.033075
Si Si4 0.651045 0.118624 0.284052
Si Si5 0.022647 0.701742 0.792277
Si Si6 0.678155 0.264995 0.697325
Si Si7 0.241653 0.415064 0.093631
Si Si8 0.003211 0.880875 0.106835
O O1 0.381575 0.315965 0.381643
O O2 0.294323 0.104924 0.218956
O O3 0.098575 0.151795 0.656145
O O4 0.314650 0.947350 0.344136
O O5 0.500000 0.500000 0.500000
O O6 0.649407 0.335568 0.390644
O O7 0.383672 0.404643 0.822915
O O8 0.226563 0.237949 0.140937
O O9 0.509159 0.263311 0.863209
O O10 0.354806 0.942724 0.870534
O O11 0.500000 0.000000 0.500000
O O12 0.813286 0.079150 0.106230
O O13 0.191120 0.663399 0.542060
O O14 0.905384 0.590274 0.804692
O O15 0.959825 0.701805 0.006833
O O16 0.038060 0.924972 0.820072
O O17 0.717892 0.398744 0.809770
#
# Coordination Sequence:
#
# PCOD9016908 Si02
#       8
#     2   2   2   2   2   2   2   2
#     4  11  26  45  67 100 141 185 219 278 354 403
#     4  12  26  44  69  99 141 180 233 281 338 414
#     4  12  24  43  70 101 141 176 229 283 341 409
#     4  12  24  44  73 104 132 180 235 282 342 399
#     4  10  21  42  69  99 136 174 231 283 341 398
#     4  11  24  42  70  99 136 180 225 277 346 405
#     4  12  24  43  68 105 132 180 233 282 338 407
#     4  10  22  44  68  97 138 180 225 284 339 412
#
# _framework density 23.000019999999999
#
# number of rings (size 3 to 8) (size 9 to 14) (size 15 to 20)
#    0.000    0.750    3.750    3.375    1.750    3.000 
#    0.000    1.250    0.000    0.000    0.000    0.000 
#    0.000    0.000    0.000    0.000    0.000    0.000 
#
# Total GULP energy -89494.828715 kJ/mol
# GULP energy per Si atom -5593.426795 kJ/mol
# Density = 2.294767 g / cm^3
# Si number density = 23.000020 Si / 1000 Ang^3
#
#
#
# Elastic Constant Matrix: (Units=GPa)
#
#
# Indices 1 2 3 4 5 6 
#
# 1 83.3134 9.8002 36.4134 2.9482 19.3782 16.9366
# 2 9.8002 59.9473 -2.9397 22.1786 14.4411 9.5131
# 3 36.4134 -2.9397 123.0827 -3.2283 17.4862 1.4393
# 4 2.9482 22.1786 -3.2283 31.8682 11.0324 6.9809
# 5 19.3782 14.4411 17.4862 11.0324 43.7429 4.0730
# 6 16.9366 9.5131 1.4393 6.9809 4.0730 32.8413
#
#
#
# Elastic Compliance Matrix: (Units=1/GPa)
#
#
# Indices 1 2 3 4 5 6 
#
# 1 0.016671 -0.001345 -0.004065 0.002522 -0.005215 -0.007919
# 2 -0.001345 0.023577 0.001159 -0.014262 -0.003804 -0.002683
# 3 -0.004065 0.001159 0.009790 0.001270 -0.002949 0.001427
# 4 0.002522 -0.014262 0.001270 0.045172 -0.007763 -0.005864
# 5 -0.005215 -0.003804 -0.002949 -0.007763 0.029384 0.001927
# 6 -0.007919 -0.002683 0.001427 -0.005864 0.001927 0.036256
#
#
# Mechanical properties :
#
#
# Convention : Reuss Voigt Hill
#
# Bulk Modulus (GPa) = 24.07501 39.21016 31.64258
# Shear Modulus (GPa) = 27.29303 36.56179 31.92741
#
# Velocity S-wave (km/s) = 3.44852 3.99136 3.72983
# Velocity P-wave (km/s) = 5.13288 6.19081 5.68650
#
# Compressibility (1/GPa) = 0.04153685
#
# Stress axis : x y z
#
# Youngs Moduli (GPa) = 59.98375 42.41508 102.14202
#
# Poissons Ratio (x) = 0.05704 0.41516
# Poissons Ratio (y) = 0.08066 -0.11835
# Poissons Ratio (z) = 0.24381 -0.04915
#
# Static dielectric constant tensor:
#      x y z
#    x 1.909680 -0.021040 0.020900 
#    y -0.021040 1.868750 -0.011390 
#    z 0.020900 -0.011390 1.875420 
# 
# From -- ./inp_files/381252.got.cif
#   From: 2010.05.17/outbox.cif.g08.bks.cpg/sg2_191_cif.got.tgz:381252.got - 2010.06.03 11:33:40.
