data_PCOD9016415
_publ_section_title
;
Structure prediction by ZEFSAII (Michael W. Deem and Ramdas Pophale) SiO2 
 PCOD9016415
Probable space group: P -1
;
_chemical_formula_sum "Si O2"
_cell_formula_units_Z 16
_cell_length_a 6.994970
_cell_length_b 10.395761
_cell_length_c 12.935609
_cell_angle_alpha 84.278085
_cell_angle_beta 130.429130
_cell_angle_gamma 93.379191
_cell_volume 712.444656
_symmetry_space_group_name_H-M "P -1"
_symmetry_group_IT_number 2
_symmetry_cell_setting 'triclinic'
loop_
_space_group_symop_operation_xyz
x,y,z
-x,-y,-z
loop_
_atom_site_type_symbol
_atom_site_label
_atom_site_fract_x
_atom_site_fract_y
_atom_site_fract_z
Si Si1 0.615872 0.661022 0.939053
Si Si2 0.635064 0.509705 0.285882
Si Si3 0.613090 0.135593 0.754785
Si Si4 0.868605 0.391999 0.801821
Si Si5 0.868574 0.359202 0.573775
Si Si6 0.420530 0.859951 0.024252
Si Si7 0.477469 0.153023 0.488874
Si Si8 0.180376 0.155163 0.186187
O O1 0.394392 0.575889 0.820122
O O2 0.531601 0.749391 0.998232
O O3 0.708303 0.751452 0.869456
O O4 0.855404 0.575897 0.065403
O O5 0.355193 0.554264 0.211741
O O6 0.739053 0.427874 0.425728
O O7 0.834699 0.623405 0.334214
O O8 0.842521 0.235906 0.815729
O O9 0.432142 0.176746 0.592775
O O10 0.713064 0.989663 0.786069
O O11 0.501329 0.147183 0.828129
O O12 0.813921 0.425270 0.660699
O O13 0.742043 0.219543 0.548846
O O14 0.118841 0.848398 0.920148
O O15 0.500000 0.000000 0.000000
O O16 0.277252 0.198038 0.330194
O O17 0.500000 0.000000 0.500000
#
# Coordination Sequence:
#
# PCOD9016415 Si02
#       8
#     2   2   2   2   2   2   2   2
#     4  12  25  42  68 101 139 178 231 281 339 413
#     4  11  25  46  68  99 136 184 230 279 334 406
#     4  10  21  42  67  97 134 178 226 273 348 403
#     4  11  24  43  68  96 134 185 225 282 336 403
#     4  10  23  45  71  98 134 177 232 279 341 409
#     4  12  24  40  68 101 139 182 223 280 347 408
#     4   9  20  42  74  99 135 174 221 289 340 402
#     4  11  21  44  67 100 139 177 221 282 352 406
#
# _framework density 22.457884
#
# number of rings (size 3 to 8) (size 9 to 14) (size 15 to 20)
#    0.000    1.250    3.750    1.875    1.750    1.500 
#    9.000    0.625    0.000    0.000    0.000    0.000 
#    0.000    0.000    0.000    0.000    0.000    0.000 
#
# Total GULP energy -89462.176194 kJ/mol
# GULP energy per Si atom -5591.386012 kJ/mol
# Density = 2.240677 g / cm^3
# Si number density = 22.457884 Si / 1000 Ang^3
#
#
#
# Elastic Constant Matrix: (Units=GPa)
#
#
# Indices 1 2 3 4 5 6 
#
# 1 116.5961 55.2724 64.8796 5.7102 -15.1449 2.6767
# 2 55.2724 72.2530 50.1064 14.2796 9.6762 13.4556
# 3 64.8796 50.1064 168.1100 19.0493 -27.6626 0.8266
# 4 5.7102 14.2796 19.0493 23.3197 -0.1668 0.6224
# 5 -15.1449 9.6762 -27.6626 -0.1668 34.9800 -1.5624
# 6 2.6767 13.4556 0.8266 0.6224 -1.5624 38.0606
#
#
#
# Elastic Compliance Matrix: (Units=1/GPa)
#
#
# Indices 1 2 3 4 5 6 
#
# 1 0.018586 -0.017970 -0.000491 0.006799 0.012907 0.005475
# 2 -0.017970 0.042706 -0.008519 -0.014597 -0.027049 -0.014521
# 3 -0.000491 -0.008519 0.010847 -0.003535 0.010854 0.003314
# 4 0.006799 -0.014597 -0.003535 0.052968 0.004621 0.004083
# 5 0.012907 -0.027049 0.010854 0.004621 0.050729 0.010426
# 6 0.005475 -0.014521 0.003314 0.004083 0.010426 0.031312
#
#
# Mechanical properties :
#
#
# Convention : Reuss Voigt Hill
#
# Bulk Modulus (GPa) = 55.00362 77.49732 66.25047
# Shear Modulus (GPa) = 18.71494 31.71875 25.21685
#
# Velocity S-wave (km/s) = 2.88989 3.76222 3.35453
# Velocity P-wave (km/s) = 5.97330 7.31131 6.67591
#
# Compressibility (1/GPa) = 0.01818062
#
# Stress axis : x y z
#
# Youngs Moduli (GPa) = 53.80435 23.41584 92.18937
#
# Poissons Ratio (x) = 0.42077 0.04523
# Poissons Ratio (y) = 0.96684 0.78538
# Poissons Ratio (z) = 0.02640 0.19948
#
# Static dielectric constant tensor:
#      x y z
#    x 1.803170 0.013260 -0.025600 
#    y 0.013260 1.842920 0.013370 
#    z -0.025600 0.013370 1.858700 
# 
# From -- ./inp_files/364542.got.cif
#   From: 2010.05.17/outbox.cif.g08.bks.cpg/sg2_183_cif.got.tgz:364542.got - 2010.06.03 11:33:40.
