data_PCOD9016307
_publ_section_title
;
Structure prediction by ZEFSAII (Michael W. Deem and Ramdas Pophale) SiO2 
 PCOD9016307
Probable space group: P -1
;
_chemical_formula_sum "Si O2"
_cell_formula_units_Z 14
_cell_length_a 14.855197
_cell_length_b 5.402368
_cell_length_c 11.441372
_cell_angle_alpha 54.243088
_cell_angle_beta 118.292720
_cell_angle_gamma 121.660217
_cell_volume 615.358966
_symmetry_space_group_name_H-M "P -1"
_symmetry_group_IT_number 2
_symmetry_cell_setting 'triclinic'
loop_
_space_group_symop_operation_xyz
x,y,z
-x,-y,-z
loop_
_atom_site_type_symbol
_atom_site_label
_atom_site_fract_x
_atom_site_fract_y
_atom_site_fract_z
Si Si1 0.024624 0.874321 0.383987
Si Si2 0.947233 0.190610 0.829384
Si Si3 0.543338 0.057353 0.850892
Si Si4 0.287861 0.038688 0.195740
Si Si5 0.126579 0.879877 0.678827
Si Si6 0.540690 0.693324 0.594192
Si Si7 0.331285 0.707973 0.908920
O O1 0.078309 0.988767 0.261898
O O2 0.101060 0.024592 0.500930
O O3 0.000000 0.500000 0.500000
O O4 0.904518 0.900840 0.304870
O O5 0.035956 0.534927 0.754812
O O6 0.835033 0.207232 0.805798
O O7 0.000000 0.000000 0.000000
O O8 0.506258 0.375527 0.744577
O O9 0.622969 0.071478 0.787783
O O10 0.431188 0.754539 0.868833
O O11 0.613612 0.073509 0.005259
O O12 0.334534 0.145701 0.326071
O O13 0.283735 0.348682 0.033315
O O14 0.240558 0.832119 0.765546
O O15 0.500000 0.500000 0.500000
O O16 0.500000 0.000000 0.500000
#
# Coordination Sequence:
#
# PCOD9016307 Si02
#       7
#     2   2   2   2   2   2   2
#     4   9  22  42  59  92 132 175 237 280 337 422
#     4  11  23  40  65 104 134 181 220 288 357 415
#     4  10  23  41  65 100 136 178 234 293 349 422
#     4  11  23  42  68  99 141 174 234 294 349 428
#     4  10  21  42  67  92 135 181 232 283 348 417
#     4  11  23  46  68  98 139 182 232 284 354 421
#     4  10  22  40  66  97 129 184 233 295 350 420
#
# _framework density 22.750948999999999
#
# number of rings (size 3 to 8) (size 9 to 14) (size 15 to 20)
#    0.000    1.714    2.857    0.429    2.000    4.000 
#    7.714    0.000    0.000    0.000    0.000    0.000 
#    0.000    0.000    0.000    0.000    0.000    0.000 
#
# Total GULP energy -77962.534459 kJ/mol
# GULP energy per Si atom -5568.752461 kJ/mol
# Density = 2.269917 g / cm^3
# Si number density = 22.750949 Si / 1000 Ang^3
#
#
#
# Elastic Constant Matrix: (Units=GPa)
#
#
# Indices 1 2 3 4 5 6 
#
# 1 146.0851 38.7785 51.5948 10.2764 6.5723 11.7231
# 2 38.7785 58.7746 22.9128 0.8588 2.4223 3.2706
# 3 51.5948 22.9128 133.8868 9.0614 11.5102 0.5782
# 4 10.2764 0.8588 9.0614 18.9949 -4.1515 3.7637
# 5 6.5723 2.4223 11.5102 -4.1515 35.9901 -2.5319
# 6 11.7231 3.2706 0.5782 3.7637 -2.5319 38.4699
#
#
#
# Elastic Compliance Matrix: (Units=1/GPa)
#
#
# Indices 1 2 3 4 5 6 
#
# 1 0.009551 -0.005125 -0.002449 -0.003597 -0.001183 -0.002164
# 2 -0.005125 0.021088 -0.001863 0.002889 0.000413 -0.000459
# 3 -0.002449 -0.001863 0.009219 -0.003778 -0.002744 0.000955
# 4 -0.003597 0.002889 -0.003778 0.058903 0.008161 -0.004318
# 5 -0.001183 0.000413 -0.002744 0.008161 0.029901 0.001536
# 6 -0.002164 -0.000459 0.000955 -0.004318 0.001536 0.027202
#
#
# Mechanical properties :
#
#
# Convention : Reuss Voigt Hill
#
# Bulk Modulus (GPa) = 47.65552 62.81320 55.23436
# Shear Modulus (GPa) = 27.51313 33.72166 30.61740
#
# Velocity S-wave (km/s) = 3.48130 3.85412 3.67244
# Velocity P-wave (km/s) = 6.09519 6.89019 6.50484
#
# Compressibility (1/GPa) = 0.02098393
#
# Stress axis : x y z
#
# Youngs Moduli (GPa) = 104.70640 47.42032 108.47125
#
# Poissons Ratio (x) = 0.24302 0.26563
# Poissons Ratio (y) = 0.53661 0.20209
# Poissons Ratio (z) = 0.25641 0.08835
#
# Static dielectric constant tensor:
#      x y z
#    x 2.000580 -0.184720 -0.007130 
#    y -0.184720 2.133890 0.018320 
#    z -0.007130 0.018320 1.883550 
# 
# From -- ./inp_files/106817.got.cif
#   From: 2010.05.17/outbox.cif.g08.bks.cpg/sg2_54_cif.got.tgz:106817.got - 2010.06.03 11:33:40.
