data_PCOD9016882
_publ_section_title
;
Structure prediction by ZEFSAII (Michael W. Deem and Ramdas Pophale) SiO2 
 PCOD9016882
Probable space group: P -1
;
_chemical_formula_sum "Si O2"
_cell_formula_units_Z 16
_cell_length_a 18.065205
_cell_length_b 5.514707
_cell_length_c 7.523577
_cell_angle_alpha 89.999686
_cell_angle_beta 106.736690
_cell_angle_gamma 62.748148
_cell_volume 630.406437
_symmetry_space_group_name_H-M "P -1"
_symmetry_group_IT_number 2
_symmetry_cell_setting 'triclinic'
loop_
_space_group_symop_operation_xyz
x,y,z
-x,-y,-z
loop_
_atom_site_type_symbol
_atom_site_label
_atom_site_fract_x
_atom_site_fract_y
_atom_site_fract_z
Si Si1 0.593434 0.859852 0.965518
Si Si2 0.592224 0.361676 0.460379
Si Si3 0.826328 0.510512 0.731906
Si Si4 0.155425 0.016865 0.836778
Si Si5 0.079378 0.130932 0.178740
Si Si6 0.879149 0.431274 0.167866
Si Si7 0.345424 0.731860 0.138173
Si Si8 0.343790 0.234302 0.632548
O O1 0.670781 0.743830 0.167128
O O2 0.603931 0.593563 0.867865
O O3 0.500000 0.000000 0.000000
O O4 0.603931 0.094653 0.867866
O O5 0.500000 0.500000 0.500000
O O6 0.669390 0.245921 0.661937
O O7 0.603581 0.594568 0.364348
O O8 0.603585 0.094719 0.364337
O O9 0.877461 0.683066 0.727105
O O10 0.737110 0.644343 0.558259
O O11 0.877460 0.184557 0.727105
O O12 0.817601 0.523599 0.944815
O O13 0.096993 0.104512 0.977693
O O14 0.256170 0.865744 0.967057
O O15 0.135229 0.301757 0.733469
O O16 0.135228 0.792566 0.733469
O O17 0.977475 0.283786 0.157419
#
# Coordination Sequence:
#
# PCOD9016882 Si02
#       8
#     2   2   2   2   2   2   2   2
#     4  12  26  46  64  88 124 173 216 251 309 391
#     4  12  23  40  64  94 121 154 202 265 324 371
#     4  10  18  30  49  78 112 148 191 239 289 344
#     4  10  18  30  50  81 116 148 191 244 296 347
#     4  10  18  30  52  86 122 154 190 246 305 360
#     4  10  17  30  51  86 122 154 190 246 304 360
#     4  12  24  41  65  93 125 163 208 265 316 367
#     4  12  24  41  63  90 126 164 204 260 315 372
#
# _framework density 25.38045
#
# number of rings (size 3 to 8) (size 9 to 14) (size 15 to 20)
#    0.000    1.000    0.000   12.000    0.000    0.000 
#    0.000    0.000    0.000    0.000    0.000   29.750 
#    0.000    0.000    0.000    0.000    0.000    0.000 
#
# Total GULP energy -89640.371719 kJ/mol
# GULP energy per Si atom -5602.523232 kJ/mol
# Density = 2.532268 g / cm^3
# Si number density = 25.380450 Si / 1000 Ang^3
#
#
#
# Elastic Constant Matrix: (Units=GPa)
#
#
# Indices 1 2 3 4 5 6 
#
# 1 81.8245 84.8658 7.8058 -53.4199 -8.3859 24.2771
# 2 84.8658 228.2952 43.0319 131.4775 68.5925 69.1867
# 3 7.8058 43.0319 74.0573 -77.0360 -36.7511 11.5733
# 4 -53.4199 131.4775 -77.0360-1084.2954 -512.5849 -20.5021
# 5 -8.3859 68.5925 -36.7511 -512.5849 -212.2418 -14.4307
# 6 24.2771 69.1867 11.5733 -20.5021 -14.4307 48.4276
#
#
#
# Elastic Compliance Matrix: (Units=1/GPa)
#
#
# Indices 1 2 3 4 5 6 
#
# 1 0.019903 -0.004764 -0.000141 0.003697 -0.010904 -0.004821
# 2 -0.004764 0.008070 -0.001377 0.001640 -0.000367 -0.008226
# 3 -0.000141 -0.001377 0.013442 -0.001212 0.000270 -0.001607
# 4 0.003697 0.001640 -0.001212 0.008331 -0.019114 -0.006076
# 5 -0.010904 -0.000367 0.000270 -0.019114 0.041032 0.010061
# 6 -0.004821 -0.008226 -0.001607 -0.006076 0.010061 0.035629
#
#
# Mechanical properties :
#
#
# Convention : Reuss Voigt Hill
#
# Bulk Modulus (GPa) = 34.66218 72.84266 53.75242
# Shear Modulus (GPa) = 33.64990 -233.05704 -99.70357
#
# Velocity S-wave (km/s) = 3.64513 -9.59295 -6.27446
# Velocity P-wave (km/s) = 5.60381 9.69211 5.59171
#
# Compressibility (1/GPa) = 0.02884988
#
# Stress axis : x y z
#
# Youngs Moduli (GPa) = 50.24358 123.91885 74.39252
#
# Poissons Ratio (x) = 0.59041 0.01047
# Poissons Ratio (y) = 0.23938 0.10246
# Poissons Ratio (z) = 0.00707 0.17068
#
# Static dielectric constant tensor:
#      x y z
#    x 2.010370 0.034810 0.040830 
#    y 0.034810 2.073730 -0.014470 
#    z 0.040830 -0.014470 1.966850 
# 
# From -- ./inp_files/322656.got.cif
#   From: 2010.05.17/outbox.cif.g08.bks.cpg/sg2_162_cif.got.tgz:322656.got - 2010.06.03 11:33:40.
