data_PCOD9016237
_publ_section_title
;
Structure prediction by ZEFSAII (Michael W. Deem and Ramdas Pophale) SiO2 
 PCOD9016237
Probable space group: P -1
;
_chemical_formula_sum "Si O2"
_cell_formula_units_Z 16
_cell_length_a 6.989114
_cell_length_b 17.373222
_cell_length_c 8.293226
_cell_angle_alpha 92.495331
_cell_angle_beta 80.127955
_cell_angle_gamma 135.999947
_cell_volume 684.458350
_symmetry_space_group_name_H-M "P -1"
_symmetry_group_IT_number 2
_symmetry_cell_setting 'triclinic'
loop_
_space_group_symop_operation_xyz
x,y,z
-x,-y,-z
loop_
_atom_site_type_symbol
_atom_site_label
_atom_site_fract_x
_atom_site_fract_y
_atom_site_fract_z
Si Si1 0.397937 0.557481 0.558324
Si Si2 0.546966 0.621113 0.141040
Si Si3 0.048103 0.002115 0.183225
Si Si4 0.743030 0.345392 0.655008
Si Si5 0.242152 0.380793 0.221146
Si Si6 0.643568 0.151785 0.223953
Si Si7 0.480962 0.888605 0.401388
Si Si8 0.132743 0.847036 0.146692
O O1 0.500000 0.500000 0.500000
O O2 0.370104 0.623353 0.453252
O O3 0.643494 0.643234 0.660051
O O4 0.073907 0.450138 0.645926
O O5 0.415830 0.668565 0.165604
O O6 0.338063 0.497185 0.234265
O O7 0.855617 0.713788 0.184950
O O8 0.602137 0.607514 0.954884
O O9 0.036484 0.906464 0.193898
O O10 0.810583 0.974499 0.321764
O O11 0.360905 0.113383 0.205523
O O12 0.000000 0.000000 0.000000
O O13 0.652625 0.235934 0.601648
O O14 0.912903 0.282084 0.229777
O O15 0.581129 0.098870 0.407213
O O16 0.734620 0.126983 0.050343
O O17 0.341144 0.887798 0.265532
#
# Coordination Sequence:
#
# PCOD9016237 Si02
#       8
#     2   2   2   2   2   2   2   2
#     4  11  22  40  65  95 146 185 228 291 344 421
#     4  10  21  42  67 103 138 183 233 282 350 424
#     4  12  26  52  76 104 142 185 242 301 358 424
#     4  11  24  40  68 105 136 187 240 277 355 428
#     4  10  22  41  68 100 145 185 228 291 353 418
#     4  11  26  46  74 109 142 189 239 291 358 426
#     4  12  26  46  75 107 141 188 239 300 355 424
#     4  11  25  51  75 102 147 188 232 296 365 417
#
# _framework density 23.376148000000001
#
# number of rings (size 3 to 8) (size 9 to 14) (size 15 to 20)
#    0.000    1.000    3.750    2.250    3.500    1.000 
#    9.000    0.000    0.000    0.000    0.000    0.000 
#    0.000    0.000    0.000    0.000    0.000    0.000 
#
# Total GULP energy -89322.292269 kJ/mol
# GULP energy per Si atom -5582.643267 kJ/mol
# Density = 2.332294 g / cm^3
# Si number density = 23.376148 Si / 1000 Ang^3
#
#
#
# Elastic Constant Matrix: (Units=GPa)
#
#
# Indices 1 2 3 4 5 6 
#
# 1 101.3432 36.2745 39.5366 11.6962 9.9739 6.6972
# 2 36.2745 97.2774 22.4846 8.7433 12.8761 7.7057
# 3 39.5366 22.4846 107.1243 4.6414 0.2402 -2.2956
# 4 11.6962 8.7433 4.6414 27.6175 5.0997 -0.9264
# 5 9.9739 12.8761 0.2402 5.0997 40.8730 1.9968
# 6 6.6972 7.7057 -2.2956 -0.9264 1.9968 30.6989
#
#
#
# Elastic Compliance Matrix: (Units=1/GPa)
#
#
# Indices 1 2 3 4 5 6 
#
# 1 0.013416 -0.003304 -0.004145 -0.003720 -0.001627 -0.002414
# 2 -0.003304 0.012563 -0.001380 -0.001912 -0.002787 -0.002412
# 3 -0.004145 -0.001380 0.011188 0.000146 0.001264 0.002009
# 4 -0.003720 -0.001912 0.000146 0.039103 -0.003502 0.002710
# 5 -0.001627 -0.002787 0.001264 -0.003502 0.026203 -0.000661
# 6 -0.002414 -0.002412 0.002009 0.002710 -0.000661 0.033982
#
#
# Mechanical properties :
#
#
# Convention : Reuss Voigt Hill
#
# Bulk Modulus (GPa) = 51.25755 55.81512 53.53634
# Shear Modulus (GPa) = 31.13040 33.66785 32.39912
#
# Velocity S-wave (km/s) = 3.65323 3.79920 3.72693
# Velocity P-wave (km/s) = 6.30632 6.57069 6.43986
#
# Compressibility (1/GPa) = 0.01950932
#
# Stress axis : x y z
#
# Youngs Moduli (GPa) = 74.53788 79.60065 89.37926
#
# Poissons Ratio (x) = 0.26299 0.37047
# Poissons Ratio (y) = 0.24626 0.12335
# Poissons Ratio (z) = 0.30895 0.10985
#
# Static dielectric constant tensor:
#      x y z
#    x 1.948590 0.117690 0.072480 
#    y 0.117690 2.027020 0.076740 
#    z 0.072480 0.076740 2.076490 
# 
# From -- ./inp_files/139047.got.cif
#   From: 2010.05.17/outbox.cif.g08.bks.cpg/sg2_70_cif.got.tgz:139047.got - 2010.06.03 11:33:40.
