data_PCOD9016162
_publ_section_title
;
Structure prediction by ZEFSAII (Michael W. Deem and Ramdas Pophale) SiO2 
 PCOD9016162
Probable space group: P -1
;
_chemical_formula_sum "Si O2"
_cell_formula_units_Z 16
_cell_length_a 8.162909
_cell_length_b 13.511401
_cell_length_c 9.474614
_cell_angle_alpha 113.137650
_cell_angle_beta 103.194318
_cell_angle_gamma 124.957370
_cell_volume 629.095928
_symmetry_space_group_name_H-M "P -1"
_symmetry_group_IT_number 2
_symmetry_cell_setting 'triclinic'
loop_
_space_group_symop_operation_xyz
x,y,z
-x,-y,-z
loop_
_atom_site_type_symbol
_atom_site_label
_atom_site_fract_x
_atom_site_fract_y
_atom_site_fract_z
Si Si1 0.709157 0.681071 0.700929
Si Si2 0.972696 0.370518 0.177988
Si Si3 0.452242 0.377812 0.074289
Si Si4 0.329086 0.745786 0.427962
Si Si5 0.346017 0.849607 0.777150
Si Si6 0.033812 0.901224 0.647803
Si Si7 0.101298 0.282754 0.722924
Si Si8 0.530649 0.226043 0.829916
O O1 0.500000 0.500000 0.500000
O O2 0.608286 0.696501 0.825980
O O3 0.909588 0.690791 0.809144
O O4 0.825133 0.813088 0.677433
O O5 0.797588 0.306137 0.244663
O O6 0.177111 0.561684 0.314113
O O7 0.774409 0.277487 0.959524
O O8 0.665635 0.567451 0.243400
O O9 0.208276 0.310310 0.913472
O O10 0.585391 0.372107 0.973253
O O11 0.454797 0.846990 0.654986
O O12 0.502262 0.811436 0.362039
O O13 0.125230 0.740549 0.340769
O O14 0.137117 0.830565 0.663040
O O15 0.500000 0.000000 0.000000
O O16 0.958300 0.857061 0.445456
O O17 0.286332 0.089076 0.800742
#
# Coordination Sequence:
#
# PCOD9016162 Si02
#       8
#     2   2   2   2   2   2   2   2
#     4  11  24  44  71  96 130 185 222 268 341 402
#     4  11  23  42  70 101 135 172 230 280 325 399
#     4  11  24  41  67  96 133 179 225 276 328 404
#     4  11  24  41  68 104 131 177 222 280 332 393
#     4  10  21  42  66  97 137 170 216 274 338 388
#     4  10  23  44  65  95 138 171 225 275 337 398
#     4  10  22  42  67  93 136 175 221 275 334 402
#     4  12  25  42  67 104 138 170 225 284 334 390
#
# _framework density 25.433323000000001
#
# number of rings (size 3 to 8) (size 9 to 14) (size 15 to 20)
#    0.000    1.250    3.750    1.500    3.500    4.000 
#    4.500    0.000    0.000    0.000    0.000    0.000 
#    0.000    0.000    0.000    0.000    0.000    0.000 
#
# Total GULP energy -89338.131812 kJ/mol
# GULP energy per Si atom -5583.633238 kJ/mol
# Density = 2.537544 g / cm^3
# Si number density = 25.433323 Si / 1000 Ang^3
#
#
#
# Elastic Constant Matrix: (Units=GPa)
#
#
# Indices 1 2 3 4 5 6 
#
# 1 87.1349 17.5722 21.0376 -14.6116 -4.5407 7.1206
# 2 17.5722 111.8266 52.4485 -17.2003 -15.1654 24.0323
# 3 21.0376 52.4485 121.2794 -6.1537 -25.4125 30.6542
# 4 -14.6116 -17.2003 -6.1537 29.0996 16.7151 -6.4516
# 5 -4.5407 -15.1654 -25.4125 16.7151 31.9949 -11.1794
# 6 7.1206 24.0323 30.6542 -6.4516 -11.1794 30.2033
#
#
#
# Elastic Compliance Matrix: (Units=1/GPa)
#
#
# Indices 1 2 3 4 5 6 
#
# 1 0.013450 -0.000018 -0.002910 0.009086 -0.005226 -0.000197
# 2 -0.000018 0.012898 -0.004532 0.007291 -0.003137 -0.005262
# 3 -0.002910 -0.004532 0.014692 -0.009207 0.010935 -0.008539
# 4 0.009086 0.007291 -0.009207 0.061158 -0.033841 0.001939
# 5 -0.005226 -0.003137 0.010935 -0.033841 0.057761 0.006780
# 6 -0.000197 -0.005262 -0.008539 0.001939 0.006780 0.048933
#
#
# Mechanical properties :
#
#
# Convention : Reuss Voigt Hill
#
# Bulk Modulus (GPa) = 38.28211 55.81749 47.04980
# Shear Modulus (GPa) = 21.50374 33.53842 27.52108
#
# Velocity S-wave (km/s) = 2.91089 3.63530 3.29308
# Velocity P-wave (km/s) = 5.13638 6.29403 5.74444
#
# Compressibility (1/GPa) = 0.02612186
#
# Stress axis : x y z
#
# Youngs Moduli (GPa) = 74.34974 77.53278 68.06199
#
# Poissons Ratio (x) = 0.00136 0.19804
# Poissons Ratio (y) = 0.00131 0.30845
# Poissons Ratio (z) = 0.21633 0.35137
#
# Static dielectric constant tensor:
#      x y z
#    x 2.085120 0.019280 -0.019670 
#    y 0.019280 2.032100 0.014660 
#    z -0.019670 0.014660 2.099370 
# 
# From -- ./inp_files/206402.got.cif
#   From: 2010.05.17/outbox.cif.g08.bks.cpg/sg2_104_cif.got.tgz:206402.got - 2010.06.03 11:33:40.
