data_PCOD9016823
_publ_section_title
;
Structure prediction by ZEFSAII (Michael W. Deem and Ramdas Pophale) SiO2 
 PCOD9016823
Probable space group: P -1
;
_chemical_formula_sum "Si O2"
_cell_formula_units_Z 15
_cell_length_a 11.625041
_cell_length_b 8.353181
_cell_length_c 7.439508
_cell_angle_alpha 88.116980
_cell_angle_beta 90.368493
_cell_angle_gamma 91.486816
_cell_volume 721.776943
_symmetry_space_group_name_H-M "P -1"
_symmetry_group_IT_number 2
_symmetry_cell_setting 'triclinic'
loop_
_space_group_symop_operation_xyz
x,y,z
-x,-y,-z
loop_
_atom_site_type_symbol
_atom_site_label
_atom_site_fract_x
_atom_site_fract_y
_atom_site_fract_z
Si Si1 0.523330 0.642615 0.857682
Si Si2 0.703186 0.262620 0.338124
Si Si3 0.164434 0.898656 0.954708
Si Si4 0.500000 0.000000 0.000000
Si Si5 0.077584 0.255310 0.987804
Si Si6 0.315046 0.929692 0.292215
Si Si7 0.110725 0.457532 0.621120
Si Si8 0.244655 0.293720 0.317195
O O1 0.411870 0.656773 0.731324
O O2 0.637304 0.616628 0.742243
O O3 0.500000 0.500000 0.000000
O O4 0.536276 0.812557 0.955895
O O5 0.738586 0.135101 0.190150
O O6 0.682748 0.176955 0.528875
O O7 0.809624 0.386774 0.346805
O O8 0.128719 0.083257 0.938074
O O9 0.220847 0.866914 0.149298
O O10 0.050417 0.788111 0.942047
O O11 0.434039 0.939053 0.185508
O O12 0.078816 0.370542 0.811426
O O13 0.155419 0.317704 0.151137
O O14 0.274937 0.107134 0.335808
O O15 0.188058 0.347146 0.498921
O O16 0.000000 0.500000 0.500000
#
# Coordination Sequence:
#
# PCOD9016823 Si02
#       8
#     2   2   2   1   2   2   2   2
#     4  11  25  45  68 101 139 178 228 283 337 407
#     4  12  25  41  68 101 130 180 219 274 342 403
#     4  10  21  42  69  95 128 170 225 279 328 401
#     4  10  22  44  70  92 136 180 216 282 336 394
#     4  10  22  42  67  93 127 177 220 274 340 389
#     4  10  22  43  67  97 131 171 225 279 332 405
#     4  12  26  41  63  99 135 176 219 277 335 406
#     4  10  24  44  63  95 131 175 221 277 335 396
#
# _framework density 20.782043999999999
#
# number of rings (size 3 to 8) (size 9 to 14) (size 15 to 20)
#    0.000    1.333    1.333    3.200    1.867    6.933 
#    9.600    5.333    0.000    0.000    0.000    0.000 
#    0.000    0.000    0.000    0.000    0.000    0.000 
#
# Total GULP energy -83655.850647 kJ/mol
# GULP energy per Si atom -5577.056710 kJ/mol
# Density = 2.073474 g / cm^3
# Si number density = 20.782044 Si / 1000 Ang^3
#
#
#
# Elastic Constant Matrix: (Units=GPa)
#
#
# Indices 1 2 3 4 5 6 
#
# 1 68.7819 13.2629 34.4417 -21.2912 -5.8125 0.1914
# 2 13.2629 43.9608 37.6977 -17.0297 0.2520 1.8541
# 3 34.4417 37.6977 108.2979 -38.8264 6.0448 -7.0645
# 4 -21.2912 -17.0297 -38.8264 46.1445 -10.7623 -8.7258
# 5 -5.8125 0.2520 6.0448 -10.7623 32.3790 1.5074
# 6 0.1914 1.8541 -7.0645 -8.7258 1.5074 23.3996
#
#
#
# Elastic Compliance Matrix: (Units=1/GPa)
#
#
# Indices 1 2 3 4 5 6 
#
# 1 0.019292 0.000314 -0.003853 0.007517 0.006630 0.001030
# 2 0.000314 0.033647 -0.011348 0.002732 0.003067 -0.005273
# 3 -0.003853 -0.011348 0.019774 0.012742 -0.000604 0.011691
# 4 0.007517 0.002732 0.012742 0.043360 0.012480 0.018934
# 5 0.006630 0.003067 -0.000604 0.012480 0.036226 0.001841
# 6 0.001030 -0.005273 0.011691 0.018934 0.001841 0.053617
#
#
# Mechanical properties :
#
#
# Convention : Reuss Voigt Hill
#
# Bulk Modulus (GPa) = 23.28860 43.53837 33.41348
# Shear Modulus (GPa) = 19.99991 29.42715 24.71353
#
# Velocity S-wave (km/s) = 3.10557 3.76705 3.45219
# Velocity P-wave (km/s) = 4.90814 6.31794 5.65713
#
# Compressibility (1/GPa) = 0.04293947
#
# Stress axis : x y z
#
# Youngs Moduli (GPa) = 51.83627 29.72020 50.57240
#
# Poissons Ratio (x) = -0.00933 0.19483
# Poissons Ratio (y) = -0.01627 0.57388
# Poissons Ratio (z) = 0.19970 0.33726
#
# Static dielectric constant tensor:
#      x y z
#    x 1.725740 -0.000130 -0.006500 
#    y -0.000130 1.744070 0.032800 
#    z -0.006500 0.032800 1.668890 
# 
# From -- ./inp_files/60414.got.cif
#   From: 2010.05.17/outbox.cif.g08.bks.cpg/sg2_31_cif.got.tgz:60414.got - 2010.06.03 11:33:40.
