data_PCOD9016152
_publ_section_title
;
Structure prediction by ZEFSAII (Michael W. Deem and Ramdas Pophale) SiO2 
 PCOD9016152
Probable space group: P -1
;
_chemical_formula_sum "Si O2"
_cell_formula_units_Z 14
_cell_length_a 8.116139
_cell_length_b 11.132675
_cell_length_c 19.087950
_cell_angle_alpha 148.539435
_cell_angle_beta 42.613844
_cell_angle_gamma 118.727533
_cell_volume 554.115210
_symmetry_space_group_name_H-M "P -1"
_symmetry_group_IT_number 2
_symmetry_cell_setting 'triclinic'
loop_
_space_group_symop_operation_xyz
x,y,z
-x,-y,-z
loop_
_atom_site_type_symbol
_atom_site_label
_atom_site_fract_x
_atom_site_fract_y
_atom_site_fract_z
Si Si1 0.359047 0.014181 0.261955
Si Si2 0.458251 0.354115 0.099751
Si Si3 0.788738 0.217357 0.223816
Si Si4 0.845379 0.420153 0.567711
Si Si5 0.714951 0.577529 0.309398
Si Si6 0.443840 0.890799 0.336463
Si Si7 0.013810 0.139117 0.892076
O O1 0.369429 0.936981 0.300792
O O2 0.502407 0.204260 0.300882
O O3 0.539850 0.774696 0.038517
O O4 0.058056 0.155247 0.399608
O O5 0.247209 0.380368 0.239413
O O6 0.424091 0.639606 0.242314
O O7 0.748089 0.185852 0.957193
O O8 0.764822 0.473329 0.321871
O O9 0.876894 0.118606 0.225452
O O10 0.000000 0.000000 0.000000
O O11 0.573843 0.409390 0.618144
O O12 0.000000 0.500000 0.500000
O O13 0.718696 0.850498 0.442606
O O14 0.928100 0.371753 0.089842
O O15 0.751869 0.852427 0.224431
#
# Coordination Sequence:
#
# PCOD9016152 Si02
#       7
#     2   2   2   2   2   2   2
#     4  11  24  42  64  97 134 175 216 273 326 391
#     4  11  25  44  66  98 136 174 220 267 327 398
#     4   9  19  40  63  93 128 164 221 268 325 378
#     4  11  24  44  66 101 133 174 216 271 338 383
#     4  10  21  42  66  97 132 170 220 276 319 395
#     4  11  24  42  68  98 131 179 219 265 328 390
#     4   9  21  39  66  96 126 172 218 274 327 378
#
# _framework density 25.265504
#
# number of rings (size 3 to 8) (size 9 to 14) (size 15 to 20)
#    0.000    1.714    1.429    1.714    0.000   10.286 
#   10.286    0.000    0.000    0.000    0.000    0.000 
#    0.000    0.000    0.000    0.000    0.000    0.000 
#
# Total GULP energy -78466.627173 kJ/mol
# GULP energy per Si atom -5604.759084 kJ/mol
# Density = 2.520800 g / cm^3
# Si number density = 25.265504 Si / 1000 Ang^3
#
#
#
# Elastic Constant Matrix: (Units=GPa)
#
#
# Indices 1 2 3 4 5 6 
#
# 1 66.8185 10.1508 30.8981 5.6048 -5.1693 -10.1747
# 2 10.1508 64.5418 5.2354 4.8860 -14.3188 0.2387
# 3 30.8981 5.2354 107.1215 -7.4079 0.4634 4.5954
# 4 5.6048 4.8860 -7.4079 34.3234 -10.4110 7.0955
# 5 -5.1693 -14.3188 0.4634 -10.4110 37.7200 5.9242
# 6 -10.1747 0.2387 4.5954 7.0955 5.9242 18.8044
#
#
#
# Elastic Compliance Matrix: (Units=1/GPa)
#
#
# Indices 1 2 3 4 5 6 
#
# 1 0.022512 -0.003046 -0.007840 -0.010015 -0.003738 0.019092
# 2 -0.003046 0.017494 0.000282 0.001260 0.007308 -0.004717
# 3 -0.007840 0.000282 0.012507 0.006892 0.002458 -0.010677
# 4 -0.010015 0.001260 0.006892 0.042427 0.015112 -0.027889
# 5 -0.003738 0.007308 0.002458 0.015112 0.036018 -0.019765
# 6 0.019092 -0.004717 -0.010677 -0.027889 -0.019765 0.082929
#
#
# Mechanical properties :
#
#
# Convention : Reuss Voigt Hill
#
# Bulk Modulus (GPa) = 31.94569 36.78338 34.36454
# Shear Modulus (GPa) = 20.36401 30.98275 25.67338
#
# Velocity S-wave (km/s) = 2.84209 3.50564 3.19116
# Velocity P-wave (km/s) = 4.84164 5.56564 5.21621
#
# Compressibility (1/GPa) = 0.03130312
#
# Stress axis : x y z
#
# Youngs Moduli (GPa) = 44.42037 57.16398 79.95626
#
# Poissons Ratio (x) = 0.17414 0.62686
# Poissons Ratio (y) = 0.13532 -0.02251
# Poissons Ratio (z) = 0.34826 -0.01610
#
# Static dielectric constant tensor:
#      x y z
#    x 2.016670 0.000130 0.022300 
#    y 0.000130 1.943840 -0.010750 
#    z 0.022300 -0.010750 1.988500 
# 
# From -- ./inp_files/426584.got.cif
#   From: 2010.05.17/outbox.cif.g08.bks.cpg/sg2_214_cif.got.tgz:426584.got - 2010.06.03 11:33:40.
