data_PCOD9016671
_publ_section_title
;
Structure prediction by ZEFSAII (Michael W. Deem and Ramdas Pophale) SiO2 
 PCOD9016671
Probable space group: P -1
;
_chemical_formula_sum "Si O2"
_cell_formula_units_Z 12
_cell_length_a 5.351583
_cell_length_b 22.314330
_cell_length_c 6.836466
_cell_angle_alpha 46.043346
_cell_angle_beta 106.587628
_cell_angle_gamma 124.824149
_cell_volume 473.869030
_symmetry_space_group_name_H-M "P -1"
_symmetry_group_IT_number 2
_symmetry_cell_setting 'triclinic'
loop_
_space_group_symop_operation_xyz
x,y,z
-x,-y,-z
loop_
_atom_site_type_symbol
_atom_site_label
_atom_site_fract_x
_atom_site_fract_y
_atom_site_fract_z
Si Si1 0.219576 0.032315 0.660345
Si Si2 0.627348 0.611170 0.840315
Si Si3 0.137211 0.432999 0.644102
Si Si4 0.050392 0.274245 0.729262
Si Si5 0.328967 0.240754 0.253355
Si Si6 0.836412 0.112944 0.755585
O O1 0.374578 0.150155 0.452443
O O2 0.537208 0.034828 0.739102
O O3 0.000000 0.000000 0.500000
O O4 0.032265 0.947467 0.974033
O O5 0.449529 0.651806 0.837710
O O6 0.717311 0.664334 0.532501
O O7 0.500000 0.500000 0.000000
O O8 0.874889 0.623049 0.032535
O O9 0.500000 0.500000 0.500000
O O10 0.000000 0.500000 0.500000
O O11 0.955774 0.345749 0.642137
O O12 0.806833 0.173842 0.790413
O O13 0.218171 0.253747 0.988440
O O14 0.056507 0.191596 0.465651
#
# Coordination Sequence:
#
# PCOD9016671 Si02
#       6
#     2   2   2   2   2   2
#     4  11  22  43  69  94 135 177 227 295 351 427
#     4  10  21  42  68  98 135 183 235 288 348 425
#     4  11  24  44  70 101 140 188 240 296 355 426
#     4  10  21  45  63  99 139 177 236 288 352 424
#     4  10  22  41  65  97 133 178 233 278 355 417
#     4  10  23  43  65  99 134 177 232 285 357 423
#
# _framework density 25.323454000000002
#
# number of rings (size 3 to 8) (size 9 to 14) (size 15 to 20)
#    0.000    1.667    3.333    0.500    0.000    2.667 
#   21.000    0.000    0.000    0.000    0.000    0.000 
#    0.000    0.000    0.000    0.000    0.000    0.000 
#
# Total GULP energy -66819.361963 kJ/mol
# GULP energy per Si atom -5568.280164 kJ/mol
# Density = 2.526582 g / cm^3
# Si number density = 25.323454 Si / 1000 Ang^3
#
#
#
# Elastic Constant Matrix: (Units=GPa)
#
#
# Indices 1 2 3 4 5 6 
#
# 1 64.0546 42.2010 41.8056 4.0785 11.4317 -20.1175
# 2 42.2010 123.7820 57.5773 9.6926 19.7278 -8.3967
# 3 41.8056 57.5773 239.0729 13.9685 13.8172 -6.1162
# 4 4.0785 9.6926 13.9685 63.3550 -1.5241 6.6627
# 5 11.4317 19.7278 13.8172 -1.5241 30.2769 -2.8849
# 6 -20.1175 -8.3967 -6.1162 6.6627 -2.8849 24.9941
#
#
#
# Elastic Compliance Matrix: (Units=1/GPa)
#
#
# Indices 1 2 3 4 5 6 
#
# 1 0.028877 -0.006442 -0.002606 -0.002564 -0.003673 0.020701
# 2 -0.006442 0.011624 -0.001391 -0.000970 -0.004737 -0.001909
# 3 -0.002606 -0.001391 0.005009 -0.000606 -0.000544 -0.001241
# 4 -0.002564 -0.000970 -0.000606 0.016999 0.002082 -0.006829
# 5 -0.003673 -0.004737 -0.000544 0.002082 0.037771 -0.000876
# 6 0.020701 -0.001909 -0.001241 -0.006829 -0.000876 0.057446
#
#
# Mechanical properties :
#
#
# Convention : Reuss Voigt Hill
#
# Bulk Modulus (GPa) = 40.60154 78.89749 59.74951
# Shear Modulus (GPa) = 26.76427 42.74691 34.75559
#
# Velocity S-wave (km/s) = 3.25452 4.11303 3.70870
# Velocity P-wave (km/s) = 5.49459 7.33345 6.47959
#
# Compressibility (1/GPa) = 0.02462961
#
# Stress axis : x y z
#
# Youngs Moduli (GPa) = 34.62927 86.03117 199.64959
#
# Poissons Ratio (x) = 0.55425 0.52037
# Poissons Ratio (y) = 0.22310 0.27776
# Poissons Ratio (z) = 0.09026 0.11969
#
# Static dielectric constant tensor:
#      x y z
#    x 2.266480 0.037770 0.086260 
#    y 0.037770 2.279250 -0.106440 
#    z 0.086260 -0.106440 2.347680 
# 
# From -- ./inp_files/10151.got.cif
#   From: 2010.05.17/outbox.cif.g08.bks.cpg/sg2_6_cif.got.tgz:10151.got - 2010.06.03 11:33:40.
