data_PCOD9016917
_publ_section_title
;
Structure prediction by ZEFSAII (Michael W. Deem and Ramdas Pophale) SiO2 
 PCOD9016917
Probable space group: P -1
;
_chemical_formula_sum "Si O2"
_cell_formula_units_Z 16
_cell_length_a 14.653443
_cell_length_b 15.989398
_cell_length_c 5.621527
_cell_angle_alpha 118.803588
_cell_angle_beta 99.791592
_cell_angle_gamma 36.985029
_cell_volume 634.099282
_symmetry_space_group_name_H-M "P -1"
_symmetry_group_IT_number 2
_symmetry_cell_setting 'triclinic'
loop_
_space_group_symop_operation_xyz
x,y,z
-x,-y,-z
loop_
_atom_site_type_symbol
_atom_site_label
_atom_site_fract_x
_atom_site_fract_y
_atom_site_fract_z
Si Si1 0.561243 0.237157 0.664021
Si Si2 0.756712 0.461908 0.757146
Si Si3 0.053241 0.902181 0.139941
Si Si4 0.871783 0.547041 0.724690
Si Si5 0.822839 0.754823 0.328990
Si Si6 0.599882 0.479892 0.335171
Si Si7 0.906380 0.889150 0.362780
Si Si8 0.414563 0.155046 0.343235
O O1 0.543840 0.333789 0.591917
O O2 0.518532 0.163545 0.461219
O O3 0.744369 0.084930 0.646510
O O4 0.412192 0.400327 0.986575
O O5 0.796216 0.539077 0.872356
O O6 0.714747 0.463043 0.479816
O O7 0.911729 0.269147 0.654707
O O8 0.947674 0.893121 0.121660
O O9 0.251171 0.709610 0.974165
O O10 0.000000 0.000000 0.500000
O O11 0.000000 0.000000 0.000000
O O12 0.746959 0.663003 0.612832
O O13 0.058210 0.347246 0.523497
O O14 0.887002 0.634146 0.978812
O O15 0.838214 0.843257 0.336078
O O16 0.655775 0.847487 0.471964
O O17 0.500000 0.500000 0.500000
O O18 0.500000 0.000000 0.000000
#
# Coordination Sequence:
#
# PCOD9016917 Si02
#       8
#     2   2   2   2   2   2   2   2
#     4  12  26  47  77 109 160 205 269 330 406 485
#     4  11  24  50  77 108 157 209 262 335 405 494
#     4  12  28  55  83 119 165 213 273 351 425 509
#     4  10  21  42  69  99 144 201 254 311 390 465
#     4  10  23  43  70 103 149 203 257 321 391 479
#     4  12  28  51  84 117 154 210 274 344 422 495
#     4  11  26  48  77 116 152 212 265 329 413 492
#     4  12  25  42  67 112 156 205 267 327 399 475
#
# _framework density 25.232641999999998
#
# number of rings (size 3 to 8) (size 9 to 14) (size 15 to 20)
#    0.000    0.750    3.750    2.625    3.500    1.500 
#   18.000    0.000    0.000    0.000    0.000    0.000 
#    0.000    0.000    0.000    0.000    0.000    0.000 
#
# Total GULP energy -89169.554666 kJ/mol
# GULP energy per Si atom -5573.097167 kJ/mol
# Density = 2.517521 g / cm^3
# Si number density = 25.232642 Si / 1000 Ang^3
#
#
#
# Elastic Constant Matrix: (Units=GPa)
#
#
# Indices 1 2 3 4 5 6 
#
# 1 96.9793 54.1343 46.6256 19.3903 -14.9354 30.6684
# 2 54.1343 161.9181 31.7692 19.9306 -11.9409 -9.9174
# 3 46.6256 31.7692 74.2811 13.9921 7.9826 9.3164
# 4 19.3903 19.9306 13.9921 32.6838 2.4511 -5.0728
# 5 -14.9354 -11.9409 7.9826 2.4511 45.9982 -0.9686
# 6 30.6684 -9.9174 9.3164 -5.0728 -0.9686 52.0448
#
#
#
# Elastic Compliance Matrix: (Units=1/GPa)
#
#
# Indices 1 2 3 4 5 6 
#
# 1 0.028833 -0.006094 -0.012300 -0.011507 0.010172 -0.016882
# 2 -0.006094 0.008767 -0.000508 -0.000732 0.000536 0.005291
# 3 -0.012300 -0.000508 0.022012 -0.000764 -0.007842 0.002991
# 4 -0.011507 -0.000732 -0.000764 0.040270 -0.005716 0.010597
# 5 0.010172 0.000536 -0.007842 -0.005716 0.026752 -0.004548
# 6 -0.016882 0.005291 0.002991 0.010597 -0.004548 0.030583
#
#
# Mechanical properties :
#
#
# Convention : Reuss Voigt Hill
#
# Bulk Modulus (GPa) = 45.85451 66.47073 56.16262
# Shear Modulus (GPa) = 24.71729 39.52198 32.11964
#
# Velocity S-wave (km/s) = 3.13321 3.96195 3.57170
# Velocity P-wave (km/s) = 5.59478 6.87966 6.27022
#
# Compressibility (1/GPa) = 0.02180811
#
# Stress axis : x y z
#
# Youngs Moduli (GPa) = 34.68306 114.06939 45.43041
#
# Poissons Ratio (x) = 0.69511 0.55879
# Poissons Ratio (y) = 0.21135 0.02306
# Poissons Ratio (z) = 0.42660 0.05790
#
# Static dielectric constant tensor:
#      x y z
#    x 2.128860 0.039500 0.008050 
#    y 0.039500 2.079160 -0.032930 
#    z 0.008050 -0.032930 2.119150 
# 
# From -- ./inp_files/98443.got.cif
#   From: 2010.05.17/outbox.cif.g08.bks.cpg/sg2_50_cif.got.tgz:98443.got - 2010.06.03 11:33:40.
