data_PCOD9016000
_publ_section_title
;
Structure prediction by ZEFSAII (Michael W. Deem and Ramdas Pophale) SiO2 
 PCOD9016000
Probable space group: P -1
;
_chemical_formula_sum "Si O2"
_cell_formula_units_Z 16
_cell_length_a 8.595680
_cell_length_b 19.488143
_cell_length_c 10.222762
_cell_angle_alpha 119.195353
_cell_angle_beta 72.443878
_cell_angle_gamma 57.260958
_cell_volume 802.206043
_symmetry_space_group_name_H-M "P -1"
_symmetry_group_IT_number 2
_symmetry_cell_setting 'triclinic'
loop_
_space_group_symop_operation_xyz
x,y,z
-x,-y,-z
loop_
_atom_site_type_symbol
_atom_site_label
_atom_site_fract_x
_atom_site_fract_y
_atom_site_fract_z
Si Si1 0.900647 0.698635 0.920818
Si Si2 0.933909 0.118310 0.623385
Si Si3 0.305938 0.365642 0.920071
Si Si4 0.281817 0.326681 0.600888
Si Si5 0.919169 0.196095 0.969767
Si Si6 0.363172 0.974685 0.156808
Si Si7 0.724763 0.569816 0.561039
Si Si8 0.357455 0.963902 0.852696
O O1 0.154125 0.562096 0.640270
O O2 0.830378 0.661929 0.015939
O O3 0.612606 0.823432 0.021879
O O4 0.995485 0.746184 0.990505
O O5 0.594063 0.267350 0.834559
O O6 0.038424 0.114892 0.728007
O O7 0.000000 0.000000 0.500000
O O8 0.093104 0.085578 0.424530
O O9 0.386345 0.322010 0.707174
O O10 0.066330 0.528335 0.155256
O O11 0.341380 0.354311 0.482664
O O12 0.429187 0.184622 0.404272
O O13 0.574161 0.320050 0.183240
O O14 0.077109 0.088617 0.949573
O O15 0.487978 0.013017 0.156236
O O16 0.291959 0.970375 0.026962
O O17 0.000000 0.500000 0.500000
#
# Coordination Sequence:
#
# PCOD9016000 Si02
#       8
#     2   2   2   2   2   2   2   2
#     4  10  21  42  66  89 128 163 212 255 309 375
#     4  12  24  39  63  94 126 163 212 261 309 373
#     4  10  22  41  63  92 124 165 205 259 315 369
#     4  10  22  39  65  85 126 163 207 253 312 368
#     4  11  25  39  66  97 120 167 212 256 314 371
#     4  10  23  40  63  91 129 164 203 259 316 363
#     4  11  23  41  67  93 125 165 207 259 313 368
#     4  10  23  41  62  92 126 164 207 258 309 371
#
# _framework density 19.945001000000001
#
# number of rings (size 3 to 8) (size 9 to 14) (size 15 to 20)
#    0.000    1.500    1.250    3.375    5.250    1.500 
#    0.000    1.875    0.000    0.000    0.000    0.000 
#    0.000    0.000    0.000    0.000    0.000    0.000 
#
# Total GULP energy -89361.384567 kJ/mol
# GULP energy per Si atom -5585.086535 kJ/mol
# Density = 1.989961 g / cm^3
# Si number density = 19.945001 Si / 1000 Ang^3
#
#
#
# Elastic Constant Matrix: (Units=GPa)
#
#
# Indices 1 2 3 4 5 6 
#
# 1 53.6659 42.2730 42.8954 3.4958 4.2727 -16.8049
# 2 42.2730 88.3075 48.5574 -3.1153 5.2885 -14.5354
# 3 42.8954 48.5574 119.8553 -4.7161 16.8817 -12.0124
# 4 3.4958 -3.1153 -4.7161 43.5953 4.6438 3.7403
# 5 4.2727 5.2885 16.8817 4.6438 35.2592 0.1913
# 6 -16.8049 -14.5354 -12.0124 3.7403 0.1913 24.6104
#
#
#
# Elastic Compliance Matrix: (Units=1/GPa)
#
#
# Indices 1 2 3 4 5 6 
#
# 1 0.040897 -0.012446 -0.008344 -0.006755 0.001701 0.017515
# 2 -0.012446 0.019263 -0.003148 0.001959 -0.000137 0.001045
# 3 -0.008344 -0.003148 0.013298 0.002559 -0.005213 -0.001415
# 4 -0.006755 0.001959 0.002559 0.024827 -0.003938 -0.005949
# 5 0.001701 -0.000137 -0.005213 -0.003938 0.031197 -0.001108
# 6 0.017515 0.001045 -0.001415 -0.005949 -0.001108 0.053433
#
#
# Mechanical properties :
#
#
# Convention : Reuss Voigt Hill
#
# Bulk Modulus (GPa) = 39.09282 58.80894 48.95088
# Shear Modulus (GPa) = 20.89267 29.23318 25.06292
#
# Velocity S-wave (km/s) = 3.24004 3.83259 3.54870
# Velocity P-wave (km/s) = 5.80000 7.00960 6.43329
#
# Compressibility (1/GPa) = 0.02558015
#
# Stress axis : x y z
#
# Youngs Moduli (GPa) = 24.45175 51.91393 75.19690
#
# Poissons Ratio (x) = 0.64614 0.62745
# Poissons Ratio (y) = 0.30434 0.23675
# Poissons Ratio (z) = 0.20403 0.16344
#
# Static dielectric constant tensor:
#      x y z
#    x 1.696670 -0.006530 -0.009960 
#    y -0.006530 1.723130 -0.009930 
#    z -0.009960 -0.009930 1.702760 
# 
# From -- ./inp_files/223807.got.cif
#   From: 2010.05.17/outbox.cif.g08.bks.cpg/sg2_112_cif.got.tgz:223807.got - 2010.06.03 11:33:40.
