data_PCOD9016901
_publ_section_title
;
Structure prediction by ZEFSAII (Michael W. Deem and Ramdas Pophale) SiO2 
 PCOD9016901
Probable space group: P -1
;
_chemical_formula_sum "Si O2"
_cell_formula_units_Z 14
_cell_length_a 5.620301
_cell_length_b 5.125194
_cell_length_c 24.836862
_cell_angle_alpha 114.827234
_cell_angle_beta 54.690155
_cell_angle_gamma 97.533478
_cell_volume 523.811432
_symmetry_space_group_name_H-M "P -1"
_symmetry_group_IT_number 2
_symmetry_cell_setting 'triclinic'
loop_
_space_group_symop_operation_xyz
x,y,z
-x,-y,-z
loop_
_atom_site_type_symbol
_atom_site_label
_atom_site_fract_x
_atom_site_fract_y
_atom_site_fract_z
Si Si1 0.295182 0.771149 0.949896
Si Si2 0.908730 0.125545 0.785681
Si Si3 0.138007 0.565632 0.545405
Si Si4 0.229083 0.158806 0.584694
Si Si5 0.257228 0.516946 0.711796
Si Si6 0.596385 0.276468 0.182887
Si Si7 0.805123 0.172401 0.919176
O O1 0.364348 0.590290 0.870300
O O2 0.550971 0.971144 0.934303
O O3 0.257549 0.634008 0.001990
O O4 0.000000 0.000000 0.000000
O O5 0.179267 0.855821 0.734333
O O6 0.650620 0.930926 0.796679
O O7 0.979302 0.354869 0.752085
O O8 0.840590 0.297786 0.866142
O O9 0.500000 0.500000 0.500000
O O10 0.030076 0.369496 0.588572
O O11 0.000000 0.500000 0.500000
O O12 0.058081 0.899589 0.601450
O O13 0.360453 0.332271 0.629805
O O14 0.500000 0.000000 0.500000
O O15 0.429643 0.506624 0.744612
O O16 0.899213 0.054904 0.131320
#
# Coordination Sequence:
#
# PCOD9016901 Si02
#       7
#     2   2   2   2   2   2   2
#     4   8  13  27  56  93 121 167 216 264 323 377
#     4  10  22  39  61  92 125 174 215 268 326 394
#     4  10  21  42  69  99 135 171 215 275 341 407
#     4  10  22  43  67  98 130 171 219 281 341 410
#     4  11  23  43  63  91 131 166 220 267 333 396
#     4   9  19  36  60  87 128 170 217 266 327 388
#     4   8  15  30  57  86 129 164 213 271 316 383
#
# _framework density 26.727174000000002
#
# number of rings (size 3 to 8) (size 9 to 14) (size 15 to 20)
#    0.000    2.571    0.000    1.286    0.000    2.286 
#   15.429    0.714    0.000   77.143    0.000    0.000 
#    0.000    0.000    0.000    0.000    0.000    0.000 
#
# Total GULP energy -78249.697037 kJ/mol
# GULP energy per Si atom -5589.264074 kJ/mol
# Density = 2.666634 g / cm^3
# Si number density = 26.727174 Si / 1000 Ang^3
#
#
#
# Elastic Constant Matrix: (Units=GPa)
#
#
# Indices 1 2 3 4 5 6 
#
# 1 103.8739 12.1575 37.9896 -1.2348 34.1468 16.5143
# 2 12.1575 136.8594 13.2310 11.5214 8.0638 -16.5108
# 3 37.9896 13.2310 173.1797 3.5008 41.0520 -3.6877
# 4 -1.2348 11.5214 3.5008 28.7359 10.8012 8.4871
# 5 34.1468 8.0638 41.0520 10.8012 48.6140 -2.3734
# 6 16.5143 -16.5108 -3.6877 8.4871 -2.3734 30.4359
#
#
#
# Elastic Compliance Matrix: (Units=1/GPa)
#
#
# Indices 1 2 3 4 5 6 
#
# 1 0.018189 -0.003784 -0.000700 0.013111 -0.015293 -0.016855
# 2 -0.003784 0.009298 -0.000392 -0.008069 0.003707 0.009589
# 3 -0.000700 -0.000392 0.007344 0.001409 -0.005948 0.000200
# 4 0.013111 -0.008069 0.001409 0.055416 -0.022767 -0.028548
# 5 -0.015293 0.003707 -0.005948 -0.022767 0.041716 0.019190
# 6 -0.016855 0.009589 0.000200 -0.028548 0.019190 0.056685
#
#
# Mechanical properties :
#
#
# Convention : Reuss Voigt Hill
#
# Bulk Modulus (GPa) = 39.87293 60.07435 49.97364
# Shear Modulus (GPa) = 24.18286 44.92614 34.55450
#
# Velocity S-wave (km/s) = 3.01126 4.10435 3.59954
# Velocity P-wave (km/s) = 5.20011 6.70720 6.00115
#
# Compressibility (1/GPa) = 0.02507967
#
# Stress axis : x y z
#
# Youngs Moduli (GPa) = 54.97890 107.54480 136.17435
#
# Poissons Ratio (x) = 0.40697 0.09526
# Poissons Ratio (y) = 0.20805 0.05336
# Poissons Ratio (z) = 0.03846 0.04214
#
# Static dielectric constant tensor:
#      x y z
#    x 2.089390 -0.100690 0.096790 
#    y -0.100690 2.142310 0.055920 
#    z 0.096790 0.055920 2.080740 
# 
# From -- ./inp_files/9736.got.cif
#   From: 2010.05.17/outbox.cif.g08.bks.cpg/sg2_5_cif.got.tgz:9736.got - 2010.06.03 11:33:40.
