data_PCOD9016446
_publ_section_title
;
Structure prediction by ZEFSAII (Michael W. Deem and Ramdas Pophale) SiO2 
 PCOD9016446
Probable space group: P -1
;
_chemical_formula_sum "Si O2"
_cell_formula_units_Z 16
_cell_length_a 20.298891
_cell_length_b 9.212817
_cell_length_c 8.546069
_cell_angle_alpha 54.589600
_cell_angle_beta 31.214711
_cell_angle_gamma 58.165492
_cell_volume 673.121517
_symmetry_space_group_name_H-M "P -1"
_symmetry_group_IT_number 2
_symmetry_cell_setting 'triclinic'
loop_
_space_group_symop_operation_xyz
x,y,z
-x,-y,-z
loop_
_atom_site_type_symbol
_atom_site_label
_atom_site_fract_x
_atom_site_fract_y
_atom_site_fract_z
Si Si1 0.992947 0.840629 0.740250
Si Si2 0.126757 0.991311 0.644050
Si Si3 0.481819 0.007129 0.847699
Si Si4 0.860528 0.608125 0.710692
Si Si5 0.766349 0.048941 0.221041
Si Si6 0.593647 0.619824 0.338152
Si Si7 0.435274 0.672941 0.940586
Si Si8 0.824555 0.373591 0.675600
O O1 0.038748 0.665021 0.660890
O O2 0.100962 0.855778 0.643537
O O3 0.000000 0.000000 0.500000
O O4 0.858044 0.882941 0.072092
O O5 0.126950 0.181911 0.438761
O O6 0.227462 0.943216 0.606975
O O7 0.000000 0.000000 0.000000
O O8 0.622198 0.029073 0.478805
O O9 0.397715 0.190231 0.880390
O O10 0.432434 0.840875 0.958878
O O11 0.500000 0.000000 0.000000
O O12 0.812982 0.564562 0.660034
O O13 0.000000 0.500000 0.500000
O O14 0.742643 0.547224 0.093908
O O15 0.811767 0.225731 0.932672
O O16 0.500000 0.500000 0.500000
O O17 0.524701 0.676589 0.603655
O O18 0.500000 0.500000 0.000000
O O19 0.294140 0.646796 0.182364
#
# Coordination Sequence:
#
# PCOD9016446 Si02
#       8
#     2   2   2   2   2   2   2   2
#     4   9  20  39  67  96 135 175 226 294 352 425
#     4  10  22  41  68 102 140 185 240 297 360 440
#     4  12  26  43  75 102 138 197 245 302 372 437
#     4  12  25  44  74 105 147 192 238 296 373 436
#     4  10  21  42  67  98 138 175 244 292 359 434
#     4  12  25  49  74 108 152 195 249 308 369 446
#     4  12  28  48  71 106 151 193 250 310 374 452
#     4  11  24  45  69 102 142 186 236 301 375 427
#
# _framework density 23.769853999999999
#
# number of rings (size 3 to 8) (size 9 to 14) (size 15 to 20)
#    0.000    1.000    2.500    4.125    5.250    2.000 
#    4.500    2.500    0.000    0.000    0.000    0.000 
#    0.000    0.000    0.000    0.000    0.000    0.000 
#
# Total GULP energy -89355.961278 kJ/mol
# GULP energy per Si atom -5584.747580 kJ/mol
# Density = 2.371575 g / cm^3
# Si number density = 23.769854 Si / 1000 Ang^3
#
#
#
# Elastic Constant Matrix: (Units=GPa)
#
#
# Indices 1 2 3 4 5 6 
#
# 1 108.6045 21.7529 19.2918 3.1062 0.3626 2.1451
# 2 21.7529 87.7912 12.3422 12.9363 0.2172 16.0239
# 3 19.2918 12.3422 102.1588 30.9983 -19.3250 -3.5588
# 4 3.1062 12.9363 30.9983 38.8239 -1.2054 3.0568
# 5 0.3626 0.2172 -19.3250 -1.2054 46.0478 4.3924
# 6 2.1451 16.0239 -3.5588 3.0568 4.3924 47.9875
#
#
#
# Elastic Compliance Matrix: (Units=1/GPa)
#
#
# Indices 1 2 3 4 5 6 
#
# 1 0.010066 -0.002465 -0.002351 0.001848 -0.001023 0.000175
# 2 -0.002465 0.013332 -0.000080 -0.003850 0.000215 -0.004122
# 3 -0.002351 -0.000080 0.014929 -0.011638 0.005842 0.001445
# 4 0.001848 -0.003850 -0.011638 0.036194 -0.003778 -0.001620
# 5 -0.001023 0.000215 0.005842 -0.003778 0.024226 -0.001570
# 6 0.000175 -0.004122 0.001445 -0.001620 -0.001570 0.022561
#
#
# Mechanical properties :
#
#
# Convention : Reuss Voigt Hill
#
# Bulk Modulus (GPa) = 35.04502 45.03650 40.04076
# Shear Modulus (GPa) = 35.55867 42.91634 39.23750
#
# Velocity S-wave (km/s) = 3.87196 4.25372 4.06732
# Velocity P-wave (km/s) = 5.89617 6.56609 6.24013
#
# Compressibility (1/GPa) = 0.02853472
#
# Stress axis : x y z
#
# Youngs Moduli (GPa) = 99.34174 75.00820 66.98424
#
# Poissons Ratio (x) = 0.18492 0.15749
# Poissons Ratio (y) = 0.24491 0.00534
# Poissons Ratio (z) = 0.23356 0.00598
#
# Static dielectric constant tensor:
#      x y z
#    x 2.002340 -0.022620 -0.062640 
#    y -0.022620 1.885440 0.019920 
#    z -0.062640 0.019920 1.935620 
# 
# From -- ./inp_files/316176.got.cif
#   From: 2010.05.17/outbox.cif.g08.bks.cpg/sg2_159_cif.got.tgz:316176.got - 2010.06.03 11:33:40.
