data_PCOD9016212
_publ_section_title
;
Structure prediction by ZEFSAII (Michael W. Deem and Ramdas Pophale) SiO2 
 PCOD9016212
Probable space group: P -1
;
_chemical_formula_sum "Si O2"
_cell_formula_units_Z 14
_cell_length_a 14.936674
_cell_length_b 6.286085
_cell_length_c 9.953176
_cell_angle_alpha 113.812472
_cell_angle_beta 39.638632
_cell_angle_gamma 116.082098
_cell_volume 531.993777
_symmetry_space_group_name_H-M "P -1"
_symmetry_group_IT_number 2
_symmetry_cell_setting 'triclinic'
loop_
_space_group_symop_operation_xyz
x,y,z
-x,-y,-z
loop_
_atom_site_type_symbol
_atom_site_label
_atom_site_fract_x
_atom_site_fract_y
_atom_site_fract_z
Si Si1 0.664906 0.520451 0.918800
Si Si2 0.856211 0.940143 0.066682
Si Si3 0.528017 0.149293 0.782910
Si Si4 0.668948 0.751616 0.491531
Si Si5 0.926432 0.515852 0.732512
Si Si6 0.642337 0.211861 0.407550
Si Si7 0.118238 0.210904 0.494233
O O1 0.553652 0.297704 0.926969
O O2 0.760353 0.393093 0.872631
O O3 0.764771 0.661495 0.718984
O O4 0.592239 0.727703 0.113253
O O5 0.740416 0.812209 0.278209
O O6 0.781511 0.151678 0.161344
O O7 0.902417 0.776667 0.858108
O O8 0.000000 0.000000 0.000000
O O9 0.666860 0.228599 0.545287
O O10 0.534940 0.874811 0.711106
O O11 0.619011 0.469175 0.469206
O O12 0.788872 0.833180 0.493541
O O13 0.000000 0.500000 0.500000
O O14 0.019482 0.397814 0.695522
O O15 0.500000 0.000000 0.500000
O O16 0.000000 0.000000 0.500000
#
# Coordination Sequence:
#
# PCOD9016212 Si02
#       7
#     2   2   2   2   2   2   2
#     4  10  21  42  67 100 140 182 231 288 350 413
#     4  11  26  43  72 103 140 188 231 295 361 423
#     4  10  22  42  70  99 137 183 232 292 347 415
#     4  11  25  45  71 101 142 183 242 290 356 426
#     4  10  23  42  66  94 136 179 227 279 347 416
#     4  11  24  47  69  96 143 187 241 295 352 418
#     4  11  23  40  67 105 140 182 228 290 351 424
#
# _framework density 26.316098
#
# number of rings (size 3 to 8) (size 9 to 14) (size 15 to 20)
#    0.000    1.429    1.429    2.571   10.000    5.143 
#    7.714    0.000    0.000    0.000    0.000    0.000 
#    0.000    0.000    0.000    0.000    0.000    0.000 
#
# Total GULP energy -78077.671036 kJ/mol
# GULP energy per Si atom -5576.976503 kJ/mol
# Density = 2.625620 g / cm^3
# Si number density = 26.316098 Si / 1000 Ang^3
#
#
#
# Elastic Constant Matrix: (Units=GPa)
#
#
# Indices 1 2 3 4 5 6 
#
# 1 100.4488 10.1710 45.6927 16.7930 -13.4379 2.6950
# 2 10.1710 100.7057 67.0589 28.4648 -11.1735 8.2348
# 3 45.6927 67.0589 197.4026 53.7449 -20.3127 -4.9160
# 4 16.7930 28.4648 53.7449 64.4052 -13.3574 -1.3996
# 5 -13.4379 -11.1735 -20.3127 -13.3574 54.3940 6.5031
# 6 2.6950 8.2348 -4.9160 -1.3996 6.5031 40.2039
#
#
#
# Elastic Compliance Matrix: (Units=1/GPa)
#
#
# Indices 1 2 3 4 5 6 
#
# 1 0.011523 0.001247 -0.002664 -0.000938 0.002084 -0.001723
# 2 0.001247 0.013827 -0.004195 -0.002736 0.001358 -0.003744
# 3 -0.002664 -0.004195 0.008364 -0.004324 0.000320 0.001858
# 4 -0.000938 -0.002736 -0.004324 0.021166 0.002743 0.000388
# 5 0.002084 0.001358 0.000320 0.002743 0.020399 -0.003583
# 6 -0.001723 -0.003744 0.001858 0.000388 -0.003583 0.026576
#
#
# Mechanical properties :
#
#
# Convention : Reuss Voigt Hill
#
# Bulk Modulus (GPa) = 44.46172 71.60027 58.03100
# Shear Modulus (GPa) = 41.46819 50.17624 45.82221
#
# Velocity S-wave (km/s) = 3.97391 4.37129 4.17732
# Velocity P-wave (km/s) = 6.16343 7.26253 6.73544
#
# Compressibility (1/GPa) = 0.02249126
#
# Stress axis : x y z
#
# Youngs Moduli (GPa) = 86.78560 72.32178 119.56199
#
# Poissons Ratio (x) = -0.09022 0.31852
# Poissons Ratio (y) = -0.10826 0.50151
# Poissons Ratio (z) = 0.23120 0.30336
#
# Static dielectric constant tensor:
#      x y z
#    x 2.546990 0.056300 -0.039610 
#    y 0.056300 2.261580 0.033440 
#    z -0.039610 0.033440 2.110110 
# 
# From -- ./inp_files/459294.got.cif
#   From: 2010.05.17/outbox.cif.g08.bks.cpg/sg2_230_cif.got.tgz:459294.got - 2010.06.03 11:33:40.
