data_PCOD9016672
_publ_section_title
;
Structure prediction by ZEFSAII (Michael W. Deem and Ramdas Pophale) SiO2 
 PCOD9016672
Probable space group: P -1
;
_chemical_formula_sum "Si O2"
_cell_formula_units_Z 12
_cell_length_a 22.766403
_cell_length_b 6.787890
_cell_length_c 13.231785
_cell_angle_alpha 117.586695
_cell_angle_beta 161.653289
_cell_angle_gamma 62.383762
_cell_volume 568.341923
_symmetry_space_group_name_H-M "P -1"
_symmetry_group_IT_number 2
_symmetry_cell_setting 'triclinic'
loop_
_space_group_symop_operation_xyz
x,y,z
-x,-y,-z
loop_
_atom_site_type_symbol
_atom_site_label
_atom_site_fract_x
_atom_site_fract_y
_atom_site_fract_z
Si Si1 0.994895 0.002653 0.612833
Si Si2 0.595068 0.021800 0.051257
Si Si3 0.842096 0.369571 0.568067
Si Si4 0.380596 0.788644 0.275389
Si Si5 0.976493 0.245625 0.979250
Si Si6 0.403573 0.673813 0.521758
O O1 0.808307 0.923939 0.344761
O O2 0.980485 0.264607 0.682772
O O3 0.000000 0.000000 0.500000
O O4 0.175092 0.863380 0.917152
O O5 0.644290 0.280540 0.193884
O O6 0.473422 0.888586 0.744298
O O7 0.500000 0.000000 0.000000
O O8 0.930292 0.254102 0.787376
O O9 0.849014 0.625534 0.667761
O O10 0.381308 0.739077 0.384061
O O11 0.464373 0.555699 0.307149
O O12 0.500000 0.000000 0.500000
O O13 0.794348 0.368684 0.763080
O O14 0.000000 0.000000 0.000000
#
# Coordination Sequence:
#
# PCOD9016672 Si02
#       6
#     2   2   2   2   2   2
#     4  10  21  42  68  98 137 177 223 278 342 398
#     4  10  21  43  64  98 138 173 217 288 335 398
#     4   9  22  41  65  92 137 167 222 281 331 397
#     4  11  24  42  66  99 133 185 227 275 338 408
#     4  11  21  40  68  98 125 182 225 280 337 405
#     4  11  23  41  68  96 139 172 232 279 335 408
#
# _framework density 21.114052000000001
#
# number of rings (size 3 to 8) (size 9 to 14) (size 15 to 20)
#    1.000    0.667    1.667    3.000    0.000    3.333 
#    3.000    0.833    0.000    0.000    0.000    0.000 
#    0.000    0.000    0.000    0.000    0.000    0.000 
#
# Total GULP energy -66824.886736 kJ/mol
# GULP energy per Si atom -5568.740561 kJ/mol
# Density = 2.106600 g / cm^3
# Si number density = 21.114052 Si / 1000 Ang^3
#
#
#
# Elastic Constant Matrix: (Units=GPa)
#
#
# Indices 1 2 3 4 5 6 
#
# 1 141.1270 31.9742 35.4399 -1.6394 -2.7565 -11.3381
# 2 31.9742 102.3850 34.8026 10.9190 -19.8784 -4.9587
# 3 35.4399 34.8026 92.4112 14.6011 6.0429 -4.7724
# 4 -1.6394 10.9190 14.6011 38.8071 -14.1764 -7.1014
# 5 -2.7565 -19.8784 6.0429 -14.1764 32.7241 9.5293
# 6 -11.3381 -4.9587 -4.7724 -7.1014 9.5293 19.8249
#
#
#
# Elastic Compliance Matrix: (Units=1/GPa)
#
#
# Indices 1 2 3 4 5 6 
#
# 1 0.008622 -0.001809 -0.002815 0.002799 -0.000046 0.004825
# 2 -0.001809 0.014152 -0.005816 0.001567 0.011293 -0.003762
# 3 -0.002815 -0.005816 0.016284 -0.008110 -0.011272 0.003368
# 4 0.002799 0.001567 -0.008110 0.035451 0.016666 0.004728
# 5 -0.000046 0.011293 -0.011272 0.016666 0.052269 -0.019069
# 6 0.004825 -0.003762 0.003368 0.004728 -0.019069 0.063931
#
#
# Mechanical properties :
#
#
# Convention : Reuss Voigt Hill
#
# Bulk Modulus (GPa) = 55.01613 60.03963 57.52788
# Shear Modulus (GPa) = 22.97276 33.85163 28.41220
#
# Velocity S-wave (km/s) = 3.30211 4.00844 3.67229
# Velocity P-wave (km/s) = 6.37588 7.06548 6.72952
#
# Compressibility (1/GPa) = 0.01817649
#
# Stress axis : x y z
#
# Youngs Moduli (GPa) = 115.98261 70.65932 61.41086
#
# Poissons Ratio (x) = 0.12784 0.17289
# Poissons Ratio (y) = 0.20985 0.35719
# Poissons Ratio (z) = 0.32652 0.41098
#
# Static dielectric constant tensor:
#      x y z
#    x 1.823660 -0.028100 -0.103940 
#    y -0.028100 1.820690 0.051280 
#    z -0.103940 0.051280 2.055220 
# 
# From -- ./inp_files/468420.got.cif
#   From: 2010.05.17/outbox.cif.g08.bks.cpg/sg2_235_cif.got.tgz:468420.got - 2010.06.03 11:33:40.
