data_PCOD9016627
_publ_section_title
;
Structure prediction by ZEFSAII (Michael W. Deem and Ramdas Pophale) SiO2 
 PCOD9016627
Probable space group: P -1
;
_chemical_formula_sum "Si O2"
_cell_formula_units_Z 16
_cell_length_a 5.840236
_cell_length_b 17.761447
_cell_length_c 6.756142
_cell_angle_alpha 99.976365
_cell_angle_beta 73.823707
_cell_angle_gamma 105.674731
_cell_volume 644.396789
_symmetry_space_group_name_H-M "P -1"
_symmetry_group_IT_number 2
_symmetry_cell_setting 'triclinic'
loop_
_space_group_symop_operation_xyz
x,y,z
-x,-y,-z
loop_
_atom_site_type_symbol
_atom_site_label
_atom_site_fract_x
_atom_site_fract_y
_atom_site_fract_z
Si Si1 0.800308 0.043570 0.649942
Si Si2 0.442998 0.886601 0.589377
Si Si3 0.885846 0.565230 0.806593
Si Si4 0.216645 0.317472 0.437310
Si Si5 0.174608 0.158050 0.823929
Si Si6 0.040795 0.691655 0.134996
Si Si7 0.512053 0.791827 0.875697
Si Si8 0.628248 0.439908 0.556128
O O1 0.753914 0.104275 0.522195
O O2 0.921150 0.092739 0.831341
O O3 0.556782 0.974010 0.689673
O O4 0.000000 0.000000 0.500000
O O5 0.653349 0.856507 0.404850
O O6 0.367567 0.828634 0.762891
O O7 0.784326 0.626053 0.722335
O O8 0.715670 0.478755 0.765429
O O9 0.141000 0.563996 0.637313
O O10 0.932170 0.605645 0.026972
O O11 0.975648 0.309429 0.624019
O O12 0.282706 0.241304 0.301648
O O13 0.433773 0.357805 0.554474
O O14 0.108072 0.242954 0.865907
O O15 0.334681 0.150074 0.973502
O O16 0.315179 0.724067 0.003602
O O17 0.500000 0.500000 0.500000
#
# Coordination Sequence:
#
# PCOD9016627 Si02
#       8
#     2   2   2   2   2   2   2   2
#     4   9  21  43  71  97 136 180 230 280 336 410
#     4  10  22  45  70  99 138 179 225 287 339 399
#     4  10  21  42  68  96 134 177 227 282 334 404
#     4  11  23  43  65  98 137 178 220 284 339 398
#     4  11  23  43  65 102 138 176 226 279 342 411
#     4  12  25  39  67 103 134 179 228 270 345 414
#     4  12  25  41  69 103 138 179 225 280 344 407
#     4   9  20  42  68  92 134 177 226 282 334 396
#
# _framework density 24.829423999999999
#
# number of rings (size 3 to 8) (size 9 to 14) (size 15 to 20)
#    0.000    1.500    3.750    0.750    0.000    6.000 
#    0.000   14.375    0.000    0.000    0.000    0.000 
#    0.000    0.000    0.000    0.000    0.000    0.000 
#
# Total GULP energy -89519.962850 kJ/mol
# GULP energy per Si atom -5594.997678 kJ/mol
# Density = 2.477291 g / cm^3
# Si number density = 24.829424 Si / 1000 Ang^3
#
#
#
# Elastic Constant Matrix: (Units=GPa)
#
#
# Indices 1 2 3 4 5 6 
#
# 1 73.0027 3.9779 14.1972 12.5291 8.6282 -0.6577
# 2 3.9779 39.4778 24.9955 19.7684 5.2095 10.4345
# 3 14.1972 24.9955 109.0971 20.5603 -0.7608 15.9114
# 4 12.5291 19.7684 20.5603 37.7613 -4.0045 0.8637
# 5 8.6282 5.2095 -0.7608 -4.0045 27.4097 3.9373
# 6 -0.6577 10.4345 15.9114 0.8637 3.9373 37.1263
#
#
#
# Elastic Compliance Matrix: (Units=1/GPa)
#
#
# Indices 1 2 3 4 5 6 
#
# 1 0.015863 0.003694 -0.001773 -0.006983 -0.006894 0.000896
# 2 0.003694 0.042769 -0.005058 -0.021894 -0.011472 -0.008061
# 3 -0.001773 -0.005058 0.011645 -0.002810 0.001970 -0.003744
# 4 -0.006983 -0.021894 -0.002810 0.042932 0.011838 0.004980
# 5 -0.006894 -0.011472 0.001970 0.011838 0.042988 -0.002576
# 6 0.000896 -0.008061 -0.003744 0.004980 -0.002576 0.030979
#
#
# Mechanical properties :
#
#
# Convention : Reuss Voigt Hill
#
# Bulk Modulus (GPa) = 15.62438 34.21321 24.91880
# Shear Modulus (GPa) = 23.27913 32.35326 27.81620
#
# Velocity S-wave (km/s) = 3.06529 3.61365 3.35071
# Velocity P-wave (km/s) = 4.33985 5.58753 5.00274
#
# Compressibility (1/GPa) = 0.06400252
#
# Stress axis : x y z
#
# Youngs Moduli (GPa) = 63.03948 23.38155 85.87323
#
# Poissons Ratio (x) = -0.08637 0.15229
# Poissons Ratio (y) = -0.23287 0.43433
# Poissons Ratio (z) = 0.11180 0.11826
#
# Static dielectric constant tensor:
#      x y z
#    x 1.969000 0.038420 0.015780 
#    y 0.038420 1.991870 -0.004940 
#    z 0.015780 -0.004940 1.981000 
# 
# From -- ./inp_files/11307.got.cif
#   From: 2010.05.17/outbox.cif.g08.bks.cpg/sg2_6_cif.got.tgz:11307.got - 2010.06.03 11:33:40.
