data_PCOD9016581
_publ_section_title
;
Structure prediction by ZEFSAII (Michael W. Deem and Ramdas Pophale) SiO2 
 PCOD9016581
Probable space group: P -1
;
_chemical_formula_sum "Si O2"
_cell_formula_units_Z 16
_cell_length_a 9.101024
_cell_length_b 23.711311
_cell_length_c 21.774406
_cell_angle_alpha 160.556043
_cell_angle_beta 27.152049
_cell_angle_gamma 152.929252
_cell_volume 671.726540
_symmetry_space_group_name_H-M "P -1"
_symmetry_group_IT_number 2
_symmetry_cell_setting 'triclinic'
loop_
_space_group_symop_operation_xyz
x,y,z
-x,-y,-z
loop_
_atom_site_type_symbol
_atom_site_label
_atom_site_fract_x
_atom_site_fract_y
_atom_site_fract_z
Si Si1 0.909168 0.637814 0.591156
Si Si2 0.407429 0.466122 0.272569
Si Si3 0.993938 0.295769 0.507675
Si Si4 0.793373 0.810251 0.556485
Si Si5 0.412111 0.902988 0.340177
Si Si6 0.140164 0.730409 0.139329
Si Si7 0.640505 0.024708 0.172563
Si Si8 0.534380 0.532326 0.946550
O O1 0.061302 0.478038 0.384063
O O2 0.794409 0.662451 0.591413
O O3 0.244240 0.813576 0.655315
O O4 0.682144 0.635335 0.732679
O O5 0.658838 0.655093 0.396611
O O6 0.607042 0.385849 0.069122
O O7 0.834270 0.455289 0.736957
O O8 0.207693 0.286631 0.478659
O O9 0.698135 0.095478 0.414991
O O10 0.527579 0.916629 0.763595
O O11 0.169201 0.921989 0.506059
O O12 0.175209 0.834280 0.296971
O O13 0.553892 0.738809 0.137019
O O14 0.791247 0.602216 0.107670
O O15 0.334327 0.872068 0.161013
O O16 0.000000 0.000000 0.000000
O O17 0.500000 0.500000 0.000000
#
# Coordination Sequence:
#
# PCOD9016581 Si02
#       8
#     2   2   2   2   2   2   2   2
#     4  10  22  41  68  96 128 179 228 281 343 394
#     4  10  21  42  68  94 132 174 230 288 330 403
#     4  12  25  45  67 101 143 181 225 285 342 415
#     4  11  25  43  65  96 139 181 226 277 353 404
#     4  12  25  42  69 105 139 181 228 281 340 409
#     4  12  23  40  69 100 133 178 230 282 335 407
#     4  11  23  42  68  96 132 174 229 289 338 399
#     4  12  26  43  67 102 143 183 221 276 347 409
#
# _framework density 23.819216999999998
#
# number of rings (size 3 to 8) (size 9 to 14) (size 15 to 20)
#    0.000    0.750    5.000    2.250    5.250    1.500 
#    0.000    0.625    0.000    0.000    0.000    0.000 
#    0.000    0.000    0.000    0.000    0.000    0.000 
#
# Total GULP energy -89330.648900 kJ/mol
# GULP energy per Si atom -5583.165556 kJ/mol
# Density = 2.376500 g / cm^3
# Si number density = 23.819217 Si / 1000 Ang^3
#
#
#
# Elastic Constant Matrix: (Units=GPa)
#
#
# Indices 1 2 3 4 5 6 
#
# 1 113.2747 30.8646 50.3767 -17.5627 -12.8569 -26.5748
# 2 30.8646 81.2490 12.7939 4.8025 -10.7065 -20.6371
# 3 50.3767 12.7939 59.6246 -3.1619 -19.5382 -4.5041
# 4 -17.5627 4.8025 -3.1619 31.6943 2.2281 7.8874
# 5 -12.8569 -10.7065 -19.5382 2.2281 36.3326 -0.2036
# 6 -26.5748 -20.6371 -4.5041 7.8874 -0.2036 40.4490
#
#
#
# Elastic Compliance Matrix: (Units=1/GPa)
#
#
# Indices 1 2 3 4 5 6 
#
# 1 0.019568 -0.003968 -0.015717 0.008243 -0.003160 0.007458
# 2 -0.003968 0.016435 0.001573 -0.006676 0.004735 0.007279
# 3 -0.015717 0.001573 0.033385 -0.005374 0.013159 -0.004691
# 4 0.008243 -0.006676 -0.005374 0.038417 -0.004331 -0.006103
# 5 -0.003160 0.004735 0.013159 -0.004331 0.035158 0.002826
# 6 0.007458 0.007279 -0.004691 -0.006103 0.002826 0.034018
#
#
# Mechanical properties :
#
#
# Convention : Reuss Voigt Hill
#
# Bulk Modulus (GPa) = 30.15107 49.13542 39.64325
# Shear Modulus (GPa) = 22.29558 32.36938 27.33248
#
# Velocity S-wave (km/s) = 3.06279 3.69041 3.39115
# Velocity P-wave (km/s) = 5.01929 6.23154 5.65798
#
# Compressibility (1/GPa) = 0.03316631
#
# Stress axis : x y z
#
# Youngs Moduli (GPa) = 51.10404 60.84626 29.95316
#
# Poissons Ratio (x) = 0.24143 0.47076
# Poissons Ratio (y) = 0.20277 -0.04713
# Poissons Ratio (z) = 0.80318 -0.09574
#
# Static dielectric constant tensor:
#      x y z
#    x 1.944700 0.013600 -0.103440 
#    y 0.013600 1.996020 -0.023750 
#    z -0.103440 -0.023750 2.321220 
# 
# From -- ./inp_files/404908.got.cif
#   From: 2010.05.17/outbox.cif.g08.bks.cpg/sg2_203_cif.got.tgz:404908.got - 2010.06.03 11:33:40.
