data_PCOD9016370
_publ_section_title
;
Structure prediction by ZEFSAII (Michael W. Deem and Ramdas Pophale) SiO2 
 PCOD9016370
Probable space group: P -1
;
_chemical_formula_sum "Si O2"
_cell_formula_units_Z 16
_cell_length_a 20.346077
_cell_length_b 20.002856
_cell_length_c 8.860253
_cell_angle_alpha 131.671773
_cell_angle_beta 38.529388
_cell_angle_gamma 158.621113
_cell_volume 786.045288
_symmetry_space_group_name_H-M "P -1"
_symmetry_group_IT_number 2
_symmetry_cell_setting 'triclinic'
loop_
_space_group_symop_operation_xyz
x,y,z
-x,-y,-z
loop_
_atom_site_type_symbol
_atom_site_label
_atom_site_fract_x
_atom_site_fract_y
_atom_site_fract_z
Si Si1 0.096467 0.155656 0.465188
Si Si2 0.182246 0.093983 0.704481
Si Si3 0.311406 0.864821 0.264545
Si Si4 0.109036 0.533460 0.706670
Si Si5 0.415656 0.452391 0.748580
Si Si6 0.250944 0.783289 0.572234
Si Si7 0.009463 0.791929 0.002587
Si Si8 0.391837 0.124981 0.613695
O O1 0.368399 0.350982 0.250682
O O2 0.058085 0.214925 0.726571
O O3 0.000000 0.000000 0.500000
O O4 0.949846 0.044173 0.409468
O O5 0.341883 0.297849 0.693862
O O6 0.314923 0.119169 0.595870
O O7 0.000000 0.000000 0.000000
O O8 0.292430 0.785147 0.325491
O O9 0.072138 0.674752 0.331293
O O10 0.359455 0.996138 0.446960
O O11 0.500000 0.000000 0.000000
O O12 0.159173 0.641748 0.643440
O O13 0.347244 0.665943 0.509915
O O14 0.000000 0.500000 0.000000
O O15 0.500000 0.500000 0.500000
O O16 0.193257 0.346958 0.963734
O O17 0.500000 0.000000 0.500000
O O18 0.086283 0.746683 0.814180
O O19 0.218220 0.008071 0.887933
#
# Coordination Sequence:
#
# PCOD9016370 Si02
#       8
#     2   2   2   2   2   2   2   2
#     4  11  22  43  69  94 131 178 216 272 338 391
#     4  12  24  43  68  99 137 171 221 275 332 395
#     4  11  23  45  68  97 139 174 224 278 333 401
#     4  12  24  45  70  95 139 179 224 281 335 396
#     4  10  21  42  67  95 133 164 223 270 326 398
#     4  11  22  43  71  98 134 179 223 277 338 396
#     4  10  21  44  67  96 135 169 222 277 326 400
#     4  11  24  45  65  97 138 174 219 280 331 392
#
# _framework density 20.355060000000002
#
# number of rings (size 3 to 8) (size 9 to 14) (size 15 to 20)
#    0.000    1.000    7.500    0.375    0.000    5.500 
#    9.000    0.000    0.000    0.000    0.000    0.000 
#    0.000    0.000    0.000    0.000    0.000    0.000 
#
# Total GULP energy -89230.219836 kJ/mol
# GULP energy per Si atom -5576.888740 kJ/mol
# Density = 2.030873 g / cm^3
# Si number density = 20.355060 Si / 1000 Ang^3
#
#
#
# Elastic Constant Matrix: (Units=GPa)
#
#
# Indices 1 2 3 4 5 6 
#
# 1 132.2562 28.3488 34.1822 -20.1696 4.7069 17.6552
# 2 28.3488 116.4651 17.6998 -36.4029 2.8603 30.4395
# 3 34.1822 17.6998 81.0702 -21.7634 11.9161 11.3312
# 4 -20.1696 -36.4029 -21.7634 36.2672 3.8819 -2.3911
# 5 4.7069 2.8603 11.9161 3.8819 35.7310 -11.6789
# 6 17.6552 30.4395 11.3312 -2.3911 -11.6789 43.8087
#
#
#
# Elastic Compliance Matrix: (Units=1/GPa)
#
#
# Indices 1 2 3 4 5 6 
#
# 1 0.009250 0.000609 -0.001851 0.004642 -0.002489 -0.004082
# 2 0.000609 0.019967 0.006116 0.024184 -0.012100 -0.017606
# 3 -0.001851 0.006116 0.019867 0.017632 -0.012376 -0.010979
# 4 0.004642 0.024184 0.017632 0.065872 -0.024104 -0.026066
# 5 -0.002489 -0.012100 -0.012376 -0.024104 0.043513 0.022896
# 6 -0.004082 -0.017606 -0.010979 -0.026066 0.022896 0.044226
#
#
# Mechanical properties :
#
#
# Convention : Reuss Voigt Hill
#
# Bulk Modulus (GPa) = 16.99761 54.47256 35.73508
# Shear Modulus (GPa) = 23.52303 39.79875 31.66089
#
# Velocity S-wave (km/s) = 3.40315 4.42659 3.94817
# Velocity P-wave (km/s) = 4.87961 7.27637 6.19501
#
# Compressibility (1/GPa) = 0.05883181
#
# Stress axis : x y z
#
# Youngs Moduli (GPa) = 108.10342 50.08375 50.33473
#
# Poissons Ratio (x) = -0.03049 0.09315
# Poissons Ratio (y) = -0.06580 -0.30784
# Poissons Ratio (z) = 0.20005 -0.30630
#
# Static dielectric constant tensor:
#      x y z
#    x 1.767400 0.017540 0.036300 
#    y 0.017540 1.701170 -0.007780 
#    z 0.036300 -0.007780 1.772040 
# 
# From -- ./inp_files/349532.got.cif
#   From: 2010.05.17/outbox.cif.g08.bks.cpg/sg2_175_cif.got.tgz:349532.got - 2010.06.03 11:33:40.
