data_PCOD9016733
_publ_section_title
;
Structure prediction by ZEFSAII (Michael W. Deem and Ramdas Pophale) SiO2 
 PCOD9016733
Probable space group: P -1
;
_chemical_formula_sum "Si O2"
_cell_formula_units_Z 14
_cell_length_a 5.000109
_cell_length_b 23.455169
_cell_length_c 11.299256
_cell_angle_alpha 27.770277
_cell_angle_beta 67.983098
_cell_angle_gamma 63.771139
_cell_volume 553.440291
_symmetry_space_group_name_H-M "P -1"
_symmetry_group_IT_number 2
_symmetry_cell_setting 'triclinic'
loop_
_space_group_symop_operation_xyz
x,y,z
-x,-y,-z
loop_
_atom_site_type_symbol
_atom_site_label
_atom_site_fract_x
_atom_site_fract_y
_atom_site_fract_z
Si Si1 0.917211 0.440212 0.828410
Si Si2 0.408809 0.714915 0.973763
Si Si3 0.219751 0.673587 0.698664
Si Si4 0.631739 0.887225 0.475005
Si Si5 0.113633 0.321961 0.478269
Si Si6 0.924807 0.065459 0.018120
Si Si7 0.137254 0.967442 0.664876
O O1 0.759299 0.390872 0.836851
O O2 0.910717 0.586314 0.574072
O O3 0.253140 0.356508 0.927034
O O4 0.767601 0.411761 0.030219
O O5 0.412338 0.797778 0.698927
O O6 0.273297 0.816153 0.911510
O O7 0.534935 0.708961 0.560845
O O8 0.934244 0.794247 0.544336
O O9 0.109371 0.612781 0.711289
O O10 0.684000 0.927492 0.527528
O O11 0.614150 0.026298 0.167215
O O12 0.991633 0.200145 0.747875
O O13 0.066611 0.012447 0.218995
O O14 0.000000 0.000000 0.000000
O O15 0.000000 0.000000 0.500000
#
# Coordination Sequence:
#
# PCOD9016733 Si02
#       7
#     2   2   2   2   2   2   2
#     4  11  24  39  67  95 131 180 237 276 322 402
#     4  11  22  43  66  99 127 176 233 286 319 396
#     4  11  21  38  65  94 135 178 224 278 338 406
#     4   9  21  39  64  99 130 168 224 280 341 394
#     4  12  23  43  60  97 138 182 219 276 345 407
#     4  10  23  44  65 103 140 176 216 286 352 411
#     4  10  21  42  69 102 133 180 227 280 340 409
#
# _framework density 25.296315
#
# number of rings (size 3 to 8) (size 9 to 14) (size 15 to 20)
#    0.857    0.571    1.429    5.571    0.000    0.571 
#    2.571    1.429    0.000    0.000    0.000    0.000 
#    0.000    0.000    0.000    0.000    0.000    0.000 
#
# Total GULP energy -77960.566329 kJ/mol
# GULP energy per Si atom -5568.611881 kJ/mol
# Density = 2.523874 g / cm^3
# Si number density = 25.296315 Si / 1000 Ang^3
#
#
#
# Elastic Constant Matrix: (Units=GPa)
#
#
# Indices 1 2 3 4 5 6 
#
# 1 95.1643 23.4693 -2.4852 -3.1586 -35.4578 -3.1245
# 2 23.4693 105.1481 16.5608 -22.8607 -15.4726 28.2511
# 3 -2.4852 16.5608 85.8334 -20.6466 -32.8338 13.0553
# 4 -3.1586 -22.8607 -20.6466 42.2712 20.4461 1.1159
# 5 -35.4578 -15.4726 -32.8338 20.4461 24.6145 -12.5971
# 6 -3.1245 28.2511 13.0553 1.1159 -12.5971 38.3307
#
#
#
# Elastic Compliance Matrix: (Units=1/GPa)
#
#
# Indices 1 2 3 4 5 6 
#
# 1 -0.005753 0.004356 -0.010275 0.016771 -0.040307 -0.013915
# 2 0.004356 0.011520 0.005897 0.000241 0.019219 -0.003835
# 3 -0.010275 0.005897 0.007815 0.018485 -0.024423 -0.016410
# 4 0.016771 0.000241 0.018485 0.013566 0.041936 0.008281
# 5 -0.040307 0.019219 -0.024423 0.041936 -0.093852 -0.041197
# 6 -0.013915 -0.003835 -0.016410 0.008281 -0.041197 0.019590
#
#
# Mechanical properties :
#
#
# Convention : Reuss Voigt Hill
#
# Bulk Modulus (GPa) = 73.87177 40.13729 57.00453
# Shear Modulus (GPa) = -117.49167 37.61667 -39.93750
#
# Velocity S-wave (km/s) = -6.82254 3.86040 -3.97771
# Velocity P-wave (km/s) = 5.72684 5.98093 1.21961
#
# Compressibility (1/GPa) = 0.01353697
#
# Stress axis : x y z
#
# Youngs Moduli (GPa) = -173.82331 86.80346 127.95743
#
# Poissons Ratio (x) = -0.37811 1.31479
# Poissons Ratio (y) = 0.75717 -0.75451
# Poissons Ratio (z) = -1.78607 -0.51184
#
# Static dielectric constant tensor:
#      x y z
#    x 2.209450 -0.024100 0.069890 
#    y -0.024100 2.069790 -0.017920 
#    z 0.069890 -0.017920 2.099060 
# 
# From -- ./inp_files/370934.got.cif
#   From: 2010.05.17/outbox.cif.g08.bks.cpg/sg2_186_cif.got.tgz:370934.got - 2010.06.03 11:33:40.
