data_PCOD9016075
_publ_section_title
;
Structure prediction by ZEFSAII (Michael W. Deem and Ramdas Pophale) SiO2 
 PCOD9016075
Probable space group: P -1
;
_chemical_formula_sum "Si O2"
_cell_formula_units_Z 14
_cell_length_a 12.329178
_cell_length_b 12.654515
_cell_length_c 15.903645
_cell_angle_alpha 153.907649
_cell_angle_beta 135.555835
_cell_angle_gamma 35.648774
_cell_volume 634.817288
_symmetry_space_group_name_H-M "P -1"
_symmetry_group_IT_number 2
_symmetry_cell_setting 'triclinic'
loop_
_space_group_symop_operation_xyz
x,y,z
-x,-y,-z
loop_
_atom_site_type_symbol
_atom_site_label
_atom_site_fract_x
_atom_site_fract_y
_atom_site_fract_z
Si Si1 0.836008 0.347278 0.723270
Si Si2 0.185137 0.634667 0.091946
Si Si3 0.777787 0.647756 0.433862
Si Si4 0.382854 0.361501 0.354466
Si Si5 0.548270 0.272126 0.792301
Si Si6 0.765338 0.900178 0.302735
Si Si7 0.105966 0.693685 0.593096
O O1 0.790197 0.493087 0.892525
O O2 0.735843 0.566831 0.746183
O O3 0.059970 0.163545 0.704028
O O4 0.766544 0.127135 0.528675
O O5 0.354250 0.659863 0.178653
O O6 0.173987 0.421295 0.869118
O O7 0.004926 0.961464 0.229273
O O8 0.632886 0.706482 0.324454
O O9 0.799114 0.403255 0.332158
O O10 0.958532 0.602513 0.457382
O O11 0.695410 0.933908 0.650962
O O12 0.500000 0.500000 0.500000
O O13 0.241909 0.528056 0.472374
O O14 0.556177 0.046937 0.255014
O O15 0.500000 0.500000 0.000000
#
# Coordination Sequence:
#
# PCOD9016075 Si02
#       7
#     2   2   2   2   2   2   2
#     4  10  22  42  62  92 134 177 206 255 336 375
#     4  11  23  39  64  96 126 166 211 269 319 381
#     4   9  22  44  66  86 130 175 207 266 325 385
#     4  10  22  38  65  97 126 167 215 258 316 390
#     4  10  23  40  64  97 121 162 222 267 322 383
#     4  10  22  40  63  92 130 167 214 264 306 389
#     4  10  21  42  66  94 129 173 215 260 330 382
#
# _framework density 22.053591000000001
#
# number of rings (size 3 to 8) (size 9 to 14) (size 15 to 20)
#    0.000    2.000    0.000    3.000    6.000    4.000 
#    2.571    7.857    0.000    2.571    0.000    0.000 
#    0.000    0.000    0.000    0.000    0.000    0.000 
#
# Total GULP energy -78046.757331 kJ/mol
# GULP energy per Si atom -5574.768381 kJ/mol
# Density = 2.200340 g / cm^3
# Si number density = 22.053591 Si / 1000 Ang^3
#
#
#
# Elastic Constant Matrix: (Units=GPa)
#
#
# Indices 1 2 3 4 5 6 
#
# 1 89.8021 48.5403 20.2028 10.7639 -21.8168 -7.0196
# 2 48.5403 103.2317 35.6288 12.7694 -14.1083 -15.1781
# 3 20.2028 35.6288 90.9199 12.4570 -9.1492 -6.2196
# 4 10.7639 12.7694 12.4570 17.4804 -1.5042 -1.1580
# 5 -21.8168 -14.1083 -9.1492 -1.5042 30.7561 6.2648
# 6 -7.0196 -15.1781 -6.2196 -1.1580 6.2648 24.7422
#
#
#
# Elastic Compliance Matrix: (Units=1/GPa)
#
#
# Indices 1 2 3 4 5 6 
#
# 1 0.017466 -0.006583 0.000289 -0.005443 0.009531 -0.001679
# 2 -0.006583 0.015494 -0.003590 -0.004286 -0.000180 0.006580
# 3 0.000289 -0.003590 0.013545 -0.006995 0.002162 0.000410
# 4 -0.005443 -0.004286 -0.006995 0.068200 -0.004232 -0.001669
# 5 0.009531 -0.000180 0.002162 -0.004232 0.041152 -0.007481
# 6 -0.001679 0.006580 0.000410 -0.001669 -0.007481 0.045896
#
#
# Mechanical properties :
#
#
# Convention : Reuss Voigt Hill
#
# Bulk Modulus (GPa) = 37.40115 54.74417 46.07266
# Shear Modulus (GPa) = 21.69822 26.56786 24.13304
#
# Velocity S-wave (km/s) = 3.14010 3.47464 3.31160
# Velocity P-wave (km/s) = 5.49026 6.40114 5.96312
#
# Compressibility (1/GPa) = 0.02673714
#
# Stress axis : x y z
#
# Youngs Moduli (GPa) = 57.25522 64.53957 73.82675
#
# Poissons Ratio (x) = 0.42487 -0.02132
# Poissons Ratio (y) = 0.37692 0.26502
# Poissons Ratio (z) = -0.01653 0.23168
#
# Static dielectric constant tensor:
#      x y z
#    x 1.796200 0.035910 0.043260 
#    y 0.035910 2.008540 0.082610 
#    z 0.043260 0.082610 1.848180 
# 
# From -- ./inp_files/517526.got.cif
#   From: 2010.05.17/outbox.cif.g08.bks.cpg/sg2_259_cif.got.tgz:517526.got - 2010.06.03 11:33:40.
