data_PCOD9016854
_publ_section_title
;
Structure prediction by ZEFSAII (Michael W. Deem and Ramdas Pophale) SiO2 
 PCOD9016854
Probable space group: P -1
;
_chemical_formula_sum "Si O2"
_cell_formula_units_Z 16
_cell_length_a 10.816963
_cell_length_b 16.099273
_cell_length_c 14.382880
_cell_angle_alpha 28.602640
_cell_angle_beta 139.122344
_cell_angle_gamma 120.619794
_cell_volume 682.692795
_symmetry_space_group_name_H-M "P -1"
_symmetry_group_IT_number 2
_symmetry_cell_setting 'triclinic'
loop_
_space_group_symop_operation_xyz
x,y,z
-x,-y,-z
loop_
_atom_site_type_symbol
_atom_site_label
_atom_site_fract_x
_atom_site_fract_y
_atom_site_fract_z
Si Si1 0.809370 0.504996 0.324077
Si Si2 0.351303 0.990090 0.844542
Si Si3 0.080612 0.649043 0.819515
Si Si4 0.497798 0.932553 0.785256
Si Si5 0.758024 0.169242 0.723605
Si Si6 0.049813 0.267444 0.146591
Si Si7 0.747557 0.325639 0.298561
Si Si8 0.924266 0.119028 0.068161
O O1 0.716981 0.370794 0.451545
O O2 0.877479 0.405393 0.358893
O O3 0.000000 0.500000 0.500000
O O4 0.635637 0.737129 0.994901
O O5 0.487291 0.876305 0.942505
O O6 0.174281 0.205628 0.491484
O O7 0.204656 0.916214 0.886766
O O8 0.500000 0.000000 0.000000
O O9 0.208165 0.680979 0.778631
O O10 0.116043 0.695566 0.899106
O O11 0.125112 0.426914 0.053737
O O12 0.603342 0.077240 0.703399
O O13 0.255864 0.052366 0.491013
O O14 0.775639 0.191144 0.822525
O O15 0.000000 0.000000 0.000000
O O16 0.976299 0.278197 0.988765
O O17 0.500000 0.500000 0.000000
O O18 0.855694 0.092417 0.618700
#
# Coordination Sequence:
#
# PCOD9016854 Si02
#       8
#     2   2   2   2   2   2   2   2
#     4  12  26  43  66  98 139 182 224 275 336 399
#     4  10  21  42  69  96 136 173 219 283 336 394
#     4   9  23  42  67  92 139 168 219 272 348 386
#     4  11  24  45  68  99 137 180 225 276 342 401
#     4  12  24  44  67  97 139 179 223 277 333 399
#     4  10  23  44  69  98 130 174 221 288 331 402
#     4  11  24  41  65  96 130 178 221 270 331 402
#     4  11  23  43  69  97 134 171 226 279 337 393
#
# _framework density 23.436602000000001
#
# number of rings (size 3 to 8) (size 9 to 14) (size 15 to 20)
#    0.000    1.250    3.750    0.750    5.250    5.500 
#    4.500    3.125    0.000    0.000    0.000    0.000 
#    0.000    0.000    0.000    0.000    0.000    0.000 
#
# Total GULP energy -89410.239688 kJ/mol
# GULP energy per Si atom -5588.139981 kJ/mol
# Density = 2.338326 g / cm^3
# Si number density = 23.436602 Si / 1000 Ang^3
#
#
#
# Elastic Constant Matrix: (Units=GPa)
#
#
# Indices 1 2 3 4 5 6 
#
# 1 65.4332 21.3348 2.9372 -7.2325 -7.8686 5.6345
# 2 21.3348 138.3404 19.9172 -17.7043 -0.4850 -14.8588
# 3 2.9372 19.9172 50.7541 -17.6869 -4.6673 2.0647
# 4 -7.2325 -17.7043 -17.6869 25.5349 -2.1218 0.7679
# 5 -7.8686 -0.4850 -4.6673 -2.1218 35.9838 -0.3008
# 6 5.6345 -14.8588 2.0647 0.7679 -0.3008 25.2569
#
#
#
# Elastic Compliance Matrix: (Units=1/GPa)
#
#
# Indices 1 2 3 4 5 6 
#
# 1 0.017826 -0.003099 0.002701 0.005327 0.004470 -0.006129
# 2 -0.003099 0.009179 -0.002507 0.003512 -0.000620 0.006182
# 3 0.002701 -0.002507 0.027777 0.018848 0.005230 -0.004859
# 4 0.005327 0.003512 0.018848 0.056811 0.006987 -0.002307
# 5 0.004470 -0.000620 0.005230 0.006987 0.029836 -0.001647
# 6 -0.006129 0.006182 -0.004859 -0.002307 -0.001647 0.045045
#
#
# Mechanical properties :
#
#
# Convention : Reuss Voigt Hill
#
# Bulk Modulus (GPa) = 20.41979 38.10069 29.26024
# Shear Modulus (GPa) = 23.96842 31.37770 27.67306
#
# Velocity S-wave (km/s) = 3.20142 3.66298 3.43995
# Velocity P-wave (km/s) = 4.73257 5.84654 5.31880
#
# Compressibility (1/GPa) = 0.04897211
#
# Stress axis : x y z
#
# Youngs Moduli (GPa) = 56.09762 108.94756 36.00087
#
# Poissons Ratio (x) = 0.33762 -0.09725
# Poissons Ratio (y) = 0.17384 0.09026
# Poissons Ratio (z) = -0.15154 0.27316
#
# Static dielectric constant tensor:
#      x y z
#    x 1.960930 -0.000430 -0.002270 
#    y -0.000430 1.920490 0.010620 
#    z -0.002270 0.010620 1.870320 
# 
# From -- ./inp_files/398503.got.cif
#   From: 2010.05.17/outbox.cif.g08.bks.cpg/sg2_200_cif.got.tgz:398503.got - 2010.06.03 11:33:40.
