data_PCOD9016869
_publ_section_title
;
Structure prediction by ZEFSAII (Michael W. Deem and Ramdas Pophale) SiO2 
 PCOD9016869
Probable space group: P -1
;
_chemical_formula_sum "Si O2"
_cell_formula_units_Z 12
_cell_length_a 7.344525
_cell_length_b 12.025812
_cell_length_c 8.526487
_cell_angle_alpha 67.086559
_cell_angle_beta 75.613399
_cell_angle_gamma 124.964427
_cell_volume 443.877688
_symmetry_space_group_name_H-M "P -1"
_symmetry_group_IT_number 2
_symmetry_cell_setting 'triclinic'
loop_
_space_group_symop_operation_xyz
x,y,z
-x,-y,-z
loop_
_atom_site_type_symbol
_atom_site_label
_atom_site_fract_x
_atom_site_fract_y
_atom_site_fract_z
Si Si1 0.024869 0.724125 0.193805
Si Si2 0.600627 0.086562 0.696819
Si Si3 0.592628 0.821832 0.762698
Si Si4 0.836489 0.380229 0.287732
Si Si5 0.830740 0.830936 0.011938
Si Si6 0.823318 0.697622 0.782966
O O1 0.286048 0.660358 0.837715
O O2 0.313840 0.914853 0.945310
O O3 0.130216 0.772810 0.321794
O O4 0.949021 0.555300 0.243919
O O5 0.576819 0.200785 0.547564
O O6 0.660147 0.995192 0.630952
O O7 0.769699 0.800181 0.651172
O O8 0.623587 0.808735 0.951945
O O9 0.233739 0.310367 0.777355
O O10 0.033680 0.357120 0.266698
O O11 0.961081 0.813209 0.851043
O O12 0.000000 0.000000 0.000000
O O13 0.500000 0.500000 0.000000
#
# Coordination Sequence:
#
# PCOD9016869 Si02
#       6
#     2   2   2   2   2   2
#     4  11  23  44  72  96 141 184 230 283 343 414
#     4  11  24  44  69 101 136 186 230 282 346 409
#     4  10  23  42  66 101 136 178 234 281 344 411
#     4  12  25  44  69 104 143 174 231 292 342 407
#     4  10  21  42  69  97 135 186 228 281 346 407
#     4  10  22  40  67 102 132 180 225 278 347 403
#
# _framework density 27.034472999999998
#
# number of rings (size 3 to 8) (size 9 to 14) (size 15 to 20)
#    1.000    0.333    1.667    4.000    0.000    2.667 
#    3.000    0.000    0.000    4.000    0.000    0.000 
#    0.000    0.000    0.000    0.000    0.000    0.000 
#
# Total GULP energy -66941.213070 kJ/mol
# GULP energy per Si atom -5578.434423 kJ/mol
# Density = 2.697294 g / cm^3
# Si number density = 27.034473 Si / 1000 Ang^3
#
#
#
# Elastic Constant Matrix: (Units=GPa)
#
#
# Indices 1 2 3 4 5 6 
#
# 1 108.3051 58.8343 37.7387 1.4035 33.5156 -0.7638
# 2 58.8343 257.6995 61.8498 -7.3266 27.9255 -13.1424
# 3 37.7387 61.8498 100.2223 -2.7244 34.9988 5.0077
# 4 1.4035 -7.3266 -2.7244 48.8873 -1.2330 18.7260
# 5 33.5156 27.9255 34.9988 -1.2330 47.5361 4.0931
# 6 -0.7638 -13.1424 5.0077 18.7260 4.0931 50.0740
#
#
#
# Elastic Compliance Matrix: (Units=1/GPa)
#
#
# Indices 1 2 3 4 5 6 
#
# 1 0.012939 -0.001854 -0.001296 -0.001245 -0.007188 0.000894
# 2 -0.001854 0.004965 -0.002465 0.000095 0.000081 0.001479
# 3 -0.001296 -0.002465 0.015100 0.001002 -0.008570 -0.001851
# 4 -0.001245 0.000095 0.001002 0.024140 0.001506 -0.009245
# 5 -0.007188 0.000081 -0.008570 0.001506 0.032618 -0.002461
# 6 0.000894 0.001479 -0.001851 -0.009245 -0.002461 0.024216
#
#
# Mechanical properties :
#
#
# Convention : Reuss Voigt Hill
#
# Bulk Modulus (GPa) = 45.92955 87.00806 66.46881
# Shear Modulus (GPa) = 37.74559 49.81976 43.78268
#
# Velocity S-wave (km/s) = 3.74063 4.29747 4.02868
# Velocity P-wave (km/s) = 5.97349 7.54177 6.80297
#
# Compressibility (1/GPa) = 0.02177248
#
# Stress axis : x y z
#
# Youngs Moduli (GPa) = 77.28686 201.41725 66.22631
#
# Poissons Ratio (x) = 0.37337 0.08585
# Poissons Ratio (y) = 0.14327 0.16327
# Poissons Ratio (z) = 0.10019 0.49657
#
# Static dielectric constant tensor:
#      x y z
#    x 2.387020 0.040190 -0.138940 
#    y 0.040190 2.019760 -0.093710 
#    z -0.138940 -0.093710 2.327020 
# 
# From -- ./inp_files/61751.got.cif
#   From: 2010.05.17/outbox.cif.g08.bks.cpg/sg2_31_cif.got.tgz:61751.got - 2010.06.03 11:33:40.
