data_PCOD9016855
_publ_section_title
;
Structure prediction by ZEFSAII (Michael W. Deem and Ramdas Pophale) SiO2 
 PCOD9016855
Probable space group: P -1
;
_chemical_formula_sum "Si O2"
_cell_formula_units_Z 16
_cell_length_a 10.181702
_cell_length_b 10.655697
_cell_length_c 7.055122
_cell_angle_alpha 107.979343
_cell_angle_beta 66.658859
_cell_angle_gamma 78.265598
_cell_volume 620.253197
_symmetry_space_group_name_H-M "P -1"
_symmetry_group_IT_number 2
_symmetry_cell_setting 'triclinic'
loop_
_space_group_symop_operation_xyz
x,y,z
-x,-y,-z
loop_
_atom_site_type_symbol
_atom_site_label
_atom_site_fract_x
_atom_site_fract_y
_atom_site_fract_z
Si Si1 0.517533 0.511154 0.250310
Si Si2 0.766129 0.414513 0.775173
Si Si3 0.185928 0.216608 0.884818
Si Si4 0.697689 0.199109 0.923356
Si Si5 0.674040 0.670965 0.458557
Si Si6 0.093375 0.319684 0.392710
Si Si7 0.577458 0.034121 0.159934
Si Si8 0.137500 0.049220 0.499744
O O1 0.341598 0.604572 0.342051
O O2 0.446369 0.657544 0.873530
O O3 0.591884 0.561735 0.407988
O O4 0.632036 0.532329 0.027827
O O5 0.926605 0.416688 0.615487
O O6 0.808991 0.280580 0.834297
O O7 0.207244 0.327324 0.774392
O O8 0.128509 0.114131 0.742401
O O9 0.345304 0.107888 0.832164
O O10 0.090311 0.292968 0.158725
O O11 0.707442 0.096017 0.045455
O O12 0.710476 0.093672 0.690328
O O13 0.768227 0.639248 0.585211
O O14 0.551053 0.832407 0.604395
O O15 0.134393 0.167782 0.404230
O O16 0.500000 0.000000 0.000000
O O17 0.000000 0.000000 0.500000
#
# Coordination Sequence:
#
# PCOD9016855 Si02
#       8
#     2   2   2   2   2   2   2   2
#     4   9  22  43  70  97 131 191 225 283 333 398
#     4   9  21  41  69  96 140 174 235 276 337 407
#     4  11  25  40  68 101 140 180 221 281 356 400
#     4  10  21  42  69  96 137 174 231 282 331 409
#     4  11  25  42  69  97 142 179 233 277 339 411
#     4  11  22  45  66 107 135 180 224 285 350 408
#     4  12  23  40  69 101 138 179 227 285 343 409
#     4  11  21  41  67 100 141 173 217 289 347 409
#
# _framework density 25.795918
#
# number of rings (size 3 to 8) (size 9 to 14) (size 15 to 20)
#    0.750    0.750    3.750    1.125    3.500    1.500 
#    2.250    0.625    2.750    0.000    0.000    0.000 
#    0.000    0.000    0.000    0.000    0.000    0.000 
#
# Total GULP energy -89278.952585 kJ/mol
# GULP energy per Si atom -5579.934537 kJ/mol
# Density = 2.573721 g / cm^3
# Si number density = 25.795918 Si / 1000 Ang^3
#
#
#
# Elastic Constant Matrix: (Units=GPa)
#
#
# Indices 1 2 3 4 5 6 
#
# 1 149.0094 17.8766 56.8719 12.6581 9.0471 13.9355
# 2 17.8766 88.1742 26.6692 13.3492 11.7107 0.4534
# 3 56.8719 26.6692 137.1423 2.3415 10.3510 4.9880
# 4 12.6581 13.3492 2.3415 33.9962 -0.8087 -5.5190
# 5 9.0471 11.7107 10.3510 -0.8087 47.8433 0.9791
# 6 13.9355 0.4534 4.9880 -5.5190 0.9791 37.1831
#
#
#
# Elastic Compliance Matrix: (Units=1/GPa)
#
#
# Indices 1 2 3 4 5 6 
#
# 1 0.008650 -0.000081 -0.003325 -0.003516 -0.000889 -0.003293
# 2 -0.000081 0.013181 -0.002211 -0.005145 -0.002809 -0.000524
# 3 -0.003325 -0.002211 0.009123 0.001507 -0.000785 0.000293
# 4 -0.003516 -0.005145 0.001507 0.033683 0.002042 0.006124
# 5 -0.000889 -0.002809 -0.000785 0.002042 0.021957 0.000197
# 6 -0.003293 -0.000524 0.000293 0.006124 0.000197 0.028999
#
#
# Mechanical properties :
#
#
# Convention : Reuss Voigt Hill
#
# Bulk Modulus (GPa) = 50.70549 64.12905 57.41727
# Shear Modulus (GPa) = 37.48111 41.99840 39.73975
#
# Velocity S-wave (km/s) = 3.81594 4.03935 3.92923
# Velocity P-wave (km/s) = 6.25414 6.83149 6.54918
#
# Compressibility (1/GPa) = 0.01972173
#
# Stress axis : x y z
#
# Youngs Moduli (GPa) = 115.60453 75.86689 109.61195
#
# Poissons Ratio (x) = 0.00614 0.36441
# Poissons Ratio (y) = 0.00936 0.24232
# Poissons Ratio (z) = 0.38433 0.16772
#
# Static dielectric constant tensor:
#      x y z
#    x 2.071400 0.036380 -0.068000 
#    y 0.036380 2.085520 -0.042770 
#    z -0.068000 -0.042770 2.171660 
# 
# From -- ./inp_files/76408.got.cif
#   From: 2010.05.17/outbox.cif.g08.bks.cpg/sg2_39_cif.got.tgz:76408.got - 2010.06.03 11:33:40.
