data_PCOD9016409
_publ_section_title
;
Structure prediction by ZEFSAII (Michael W. Deem and Ramdas Pophale) SiO2 
 PCOD9016409
Probable space group: P -1
;
_chemical_formula_sum "Si O2"
_cell_formula_units_Z 12
_cell_length_a 8.600605
_cell_length_b 12.276981
_cell_length_c 7.131992
_cell_angle_alpha 95.556978
_cell_angle_beta 85.126275
_cell_angle_gamma 146.409467
_cell_volume 414.664539
_symmetry_space_group_name_H-M "P -1"
_symmetry_group_IT_number 2
_symmetry_cell_setting 'triclinic'
loop_
_space_group_symop_operation_xyz
x,y,z
-x,-y,-z
loop_
_atom_site_type_symbol
_atom_site_label
_atom_site_fract_x
_atom_site_fract_y
_atom_site_fract_z
Si Si1 0.278426 0.031275 0.464329
Si Si2 0.453359 0.261403 0.032130
Si Si3 0.243633 0.777141 0.076161
Si Si4 0.847331 0.261839 0.471722
Si Si5 0.525881 0.384162 0.473885
Si Si6 0.947646 0.809472 0.082770
O O1 0.594387 0.179993 0.390272
O O2 0.309759 0.172050 0.552410
O O3 0.192458 0.889234 0.597326
O O4 0.061227 0.886071 0.296045
O O5 0.485851 0.326680 0.250726
O O6 0.701072 0.317903 0.987036
O O7 0.351013 0.307879 0.935144
O O8 0.184761 0.022014 0.993518
O O9 0.214197 0.761624 0.302981
O O10 0.981417 0.699488 0.017757
O O11 0.500000 0.000000 0.000000
O O12 0.171983 0.474841 0.450156
O O13 0.500000 0.500000 0.500000
#
# Coordination Sequence:
#
# PCOD9016409 Si02
#       6
#     2   2   2   2   2   2
#     4   9  20  43  64  94 131 172 220 272 325 393
#     4   9  18  37  59  91 127 166 217 265 323 385
#     4   9  18  37  64  94 126 168 216 269 333 384
#     4  10  21  42  67  97 131 171 225 268 333 402
#     4  11  24  43  63  97 137 176 219 270 332 394
#     4   8  16  36  61  91 124 165 216 266 321 386
#
# _framework density 28.939056999999998
#
# number of rings (size 3 to 8) (size 9 to 14) (size 15 to 20)
#    0.000    2.667    0.000    1.500    0.000    1.333 
#   51.000    3.333    0.000    0.000    0.000    0.000 
#    0.000    0.000    0.000    0.000    0.000    0.000 
#
# Total GULP energy -67114.063436 kJ/mol
# GULP energy per Si atom -5592.838620 kJ/mol
# Density = 2.887319 g / cm^3
# Si number density = 28.939057 Si / 1000 Ang^3
#
#
#
# Elastic Constant Matrix: (Units=GPa)
#
#
# Indices 1 2 3 4 5 6 
#
# 1 313.8387 77.2420 67.5152 36.0963 -3.7502 -19.0570
# 2 77.2420 139.3036 14.5735 25.7492 -16.6807 -24.2201
# 3 67.5152 14.5735 110.1296 24.8401 -6.2451 -19.0658
# 4 36.0963 25.7492 24.8401 34.8000 -9.3123 -6.9034
# 5 -3.7502 -16.6807 -6.2451 -9.3123 49.8044 17.0593
# 6 -19.0570 -24.2201 -19.0658 -6.9034 17.0593 77.7022
#
#
#
# Elastic Compliance Matrix: (Units=1/GPa)
#
#
# Indices 1 2 3 4 5 6 
#
# 1 0.004298 -0.001946 -0.002020 -0.001824 -0.000920 -0.000008
# 2 -0.001946 0.009644 0.001591 -0.005421 0.001551 0.002097
# 3 -0.002020 0.001591 0.012169 -0.007371 -0.000292 0.002396
# 4 -0.001824 -0.005421 -0.007371 0.041027 0.005295 -0.001463
# 5 -0.000920 0.001551 -0.000292 0.005295 0.022986 -0.004390
# 6 -0.000008 0.002097 0.002396 -0.001463 -0.004390 0.014943
#
#
# Mechanical properties :
#
#
# Convention : Reuss Voigt Hill
#
# Bulk Modulus (GPa) = 46.81592 97.99258 72.40425
# Shear Modulus (GPa) = 42.75816 59.39073 51.07445
#
# Velocity S-wave (km/s) = 3.84803 4.53511 4.20563
# Velocity P-wave (km/s) = 5.99630 7.83315 6.97545
#
# Compressibility (1/GPa) = 0.02136025
#
# Stress axis : x y z
#
# Youngs Moduli (GPa) = 232.65628 103.69440 82.17917
#
# Poissons Ratio (x) = 0.20183 0.16596
# Poissons Ratio (y) = 0.45283 -0.13073
# Poissons Ratio (z) = 0.46986 -0.16496
#
# Static dielectric constant tensor:
#      x y z
#    x 2.348230 -0.012760 0.006490 
#    y -0.012760 2.285590 -0.090800 
#    z 0.006490 -0.090800 2.286180 
# 
# From -- ./inp_files/188477.got.cif
#   From: 2010.05.17/outbox.cif.g08.bks.cpg/sg2_95_cif.got.tgz:188477.got - 2010.06.03 11:33:40.
