data_PCOD9016833
_publ_section_title
;
Structure prediction by ZEFSAII (Michael W. Deem and Ramdas Pophale) SiO2 
 PCOD9016833
Probable space group: P -1
;
_chemical_formula_sum "Si O2"
_cell_formula_units_Z 16
_cell_length_a 20.352849
_cell_length_b 8.228833
_cell_length_c 11.709984
_cell_angle_alpha 140.040199
_cell_angle_beta 147.930502
_cell_angle_gamma 47.872125
_cell_volume 667.467472
_symmetry_space_group_name_H-M "P -1"
_symmetry_group_IT_number 2
_symmetry_cell_setting 'triclinic'
loop_
_space_group_symop_operation_xyz
x,y,z
-x,-y,-z
loop_
_atom_site_type_symbol
_atom_site_label
_atom_site_fract_x
_atom_site_fract_y
_atom_site_fract_z
Si Si1 0.485558 0.700578 0.485091
Si Si2 0.702324 0.470025 0.048186
Si Si3 0.624992 0.797960 0.312201
Si Si4 0.152527 0.773039 0.359347
Si Si5 0.925152 0.661671 0.383061
Si Si6 0.354928 0.685837 0.764629
Si Si7 0.963821 0.581012 0.145073
Si Si8 0.739326 0.982113 0.993169
O O1 0.500000 0.500000 0.500000
O O2 0.432001 0.567259 0.223104
O O3 0.613649 0.831433 0.717390
O O4 0.384940 0.923161 0.499592
O O5 0.740473 0.203511 0.020695
O O6 0.709997 0.688502 0.274206
O O7 0.790911 0.545134 0.117300
O O8 0.645425 0.597039 0.337218
O O9 0.490511 0.770021 0.040778
O O10 0.297855 0.729750 0.578836
O O11 0.086093 0.593634 0.256237
O O12 0.099079 0.052070 0.458998
O O13 0.103337 0.677955 0.115587
O O14 0.990752 0.634100 0.343939
O O15 0.000000 0.500000 0.500000
O O16 0.269214 0.874186 0.820500
O O17 0.860325 0.795766 0.068292
#
# Coordination Sequence:
#
# PCOD9016833 Si02
#       8
#     2   2   2   2   2   2   2   2
#     4  11  24  40  64  99 137 173 218 276 333 397
#     4  11  25  41  66  99 127 186 219 263 347 388
#     4   9  22  40  62  98 134 169 219 270 320 397
#     4  11  25  43  73  99 126 180 227 280 337 390
#     4  12  27  46  67  96 141 176 219 282 333 400
#     4   9  19  40  69  95 128 172 222 273 328 380
#     4  11  25  44  70 101 128 173 229 278 338 397
#     4  10  21  42  69  95 134 172 225 276 327 400
#
# _framework density 23.971205999999999
#
# number of rings (size 3 to 8) (size 9 to 14) (size 15 to 20)
#    0.000    1.500    1.250    3.000    8.750    3.000 
#    0.000    0.000    0.000    0.000    0.000    0.000 
#    0.000    0.000    0.000    0.000    0.000    0.000 
#
# Total GULP energy -89539.622102 kJ/mol
# GULP energy per Si atom -5596.226381 kJ/mol
# Density = 2.391665 g / cm^3
# Si number density = 23.971206 Si / 1000 Ang^3
#
#
#
# Elastic Constant Matrix: (Units=GPa)
#
#
# Indices 1 2 3 4 5 6 
#
# 1 52.8973 7.0276 -3.2069 11.4993 -2.0322 -6.0040
# 2 7.0276 82.5470 32.9015 2.8923 -24.7347 -7.8229
# 3 -3.2069 32.9015 82.9311 3.5996 -9.0003 -4.6320
# 4 11.4993 2.8923 3.5996 38.0266 -4.2893 -0.7200
# 5 -2.0322 -24.7347 -9.0003 -4.2893 38.4579 2.4327
# 6 -6.0040 -7.8229 -4.6320 -0.7200 2.4327 21.2847
#
#
#
# Elastic Compliance Matrix: (Units=1/GPa)
#
#
# Indices 1 2 3 4 5 6 
#
# 1 0.021338 -0.002189 0.002194 -0.006483 -0.000842 0.005569
# 2 -0.002189 0.017961 -0.005978 0.001049 0.009927 0.003584
# 3 0.002194 -0.005978 0.014611 -0.001628 -0.000593 0.001614
# 4 -0.006483 0.001049 -0.001628 0.028673 0.003225 -0.001196
# 5 -0.000842 0.009927 -0.000593 0.003225 0.032585 -0.000333
# 6 0.005569 0.003584 0.001614 -0.001196 -0.000333 0.050219
#
#
# Mechanical properties :
#
#
# Convention : Reuss Voigt Hill
#
# Bulk Modulus (GPa) = 23.82939 32.42442 28.12690
# Shear Modulus (GPa) = 26.13419 31.66406 28.89912
#
# Velocity S-wave (km/s) = 3.30545 3.63839 3.47591
# Velocity P-wave (km/s) = 4.95282 5.58626 5.27905
#
# Compressibility (1/GPa) = 0.04196498
#
# Stress axis : x y z
#
# Youngs Moduli (GPa) = 46.86582 55.67603 68.44017
#
# Poissons Ratio (x) = 0.12185 -0.15019
# Poissons Ratio (y) = 0.10257 0.40916
# Poissons Ratio (z) = -0.10285 0.33285
#
# Static dielectric constant tensor:
#      x y z
#    x 1.997260 -0.049810 0.038880 
#    y -0.049810 1.880910 -0.002340 
#    z 0.038880 -0.002340 1.961780 
# 
# From -- ./inp_files/470227.got.cif
#   From: 2010.05.17/outbox.cif.g08.bks.cpg/sg2_236_cif.got.tgz:470227.got - 2010.06.03 11:33:40.
