data_PCOD9016991
_publ_section_title
;
Structure prediction by ZEFSAII (Michael W. Deem and Ramdas Pophale) SiO2 
 PCOD9016991
Probable space group: P -1
;
_chemical_formula_sum "Si O2"
_cell_formula_units_Z 16
_cell_length_a 17.044172
_cell_length_b 25.662199
_cell_length_c 14.236502
_cell_angle_alpha 18.843096
_cell_angle_beta 153.592642
_cell_angle_gamma 159.362941
_cell_volume 706.097599
_symmetry_space_group_name_H-M "P -1"
_symmetry_group_IT_number 2
_symmetry_cell_setting 'triclinic'
loop_
_space_group_symop_operation_xyz
x,y,z
-x,-y,-z
loop_
_atom_site_type_symbol
_atom_site_label
_atom_site_fract_x
_atom_site_fract_y
_atom_site_fract_z
Si Si1 0.573378 0.491753 0.747023
Si Si2 0.215544 0.951775 0.565092
Si Si3 0.990049 0.517196 0.071829
Si Si4 0.919044 0.635109 0.204833
Si Si5 0.911610 0.958215 0.370471
Si Si6 0.874716 0.882431 0.162402
Si Si7 0.942356 0.273935 0.608450
Si Si8 0.389536 0.653423 0.778252
O O1 0.763235 0.485240 0.913322
O O2 0.347392 0.350129 0.686957
O O3 0.700699 0.729237 0.504710
O O4 0.499744 0.374080 0.968658
O O5 0.191239 0.753191 0.907095
O O6 0.047355 0.892343 0.399438
O O7 0.451260 0.143996 0.455972
O O8 0.118238 0.004469 0.453533
O O9 0.006808 0.372065 0.406195
O O10 0.000000 0.500000 0.000000
O O11 0.717959 0.536048 0.084542
O O12 0.000000 0.500000 0.500000
O O13 0.871908 0.634282 0.266198
O O14 0.107501 0.868078 0.978775
O O15 0.000000 0.000000 0.500000
O O16 0.821230 0.032962 0.886602
O O17 0.000000 0.000000 0.000000
O O18 0.787524 0.328115 0.392116
#
# Coordination Sequence:
#
# PCOD9016991 Si02
#       8
#     2   2   2   2   2   2   2   2
#     4  10  23  39  69  97 130 178 219 265 339 389
#     4  11  24  41  66 100 131 170 227 276 320 400
#     4  10  23  41  64  94 138 178 217 266 329 397
#     4  10  21  42  70  94 126 168 222 269 325 400
#     4  11  22  43  67  96 131 170 217 275 333 390
#     4  12  23  41  66 100 133 167 227 274 320 394
#     4  10  23  43  67  93 133 180 217 276 330 388
#     4  10  21  42  70  97 127 177 227 263 339 394
#
# _framework density 22.659756999999999
#
# number of rings (size 3 to 8) (size 9 to 14) (size 15 to 20)
#    0.000    1.500    3.750    0.750    3.500    3.500 
#    2.250    3.125    0.000    0.000    0.000    0.000 
#    0.000    0.000    0.000    0.000    0.000    0.000 
#
# Total GULP energy -89331.682498 kJ/mol
# GULP energy per Si atom -5583.230156 kJ/mol
# Density = 2.260818 g / cm^3
# Si number density = 22.659757 Si / 1000 Ang^3
#
#
#
# Elastic Constant Matrix: (Units=GPa)
#
#
# Indices 1 2 3 4 5 6 
#
# 1 122.5619 35.6747 20.9897 -9.6133 -16.4479 -19.4886
# 2 35.6747 83.2812 23.8761 -23.3932 -1.9461 -20.5678
# 3 20.9897 23.8761 121.2698 -25.3542 0.4962 -9.4743
# 4 -9.6133 -23.3932 -25.3542 31.8155 -6.0219 -9.4852
# 5 -16.4479 -1.9461 0.4962 -6.0219 32.6734 -5.5861
# 6 -19.4886 -20.5678 -9.4743 -9.4852 -5.5861 30.4417
#
#
#
# Elastic Compliance Matrix: (Units=1/GPa)
#
#
# Indices 1 2 3 4 5 6 
#
# 1 0.012559 0.002716 0.001594 0.014431 0.012039 0.017077
# 2 0.002716 0.034644 0.006493 0.049071 0.020271 0.046176
# 3 0.001594 0.006493 0.012688 0.022201 0.008125 0.017765
# 4 0.014431 0.049071 0.022201 0.128493 0.050387 0.098586
# 5 0.012039 0.020271 0.008125 0.050387 0.055556 0.049826
# 6 0.017077 0.046176 0.017765 0.098586 0.049826 0.120370
#
#
# Mechanical properties :
#
#
# Convention : Reuss Voigt Hill
#
# Bulk Modulus (GPa) = 12.27055 54.24375 33.25715
# Shear Modulus (GPa) = 13.51824 35.42430 24.47127
#
# Velocity S-wave (km/s) = 2.44514 3.95817 3.28982
# Velocity P-wave (km/s) = 3.66039 6.69924 5.39807
#
# Compressibility (1/GPa) = 0.08149595
#
# Stress axis : x y z
#
# Youngs Moduli (GPa) = 79.62634 28.86496 78.81373
#
# Poissons Ratio (x) = -0.07839 -0.12560
# Poissons Ratio (y) = -0.21625 -0.51175
# Poissons Ratio (z) = -0.12690 -0.18742
#
# Static dielectric constant tensor:
#      x y z
#    x 1.887580 -0.031690 0.016340 
#    y -0.031690 1.894340 0.020620 
#    z 0.016340 0.020620 1.914420 
# 
# From -- ./inp_files/356504.got.cif
#   From: 2010.05.17/outbox.cif.g08.bks.cpg/sg2_179_cif.got.tgz:356504.got - 2010.06.03 11:33:40.
