data_PCOD9016442
_publ_section_title
;
Structure prediction by ZEFSAII (Michael W. Deem and Ramdas Pophale) SiO2 
 PCOD9016442
Probable space group: P -1
;
_chemical_formula_sum "Si O2"
_cell_formula_units_Z 16
_cell_length_a 19.267059
_cell_length_b 7.732995
_cell_length_c 16.657926
_cell_angle_alpha 129.947036
_cell_angle_beta 21.203200
_cell_angle_gamma 121.903828
_cell_volume 665.801590
_symmetry_space_group_name_H-M "P -1"
_symmetry_group_IT_number 2
_symmetry_cell_setting 'triclinic'
loop_
_space_group_symop_operation_xyz
x,y,z
-x,-y,-z
loop_
_atom_site_type_symbol
_atom_site_label
_atom_site_fract_x
_atom_site_fract_y
_atom_site_fract_z
Si Si1 0.900217 0.336147 0.615071
Si Si2 0.426072 0.986576 0.440201
Si Si3 0.955015 0.367994 0.340233
Si Si4 0.508376 0.528841 0.848400
Si Si5 0.551485 0.419727 0.251439
Si Si6 0.167218 0.367904 0.718069
Si Si7 0.759140 0.848536 0.153543
Si Si8 0.067587 0.929894 0.210485
O O1 0.000000 0.500000 0.500000
O O2 0.922698 0.447425 0.710492
O O3 0.004430 0.071050 0.403321
O O4 0.664568 0.374406 0.872810
O O5 0.481097 0.739425 0.263936
O O6 0.628120 0.005151 0.271675
O O7 0.315246 0.170231 0.551084
O O8 0.271676 0.017298 0.690121
O O9 0.729326 0.510668 0.633426
O O10 0.009452 0.140146 0.270825
O O11 0.024481 0.265519 0.147548
O O12 0.464501 0.652022 0.845740
O O13 0.325825 0.494677 0.548665
O O14 0.652672 0.635299 0.213729
O O15 0.703272 0.209351 0.071548
O O16 0.059272 0.250693 0.731673
O O17 0.000000 0.500000 0.000000
#
# Coordination Sequence:
#
# PCOD9016442 Si02
#       8
#     2   2   2   2   2   2   2   2
#     4  10  24  45  72 101 134 173 232 286 334 397
#     4  10  21  42  67  98 135 178 233 269 338 400
#     4  11  22  44  75  96 135 174 234 281 331 403
#     4  11  24  44  69 104 133 178 234 282 330 401
#     4  11  26  44  68  99 145 174 223 278 344 404
#     4  12  27  44  67 103 142 180 224 274 339 411
#     4  10  22  42  71  99 135 182 224 282 340 396
#     4  11  26  44  71 100 136 184 224 275 349 393
#
# _framework density 24.031182000000001
#
# number of rings (size 3 to 8) (size 9 to 14) (size 15 to 20)
#    0.000    1.250    3.750    1.500    5.250    9.000 
#    0.000    1.250    0.000    0.000    0.000    0.000 
#    0.000    0.000    0.000    0.000    0.000    0.000 
#
# Total GULP energy -89409.148749 kJ/mol
# GULP energy per Si atom -5588.071797 kJ/mol
# Density = 2.397649 g / cm^3
# Si number density = 24.031182 Si / 1000 Ang^3
#
#
#
# Elastic Constant Matrix: (Units=GPa)
#
#
# Indices 1 2 3 4 5 6 
#
# 1 53.4561 26.2418 20.9779 0.6286 -21.1870 -4.7195
# 2 26.2418 61.9263 36.7769 0.8221 -10.2718 8.5793
# 3 20.9779 36.7769 177.4666 -16.9436 -7.4379 7.6402
# 4 0.6286 0.8221 -16.9436 33.0076 3.0548 2.6275
# 5 -21.1870 -10.2718 -7.4379 3.0548 44.0709 7.6534
# 6 -4.7195 8.5793 7.6402 2.6275 7.6534 30.9818
#
#
#
# Elastic Compliance Matrix: (Units=1/GPa)
#
#
# Indices 1 2 3 4 5 6 
#
# 1 0.029023 -0.010494 -0.001262 -0.002332 0.010547 0.005230
# 2 -0.010494 0.023981 -0.003510 -0.001725 0.001386 -0.007570
# 3 -0.001262 -0.003510 0.006909 0.003780 -0.000318 -0.001166
# 4 -0.002332 -0.001725 0.003780 0.032803 -0.002649 -0.002937
# 5 0.010547 0.001386 -0.000318 -0.002649 0.029202 -0.005688
# 6 0.005230 -0.007570 -0.001166 -0.002937 -0.005688 0.037112
#
#
# Mechanical properties :
#
#
# Convention : Reuss Voigt Hill
#
# Bulk Modulus (GPa) = 34.03375 51.20467 42.61921
# Shear Modulus (GPa) = 25.08091 35.53555 30.30823
#
# Velocity S-wave (km/s) = 3.23411 3.84959 3.55520
# Velocity P-wave (km/s) = 5.30462 6.41194 5.88439
#
# Compressibility (1/GPa) = 0.02938260
#
# Stress axis : x y z
#
# Youngs Moduli (GPa) = 34.45546 41.69963 144.73459
#
# Poissons Ratio (x) = 0.43758 0.18264
# Poissons Ratio (y) = 0.36156 0.50801
# Poissons Ratio (z) = 0.04348 0.14636
#
# Static dielectric constant tensor:
#      x y z
#    x 2.014350 -0.038160 0.008220 
#    y -0.038160 1.949080 -0.047400 
#    z 0.008220 -0.047400 1.934560 
# 
# From -- ./inp_files/577402.got.cif
#   From: 2010.05.17/outbox.cif.g08.bks.cpg/sg2_289_cif.got.tgz:577402.got - 2010.06.03 11:33:40.
