data_PCOD9016244
_publ_section_title
;
Structure prediction by ZEFSAII (Michael W. Deem and Ramdas Pophale) SiO2 
 PCOD9016244
Probable space group: P -1
;
_chemical_formula_sum "Si O2"
_cell_formula_units_Z 12
_cell_length_a 6.392601
_cell_length_b 11.756747
_cell_length_c 14.531203
_cell_angle_alpha 27.280831
_cell_angle_beta 75.995252
_cell_angle_gamma 83.857615
_cell_volume 471.129500
_symmetry_space_group_name_H-M "P -1"
_symmetry_group_IT_number 2
_symmetry_cell_setting 'triclinic'
loop_
_space_group_symop_operation_xyz
x,y,z
-x,-y,-z
loop_
_atom_site_type_symbol
_atom_site_label
_atom_site_fract_x
_atom_site_fract_y
_atom_site_fract_z
Si Si1 0.241924 0.461268 0.500606
Si Si2 0.476000 0.152744 0.485786
Si Si3 0.753323 0.573089 0.800927
Si Si4 0.697602 0.789473 0.836426
Si Si5 0.650536 0.619135 0.249286
Si Si6 0.981103 0.102173 0.102875
O O1 0.400896 0.641714 0.280412
O O2 0.314499 0.502727 0.568996
O O3 0.000000 0.500000 0.500000
O O4 0.205991 0.160794 0.696496
O O5 0.250810 0.243612 0.418062
O O6 0.638747 0.414137 0.317238
O O7 0.500000 0.000000 0.500000
O O8 0.538827 0.965023 0.690217
O O9 0.827979 0.719447 0.783565
O O10 0.872780 0.345793 0.936890
O O11 0.489455 0.454547 0.932674
O O12 0.868575 0.891703 0.826316
O O13 0.842857 0.858892 0.028134
#
# Coordination Sequence:
#
# PCOD9016244 Si02
#       6
#     2   2   2   2   2   2
#     4  11  27  47  71 102 142 190 245 302 357 427
#     4  10  21  43  71 101 147 187 227 294 358 423
#     4  10  22  41  67 105 148 191 232 295 362 425
#     4  10  21  42  67 103 152 188 235 294 353 431
#     4  11  25  47  68 105 143 183 244 298 355 429
#     4  12  24  44  76 105 140 193 242 297 364 428
#
# _framework density 25.470707000000001
#
# number of rings (size 3 to 8) (size 9 to 14) (size 15 to 20)
#    0.000    1.333    1.667    3.000    2.333    2.000 
#    6.000    1.667    0.000    0.000    0.000    0.000 
#    0.000    0.000    0.000    0.000    0.000    0.000 
#
# Total GULP energy -66978.749428 kJ/mol
# GULP energy per Si atom -5581.562452 kJ/mol
# Density = 2.541273 g / cm^3
# Si number density = 25.470707 Si / 1000 Ang^3
#
#
#
# Elastic Constant Matrix: (Units=GPa)
#
#
# Indices 1 2 3 4 5 6 
#
# 1 99.4339 56.0721 44.8681 -1.0232 17.8231 -9.4588
# 2 56.0721 124.8668 38.9135 -0.9765 10.4472 20.9504
# 3 44.8681 38.9135 91.6111 10.5239 5.2628 -4.1088
# 4 -1.0232 -0.9765 10.5239 30.1673 -4.0728 2.6050
# 5 17.8231 10.4472 5.2628 -4.0728 57.8741 -1.5139
# 6 -9.4588 20.9504 -4.1088 2.6050 -1.5139 56.2363
#
#
#
# Elastic Compliance Matrix: (Units=1/GPa)
#
#
# Indices 1 2 3 4 5 6 
#
# 1 0.017307 -0.006592 -0.005423 0.001388 -0.003423 0.004814
# 2 -0.006592 0.012867 -0.002699 0.001656 -0.000092 -0.006179
# 3 -0.005423 -0.002699 0.015421 -0.005727 0.000391 0.001496
# 4 0.001388 0.001656 -0.005727 0.035758 0.002248 -0.002398
# 5 -0.003423 -0.000092 0.000391 0.002248 0.018469 -0.000120
# 6 0.004814 -0.006179 0.001496 -0.002398 -0.000120 0.021111
#
#
# Mechanical properties :
#
#
# Convention : Reuss Voigt Hill
#
# Bulk Modulus (GPa) = 61.85615 66.17991 64.01803
# Shear Modulus (GPa) = 32.10246 40.59273 36.34760
#
# Velocity S-wave (km/s) = 3.55402 3.99645 3.78171
# Velocity P-wave (km/s) = 6.41711 6.88002 6.65259
#
# Compressibility (1/GPa) = 0.01616654
#
# Stress axis : x y z
#
# Youngs Moduli (GPa) = 57.77845 77.71621 64.84762
#
# Poissons Ratio (x) = 0.51234 0.35168
# Poissons Ratio (y) = 0.38090 0.17502
# Poissons Ratio (z) = 0.31335 0.20975
#
# Static dielectric constant tensor:
#      x y z
#    x 2.292980 0.072180 -0.121670 
#    y 0.072180 2.065270 0.001020 
#    z -0.121670 0.001020 2.136030 
# 
# From -- ./inp_files/77636.got.cif
#   From: 2010.05.17/outbox.cif.g08.bks.cpg/sg2_39_cif.got.tgz:77636.got - 2010.06.03 11:33:40.
