data_PCOD9016326
_publ_section_title
;
Structure prediction by ZEFSAII (Michael W. Deem and Ramdas Pophale) SiO2 
 PCOD9016326
Probable space group: P -1
;
_chemical_formula_sum "Si O2"
_cell_formula_units_Z 12
_cell_length_a 11.584799
_cell_length_b 8.617316
_cell_length_c 7.691976
_cell_angle_alpha 56.446900
_cell_angle_beta 46.992289
_cell_angle_gamma 79.648784
_cell_volume 442.753822
_symmetry_space_group_name_H-M "P -1"
_symmetry_group_IT_number 2
_symmetry_cell_setting 'triclinic'
loop_
_space_group_symop_operation_xyz
x,y,z
-x,-y,-z
loop_
_atom_site_type_symbol
_atom_site_label
_atom_site_fract_x
_atom_site_fract_y
_atom_site_fract_z
Si Si1 0.802654 0.866453 0.678001
Si Si2 0.067967 0.843446 0.926676
Si Si3 0.547965 0.283972 0.406850
Si Si4 0.460061 0.835276 0.904233
Si Si5 0.236289 0.373002 0.814086
Si Si6 0.100592 0.717098 0.321012
O O1 0.949469 0.783358 0.511310
O O2 0.843972 0.062812 0.398429
O O3 0.812604 0.828006 0.895456
O O4 0.603740 0.782323 0.896507
O O5 0.173770 0.811882 0.998607
O O6 0.916204 0.654371 0.142234
O O7 0.000000 0.000000 0.000000
O O8 0.541791 0.265102 0.218155
O O9 0.398002 0.368414 0.550128
O O10 0.712647 0.441833 0.223675
O O11 0.508163 0.069995 0.671312
O O12 0.272628 0.759636 0.223981
O O13 0.000000 0.500000 0.500000
#
# Coordination Sequence:
#
# PCOD9016326 Si02
#       6
#     2   2   2   2   2   2
#     4  11  24  42  71 102 138 182 224 284 343 406
#     4  10  21  42  67  93 136 181 219 276 340 400
#     4  10  22  41  67  99 139 182 229 284 335 405
#     4  11  23  46  70  97 138 185 228 273 349 413
#     4  11  23  41  69 107 139 177 235 285 338 403
#     4  11  24  43  72 103 132 180 234 280 339 414
#
# _framework density 27.103099
#
# number of rings (size 3 to 8) (size 9 to 14) (size 15 to 20)
#    0.000    1.333    0.000    7.500    0.000    6.000 
#    0.000   12.500    0.000    0.000    0.000    0.000 
#    0.000    0.000    0.000    0.000    0.000    0.000 
#
# Total GULP energy -67075.983594 kJ/mol
# GULP energy per Si atom -5589.665299 kJ/mol
# Density = 2.704141 g / cm^3
# Si number density = 27.103099 Si / 1000 Ang^3
#
#
#
# Elastic Constant Matrix: (Units=GPa)
#
#
# Indices 1 2 3 4 5 6 
#
# 1 152.3678 18.6081 46.4719 21.0095 -48.2245 4.4303
# 2 18.6081 84.5439 11.8255 0.7559 -18.6240 17.5223
# 3 46.4719 11.8255 98.0412 -4.5159 -11.7779 -8.5993
# 4 21.0095 0.7559 -4.5159 41.1836 1.0973 -7.8431
# 5 -48.2245 -18.6240 -11.7779 1.0973 55.4720 7.0920
# 6 4.4303 17.5223 -8.5993 -7.8431 7.0920 35.0863
#
#
#
# Elastic Compliance Matrix: (Units=1/GPa)
#
#
# Indices 1 2 3 4 5 6 
#
# 1 0.014243 0.002926 -0.006844 -0.010322 0.013388 -0.009951
# 2 0.002926 0.016208 -0.003563 -0.004739 0.008882 -0.012192
# 3 -0.006844 -0.003563 0.014320 0.006944 -0.005367 0.008790
# 4 -0.010322 -0.004739 0.006944 0.033612 -0.011705 0.015252
# 5 0.013388 0.008882 -0.005367 -0.011705 0.033902 -0.016910
# 6 -0.009951 -0.012192 0.008790 0.015252 -0.016910 0.044828
#
#
# Mechanical properties :
#
#
# Convention : Reuss Voigt Hill
#
# Bulk Modulus (GPa) = 33.54611 54.30708 43.92660
# Shear Modulus (GPa) = 27.47100 43.55153 35.51127
#
# Velocity S-wave (km/s) = 3.18712 4.01294 3.62364
# Velocity P-wave (km/s) = 5.09389 6.44611 5.80948
#
# Compressibility (1/GPa) = 0.02980971
#
# Stress axis : x y z
#
# Youngs Moduli (GPa) = 70.21033 61.69724 69.83365
#
# Poissons Ratio (x) = -0.18054 0.47795
# Poissons Ratio (y) = -0.20545 0.24880
# Poissons Ratio (z) = 0.48052 0.21981
#
# Static dielectric constant tensor:
#      x y z
#    x 2.033590 -0.028920 -0.042210 
#    y -0.028920 2.151530 -0.046680 
#    z -0.042210 -0.046680 2.141220 
# 
# From -- ./inp_files/294668.got.cif
#   From: 2010.05.17/outbox.cif.g08.bks.cpg/sg2_148_cif.got.tgz:294668.got - 2010.06.03 11:33:40.
