data_PCOD9016871
_publ_section_title
;
Structure prediction by ZEFSAII (Michael W. Deem and Ramdas Pophale) SiO2 
 PCOD9016871
Probable space group: P -1
;
_chemical_formula_sum "Si O2"
_cell_formula_units_Z 14
_cell_length_a 11.507250
_cell_length_b 9.131492
_cell_length_c 12.288980
_cell_angle_alpha 80.594709
_cell_angle_beta 147.607902
_cell_angle_gamma 79.130472
_cell_volume 536.596706
_symmetry_space_group_name_H-M "P -1"
_symmetry_group_IT_number 2
_symmetry_cell_setting 'triclinic'
loop_
_space_group_symop_operation_xyz
x,y,z
-x,-y,-z
loop_
_atom_site_type_symbol
_atom_site_label
_atom_site_fract_x
_atom_site_fract_y
_atom_site_fract_z
Si Si1 0.928624 0.727756 0.656577
Si Si2 0.697904 0.370207 0.769925
Si Si3 0.672414 0.283178 0.448611
Si Si4 0.538206 0.642151 0.948474
Si Si5 0.266972 0.279386 0.714061
Si Si6 0.169086 0.912881 0.944529
Si Si7 0.695853 0.775072 0.685438
O O1 0.854023 0.783987 0.463635
O O2 0.735937 0.729149 0.593509
O O3 0.183148 0.507678 0.878532
O O4 0.004868 0.851514 0.757719
O O5 0.500000 0.500000 0.500000
O O6 0.488489 0.495423 0.689315
O O7 0.793294 0.163294 0.894875
O O8 0.991958 0.331142 0.009949
O O9 0.470903 0.263003 0.362277
O O10 0.687047 0.243790 0.337171
O O11 0.976300 0.138266 0.755981
O O12 0.591459 0.764534 0.049606
O O13 0.500000 0.500000 0.000000
O O14 0.000000 0.500000 0.500000
O O15 0.541229 0.197124 0.871457
O O16 0.500000 0.000000 0.500000
#
# Coordination Sequence:
#
# PCOD9016871 Si02
#       7
#     2   2   2   2   2   2   2
#     4  10  21  42  69  97 136 181 227 293 349 421
#     4  11  25  41  66 103 140 186 228 291 352 425
#     4  12  24  42  73  98 137 197 229 285 372 417
#     4  11  21  43  70  95 137 185 237 288 349 417
#     4  10  23  39  72  98 129 189 231 294 352 408
#     4  11  23  46  67 100 143 180 236 292 355 424
#     4  11  22  44  70 101 144 182 236 288 357 440
#
# _framework density 26.09036
#
# number of rings (size 3 to 8) (size 9 to 14) (size 15 to 20)
#    0.000    1.143    7.143    0.429    2.000    3.429 
#    0.000    0.714    0.000    0.000    0.000    0.000 
#    0.000    0.000    0.000    0.000    0.000    0.000 
#
# Total GULP energy -77998.968578 kJ/mol
# GULP energy per Si atom -5571.354898 kJ/mol
# Density = 2.603098 g / cm^3
# Si number density = 26.090360 Si / 1000 Ang^3
#
#
#
# Elastic Constant Matrix: (Units=GPa)
#
#
# Indices 1 2 3 4 5 6 
#
# 1 110.7178 22.9569 43.3957 -18.5261 18.7669 -23.9182
# 2 22.9569 46.8369 42.1710 4.8460 -6.7018 -20.4391
# 3 43.3957 42.1710 152.5252 -9.4950 -1.2360 -4.0628
# 4 -18.5261 4.8460 -9.4950 52.5849 -11.3830 -6.7661
# 5 18.7669 -6.7018 -1.2360 -11.3830 52.0098 3.6031
# 6 -23.9182 -20.4391 -4.0628 -6.7661 3.6031 33.2577
#
#
#
# Elastic Compliance Matrix: (Units=1/GPa)
#
#
# Indices 1 2 3 4 5 6 
#
# 1 0.014640 -0.000199 -0.003539 0.004913 -0.005116 0.011528
# 2 -0.000199 0.042667 -0.011219 -0.002270 0.003150 0.023905
# 3 -0.003539 -0.011219 0.010508 0.000823 0.000821 -0.008078
# 4 0.004913 -0.002270 0.000823 0.022472 0.002419 0.006548
# 5 -0.005116 0.003150 0.000821 0.002419 0.022275 -0.003564
# 6 0.011528 0.023905 -0.008078 0.006548 -0.003564 0.053781
#
#
# Mechanical properties :
#
#
# Convention : Reuss Voigt Hill
#
# Bulk Modulus (GPa) = 26.38483 58.56966 42.47725
# Shear Modulus (GPa) = 23.93596 41.00758 32.47177
#
# Velocity S-wave (km/s) = 3.03219 3.96883 3.53170
# Velocity P-wave (km/s) = 4.73220 6.59543 5.73992
#
# Compressibility (1/GPa) = 0.03790056
#
# Stress axis : x y z
#
# Youngs Moduli (GPa) = 68.30718 23.43704 95.16756
#
# Poissons Ratio (x) = 0.00467 0.33677
# Poissons Ratio (y) = 0.01361 1.06771
# Poissons Ratio (z) = 0.24172 0.26295
#
# Static dielectric constant tensor:
#      x y z
#    x 2.063170 0.058740 -0.046500 
#    y 0.058740 2.212900 0.107130 
#    z -0.046500 0.107130 2.154670 
# 
# From -- ./inp_files/425830.got.cif
#   From: 2010.05.17/outbox.cif.g08.bks.cpg/sg2_213_cif.got.tgz:425830.got - 2010.06.03 11:33:40.
