data_PCOD9016338
_publ_section_title
;
Structure prediction by ZEFSAII (Michael W. Deem and Ramdas Pophale) SiO2 
 PCOD9016338
Probable space group: P -1
;
_chemical_formula_sum "Si O2"
_cell_formula_units_Z 16
_cell_length_a 8.401842
_cell_length_b 15.922941
_cell_length_c 13.010180
_cell_angle_alpha 26.973055
_cell_angle_beta 81.264316
_cell_angle_gamma 92.388312
_cell_volume 716.884392
_symmetry_space_group_name_H-M "P -1"
_symmetry_group_IT_number 2
_symmetry_cell_setting 'triclinic'
loop_
_space_group_symop_operation_xyz
x,y,z
-x,-y,-z
loop_
_atom_site_type_symbol
_atom_site_label
_atom_site_fract_x
_atom_site_fract_y
_atom_site_fract_z
Si Si1 0.977847 0.208814 0.576702
Si Si2 0.289222 0.894655 0.647791
Si Si3 0.699161 0.500785 0.881976
Si Si4 0.226332 0.891015 0.090122
Si Si5 0.299921 0.273587 0.160340
Si Si6 0.076064 0.848257 0.924671
Si Si7 0.209663 0.526346 0.731295
Si Si8 0.519216 0.318462 0.634705
O O1 0.168846 0.377906 0.351007
O O2 0.925852 0.187100 0.724765
O O3 0.842821 0.285513 0.448943
O O4 0.976849 0.999728 0.764055
O O5 0.219896 0.901469 0.762277
O O6 0.500000 0.000000 0.500000
O O7 0.223849 0.031787 0.432244
O O8 0.237762 0.658579 0.893575
O O9 0.694984 0.657639 0.797021
O O10 0.504667 0.371323 0.001514
O O11 0.349008 0.766752 0.229849
O O12 0.160694 0.872420 0.001457
O O13 0.339882 0.124621 0.850645
O O14 0.205093 0.383816 0.981850
O O15 0.937095 0.621892 0.168965
O O16 0.393556 0.605687 0.567690
O O17 0.500000 0.500000 0.500000
#
# Coordination Sequence:
#
# PCOD9016338 Si02
#       8
#     2   2   2   2   2   2   2   2
#     4  11  23  43  66  99 131 171 223 270 327 396
#     4  10  22  41  64  95 130 168 227 267 320 391
#     4  10  21  42  67  94 128 172 229 265 329 392
#     4  10  25  43  70  99 135 173 219 271 330 391
#     4  10  23  42  66  92 130 179 215 276 327 386
#     4  12  24  43  66  99 134 178 216 274 327 391
#     4  11  26  42  65 101 134 170 225 267 332 395
#     4  10  23  45  68  99 134 173 220 271 328 393
#
# _framework density 22.3188
#
# number of rings (size 3 to 8) (size 9 to 14) (size 15 to 20)
#    0.000    1.500    2.500    1.125    1.750    7.000 
#    0.000    0.000    0.000    0.000    0.000    0.000 
#    0.000    0.000    0.000    0.000    0.000    0.000 
#
# Total GULP energy -89456.091888 kJ/mol
# GULP energy per Si atom -5591.005743 kJ/mol
# Density = 2.226800 g / cm^3
# Si number density = 22.318800 Si / 1000 Ang^3
#
#
#
# Elastic Constant Matrix: (Units=GPa)
#
#
# Indices 1 2 3 4 5 6 
#
# 1 55.8620 31.2054 33.1641 10.1378 -6.3102 -16.1527
# 2 31.2054 48.3861 34.3881 -4.3595 -9.5140 -15.5719
# 3 33.1641 34.3881 131.5763 1.1614 -11.5823 -11.1224
# 4 10.1378 -4.3595 1.1614 41.2340 -15.5036 2.1943
# 5 -6.3102 -9.5140 -11.5823 -15.5036 45.7286 6.2928
# 6 -16.1527 -15.5719 -11.1224 2.1943 6.2928 32.0817
#
#
#
# Elastic Compliance Matrix: (Units=1/GPa)
#
#
# Indices 1 2 3 4 5 6 
#
# 1 0.035398 -0.019890 -0.003357 -0.013413 -0.005901 0.009079
# 2 -0.019890 0.041452 -0.004713 0.012066 0.007939 0.006089
# 3 -0.003357 -0.004713 0.009714 0.000610 0.001349 -0.000917
# 4 -0.013413 0.012066 0.000610 0.034040 0.013124 -0.005588
# 5 -0.005901 0.007939 0.001349 0.013124 0.028196 -0.005078
# 6 0.009079 0.006089 -0.000917 -0.005588 -0.005078 0.039758
#
#
# Mechanical properties :
#
#
# Convention : Reuss Voigt Hill
#
# Bulk Modulus (GPa) = 32.63365 48.14885 40.39125
# Shear Modulus (GPa) = 19.63143 32.94662 26.28903
#
# Velocity S-wave (km/s) = 2.96901 3.84628 3.43576
# Velocity P-wave (km/s) = 5.13874 6.43002 5.82031
#
# Compressibility (1/GPa) = 0.03064322
#
# Stress axis : x y z
#
# Youngs Moduli (GPa) = 28.25000 24.12416 102.94237
#
# Poissons Ratio (x) = 0.47983 0.34562
# Poissons Ratio (y) = 0.56189 0.48521
# Poissons Ratio (z) = 0.09485 0.11371
#
# Static dielectric constant tensor:
#      x y z
#    x 1.864750 -0.019560 0.032840 
#    y -0.019560 1.768220 0.000250 
#    z 0.032840 0.000250 1.818950 
# 
# From -- ./inp_files/398131.got.cif
#   From: 2010.05.17/outbox.cif.g08.bks.cpg/sg2_200_cif.got.tgz:398131.got - 2010.06.03 11:33:40.
