data_PCOD9016738
_publ_section_title
;
Structure prediction by ZEFSAII (Michael W. Deem and Ramdas Pophale) SiO2 
 PCOD9016738
Probable space group: P -1
;
_chemical_formula_sum "Si O2"
_cell_formula_units_Z 13
_cell_length_a 10.137948
_cell_length_b 10.173600
_cell_length_c 10.387596
_cell_angle_alpha 120.927321
_cell_angle_beta 37.539246
_cell_angle_gamma 95.921975
_cell_volume 455.244784
_symmetry_space_group_name_H-M "P -1"
_symmetry_group_IT_number 2
_symmetry_cell_setting 'triclinic'
loop_
_space_group_symop_operation_xyz
x,y,z
-x,-y,-z
loop_
_atom_site_type_symbol
_atom_site_label
_atom_site_fract_x
_atom_site_fract_y
_atom_site_fract_z
Si Si1 0.193764 0.561763 0.841953
Si Si2 0.000000 0.500000 0.500000
Si Si3 0.376458 0.293990 0.337235
Si Si4 0.750734 0.919710 0.962959
Si Si5 0.820950 0.374497 0.831676
Si Si6 0.582683 0.221872 0.764691
Si Si7 0.781570 0.973957 0.254146
O O1 0.380311 0.411387 0.512476
O O2 0.297996 0.571222 0.905552
O O3 0.000000 0.500000 0.000000
O O4 0.009811 0.766943 0.024071
O O5 0.739586 0.597697 0.651328
O O6 0.955922 0.706789 0.653162
O O7 0.130916 0.280635 0.556991
O O8 0.645399 0.085502 0.025598
O O9 0.504272 0.907277 0.183637
O O10 0.810292 0.981405 0.082494
O O11 0.747653 0.252348 0.752347
O O12 0.696941 0.570322 0.943702
O O13 0.736887 0.132332 0.466661
O O14 0.500000 0.000000 0.500000
#
# Coordination Sequence:
#
# PCOD9016738 Si02
#       7
#     2   1   2   2   2   2   2
#     4  10  17  30  51  80 114 136 177 230 275 328
#     4  12  22  40  54  82 110 148 198 222 264 322
#     4  11  21  36  58  83 111 147 186 229 273 326
#     4  11  21  36  58  83 111 147 186 229 273 326
#     4  10  19  33  55  87 118 143 175 232 289 329
#     4  10  19  33  55  87 118 143 175 232 289 329
#     4  10  17  30  51  80 114 136 177 230 275 328
#
# _framework density 28.556068
#
# number of rings (size 3 to 8) (size 9 to 14) (size 15 to 20)
#    0.000    1.538    3.077    7.846    0.000    2.462 
#    0.000    0.000    0.000    1.846    0.000    0.000 
#    0.000    0.000    0.000    0.000    0.000    0.000 
#
# Total GULP energy -72780.042290 kJ/mol
# GULP energy per Si atom -5598.464792 kJ/mol
# Density = 2.849107 g / cm^3
# Si number density = 28.556068 Si / 1000 Ang^3
#
#
#
# Elastic Constant Matrix: (Units=GPa)
#
#
# Indices 1 2 3 4 5 6 
#
# 1 240.3475 51.3916 79.7154 29.9480 50.7100 -16.7853
# 2 51.3916 116.0449 52.3236 19.6771 -5.4393 -29.1815
# 3 79.7154 52.3236 198.1039 43.8722 10.2966 -26.3139
# 4 29.9480 19.6771 43.8722 70.2253 -10.3118 -17.0746
# 5 50.7100 -5.4393 10.2966 -10.3118 62.9616 7.2891
# 6 -16.7853 -29.1815 -26.3139 -17.0746 7.2891 59.5282
#
#
#
# Elastic Compliance Matrix: (Units=1/GPa)
#
#
# Indices 1 2 3 4 5 6 
#
# 1 0.006502 -0.002141 -0.001244 -0.002145 -0.005605 0.000305
# 2 -0.002141 0.011469 -0.001816 0.000173 0.002583 0.003949
# 3 -0.001244 -0.001816 0.006913 -0.003167 -0.000922 0.001019
# 4 -0.002145 0.000173 -0.003167 0.018488 0.004967 0.002775
# 5 -0.005605 0.002583 -0.000922 0.004967 0.021812 -0.001968
# 6 0.000305 0.003949 0.001019 0.002775 -0.001968 0.020308
#
#
# Mechanical properties :
#
#
# Convention : Reuss Voigt Hill
#
# Bulk Modulus (GPa) = 69.05048 102.37306 85.71177
# Shear Modulus (GPa) = 49.64154 63.28073 56.46114
#
# Velocity S-wave (km/s) = 4.17392 4.71257 4.45140
# Velocity P-wave (km/s) = 6.88927 8.09560 7.51667
#
# Compressibility (1/GPa) = 0.01448216
#
# Stress axis : x y z
#
# Youngs Moduli (GPa) = 153.79495 87.19135 144.66066
#
# Poissons Ratio (x) = 0.18667 0.17998
# Poissons Ratio (y) = 0.32926 0.26268
# Poissons Ratio (z) = 0.19135 0.15832
#
# Static dielectric constant tensor:
#      x y z
#    x 2.246860 0.093320 0.024160 
#    y 0.093320 1.943340 0.132930 
#    z 0.024160 0.132930 1.951390 
# 
# From -- ./inp_files/195013.got.cif
#   From: 2010.05.17/outbox.cif.g08.bks.cpg/sg2_98_cif.got.tgz:195013.got - 2010.06.03 11:33:40.
