data_PCOD9016001
_publ_section_title
;
Structure prediction by ZEFSAII (Michael W. Deem and Ramdas Pophale) SiO2 
 PCOD9016001
Probable space group: P -1
;
_chemical_formula_sum "Si O2"
_cell_formula_units_Z 16
_cell_length_a 9.682136
_cell_length_b 9.280125
_cell_length_c 14.750106
_cell_angle_alpha 70.388813
_cell_angle_beta 94.079265
_cell_angle_gamma 44.998440
_cell_volume 782.380790
_symmetry_space_group_name_H-M "P -1"
_symmetry_group_IT_number 2
_symmetry_cell_setting 'triclinic'
loop_
_space_group_symop_operation_xyz
x,y,z
-x,-y,-z
loop_
_atom_site_type_symbol
_atom_site_label
_atom_site_fract_x
_atom_site_fract_y
_atom_site_fract_z
Si Si1 0.302986 0.382647 0.078174
Si Si2 0.130275 0.849449 0.947276
Si Si3 0.914234 0.911688 0.747444
Si Si4 0.561063 0.556357 0.408122
Si Si5 0.224596 0.088582 0.804776
Si Si6 0.176208 0.869785 0.615411
Si Si7 0.899319 0.572631 0.121027
Si Si8 0.001785 0.320910 0.561272
O O1 0.091450 0.510110 0.098182
O O2 0.531375 0.122522 0.181774
O O3 0.306122 0.564605 0.036481
O O4 0.262714 0.346605 0.983432
O O5 0.974589 0.902255 0.854918
O O6 0.206667 0.942409 0.887000
O O7 0.000000 0.000000 0.000000
O O8 0.059190 0.898144 0.692423
O O9 0.990369 0.674740 0.781865
O O10 0.653867 0.155893 0.674556
O O11 0.500000 0.500000 0.500000
O O12 0.618031 0.405565 0.353330
O O13 0.777298 0.455942 0.475494
O O14 0.210580 0.235090 0.846286
O O15 0.035827 0.270943 0.681621
O O16 0.000000 0.000000 0.500000
O O17 0.189636 0.041340 0.591814
O O18 0.000000 0.500000 0.500000
#
# Coordination Sequence:
#
# PCOD9016001 Si02
#       8
#     2   2   2   2   2   2   2   2
#     4  10  23  43  64  92 127 170 213 259 327 390
#     4  11  22  44  65  97 134 165 221 275 315 395
#     4  11  23  43  66  94 129 176 218 263 327 388
#     4  11  22  44  70  91 125 181 225 257 326 402
#     4  12  23  43  66  91 132 170 208 272 339 368
#     4  10  21  42  66  89 130 172 222 267 312 397
#     4  10  24  41  64  94 128 162 217 266 311 400
#     4  11  26  43  63 102 135 161 221 279 320 390
#
# _framework density 20.450400999999999
#
# number of rings (size 3 to 8) (size 9 to 14) (size 15 to 20)
#    0.000    1.250    5.000    0.750    5.250    1.000 
#    6.750    1.250    0.000    0.000    0.000    0.000 
#    0.000    0.000    0.000    0.000    0.000    0.000 
#
# Total GULP energy -89284.324787 kJ/mol
# GULP energy per Si atom -5580.270299 kJ/mol
# Density = 2.040385 g / cm^3
# Si number density = 20.450401 Si / 1000 Ang^3
#
#
#
# Elastic Constant Matrix: (Units=GPa)
#
#
# Indices 1 2 3 4 5 6 
#
# 1 77.1921 52.1868 11.4587 -13.2595 -15.8561 23.3366
# 2 52.1868 137.3609 54.5713 -7.5649 1.4518 20.5005
# 3 11.4587 54.5713 64.7853 -9.4666 -6.8258 3.7298
# 4 -13.2595 -7.5649 -9.4666 39.6443 -0.2208 -2.9481
# 5 -15.8561 1.4518 -6.8258 -0.2208 28.3781 -7.0531
# 6 23.3366 20.5005 3.7298 -2.9481 -7.0531 35.4924
#
#
#
# Elastic Compliance Matrix: (Units=1/GPa)
#
#
# Indices 1 2 3 4 5 6 
#
# 1 0.027106 -0.012465 0.009069 0.008372 0.016122 -0.007677
# 2 -0.012465 0.018461 -0.015122 -0.004606 -0.012514 -0.003748
# 3 0.009069 -0.015122 0.028902 0.007352 0.013608 0.003049
# 4 0.008372 -0.004606 0.007352 0.028952 0.006949 0.000169
# 5 0.016122 -0.012514 0.013608 0.006949 0.049614 0.005634
# 6 -0.007677 -0.003748 0.003049 0.000169 0.005634 0.036200
#
#
# Mechanical properties :
#
#
# Convention : Reuss Voigt Hill
#
# Bulk Modulus (GPa) = 26.71358 57.30799 42.01079
# Shear Modulus (GPa) = 20.94253 31.44440 26.19346
#
# Velocity S-wave (km/s) = 3.20357 3.92547 3.58275
# Velocity P-wave (km/s) = 5.17444 6.97349 6.14021
#
# Compressibility (1/GPa) = 0.03743414
#
# Stress axis : x y z
#
# Youngs Moduli (GPa) = 36.89236 54.16700 34.60012
#
# Poissons Ratio (x) = 0.67519 -0.31380
# Poissons Ratio (y) = 0.45986 0.52322
# Poissons Ratio (z) = -0.33459 0.81910
#
# Static dielectric constant tensor:
#      x y z
#    x 1.292170 0.483730 -0.547090 
#    y 0.483730 1.221700 0.574680 
#    z -0.547090 0.574680 1.079480 
# 
# From -- ./inp_files/81192.got.cif
#   From: 2010.05.17/outbox.cif.g08.bks.cpg/sg2_41_cif.got.tgz:81192.got - 2010.06.03 11:33:40.
