data_PCOD9016933
_publ_section_title
;
Structure prediction by ZEFSAII (Michael W. Deem and Ramdas Pophale) SiO2 
 PCOD9016933
Probable space group: P -1
;
_chemical_formula_sum "Si O2"
_cell_formula_units_Z 16
_cell_length_a 15.697640
_cell_length_b 8.332718
_cell_length_c 18.346533
_cell_angle_alpha 113.254977
_cell_angle_beta 23.613515
_cell_angle_gamma 126.068107
_cell_volume 695.194078
_symmetry_space_group_name_H-M "P -1"
_symmetry_group_IT_number 2
_symmetry_cell_setting 'triclinic'
loop_
_space_group_symop_operation_xyz
x,y,z
-x,-y,-z
loop_
_atom_site_type_symbol
_atom_site_label
_atom_site_fract_x
_atom_site_fract_y
_atom_site_fract_z
Si Si1 0.771752 0.603636 0.875115
Si Si2 0.069137 0.591182 0.880543
Si Si3 0.645095 0.750820 0.450486
Si Si4 0.635200 0.155797 0.055644
Si Si5 0.724095 0.717293 0.696631
Si Si6 0.816294 0.108413 0.276602
Si Si7 0.844562 0.330407 0.657396
Si Si8 0.919783 0.008264 0.731025
O O1 0.761628 0.428242 0.800811
O O2 0.814077 0.795844 0.827270
O O3 0.022121 0.708885 0.753296
O O4 0.501181 0.491392 0.113983
O O5 0.392734 0.749172 0.657862
O O6 0.033359 0.754529 0.891410
O O7 0.899683 0.357703 0.926808
O O8 0.000000 0.500000 0.000000
O O9 0.500000 0.500000 0.500000
O O10 0.817211 0.913013 0.275802
O O11 0.799618 0.812910 0.416608
O O12 0.460403 0.239184 0.193322
O O13 0.412921 0.905803 0.214820
O O14 0.747283 0.098414 0.889589
O O15 0.906867 0.921633 0.646044
O O16 0.925857 0.685550 0.494680
O O17 0.500000 0.000000 0.500000
O O18 0.000000 0.500000 0.500000
#
# Coordination Sequence:
#
# PCOD9016933 Si02
#       8
#     2   2   2   2   2   2   2   2
#     4  11  22  44  71  98 137 190 231 289 356 426
#     4  11  24  44  68 100 144 184 238 304 360 423
#     4  10  21  42  70 101 133 186 241 286 351 438
#     4  12  25  43  67 101 143 182 234 293 361 426
#     4  12  24  43  68 104 142 178 234 288 358 422
#     4   9  21  42  72  97 134 187 237 288 355 429
#     4  12  26  43  67 104 143 186 236 290 354 432
#     4  11  22  40  72  98 135 185 235 282 356 430
#
# _framework density 23.015158
#
# number of rings (size 3 to 8) (size 9 to 14) (size 15 to 20)
#    0.000    1.000    5.000    1.875    1.750    1.000 
#    0.000    0.625    0.000    0.000    0.000    0.000 
#    0.000    0.000    0.000    0.000    0.000    0.000 
#
# Total GULP energy -89191.516139 kJ/mol
# GULP energy per Si atom -5574.469759 kJ/mol
# Density = 2.296277 g / cm^3
# Si number density = 23.015158 Si / 1000 Ang^3
#
#
#
# Elastic Constant Matrix: (Units=GPa)
#
#
# Indices 1 2 3 4 5 6 
#
# 1 85.2669 15.5578 14.2679 -10.6342 -9.3268 0.0339
# 2 15.5578 74.5633 12.4961 -18.3192 0.9107 4.8583
# 3 14.2679 12.4961 84.6717 -5.3089 -15.1132 8.1987
# 4 -10.6342 -18.3192 -5.3089 44.4950 -4.5310 -2.2875
# 5 -9.3268 0.9107 -15.1132 -4.5310 49.1614 -20.8088
# 6 0.0339 4.8583 8.1987 -2.2875 -20.8088 39.2640
#
#
#
# Elastic Compliance Matrix: (Units=1/GPa)
#
#
# Indices 1 2 3 4 5 6 
#
# 1 0.013020 -0.002058 -0.001367 0.002571 0.003368 0.002463
# 2 -0.002058 0.015625 -0.001696 0.005469 -0.001586 -0.002099
# 3 -0.001367 -0.001696 0.013047 0.000875 0.003637 -0.000535
# 4 0.002571 0.005469 0.000875 0.026033 0.004296 0.002932
# 5 0.003368 -0.001586 0.003637 0.004296 0.028865 0.014982
# 6 0.002463 -0.002099 -0.000535 0.002932 0.014982 0.033949
#
#
# Mechanical properties :
#
#
# Convention : Reuss Voigt Hill
#
# Bulk Modulus (GPa) = 31.79516 36.57173 34.18345
# Shear Modulus (GPa) = 33.05511 40.06276 36.55893
#
# Velocity S-wave (km/s) = 3.79388 4.17671 3.98989
# Velocity P-wave (km/s) = 5.74771 6.25976 6.00920
#
# Compressibility (1/GPa) = 0.03145132
#
# Stress axis : x y z
#
# Youngs Moduli (GPa) = 76.80469 64.00046 76.64754
#
# Poissons Ratio (x) = 0.13169 0.10474
# Poissons Ratio (y) = 0.15803 0.13000
# Poissons Ratio (z) = 0.10495 0.10855
#
# Static dielectric constant tensor:
#      x y z
#    x 2.001920 -0.112600 0.028340 
#    y -0.112600 1.901890 -0.006880 
#    z 0.028340 -0.006880 1.747940 
# 
# From -- ./inp_files/599506.got.cif
#   From: 2010.05.17/outbox.cif.g08.bks.cpg/sg2_300_cif.got.tgz:599506.got - 2010.06.03 11:33:40.
