data_PCOD9016743
_publ_section_title
;
Structure prediction by ZEFSAII (Michael W. Deem and Ramdas Pophale) SiO2 
 PCOD9016743
Probable space group: P -1
;
_chemical_formula_sum "Si O2"
_cell_formula_units_Z 16
_cell_length_a 8.312568
_cell_length_b 15.893239
_cell_length_c 14.033906
_cell_angle_alpha 31.134266
_cell_angle_beta 43.101580
_cell_angle_gamma 44.325511
_cell_volume 633.220527
_symmetry_space_group_name_H-M "P -1"
_symmetry_group_IT_number 2
_symmetry_cell_setting 'triclinic'
loop_
_space_group_symop_operation_xyz
x,y,z
-x,-y,-z
loop_
_atom_site_type_symbol
_atom_site_label
_atom_site_fract_x
_atom_site_fract_y
_atom_site_fract_z
Si Si1 0.534912 0.355461 0.040838
Si Si2 0.041704 0.308310 0.299117
Si Si3 0.723713 0.381605 0.725941
Si Si4 0.724955 0.909783 0.053539
Si Si5 0.188837 0.834792 0.621247
Si Si6 0.859938 0.040301 0.288797
Si Si7 0.333775 0.404622 0.722268
Si Si8 0.284739 0.240263 0.604177
O O1 0.271664 0.361119 0.108135
O O2 0.620234 0.165126 0.229580
O O3 0.500000 0.500000 0.000000
O O4 0.701442 0.363431 0.868574
O O5 0.857307 0.298802 0.303323
O O6 0.902242 0.454681 0.284334
O O7 0.117340 0.134899 0.496610
O O8 0.510230 0.330397 0.807916
O O9 0.689104 0.582171 0.537166
O O10 0.994646 0.287108 0.662144
O O11 0.761595 0.723163 0.177655
O O12 0.675903 0.901225 0.194060
O O13 0.945638 0.983718 0.855527
O O14 0.500000 0.000000 0.000000
O O15 0.090109 0.835551 0.769423
O O16 0.480414 0.821390 0.507925
O O17 0.000000 0.000000 0.500000
O O18 0.500000 0.500000 0.500000
#
# Coordination Sequence:
#
# PCOD9016743 Si02
#       8
#     2   2   2   2   2   2   2   2
#     4  12  26  45  70 107 144 192 239 298 367 433
#     4  11  25  44  74 101 142 183 243 302 354 430
#     4  11  25  43  70 102 145 185 242 290 365 428
#     4  12  24  44  73 103 142 183 236 298 360 435
#     4  10  21  42  69 103 135 187 233 291 354 417
#     4  11  24  45  69 103 142 188 238 296 365 422
#     4  12  24  44  70 104 138 189 243 295 360 429
#     4  11  22  46  70 100 148 184 230 295 356 436
#
# _framework density 25.267658999999998
#
# number of rings (size 3 to 8) (size 9 to 14) (size 15 to 20)
#    0.000    0.750    3.750    4.125    1.750    1.500 
#    0.000    3.125    0.000    0.000    0.000    0.000 
#    0.000    0.000    0.000    0.000    0.000    0.000 
#
# Total GULP energy -89362.569886 kJ/mol
# GULP energy per Si atom -5585.160618 kJ/mol
# Density = 2.521015 g / cm^3
# Si number density = 25.267659 Si / 1000 Ang^3
#
#
#
# Elastic Constant Matrix: (Units=GPa)
#
#
# Indices 1 2 3 4 5 6 
#
# 1 64.1341 19.6822 25.9704 5.2210 3.7504 -9.9912
# 2 19.6822 98.2811 6.8813 -2.6856 -10.7486 -19.0372
# 3 25.9704 6.8813 62.4230 5.5966 0.9280 0.5058
# 4 5.2210 -2.6856 5.5966 38.1581 -7.4198 -0.0224
# 5 3.7504 -10.7486 0.9280 -7.4198 34.2739 0.4545
# 6 -9.9912 -19.0372 0.5058 -0.0224 0.4545 46.9895
#
#
#
# Elastic Compliance Matrix: (Units=1/GPa)
#
#
# Indices 1 2 3 4 5 6 
#
# 1 0.020834 -0.003488 -0.008015 -0.002652 -0.003772 0.003138
# 2 -0.003488 0.012273 -0.000210 0.002283 0.004675 0.004189
# 3 -0.008015 -0.000210 0.019556 -0.001804 -0.000082 -0.002000
# 4 -0.002652 0.002283 -0.001804 0.028395 0.007198 0.000325
# 5 -0.003772 0.004675 -0.000082 0.007198 0.032606 0.000781
# 6 0.003138 0.004189 -0.002000 0.000325 0.000781 0.023660
#
#
# Mechanical properties :
#
#
# Convention : Reuss Voigt Hill
#
# Bulk Modulus (GPa) = 34.20233 36.65620 35.42927
# Shear Modulus (GPa) = 29.32637 35.37127 32.34882
#
# Velocity S-wave (km/s) = 3.41050 3.74553 3.58193
# Velocity P-wave (km/s) = 5.39203 5.76576 5.58203
#
# Compressibility (1/GPa) = 0.02923777
#
# Stress axis : x y z
#
# Youngs Moduli (GPa) = 47.99922 81.47804 51.13415
#
# Poissons Ratio (x) = 0.28422 0.40982
# Poissons Ratio (y) = 0.16743 0.01073
# Poissons Ratio (z) = 0.38470 0.01710
#
# Static dielectric constant tensor:
#      x y z
#    x 2.003650 -0.006620 0.012280 
#    y -0.006620 2.037900 -0.065600 
#    z 0.012280 -0.065600 2.013580 
# 
# From -- ./inp_files/507234.got.cif
#   From: 2010.05.17/outbox.cif.g08.bks.cpg/sg2_254_cif.got.tgz:507234.got - 2010.06.03 11:33:40.
