data_PCOD9016850
_publ_section_title
;
Structure prediction by ZEFSAII (Michael W. Deem and Ramdas Pophale) SiO2 
 PCOD9016850
Probable space group: P -1
;
_chemical_formula_sum "Si O2"
_cell_formula_units_Z 15
_cell_length_a 20.568653
_cell_length_b 15.092760
_cell_length_c 6.985992
_cell_angle_alpha 78.160745
_cell_angle_beta 80.200680
_cell_angle_gamma 18.240980
_cell_volume 662.242316
_symmetry_space_group_name_H-M "P -1"
_symmetry_group_IT_number 2
_symmetry_cell_setting 'triclinic'
loop_
_space_group_symop_operation_xyz
x,y,z
-x,-y,-z
loop_
_atom_site_type_symbol
_atom_site_label
_atom_site_fract_x
_atom_site_fract_y
_atom_site_fract_z
Si Si1 0.000000 0.500000 0.000000
Si Si2 0.242381 0.265179 0.638744
Si Si3 0.330116 0.958761 0.196221
Si Si4 0.968533 0.183289 0.431527
Si Si5 0.545796 0.332331 0.062908
Si Si6 0.112038 0.865144 0.204100
Si Si7 0.846319 0.887560 0.426915
Si Si8 0.465960 0.153312 0.675181
O O1 0.139373 0.326432 0.803882
O O2 0.905136 0.724620 0.901326
O O3 0.371258 0.175425 0.728992
O O4 0.057506 0.553622 0.479536
O O5 0.403328 0.017473 0.511311
O O6 0.393128 0.984379 0.167525
O O7 0.322933 0.940204 0.428939
O O8 0.450005 0.730509 0.108922
O O9 0.969663 0.103548 0.623768
O O10 0.733698 0.522345 0.374301
O O11 0.101688 0.090647 0.489255
O O12 0.058462 0.029981 0.256232
O O13 0.355788 0.540565 0.189525
O O14 0.755230 0.036548 0.204863
O O15 0.500000 0.500000 0.000000
O O16 0.000000 0.000000 0.000000
#
# Coordination Sequence:
#
# PCOD9016850 Si02
#       8
#     1   2   2   2   2   2   2   2
#     4  10  24  40  66 104 140 170 230 274 338 408
#     4   9  22  43  69 100 135 182 219 280 343 405
#     4  11  25  40  67  99 133 177 220 279 333 405
#     4  10  22  41  63  91 127 173 222 272 334 398
#     4  12  26  42  67 100 131 178 230 276 339 404
#     4  11  23  39  63  92 127 171 222 279 329 395
#     4  10  23  43  64  93 137 174 214 284 336 399
#     4  10  21  42  69  96 134 179 226 270 346 406
#
# _framework density 22.650317999999999
#
# number of rings (size 3 to 8) (size 9 to 14) (size 15 to 20)
#    0.000    1.600    0.000    3.200    5.600    5.867 
#    0.000    1.333    0.000    0.000    0.000    0.000 
#    0.000    0.000    0.000    0.000    0.000    0.000 
#
# Total GULP energy -83549.688408 kJ/mol
# GULP energy per Si atom -5569.979227 kJ/mol
# Density = 2.259877 g / cm^3
# Si number density = 22.650318 Si / 1000 Ang^3
#
#
#
# Elastic Constant Matrix: (Units=GPa)
#
#
# Indices 1 2 3 4 5 6 
#
# 1 -43.2955 -104.4427 -111.2849 70.5698 -31.8736 1.0950
# 2 -104.4427 -27.2366 -101.2997 71.3670 -28.8214 12.0689
# 3 -111.2849 -101.2997 -74.3223 59.6147 -46.5247 2.7536
# 4 70.5698 71.3670 59.6147 4.5273 28.3935 -0.2791
# 5 -31.8736 -28.8214 -46.5247 28.3935 19.8454 5.4259
# 6 1.0950 12.0689 2.7536 -0.2791 5.4259 28.6697
#
#
#
# Elastic Compliance Matrix: (Units=1/GPa)
#
#
# Indices 1 2 3 4 5 6 
#
# 1 0.011717 -0.002870 -0.007368 0.002382 -0.006790 0.002777
# 2 -0.002870 0.012478 -0.008585 0.000374 -0.006295 -0.003124
# 3 -0.007368 -0.008585 0.017767 0.011134 0.000834 0.002140
# 4 0.002382 0.000374 0.011134 0.020372 0.001720 -0.001445
# 5 -0.006790 -0.006295 0.000834 0.001720 0.030644 -0.002954
# 6 0.002777 -0.003124 0.002140 -0.001445 -0.002954 0.036428
#
#
# Mechanical properties :
#
#
# Convention : Reuss Voigt Hill
#
# Bulk Modulus (GPa) = 231.74229 -86.54545 72.59842
# Shear Modulus (GPa) = 29.67503 22.08666 25.88085
#
# Velocity S-wave (km/s) = 3.62351 3.12607 3.38394
# Velocity P-wave (km/s) = 10.95635 5.02619 6.88400
#
# Compressibility (1/GPa) = 0.00431514
#
# Stress axis : x y z
#
# Youngs Moduli (GPa) = 85.34549 80.13880 56.28550
#
# Poissons Ratio (x) = 0.23003 0.41470
# Poissons Ratio (y) = 0.24497 0.48322
# Poissons Ratio (z) = 0.62881 0.68801
#
# Static dielectric constant tensor:
#      x y z
#    x 1.037000 0.494260 -0.311330 
#    y 0.494260 1.573710 0.185650 
#    z -0.311330 0.185650 1.710090 
# 
# From -- ./inp_files/119415.got.cif
#   From: 2010.05.17/outbox.cif.g08.bks.cpg/sg2_60_cif.got.tgz:119415.got - 2010.06.03 11:33:40.
