data_PCOD9016818
_publ_section_title
;
Structure prediction by ZEFSAII (Michael W. Deem and Ramdas Pophale) SiO2 
 PCOD9016818
Probable space group: P -1
;
_chemical_formula_sum "Si O2"
_cell_formula_units_Z 14
_cell_length_a 13.796917
_cell_length_b 10.844371
_cell_length_c 8.905580
_cell_angle_alpha 80.349552
_cell_angle_beta 62.565832
_cell_angle_gamma 35.387631
_cell_volume 626.279033
_symmetry_space_group_name_H-M "P -1"
_symmetry_group_IT_number 2
_symmetry_cell_setting 'triclinic'
loop_
_space_group_symop_operation_xyz
x,y,z
-x,-y,-z
loop_
_atom_site_type_symbol
_atom_site_label
_atom_site_fract_x
_atom_site_fract_y
_atom_site_fract_z
Si Si1 0.715780 0.360344 0.030847
Si Si2 0.204098 0.299360 0.187110
Si Si3 0.483712 0.201085 0.840582
Si Si4 0.979482 0.119766 0.618859
Si Si5 0.160523 0.490216 0.485360
Si Si6 0.167046 0.982798 0.811926
Si Si7 0.538493 0.109224 0.470865
O O1 0.546137 0.626520 0.128311
O O2 0.701001 0.237358 0.135854
O O3 0.773561 0.299934 0.826597
O O4 0.929966 0.205825 0.983095
O O5 0.233199 0.343866 0.316362
O O6 0.975498 0.470451 0.324270
O O7 0.348357 0.038289 0.137270
O O8 0.277058 0.324318 0.003205
O O9 0.536132 0.139984 0.641747
O O10 0.972390 0.266132 0.528714
O O11 0.151940 0.944504 0.659836
O O12 0.000000 0.000000 0.500000
O O13 0.348902 0.357004 0.472817
O O14 0.260859 0.028842 0.720925
O O15 0.500000 0.000000 0.500000
#
# Coordination Sequence:
#
# PCOD9016818 Si02
#       7
#     2   2   2   2   2   2   2
#     4   9  21  43  73  91 129 176 213 273 328 376
#     4  10  22  43  66  92 129 177 216 272 322 385
#     4  11  22  40  67  96 129 169 221 270 330 375
#     4  10  21  42  69  95 123 168 222 266 325 381
#     4  11  23  42  66  93 131 172 220 267 325 386
#     4   9  22  46  67  90 136 172 218 265 324 394
#     4  12  26  41  64 100 131 174 218 262 325 397
#
# _framework density 22.354254000000001
#
# number of rings (size 3 to 8) (size 9 to 14) (size 15 to 20)
#    0.857    0.857    2.857    0.857    6.000    1.143 
#    5.143    2.143    0.000    0.000    0.000    0.000 
#    0.000    0.000    0.000    0.000    0.000    0.000 
#
# Total GULP energy -78178.758323 kJ/mol
# GULP energy per Si atom -5584.197023 kJ/mol
# Density = 2.230337 g / cm^3
# Si number density = 22.354254 Si / 1000 Ang^3
#
#
#
# Elastic Constant Matrix: (Units=GPa)
#
#
# Indices 1 2 3 4 5 6 
#
# 1 44.7241 10.0324 14.5064 -0.3454 -9.2717 16.2004
# 2 10.0324 75.1591 7.6224 -4.3033 3.4384 30.0904
# 3 14.5064 7.6224 64.6619 -6.3933 -24.8657 18.4275
# 4 -0.3454 -4.3033 -6.3933 26.3486 11.6043 2.6405
# 5 -9.2717 3.4384 -24.8657 11.6043 31.6068 1.8007
# 6 16.2004 30.0904 18.4275 2.6405 1.8007 38.9443
#
#
#
# Elastic Compliance Matrix: (Units=1/GPa)
#
#
# Indices 1 2 3 4 5 6 
#
# 1 0.029004 0.000778 0.001354 -0.002766 0.011281 -0.013641
# 2 0.000778 0.020455 0.002612 0.006312 -0.001249 -0.017734
# 3 0.001354 0.002612 0.029102 -0.001577 0.024577 -0.017381
# 4 -0.002766 0.006312 -0.001577 0.047917 -0.020029 -0.005304
# 5 0.011281 -0.001249 0.024577 -0.020029 0.062735 -0.016899
# 6 -0.013641 -0.017734 -0.017381 -0.005304 -0.016899 0.054420
#
#
# Mechanical properties :
#
#
# Convention : Reuss Voigt Hill
#
# Bulk Modulus (GPa) = 11.35741 27.65194 19.50468
# Shear Modulus (GPa) = 18.97559 29.53886 24.25722
#
# Velocity S-wave (km/s) = 2.91668 3.63905 3.29770
# Velocity P-wave (km/s) = 4.05393 5.48212 4.82120
#
# Compressibility (1/GPa) = 0.08804821
#
# Stress axis : x y z
#
# Youngs Moduli (GPa) = 34.47762 48.88784 34.36195
#
# Poissons Ratio (x) = -0.03804 -0.04651
# Poissons Ratio (y) = -0.02683 -0.08975
# Poissons Ratio (z) = -0.04667 -0.12769
#
# Static dielectric constant tensor:
#      x y z
#    x 1.841590 -0.043560 -0.049670 
#    y -0.043560 1.850920 0.025560 
#    z -0.049670 0.025560 1.829600 
# 
# From -- ./inp_files/303004.got.cif
#   From: 2010.05.17/outbox.cif.g08.bks.cpg/sg2_152_cif.got.tgz:303004.got - 2010.06.03 11:33:40.
