data_PCOD9016666
_publ_section_title
;
Structure prediction by ZEFSAII (Michael W. Deem and Ramdas Pophale) SiO2 
 PCOD9016666
Probable space group: P -1
;
_chemical_formula_sum "Si O2"
_cell_formula_units_Z 16
_cell_length_a 13.782092
_cell_length_b 11.613643
_cell_length_c 9.009779
_cell_angle_alpha 65.132296
_cell_angle_beta 96.512638
_cell_angle_gamma 145.174589
_cell_volume 668.262015
_symmetry_space_group_name_H-M "P -1"
_symmetry_group_IT_number 2
_symmetry_cell_setting 'triclinic'
loop_
_space_group_symop_operation_xyz
x,y,z
-x,-y,-z
loop_
_atom_site_type_symbol
_atom_site_label
_atom_site_fract_x
_atom_site_fract_y
_atom_site_fract_z
Si Si1 0.429271 0.582313 0.838772
Si Si2 0.189477 0.109663 0.389833
Si Si3 0.569202 0.197094 0.500644
Si Si4 0.159058 0.843994 0.706191
Si Si5 0.805103 0.385600 0.720443
Si Si6 0.109566 0.025238 0.108496
Si Si7 0.385716 0.592191 0.165280
Si Si8 0.793858 0.100063 0.993965
O O1 0.638313 0.780537 0.711263
O O2 0.355945 0.604666 0.696993
O O3 0.316106 0.324135 0.971858
O O4 0.419035 0.630942 0.973362
O O5 0.048524 0.957591 0.306908
O O6 0.260381 0.328669 0.320028
O O7 0.139380 0.971967 0.598460
O O8 0.727570 0.331955 0.573551
O O9 0.500000 0.000000 0.500000
O O10 0.373010 0.029334 0.631726
O O11 0.093963 0.751114 0.914648
O O12 0.027924 0.637873 0.665867
O O13 0.712086 0.389420 0.805947
O O14 0.742857 0.175792 0.868534
O O15 0.108937 0.886657 0.111082
O O16 0.000000 0.000000 0.000000
O O17 0.592878 0.810480 0.155953
#
# Coordination Sequence:
#
# PCOD9016666 Si02
#       8
#     2   2   2   2   2   2   2   2
#     4  10  21  42  68  98 132 173 234 281 334 401
#     4  10  22  45  67  96 135 178 227 291 336 392
#     4  11  26  45  72 100 133 188 228 281 346 408
#     4  11  28  45  65 104 141 178 233 282 342 403
#     4  12  28  45  69 101 143 185 223 282 343 411
#     4  11  24  40  69 102 130 180 229 281 343 397
#     4  11  21  43  74  97 133 185 227 276 345 411
#     4  12  24  46  67  98 143 182 231 280 338 414
#
# _framework density 23.942705
#
# number of rings (size 3 to 8) (size 9 to 14) (size 15 to 20)
#    0.000    1.000    3.750    2.250    8.750    3.500 
#    0.000    0.000    0.000    0.000    0.000    0.000 
#    0.000    0.000    0.000    0.000    0.000    0.000 
#
# Total GULP energy -89519.993948 kJ/mol
# GULP energy per Si atom -5594.999622 kJ/mol
# Density = 2.388821 g / cm^3
# Si number density = 23.942705 Si / 1000 Ang^3
#
#
#
# Elastic Constant Matrix: (Units=GPa)
#
#
# Indices 1 2 3 4 5 6 
#
# 1 116.1552 30.4754 44.1418 18.2582 18.8228 -32.5405
# 2 30.4754 108.4466 32.8462 28.8918 11.0135 -1.6653
# 3 44.1418 32.8462 88.0903 29.4191 30.3536 -6.8311
# 4 18.2582 28.8918 29.4191 36.3813 8.7524 5.9753
# 5 18.8228 11.0135 30.3536 8.7524 44.5863 1.1158
# 6 -32.5405 -1.6653 -6.8311 5.9753 1.1158 47.2355
#
#
#
# Elastic Compliance Matrix: (Units=1/GPa)
#
#
# Indices 1 2 3 4 5 6 
#
# 1 0.014116 -0.001391 -0.003511 -0.004101 -0.002664 0.009749
# 2 -0.001391 0.012103 -0.001048 -0.008096 -0.000108 0.000344
# 3 -0.003511 -0.001048 0.021572 -0.012736 -0.010508 0.002523
# 4 -0.004101 -0.008096 -0.012736 0.047264 0.003399 -0.011011
# 5 -0.002664 -0.000108 -0.010508 0.003399 0.030179 -0.004502
# 6 0.009749 0.000344 0.002523 -0.011011 -0.004502 0.029763
#
#
# Mechanical properties :
#
#
# Convention : Reuss Voigt Hill
#
# Bulk Modulus (GPa) = 27.86251 58.62431 43.24341
# Shear Modulus (GPa) = 27.95492 39.32254 33.63873
#
# Velocity S-wave (km/s) = 3.42069 4.05700 3.75236
# Velocity P-wave (km/s) = 5.22148 6.81792 6.07240
#
# Compressibility (1/GPa) = 0.03589052
#
# Stress axis : x y z
#
# Youngs Moduli (GPa) = 70.84159 82.62720 46.35651
#
# Poissons Ratio (x) = 0.11489 0.16278
# Poissons Ratio (y) = 0.09851 0.04858
# Poissons Ratio (z) = 0.24876 0.08660
#
# Static dielectric constant tensor:
#      x y z
#    x 1.919810 0.051760 -0.020250 
#    y 0.051760 2.002380 -0.021570 
#    z -0.020250 -0.021570 1.920840 
# 
# From -- ./inp_files/189241.got.cif
#   From: 2010.05.17/outbox.cif.g08.bks.cpg/sg2_95_cif.got.tgz:189241.got - 2010.06.03 11:33:40.
