data_PCOD9016957
_publ_section_title
;
Structure prediction by ZEFSAII (Michael W. Deem and Ramdas Pophale) SiO2 
 PCOD9016957
Probable space group: P -1
;
_chemical_formula_sum "Si O2"
_cell_formula_units_Z 12
_cell_length_a 8.537100
_cell_length_b 11.623474
_cell_length_c 21.000466
_cell_angle_alpha 147.729617
_cell_angle_beta 28.714283
_cell_angle_gamma 147.983799
_cell_volume 486.454547
_symmetry_space_group_name_H-M "P -1"
_symmetry_group_IT_number 2
_symmetry_cell_setting 'triclinic'
loop_
_space_group_symop_operation_xyz
x,y,z
-x,-y,-z
loop_
_atom_site_type_symbol
_atom_site_label
_atom_site_fract_x
_atom_site_fract_y
_atom_site_fract_z
Si Si1 0.566121 0.584068 0.213076
Si Si2 0.412376 0.001418 0.668712
Si Si3 0.679043 0.710830 0.721543
Si Si4 0.394359 0.841348 0.062191
Si Si5 0.380084 0.711002 0.151927
Si Si6 0.609530 0.577292 0.425164
O O1 0.508549 0.521616 0.278021
O O2 0.994618 0.722759 0.118892
O O3 0.403094 0.757822 0.325318
O O4 0.433729 0.332595 0.106336
O O5 0.608986 0.832394 0.531784
O O6 0.061235 0.845654 0.680975
O O7 0.359742 0.096511 0.801077
O O8 0.680492 0.623643 0.609434
O O9 0.474914 0.885855 0.877384
O O10 0.376099 0.822050 0.136125
O O11 0.993304 0.604603 0.274479
O O12 0.500000 0.500000 0.000000
O O13 0.500000 0.500000 0.500000
#
# Coordination Sequence:
#
# PCOD9016957 Si02
#       6
#     2   2   2   2   2   2
#     4  10  21  42  71 107 143 187 240 301 362 428
#     4  11  26  45  74 108 148 189 242 299 374 429
#     4  11  24  45  74 107 144 193 245 299 362 439
#     4  10  21  42  70 104 146 187 239 300 363 423
#     4  12  25  49  74 107 147 196 241 303 363 431
#     4  12  28  50  73 107 150 196 245 300 367 439
#
# _framework density 24.668289000000001
#
# number of rings (size 3 to 8) (size 9 to 14) (size 15 to 20)
#    0.000    1.000    3.333    2.500    2.333    2.000 
#    0.000    2.500    0.000    0.000    0.000    0.000 
#    0.000    0.000    0.000    0.000    0.000    0.000 
#
# Total GULP energy -67155.568512 kJ/mol
# GULP energy per Si atom -5596.297376 kJ/mol
# Density = 2.461214 g / cm^3
# Si number density = 24.668289 Si / 1000 Ang^3
#
#
#
# Elastic Constant Matrix: (Units=GPa)
#
#
# Indices 1 2 3 4 5 6 
#
# 1 155.5018 57.6273 74.2349 10.9623 24.2158 -12.5713
# 2 57.6273 68.7024 56.4301 18.3293 -12.8772 -14.8712
# 3 74.2349 56.4301 158.2769 26.7970 -5.5083 -15.9642
# 4 10.9623 18.3293 26.7970 42.1972 -8.3433 0.2492
# 5 24.2158 -12.8772 -5.5083 -8.3433 54.4708 18.8122
# 6 -12.5713 -14.8712 -15.9642 0.2492 18.8122 61.9690
#
#
#
# Elastic Compliance Matrix: (Units=1/GPa)
#
#
# Indices 1 2 3 4 5 6 
#
# 1 0.013039 -0.010154 -0.002745 0.000952 -0.009110 0.002263
# 2 -0.010154 0.030568 -0.004724 -0.005662 0.010038 0.001034
# 3 -0.002745 -0.004724 0.009977 -0.003517 0.000296 0.000804
# 4 0.000952 -0.005662 -0.003517 0.028837 0.003413 -0.003224
# 5 -0.009110 0.010038 0.000296 0.003413 0.028061 -0.007895
# 6 0.002263 0.001034 0.000804 -0.003224 -0.007895 0.019461
#
#
# Mechanical properties :
#
#
# Convention : Reuss Voigt Hill
#
# Bulk Modulus (GPa) = 54.53195 84.34063 69.43629
# Shear Modulus (GPa) = 29.18822 44.67333 36.93077
#
# Velocity S-wave (km/s) = 3.44354 4.26016 3.87343
# Velocity P-wave (km/s) = 6.16155 7.64609 6.94361
#
# Compressibility (1/GPa) = 0.01833787
#
# Stress axis : x y z
#
# Youngs Moduli (GPa) = 76.69431 32.71353 100.23407
#
# Poissons Ratio (x) = 0.33216 0.27518
# Poissons Ratio (y) = 0.77872 0.47351
# Poissons Ratio (z) = 0.21055 0.15454
#
# Static dielectric constant tensor:
#      x y z
#    x 1.970640 0.042410 -0.028370 
#    y 0.042410 2.006580 -0.010620 
#    z -0.028370 -0.010620 1.968740 
# 
# From -- ./inp_files/68140.got.cif
#   From: 2010.05.17/outbox.cif.g08.bks.cpg/sg2_35_cif.got.tgz:68140.got - 2010.06.03 11:33:40.
