data_PCOD9016233
_publ_section_title
;
Structure prediction by ZEFSAII (Michael W. Deem and Ramdas Pophale) SiO2 
 PCOD9016233
Probable space group: P -1
;
_chemical_formula_sum "Si O2"
_cell_formula_units_Z 16
_cell_length_a 16.947288
_cell_length_b 15.345898
_cell_length_c 8.839018
_cell_angle_alpha 138.650759
_cell_angle_beta 39.023914
_cell_angle_gamma 151.726867
_cell_volume 668.345547
_symmetry_space_group_name_H-M "P -1"
_symmetry_group_IT_number 2
_symmetry_cell_setting 'triclinic'
loop_
_space_group_symop_operation_xyz
x,y,z
-x,-y,-z
loop_
_atom_site_type_symbol
_atom_site_label
_atom_site_fract_x
_atom_site_fract_y
_atom_site_fract_z
Si Si1 0.790652 0.295973 0.565405
Si Si2 0.646686 0.760105 0.465104
Si Si3 0.805468 0.837604 0.806544
Si Si4 0.177411 0.280795 0.095122
Si Si5 0.389782 0.998867 0.289982
Si Si6 0.741607 0.592916 0.332011
Si Si7 0.554444 0.295007 0.708276
Si Si8 0.955603 0.211056 0.051259
O O1 0.736011 0.193404 0.674247
O O2 0.646253 0.288690 0.705642
O O3 0.788158 0.175076 0.288626
O O4 0.000000 0.500000 0.500000
O O5 0.715986 0.703775 0.408586
O O6 0.441735 0.619580 0.641195
O O7 0.709070 0.955837 0.594115
O O8 0.682335 0.704873 0.187168
O O9 0.911247 0.874366 0.846242
O O10 0.797478 0.702606 0.544740
O O11 0.617240 0.755001 0.037118
O O12 0.895137 0.026487 0.833564
O O13 0.294017 0.482455 0.264056
O O14 0.043824 0.244566 0.126316
O O15 0.502219 0.162947 0.470164
O O16 0.500000 0.000000 0.000000
O O17 0.890341 0.616971 0.060642
#
# Coordination Sequence:
#
# PCOD9016233 Si02
#       8
#     2   2   2   2   2   2   2   2
#     4  12  27  49  69  97 143 190 235 280 349 419
#     4  10  21  42  67 102 139 177 233 280 355 399
#     4  12  22  40  70 105 135 170 237 285 352 411
#     4  11  21  42  71 100 136 177 227 294 349 416
#     4  12  28  44  71 103 138 185 239 290 333 418
#     4  10  23  37  70 105 137 180 216 298 347 414
#     4  12  24  44  73 101 135 189 234 285 348 423
#     4  11  24  42  65  98 142 184 221 282 353 415
#
# _framework density 23.939710999999999
#
# number of rings (size 3 to 8) (size 9 to 14) (size 15 to 20)
#    0.000    0.750    5.000    2.250    3.500    1.000 
#    0.000    1.875    0.000    0.000    0.000    0.000 
#    0.000    0.000    0.000    0.000    0.000    0.000 
#
# Total GULP energy -89337.812947 kJ/mol
# GULP energy per Si atom -5583.613309 kJ/mol
# Density = 2.388522 g / cm^3
# Si number density = 23.939711 Si / 1000 Ang^3
#
#
#
# Elastic Constant Matrix: (Units=GPa)
#
#
# Indices 1 2 3 4 5 6 
#
# 1 74.8757 25.0604 25.5137 -13.5186 -2.8427 -21.2685
# 2 25.0604 78.0748 26.5190 -3.8728 -1.1969 -23.6357
# 3 25.5137 26.5190 104.5937 -18.7824 1.7735 -11.6395
# 4 -13.5186 -3.8728 -18.7824 40.2278 -0.6159 2.8025
# 5 -2.8427 -1.1969 1.7735 -0.6159 33.0449 0.6015
# 6 -21.2685 -23.6357 -11.6395 2.8025 0.6015 40.3437
#
#
#
# Elastic Compliance Matrix: (Units=1/GPa)
#
#
# Indices 1 2 3 4 5 6 
#
# 1 0.017752 -0.002654 -0.002156 0.004248 0.001501 0.006864
# 2 -0.002654 0.016979 -0.003016 -0.001200 0.000385 0.007755
# 3 -0.002156 -0.003016 0.011677 0.004412 -0.000842 0.000171
# 4 0.004248 -0.001200 0.004412 0.028181 0.000595 0.000843
# 5 0.001501 0.000385 -0.000842 0.000595 0.030456 0.000278
# 6 0.006864 0.007755 0.000171 0.000843 0.000278 0.032936
#
#
# Mechanical properties :
#
#
# Convention : Reuss Voigt Hill
#
# Bulk Modulus (GPa) = 32.51490 45.74784 39.13137
# Shear Modulus (GPa) = 30.50895 34.75336 32.63115
#
# Velocity S-wave (km/s) = 3.57376 3.81426 3.69596
# Velocity P-wave (km/s) = 5.53538 6.20880 5.88174
#
# Compressibility (1/GPa) = 0.03075513
#
# Stress axis : x y z
#
# Youngs Moduli (GPa) = 56.33103 58.89673 85.63674
#
# Poissons Ratio (x) = 0.15631 0.18464
# Poissons Ratio (y) = 0.14950 0.25832
# Poissons Ratio (z) = 0.12146 0.17766
#
# Static dielectric constant tensor:
#      x y z
#    x 1.947300 -0.004150 0.000580 
#    y -0.004150 1.973880 0.040630 
#    z 0.000580 0.040630 1.971720 
# 
# From -- ./inp_files/263591.got.cif
#   From: 2010.05.17/outbox.cif.g08.bks.cpg/sg2_132_cif.got.tgz:263591.got - 2010.06.03 11:33:40.
