data_PCOD9016443
_publ_section_title
;
Structure prediction by ZEFSAII (Michael W. Deem and Ramdas Pophale) SiO2 
 PCOD9016443
Probable space group: P -1
;
_chemical_formula_sum "Si O2"
_cell_formula_units_Z 16
_cell_length_a 25.809113
_cell_length_b 5.374399
_cell_length_c 11.597636
_cell_angle_alpha 117.323243
_cell_angle_beta 29.531915
_cell_angle_gamma 105.811076
_cell_volume 674.238018
_symmetry_space_group_name_H-M "P -1"
_symmetry_group_IT_number 2
_symmetry_cell_setting 'triclinic'
loop_
_space_group_symop_operation_xyz
x,y,z
-x,-y,-z
loop_
_atom_site_type_symbol
_atom_site_label
_atom_site_fract_x
_atom_site_fract_y
_atom_site_fract_z
Si Si1 0.318573 0.951099 0.702580
Si Si2 0.210598 0.784754 0.068971
Si Si3 0.078192 0.395766 0.218885
Si Si4 0.580216 0.174750 0.763473
Si Si5 0.065186 0.858673 0.729644
Si Si6 0.400686 0.842955 0.025963
Si Si7 0.590031 0.592285 0.268207
Si Si8 0.812780 0.792282 0.601134
O O1 0.403316 0.095308 0.633086
O O2 0.353237 0.844415 0.485974
O O3 0.195453 0.170728 0.976595
O O4 0.300196 0.723993 0.781665
O O5 0.112196 0.686528 0.184370
O O6 0.173916 0.094739 0.270446
O O7 0.282611 0.591157 0.990359
O O8 0.000000 0.500000 0.500000
O O9 0.019106 0.251943 0.209758
O O10 0.643967 0.122577 0.749870
O O11 0.500000 0.500000 0.000000
O O12 0.511111 0.941171 0.836717
O O13 0.153842 0.556807 0.532765
O O14 0.116065 0.070864 0.597590
O O15 0.000000 0.000000 0.000000
O O16 0.312964 0.069483 0.164396
O O17 0.423664 0.519645 0.857999
O O18 0.500000 0.500000 0.500000
#
# Coordination Sequence:
#
# PCOD9016443 Si02
#       8
#     2   2   2   2   2   2   2   2
#     4  11  25  42  70 106 137 187 245 302 364 440
#     4  10  24  41  72 105 134 190 240 306 366 431
#     4  11  24  46  72  99 143 184 245 303 368 435
#     4  11  26  44  68 103 145 196 239 293 375 443
#     4  12  28  48  73 110 145 196 249 304 376 440
#     4  10  25  45  69 100 143 191 238 302 366 441
#     4  10  21  42  67  98 136 179 239 298 353 434
#     4  11  26  48  76 107 148 189 250 307 373 439
#
# _framework density 23.730491000000001
#
# number of rings (size 3 to 8) (size 9 to 14) (size 15 to 20)
#    0.000    1.250    2.500    1.125   10.500    3.500 
#    0.000    0.000    0.000    0.000    0.000    0.000 
#    0.000    0.000    0.000    0.000    0.000    0.000 
#
# Total GULP energy -89426.264573 kJ/mol
# GULP energy per Si atom -5589.141536 kJ/mol
# Density = 2.367648 g / cm^3
# Si number density = 23.730491 Si / 1000 Ang^3
#
#
#
# Elastic Constant Matrix: (Units=GPa)
#
#
# Indices 1 2 3 4 5 6 
#
# 1 119.8030 27.0852 44.8677 3.4854 24.8013 23.2897
# 2 27.0852 84.3598 31.0295 -12.7298 17.1903 15.2128
# 3 44.8677 31.0295 135.4903 0.0931 38.0024 11.0883
# 4 3.4854 -12.7298 0.0931 42.7708 -7.8112 -1.6145
# 5 24.8013 17.1903 38.0024 -7.8112 57.0684 4.1317
# 6 23.2897 15.2128 11.0883 -1.6145 4.1317 37.5355
#
#
#
# Elastic Compliance Matrix: (Units=1/GPa)
#
#
# Indices 1 2 3 4 5 6 
#
# 1 0.011211 -0.001572 -0.002090 -0.002113 -0.002900 -0.005473
# 2 -0.001572 0.014795 -0.002116 0.004108 -0.001509 -0.004053
# 3 -0.002090 -0.002116 0.010083 -0.001469 -0.005348 -0.000299
# 4 -0.002113 0.004108 -0.001469 0.025555 0.004105 0.000728
# 5 -0.002900 -0.001509 -0.005348 0.004105 0.023244 0.001609
# 6 -0.005473 -0.004053 -0.000299 0.000728 0.001609 0.031623
#
#
# Mechanical properties :
#
#
# Convention : Reuss Voigt Hill
#
# Bulk Modulus (GPa) = 40.75912 60.62422 50.69167
# Shear Modulus (GPa) = 36.69896 43.25298 39.97597
#
# Velocity S-wave (km/s) = 3.93681 4.27391 4.10882
# Velocity P-wave (km/s) = 6.15449 7.06806 6.62704
#
# Compressibility (1/GPa) = 0.02453438
#
# Stress axis : x y z
#
# Youngs Moduli (GPa) = 89.19933 67.59003 99.17993
#
# Poissons Ratio (x) = 0.10623 0.20726
# Poissons Ratio (y) = 0.14019 0.20984
# Poissons Ratio (z) = 0.18640 0.14300
#
# Static dielectric constant tensor:
#      x y z
#    x 1.966850 -0.281350 -0.044490 
#    y -0.281350 2.616900 0.097120 
#    z -0.044490 0.097120 1.910900 
# 
# From -- ./inp_files/126825.got.cif
#   From: 2010.05.17/outbox.cif.g08.bks.cpg/sg2_64_cif.got.tgz:126825.got - 2010.06.03 11:33:40.
