data_PCOD9016405
_publ_section_title
;
Structure prediction by ZEFSAII (Michael W. Deem and Ramdas Pophale) SiO2 
 PCOD9016405
Probable space group: P -1
;
_chemical_formula_sum "Si O2"
_cell_formula_units_Z 15
_cell_length_a 11.363498
_cell_length_b 14.458892
_cell_length_c 12.204719
_cell_angle_alpha 129.023637
_cell_angle_beta 142.088454
_cell_angle_gamma 29.584888
_cell_volume 597.690811
_symmetry_space_group_name_H-M "P -1"
_symmetry_group_IT_number 2
_symmetry_cell_setting 'triclinic'
loop_
_space_group_symop_operation_xyz
x,y,z
-x,-y,-z
loop_
_atom_site_type_symbol
_atom_site_label
_atom_site_fract_x
_atom_site_fract_y
_atom_site_fract_z
Si Si1 0.000000 0.000000 0.000000
Si Si2 0.089440 0.372668 0.236140
Si Si3 0.672858 0.979349 0.926008
Si Si4 0.402881 0.425753 0.812630
Si Si5 0.711027 0.637918 0.971506
Si Si6 0.050249 0.875208 0.575871
Si Si7 0.904618 0.196630 0.695628
Si Si8 0.286065 0.530934 0.554516
O O1 0.865986 0.970538 0.978104
O O2 0.648748 0.208073 0.866163
O O3 0.329517 0.150916 0.225532
O O4 0.196982 0.455573 0.368561
O O5 0.936411 0.435854 0.289098
O O6 0.809047 0.500801 0.038548
O O7 0.373137 0.196915 0.906051
O O8 0.850626 0.872985 0.092209
O O9 0.383407 0.453062 0.690230
O O10 0.500000 0.500000 0.000000
O O11 0.394336 0.758752 0.767493
O O12 0.000000 0.500000 0.000000
O O13 0.000549 0.866882 0.406846
O O14 0.040896 0.756258 0.545363
O O15 0.846510 0.088244 0.613934
O O16 0.596635 0.421444 0.641188
#
# Coordination Sequence:
#
# PCOD9016405 Si02
#       8
#     1   2   2   2   2   2   2   2
#     4  12  22  44  76 100 128 182 238 286 340 408
#     4  12  26  43  63 103 143 178 227 283 346 416
#     4  11  24  43  73 100 135 183 233 282 348 409
#     4  12  24  44  72  99 134 180 233 287 343 410
#     4  11  24  44  71 102 137 182 228 287 345 406
#     4  10  23  42  69  97 132 179 232 283 341 407
#     4  10  21  42  67  97 128 176 234 281 335 406
#     4  12  25  41  67 100 139 180 223 283 347 411
#
# _framework density 25.096585999999999
#
# number of rings (size 3 to 8) (size 9 to 14) (size 15 to 20)
#    0.000    0.800    4.000    3.200    1.867    2.667 
#    0.000    2.000    0.000    0.000    0.000    0.000 
#    0.000    0.000    0.000    0.000    0.000    0.000 
#
# Total GULP energy -83665.714964 kJ/mol
# GULP energy per Si atom -5577.714331 kJ/mol
# Density = 2.503947 g / cm^3
# Si number density = 25.096586 Si / 1000 Ang^3
#
#
#
# Elastic Constant Matrix: (Units=GPa)
#
#
# Indices 1 2 3 4 5 6 
#
# 1 69.6404 21.9516 19.1838 2.6933 -14.8896 -1.7827
# 2 21.9516 171.0477 34.0642 13.1723 -6.4653 7.6493
# 3 19.1838 34.0642 90.4152 4.6124 -10.7641 11.0428
# 4 2.6933 13.1723 4.6124 34.0298 5.6159 -4.7605
# 5 -14.8896 -6.4653 -10.7641 5.6159 39.9724 -5.3452
# 6 -1.7827 7.6493 11.0428 -4.7605 -5.3452 45.0873
#
#
#
# Elastic Compliance Matrix: (Units=1/GPa)
#
#
# Indices 1 2 3 4 5 6 
#
# 1 0.016851 -0.001448 -0.002542 -0.001090 0.005793 0.002106
# 2 -0.001448 0.006650 -0.001937 -0.002364 0.000222 -0.000934
# 3 -0.002542 -0.001937 0.013007 -0.001557 0.002077 -0.002876
# 4 -0.001090 -0.002364 -0.001557 0.031950 -0.005230 0.003493
# 5 0.005793 0.000222 0.002077 -0.005230 0.028846 0.002550
# 6 0.002106 -0.000934 -0.002876 0.003493 0.002550 0.023796
#
#
# Mechanical properties :
#
#
# Convention : Reuss Voigt Hill
#
# Bulk Modulus (GPa) = 40.56020 53.50028 47.03024
# Shear Modulus (GPa) = 35.41780 40.87815 38.14798
#
# Velocity S-wave (km/s) = 3.76075 4.04026 3.90301
# Velocity P-wave (km/s) = 5.92067 6.56726 6.25233
#
# Compressibility (1/GPa) = 0.02465471
#
# Stress axis : x y z
#
# Youngs Moduli (GPa) = 59.34494 150.37276 76.88101
#
# Poissons Ratio (x) = 0.21768 0.19542
# Poissons Ratio (y) = 0.08591 0.14893
# Poissons Ratio (z) = 0.15084 0.29130
#
# Static dielectric constant tensor:
#      x y z
#    x 2.055440 0.022750 0.097390 
#    y 0.022750 1.945560 0.029270 
#    z 0.097390 0.029270 2.021290 
# 
# From -- ./inp_files/433270.got.cif
#   From: 2010.05.17/outbox.cif.g08.bks.cpg/sg2_217_cif.got.tgz:433270.got - 2010.06.03 11:33:40.
