data_PCOD9016675
_publ_section_title
;
Structure prediction by ZEFSAII (Michael W. Deem and Ramdas Pophale) SiO2 
 PCOD9016675
Probable space group: P -1
;
_chemical_formula_sum "Si O2"
_cell_formula_units_Z 16
_cell_length_a 7.594207
_cell_length_b 11.068932
_cell_length_c 12.724744
_cell_angle_alpha 105.842945
_cell_angle_beta 41.911026
_cell_angle_gamma 104.629884
_cell_volume 685.316953
_symmetry_space_group_name_H-M "P -1"
_symmetry_group_IT_number 2
_symmetry_cell_setting 'triclinic'
loop_
_space_group_symop_operation_xyz
x,y,z
-x,-y,-z
loop_
_atom_site_type_symbol
_atom_site_label
_atom_site_fract_x
_atom_site_fract_y
_atom_site_fract_z
Si Si1 0.731479 0.627506 0.633867
Si Si2 0.050910 0.008813 0.166786
Si Si3 0.481825 0.826271 0.905318
Si Si4 0.709655 0.265339 0.809031
Si Si5 0.194712 0.095428 0.559892
Si Si6 0.974458 0.484430 0.327196
Si Si7 0.272634 0.774209 0.667944
Si Si8 0.743989 0.190977 0.567215
O O1 0.498855 0.711076 0.791352
O O2 0.728198 0.534059 0.514695
O O3 0.824716 0.556775 0.680646
O O4 0.980572 0.725194 0.520697
O O5 0.812830 0.932350 0.316978
O O6 0.245151 0.084989 0.184285
O O7 0.245083 0.914072 0.007705
O O8 0.915409 0.116785 0.190190
O O9 0.451419 0.767801 0.022267
O O10 0.569869 0.242944 0.751952
O O11 0.924975 0.161484 0.686034
O O12 0.867389 0.402282 0.777666
O O13 0.427247 0.185421 0.427388
O O14 0.226060 0.956985 0.468467
O O15 0.866396 0.362646 0.281583
O O16 0.304379 0.782323 0.527512
#
# Coordination Sequence:
#
# PCOD9016675 Si02
#       8
#     2   2   2   2   2   2   2   2
#     4   9  16  31  53  72 103 132 168 210 248 293
#     4   9  17  30  49  77  98 126 170 205 248 304
#     4  10  17  30  51  79 104 129 158 215 266 297
#     4  10  21  29  48  82 106 126 162 216 260 284
#     4  10  18  31  53  77 100 135 170 209 247 300
#     4   9  18  32  47  76 103 132 174 205 237 298
#     4  10  18  33  56  72 100 141 175 196 242 307
#     4   9  16  32  50  78  97 121 174 218 244 282
#
# _framework density 23.346862000000002
#
# number of rings (size 3 to 8) (size 9 to 14) (size 15 to 20)
#    0.000    2.500    3.750    2.625    0.000    1.000 
#    0.000    0.000    0.000    6.000    0.000    0.000 
#    0.000    0.000    0.000    0.000    0.000    0.000 
#
# Total GULP energy -89231.895064 kJ/mol
# GULP energy per Si atom -5576.993442 kJ/mol
# Density = 2.329372 g / cm^3
# Si number density = 23.346862 Si / 1000 Ang^3
#
#
#
# Elastic Constant Matrix: (Units=GPa)
#
#
# Indices 1 2 3 4 5 6 
#
# 1 32.2062 7.1899 9.1152 -3.4766 4.5187 -7.1684
# 2 7.1899 118.0447 26.3187 -6.5515 3.5398 -9.6581
# 3 9.1152 26.3187 84.7809 11.6587 -1.7871 -8.3963
# 4 -3.4766 -6.5515 11.6587 46.5378 -8.0764 -3.9130
# 5 4.5187 3.5398 -1.7871 -8.0764 29.6405 -4.9554
# 6 -7.1684 -9.6581 -8.3963 -3.9130 -4.9554 10.6768
#
#
#
# Elastic Compliance Matrix: (Units=1/GPa)
#
#
# Indices 1 2 3 4 5 6 
#
# 1 0.038095 0.000716 -0.002505 0.005778 -0.000066 0.026342
# 2 0.000716 0.009885 -0.002668 0.003000 0.000841 0.008815
# 3 -0.002505 -0.002668 0.014023 -0.003216 0.001769 0.006575
# 4 0.005778 0.003000 -0.003216 0.026131 0.008638 0.017650
# 5 -0.000066 0.000841 0.001769 0.008638 0.040101 0.023884
# 6 0.026342 0.008815 0.006575 0.017650 0.023884 0.142045
#
#
# Mechanical properties :
#
#
# Convention : Reuss Voigt Hill
#
# Bulk Modulus (GPa) = 18.83594 35.58661 27.21127
# Shear Modulus (GPa) = 16.84129 30.19823 23.51976
#
# Velocity S-wave (km/s) = 2.68871 3.60037 3.17741
# Velocity P-wave (km/s) = 4.21002 5.70607 5.01416
#
# Compressibility (1/GPa) = 0.05309000
#
# Stress axis : x y z
#
# Youngs Moduli (GPa) = 26.25003 101.16345 71.31015
#
# Poissons Ratio (x) = -0.07244 0.17865
# Poissons Ratio (y) = -0.01880 0.19022
# Poissons Ratio (z) = 0.06576 0.26986
#
# Static dielectric constant tensor:
#      x y z
#    x 2.073270 -0.047470 0.055050 
#    y -0.047470 1.884070 0.023780 
#    z 0.055050 0.023780 1.922330 
# 
# From -- ./inp_files/285134.got.cif
#   From: 2010.05.17/outbox.cif.g08.bks.cpg/sg2_143_cif.got.tgz:285134.got - 2010.06.03 11:33:40.
