data_PCOD9016095
_publ_section_title
;
Structure prediction by ZEFSAII (Michael W. Deem and Ramdas Pophale) SiO2 
 PCOD9016095
Probable space group: P -1
;
_chemical_formula_sum "Si O2"
_cell_formula_units_Z 16
_cell_length_a 14.125253
_cell_length_b 19.869813
_cell_length_c 9.523715
_cell_angle_alpha 100.290230
_cell_angle_beta 92.877621
_cell_angle_gamma 17.545869
_cell_volume 724.938579
_symmetry_space_group_name_H-M "P -1"
_symmetry_group_IT_number 2
_symmetry_cell_setting 'triclinic'
loop_
_space_group_symop_operation_xyz
x,y,z
-x,-y,-z
loop_
_atom_site_type_symbol
_atom_site_label
_atom_site_fract_x
_atom_site_fract_y
_atom_site_fract_z
Si Si1 0.261191 0.718089 0.146653
Si Si2 0.524043 0.933224 0.345024
Si Si3 0.162475 0.202562 0.127029
Si Si4 0.175106 0.435083 0.084754
Si Si5 0.604590 0.769147 0.520251
Si Si6 0.073297 0.030211 0.511279
Si Si7 0.561747 0.247262 0.825503
Si Si8 0.700103 0.010930 0.146380
O O1 0.338733 0.743204 0.133147
O O2 0.500000 0.500000 0.000000
O O3 0.222667 0.735036 0.320259
O O4 0.894151 0.947826 0.150052
O O5 0.539678 0.849033 0.394253
O O6 0.891611 0.685198 0.204593
O O7 0.500000 0.000000 0.500000
O O8 0.251421 0.129700 0.270947
O O9 0.812181 0.487488 0.182304
O O10 0.500000 0.000000 0.000000
O O11 0.122969 0.160076 0.018574
O O12 0.324669 0.289088 0.168955
O O13 0.478933 0.260589 0.959459
O O14 0.000000 0.500000 0.000000
O O15 0.430674 0.814388 0.518035
O O16 0.367092 0.971746 0.696579
O O17 0.000000 0.500000 0.500000
O O18 0.141030 0.992626 0.336850
O O19 0.000000 0.000000 0.500000
#
# Coordination Sequence:
#
# PCOD9016095 Si02
#       8
#     2   2   2   2   2   2   2   2
#     4  10  21  42  66  95 124 172 221 265 319 387
#     4  12  26  38  60 101 137 162 218 270 326 386
#     4  12  23  39  64  95 131 173 210 264 328 381
#     4  12  23  40  62  97 130 169 213 266 320 394
#     4  11  23  39  67  93 131 173 211 272 330 379
#     4   9  22  40  64  93 126 171 218 262 322 388
#     4  11  23  40  69  91 132 172 217 265 325 387
#     4  11  23  40  66  91 131 169 218 262 326 384
#
# _framework density 22.070836
#
# number of rings (size 3 to 8) (size 9 to 14) (size 15 to 20)
#    0.000    1.000    5.000    1.500    3.500    0.500 
#    0.000    0.000    0.000   15.000    0.000    0.000 
#    0.000    0.000    0.000    0.000    0.000    0.000 
#
# Total GULP energy -89136.612800 kJ/mol
# GULP energy per Si atom -5571.038300 kJ/mol
# Density = 2.202060 g / cm^3
# Si number density = 22.070836 Si / 1000 Ang^3
#
#
#
# Elastic Constant Matrix: (Units=GPa)
#
#
# Indices 1 2 3 4 5 6 
#
# 1 116.3225 2.1228 39.2133 -3.0001 -4.3811 -26.1123
# 2 2.1228 42.3652 8.0008 -17.9146 -1.7666 0.4597
# 3 39.2133 8.0008 178.2603 3.6798 6.2779 6.1258
# 4 -3.0001 -17.9146 3.6798 36.4278 8.8149 1.1687
# 5 -4.3811 -1.7666 6.2779 8.8149 39.9391 0.7024
# 6 -26.1123 0.4597 6.1258 1.1687 0.7024 27.3077
#
#
#
# Elastic Compliance Matrix: (Units=1/GPa)
#
#
# Indices 1 2 3 4 5 6 
#
# 1 0.012644 0.000209 -0.003298 0.000696 0.001537 0.012758
# 2 0.000209 0.030436 -0.001651 0.015607 -0.001806 -0.000563
# 3 -0.003298 -0.001651 0.006631 -0.001342 -0.001101 -0.004527
# 4 0.000696 0.015607 -0.001342 0.037083 -0.007195 -0.000698
# 5 0.001537 -0.001806 -0.001101 -0.007195 0.026864 0.001364
# 6 0.012758 -0.000563 -0.004527 -0.000698 0.001364 0.049839
#
#
# Mechanical properties :
#
#
# Convention : Reuss Voigt Hill
#
# Bulk Modulus (GPa) = 24.85563 48.40243 36.62903
# Shear Modulus (GPa) = 26.82573 39.90899 33.36736
#
# Velocity S-wave (km/s) = 3.49010 4.25693 3.89244
# Velocity P-wave (km/s) = 5.24664 6.79265 6.06907
#
# Compressibility (1/GPa) = 0.04023233
#
# Stress axis : x y z
#
# Youngs Moduli (GPa) = 79.08643 32.85566 150.79783
#
# Poissons Ratio (x) = -0.00688 0.49730
# Poissons Ratio (y) = -0.01655 0.24901
# Poissons Ratio (z) = 0.26081 0.05425
#
# Static dielectric constant tensor:
#      x y z
#    x 1.871730 -0.018020 0.024800 
#    y -0.018020 1.816950 0.026320 
#    z 0.024800 0.026320 1.886180 
# 
# From -- ./inp_files/176630.got.cif
#   From: 2010.05.17/outbox.cif.g08.bks.cpg/sg2_89_cif.got.tgz:176630.got - 2010.06.03 11:33:40.
