data_PCOD9016195
_publ_section_title
;
Structure prediction by ZEFSAII (Michael W. Deem and Ramdas Pophale) SiO2 
 PCOD9016195
Probable space group: P -1
;
_chemical_formula_sum "Si O2"
_cell_formula_units_Z 15
_cell_length_a 6.028834
_cell_length_b 10.911792
_cell_length_c 21.016611
_cell_angle_alpha 28.641912
_cell_angle_beta 109.126172
_cell_angle_gamma 117.728962
_cell_volume 575.902988
_symmetry_space_group_name_H-M "P -1"
_symmetry_group_IT_number 2
_symmetry_cell_setting 'triclinic'
loop_
_space_group_symop_operation_xyz
x,y,z
-x,-y,-z
loop_
_atom_site_type_symbol
_atom_site_label
_atom_site_fract_x
_atom_site_fract_y
_atom_site_fract_z
Si Si1 0.612909 0.813840 0.538934
Si Si2 0.787965 0.110426 0.169463
Si Si3 0.922104 0.141780 0.307438
Si Si4 0.515951 0.549402 0.779922
Si Si5 0.000000 0.000000 0.000000
Si Si6 0.063882 0.615594 0.523836
Si Si7 0.270123 0.701844 0.251825
Si Si8 0.661304 0.608629 0.902872
O O1 0.804001 0.073361 0.397803
O O2 0.529621 0.772211 0.624734
O O3 0.360853 0.715155 0.518169
O O4 0.727151 0.576354 0.651697
O O5 0.075624 0.129631 0.179193
O O6 0.764379 0.147916 0.226336
O O7 0.554779 0.852836 0.238081
O O8 0.761395 0.362165 0.013462
O O9 0.989498 0.875783 0.415965
O O10 0.185308 0.416482 0.209140
O O11 0.508963 0.630552 0.816493
O O12 0.269101 0.265749 0.877666
O O13 0.819838 0.115028 0.887585
O O14 0.000000 0.500000 0.500000
O O15 0.916477 0.382934 0.667194
O O16 0.500000 0.500000 0.000000
#
# Coordination Sequence:
#
# PCOD9016195 Si02
#       8
#     2   2   2   2   1   2   2   2
#     4  11  24  45  69  98 134 184 226 281 344 402
#     4  10  21  42  66  99 133 175 231 276 338 411
#     4  10  24  44  69 103 134 176 230 286 341 399
#     4  11  24  46  66 101 136 178 230 278 340 410
#     4  12  24  48  66 100 140 182 230 276 344 406
#     4  11  23  43  70 104 138 177 227 282 341 403
#     4  11  24  43  68  99 136 179 229 279 342 405
#     4  10  23  43  66  97 135 180 225 281 341 405
#
# _framework density 26.046054000000002
#
# number of rings (size 3 to 8) (size 9 to 14) (size 15 to 20)
#    0.000    1.333    2.667    2.000    0.000    9.600 
#    9.600    0.000    0.000    0.000    0.000    0.000 
#    0.000    0.000    0.000    0.000    0.000    0.000 
#
# Total GULP energy -83597.618643 kJ/mol
# GULP energy per Si atom -5573.174576 kJ/mol
# Density = 2.598677 g / cm^3
# Si number density = 26.046054 Si / 1000 Ang^3
#
#
#
# Elastic Constant Matrix: (Units=GPa)
#
#
# Indices 1 2 3 4 5 6 
#
# 1 85.1793 66.9387 51.9072 7.8596 -40.9732 -1.1127
# 2 66.9387 158.5613 57.4623 26.4538 -22.8741 35.7889
# 3 51.9072 57.4623 195.1285 39.1109 -29.2557 10.6162
# 4 7.8596 26.4538 39.1109 52.5217 8.1800 -12.1413
# 5 -40.9732 -22.8741 -29.2557 8.1800 60.4262 -0.0012
# 6 -1.1127 35.7889 10.6162 -12.1413 -0.0012 46.9160
#
#
#
# Elastic Compliance Matrix: (Units=1/GPa)
#
#
# Indices 1 2 3 4 5 6 
#
# 1 0.031231 -0.014189 -0.004442 0.007137 0.012689 0.014417
# 2 -0.014189 0.017390 0.001901 -0.011930 -0.000504 -0.017119
# 3 -0.004442 0.001901 0.008036 -0.007949 0.002674 -0.005431
# 4 0.007137 -0.011930 -0.007949 0.035913 -0.008386 0.020362
# 5 0.012689 -0.000504 0.002674 -0.008386 0.027392 -0.002089
# 6 0.014417 -0.017119 -0.005431 0.020362 -0.002089 0.041214
#
#
# Mechanical properties :
#
#
# Convention : Reuss Voigt Hill
#
# Bulk Modulus (GPa) = 43.11091 87.94284 65.52688
# Shear Modulus (GPa) = 24.70739 49.47683 37.09211
#
# Velocity S-wave (km/s) = 3.08328 4.36316 3.77782
# Velocity P-wave (km/s) = 5.40955 7.69549 6.65146
#
# Compressibility (1/GPa) = 0.02319598
#
# Stress axis : x y z
#
# Youngs Moduli (GPa) = 32.01966 57.50538 124.43324
#
# Poissons Ratio (x) = 0.81595 0.55272
# Poissons Ratio (y) = 0.45433 -0.23649
# Poissons Ratio (z) = 0.14223 -0.10929
#
# Static dielectric constant tensor:
#      x y z
#    x 2.230340 -0.019260 -0.028840 
#    y -0.019260 2.068110 -0.033090 
#    z -0.028840 -0.033090 2.038230 
# 
# From -- ./inp_files/369938.got.cif
#   From: 2010.05.17/outbox.cif.g08.bks.cpg/sg2_185_cif.got.tgz:369938.got - 2010.06.03 11:33:40.
