data_PCOD9016894
_publ_section_title
;
Structure prediction by ZEFSAII (Michael W. Deem and Ramdas Pophale) SiO2 
 PCOD9016894
Probable space group: P -1
;
_chemical_formula_sum "Si O2"
_cell_formula_units_Z 13
_cell_length_a 8.769372
_cell_length_b 6.985862
_cell_length_c 12.797774
_cell_angle_alpha 120.539212
_cell_angle_beta 128.201642
_cell_angle_gamma 75.719028
_cell_volume 527.991610
_symmetry_space_group_name_H-M "P -1"
_symmetry_group_IT_number 2
_symmetry_cell_setting 'triclinic'
loop_
_space_group_symop_operation_xyz
x,y,z
-x,-y,-z
loop_
_atom_site_type_symbol
_atom_site_label
_atom_site_fract_x
_atom_site_fract_y
_atom_site_fract_z
Si Si1 0.215356 0.137145 0.621635
Si Si2 0.180422 0.402794 0.287474
Si Si3 0.123606 0.010943 0.902529
Si Si4 0.777349 0.521325 0.438888
Si Si5 0.514535 0.853380 0.779840
Si Si6 0.000000 0.500000 0.000000
Si Si7 0.859138 0.657943 0.154073
O O1 0.258880 0.237656 0.553828
O O2 0.205679 0.345771 0.756497
O O3 0.385292 0.999036 0.694784
O O4 0.000000 0.000000 0.500000
O O5 0.245963 0.507289 0.454601
O O6 0.349535 0.291785 0.272088
O O7 0.081831 0.578732 0.218254
O O8 0.010717 0.211611 0.193369
O O9 0.147354 0.086914 0.813035
O O10 0.333204 0.006701 0.042124
O O11 0.017780 0.227776 0.956977
O O12 0.633486 0.326882 0.273652
O O13 0.000000 0.500000 0.500000
O O14 0.789677 0.507321 0.984625
#
# Coordination Sequence:
#
# PCOD9016894 Si02
#       7
#     2   2   2   2   2   1   2
#     4  12  25  44  68  99 139 185 228 280 343 404
#     4  12  23  45  75  98 137 185 222 285 339 407
#     4  10  23  42  72 102 137 169 230 280 340 406
#     4  12  26  45  68  97 140 183 231 277 340 402
#     4  12  26  43  71 105 135 177 234 278 343 406
#     4   8  20  40  66 100 136 170 220 272 344 394
#     4  10  21  42  69  98 141 173 224 279 345 398
#
# _framework density 24.621601999999999
#
# number of rings (size 3 to 8) (size 9 to 14) (size 15 to 20)
#    0.923    0.000    4.615    1.846    0.000    4.923 
#    0.000    1.538    0.000    0.000    0.000    0.000 
#    0.000    0.000    0.000    0.000    0.000    0.000 
#
# Total GULP energy -72386.704559 kJ/mol
# GULP energy per Si atom -5568.208043 kJ/mol
# Density = 2.456556 g / cm^3
# Si number density = 24.621602 Si / 1000 Ang^3
#
#
#
# Elastic Constant Matrix: (Units=GPa)
#
#
# Indices 1 2 3 4 5 6 
#
# 1 55.0122 5.6873 18.2766 -2.7279 7.6052 -15.1361
# 2 5.6873 135.9886 51.8889 -37.1335 24.6006 -0.7422
# 3 18.2766 51.8889 104.6931 -9.3464 32.2639 4.7445
# 4 -2.7279 -37.1335 -9.3464 46.2692 -6.2794 1.0673
# 5 7.6052 24.6006 32.2639 -6.2794 38.1140 8.0744
# 6 -15.1361 -0.7422 4.7445 1.0673 8.0744 42.1949
#
#
#
# Elastic Compliance Matrix: (Units=1/GPa)
#
#
# Indices 1 2 3 4 5 6 
#
# 1 0.022429 0.001577 -0.003759 0.001059 -0.004097 0.009253
# 2 0.001577 0.011828 -0.004517 0.008210 -0.003127 0.001673
# 3 -0.003759 -0.004517 0.015171 -0.002004 -0.009228 -0.001317
# 4 0.001059 0.008210 -0.002004 0.027973 0.000819 -0.000114
# 5 -0.004097 -0.003127 -0.009228 0.000819 0.038696 -0.007913
# 6 0.009253 0.001673 -0.001317 -0.000114 -0.007913 0.028713
#
#
# Mechanical properties :
#
#
# Convention : Reuss Voigt Hill
#
# Bulk Modulus (GPa) = 27.75448 49.71108 38.73278
# Shear Modulus (GPa) = 29.37417 39.97170 34.67293
#
# Velocity S-wave (km/s) = 3.45777 4.03356 3.75671
# Velocity P-wave (km/s) = 5.21904 6.47508 5.88069
#
# Compressibility (1/GPa) = 0.03603022
#
# Stress axis : x y z
#
# Youngs Moduli (GPa) = 44.58607 84.54739 65.91361
#
# Poissons Ratio (x) = -0.13336 0.24780
# Poissons Ratio (y) = -0.07033 0.29771
# Poissons Ratio (z) = 0.16762 0.38187
#
# Static dielectric constant tensor:
#      x y z
#    x 2.014000 0.082480 0.000290 
#    y 0.082480 2.007140 -0.073040 
#    z 0.000290 -0.073040 1.740400 
# 
# From -- ./inp_files/491521.got.cif
#   From: 2010.05.17/outbox.cif.g08.bks.cpg/sg2_246_cif.got.tgz:491521.got - 2010.06.03 11:33:40.
