data_PCOD9016375
_publ_section_title
;
Structure prediction by ZEFSAII (Michael W. Deem and Ramdas Pophale) SiO2 
 PCOD9016375
Probable space group: P -1
;
_chemical_formula_sum "Si O2"
_cell_formula_units_Z 16
_cell_length_a 29.066183
_cell_length_b 11.877964
_cell_length_c 17.961770
_cell_angle_alpha 27.989427
_cell_angle_beta 159.849755
_cell_angle_gamma 160.302283
_cell_volume 720.013147
_symmetry_space_group_name_H-M "P -1"
_symmetry_group_IT_number 2
_symmetry_cell_setting 'triclinic'
loop_
_space_group_symop_operation_xyz
x,y,z
-x,-y,-z
loop_
_atom_site_type_symbol
_atom_site_label
_atom_site_fract_x
_atom_site_fract_y
_atom_site_fract_z
Si Si1 0.381002 0.178967 0.060360
Si Si2 0.292915 0.674836 0.032299
Si Si3 0.379666 0.887889 0.457180
Si Si4 0.640584 0.420672 0.096713
Si Si5 0.315705 0.303324 0.386744
Si Si6 0.583839 0.528195 0.787126
Si Si7 0.970421 0.698204 0.663761
Si Si8 0.924386 0.447475 0.583350
O O1 0.495265 0.083617 0.306542
O O2 0.500000 0.500000 0.000000
O O3 0.364629 0.323530 0.024646
O O4 0.174853 0.872437 0.896668
O O5 0.144765 0.688573 0.775622
O O6 0.242509 0.468935 0.151327
O O7 0.304200 0.488050 0.093804
O O8 0.489957 0.052958 0.119099
O O9 0.180724 0.505611 0.381336
O O10 0.500000 0.000000 0.500000
O O11 0.341739 0.117877 0.283465
O O12 0.837368 0.545481 0.342652
O O13 0.584472 0.373254 0.953371
O O14 0.500000 0.500000 0.500000
O O15 0.388716 0.346647 0.555618
O O16 0.168401 0.917074 0.368296
O O17 0.884723 0.450144 0.608163
O O18 0.000000 0.000000 0.500000
#
# Coordination Sequence:
#
# PCOD9016375 Si02
#       8
#     2   2   2   2   2   2   2   2
#     4  12  25  45  75 104 139 190 241 298 357 420
#     4  11  25  42  74 101 136 185 235 289 357 418
#     4  12  27  49  71 102 147 190 234 300 368 416
#     4  12  24  45  67 102 145 179 234 291 351 434
#     4  10  21  42  67  95 134 178 224 284 342 409
#     4  11  25  47  68 100 147 184 229 292 359 428
#     4  12  25  43  73 107 138 185 249 292 344 435
#     4  12  24  42  71 105 139 179 240 291 350 421
#
# _framework density 22.221814999999999
#
# number of rings (size 3 to 8) (size 9 to 14) (size 15 to 20)
#    0.000    0.500    6.250    3.000    3.500    1.000 
#    0.000    0.000    0.000    0.000    0.000    0.000 
#    0.000    0.000    0.000    0.000    0.000    0.000 
#
# Total GULP energy -89442.815907 kJ/mol
# GULP energy per Si atom -5590.175994 kJ/mol
# Density = 2.217124 g / cm^3
# Si number density = 22.221815 Si / 1000 Ang^3
#
#
#
# Elastic Constant Matrix: (Units=GPa)
#
#
# Indices 1 2 3 4 5 6 
#
# 1 88.3893 25.5446 32.1392 0.4192 -15.5800 -4.9899
# 2 25.5446 65.8180 20.3247 3.7841 2.0192 3.4087
# 3 32.1392 20.3247 137.4316 5.2174 -6.8190 9.3592
# 4 0.4192 3.7841 5.2174 37.0870 -4.5360 3.8347
# 5 -15.5800 2.0192 -6.8190 -4.5360 43.4866 -2.3429
# 6 -4.9899 3.4087 9.3592 3.8347 -2.3429 27.4544
#
#
#
# Elastic Compliance Matrix: (Units=1/GPa)
#
#
# Indices 1 2 3 4 5 6 
#
# 1 0.015178 -0.005494 -0.002819 0.000981 0.005609 0.004743
# 2 -0.005494 0.018074 -0.001295 -0.001714 -0.003343 -0.002847
# 3 -0.002819 -0.001295 0.008370 -0.000678 0.000125 -0.003100
# 4 0.000981 -0.001714 -0.000678 0.027910 0.003074 -0.003014
# 5 0.005609 -0.003343 0.000125 0.003074 0.025670 0.003153
# 6 0.004743 -0.002847 -0.003100 -0.003014 0.003153 0.039386
#
#
# Mechanical properties :
#
#
# Convention : Reuss Voigt Hill
#
# Bulk Modulus (GPa) = 44.63111 49.73956 47.18533
# Shear Modulus (GPa) = 31.00286 35.84762 33.42524
#
# Velocity S-wave (km/s) = 3.73923 4.02079 3.88256
# Velocity P-wave (km/s) = 6.22659 6.63230 6.43265
#
# Compressibility (1/GPa) = 0.02240590
#
# Stress axis : x y z
#
# Youngs Moduli (GPa) = 65.88353 55.32704 119.47280
#
# Poissons Ratio (x) = 0.30399 0.33679
# Poissons Ratio (y) = 0.36200 0.15472
# Poissons Ratio (z) = 0.18572 0.07165
#
# Static dielectric constant tensor:
#      x y z
#    x 1.868130 -0.012250 0.000580 
#    y -0.012250 1.805690 -0.015210 
#    z 0.000580 -0.015210 1.830100 
# 
# From -- ./inp_files/519072.got.cif
#   From: 2010.05.17/outbox.cif.g08.bks.cpg/sg2_260_cif.got.tgz:519072.got - 2010.06.03 11:33:40.
