data_PCOD9016454
_publ_section_title
;
Structure prediction by ZEFSAII (Michael W. Deem and Ramdas Pophale) SiO2 
 PCOD9016454
Probable space group: P -1
;
_chemical_formula_sum "Si O2"
_cell_formula_units_Z 16
_cell_length_a 14.825211
_cell_length_b 12.304820
_cell_length_c 5.710389
_cell_angle_alpha 84.582513
_cell_angle_beta 72.062308
_cell_angle_gamma 130.596079
_cell_volume 687.008454
_symmetry_space_group_name_H-M "P -1"
_symmetry_group_IT_number 2
_symmetry_cell_setting 'triclinic'
loop_
_space_group_symop_operation_xyz
x,y,z
-x,-y,-z
loop_
_atom_site_type_symbol
_atom_site_label
_atom_site_fract_x
_atom_site_fract_y
_atom_site_fract_z
Si Si1 0.462905 0.409190 0.302959
Si Si2 0.635014 0.080305 0.652933
Si Si3 0.800612 0.763999 0.683092
Si Si4 0.065289 0.975313 0.139905
Si Si5 0.212430 0.897040 0.866221
Si Si6 0.503382 0.837250 0.189629
Si Si7 0.148549 0.631132 0.231795
Si Si8 0.333488 0.575316 0.046261
O O1 0.500000 0.500000 0.500000
O O2 0.299930 0.271922 0.429472
O O3 0.500000 0.500000 0.000000
O O4 0.541016 0.356715 0.239207
O O5 0.719652 0.063819 0.443936
O O6 0.563669 0.129094 0.589164
O O7 0.747284 0.231127 0.693223
O O8 0.519850 0.917550 0.914446
O O9 0.748097 0.604701 0.846209
O O10 0.949889 0.862185 0.448241
O O11 0.811814 0.862056 0.859529
O O12 0.100793 0.894233 0.997456
O O13 0.000000 0.000000 0.000000
O O14 0.341280 0.045931 0.885838
O O15 0.152670 0.728727 0.012768
O O16 0.406700 0.659946 0.223012
O O17 0.224185 0.582503 0.095496
O O18 0.000000 0.500000 0.500000
#
# Coordination Sequence:
#
# PCOD9016454 Si02
#       8
#     2   2   2   2   2   2   2   2
#     4  10  23  44  69 102 139 185 231 292 355 418
#     4   9  20  38  59  92 130 169 217 267 335 420
#     4  10  24  47  66  95 137 179 235 290 352 421
#     4  11  26  43  67  94 131 187 236 287 350 419
#     4  11  22  40  65  96 128 173 227 280 344 418
#     4   9  19  39  62  91 130 170 215 273 348 410
#     4  10  22  41  64  97 135 174 220 280 348 419
#     4  10  21  42  67  99 133 177 222 288 355 422
#
# _framework density 23.289377999999999
#
# number of rings (size 3 to 8) (size 9 to 14) (size 15 to 20)
#    0.000    2.000    0.000    2.625    3.500    6.500 
#   13.500    0.000    0.000    0.000    0.000    0.000 
#    0.000    0.000    0.000    0.000    0.000    0.000 
#
# Total GULP energy -89210.203887 kJ/mol
# GULP energy per Si atom -5575.637743 kJ/mol
# Density = 2.323637 g / cm^3
# Si number density = 23.289378 Si / 1000 Ang^3
#
#
#
# Elastic Constant Matrix: (Units=GPa)
#
#
# Indices 1 2 3 4 5 6 
#
# 1 111.5734 34.0688 24.5951 18.7916 -35.3795 -24.3292
# 2 34.0688 106.3170 31.8936 9.0189 -15.8197 -6.4593
# 3 24.5951 31.8936 66.4829 15.5735 -25.6081 -9.5325
# 4 18.7916 9.0189 15.5735 44.1470 -3.5430 -12.4515
# 5 -35.3795 -15.8197 -25.6081 -3.5430 39.0110 13.6495
# 6 -24.3292 -6.4593 -9.5325 -12.4515 13.6495 39.8347
#
#
#
# Elastic Compliance Matrix: (Units=1/GPa)
#
#
# Indices 1 2 3 4 5 6 
#
# 1 0.014687 -0.002984 0.002111 -0.004436 0.011852 0.003543
# 2 -0.002984 0.011656 -0.005082 0.000411 -0.001047 -0.000661
# 3 0.002111 -0.005082 0.024279 -0.007579 0.015607 -0.001442
# 4 -0.004436 0.000411 -0.007579 0.028533 -0.008864 0.007500
# 5 0.011852 -0.001047 0.015607 -0.008864 0.048389 -0.008548
# 6 0.003543 -0.000661 -0.001442 0.007500 -0.008548 0.032089
#
#
# Mechanical properties :
#
#
# Convention : Reuss Voigt Hill
#
# Bulk Modulus (GPa) = 25.83298 51.72092 38.77695
# Shear Modulus (GPa) = 27.10809 37.51960 32.31384
#
# Velocity S-wave (km/s) = 3.41540 4.01810 3.72895
# Velocity P-wave (km/s) = 5.16425 6.61687 5.93517
#
# Compressibility (1/GPa) = 0.03871021
#
# Stress axis : x y z
#
# Youngs Moduli (GPa) = 68.08851 85.79414 41.18825
#
# Poissons Ratio (x) = 0.25604 -0.08694
# Poissons Ratio (y) = 0.20320 0.20932
# Poissons Ratio (z) = -0.14372 0.43601
#
# Static dielectric constant tensor:
#      x y z
#    x 1.963940 0.011310 0.026130 
#    y 0.011310 1.905260 -0.034480 
#    z 0.026130 -0.034480 2.207700 
# 
# From -- ./inp_files/94959.got.cif
#   From: 2010.05.17/outbox.cif.g08.bks.cpg/sg2_48_cif.got.tgz:94959.got - 2010.06.03 11:33:40.
