data_PCOD9016187
_publ_section_title
;
Structure prediction by ZEFSAII (Michael W. Deem and Ramdas Pophale) SiO2 
 PCOD9016187
Probable space group: P -1
;
_chemical_formula_sum "Si O2"
_cell_formula_units_Z 14
_cell_length_a 22.501183
_cell_length_b 19.954360
_cell_length_c 10.647658
_cell_angle_alpha 147.752136
_cell_angle_beta 156.990879
_cell_angle_gamma 18.987206
_cell_volume 596.495575
_symmetry_space_group_name_H-M "P -1"
_symmetry_group_IT_number 2
_symmetry_cell_setting 'triclinic'
loop_
_space_group_symop_operation_xyz
x,y,z
-x,-y,-z
loop_
_atom_site_type_symbol
_atom_site_label
_atom_site_fract_x
_atom_site_fract_y
_atom_site_fract_z
Si Si1 0.504697 0.905507 0.581593
Si Si2 0.018873 0.044831 0.292340
Si Si3 0.772248 0.355267 0.849652
Si Si4 0.756489 0.543907 0.363076
Si Si5 0.894027 0.670414 0.659753
Si Si6 0.604715 0.181737 0.551519
Si Si7 0.937432 0.359617 0.696786
O O1 0.501424 0.775379 0.292136
O O2 0.369460 0.960530 0.537504
O O3 0.368947 0.100774 0.544126
O O4 0.790141 0.757489 0.936878
O O5 0.084125 0.868596 0.199117
O O6 0.268918 0.918657 0.497315
O O7 0.956656 0.199331 0.508930
O O8 0.778602 0.176435 0.942826
O O9 0.500000 0.500000 0.500000
O O10 0.748251 0.453528 0.087680
O O11 0.916716 0.338925 0.997851
O O12 0.876253 0.595272 0.626727
O O13 0.888040 0.401276 0.516092
O O14 0.000000 0.500000 0.500000
O O15 0.309593 0.416728 0.362132
#
# Coordination Sequence:
#
# PCOD9016187 Si02
#       7
#     2   2   2   2   2   2   2
#     4  11  23  44  68 102 134 173 226 278 340 397
#     4  11  23  41  68  96 141 178 221 274 340 394
#     4  11  25  44  65  95 132 181 230 268 333 406
#     4  10  22  44  68  94 132 174 217 282 333 389
#     4  10  23  43  67  93 136 176 223 278 327 400
#     4  10  21  42  66  98 138 176 220 280 334 399
#     4  11  25  41  72 107 135 171 226 281 339 405
#
# _framework density 23.470416
#
# number of rings (size 3 to 8) (size 9 to 14) (size 15 to 20)
#    0.000    1.429    1.429    4.286    6.000    4.000 
#    2.571    0.714    0.000    0.000    0.000    0.000 
#    0.000    0.000    0.000    0.000    0.000    0.000 
#
# Total GULP energy -78196.024583 kJ/mol
# GULP energy per Si atom -5585.430327 kJ/mol
# Density = 2.341700 g / cm^3
# Si number density = 23.470416 Si / 1000 Ang^3
#
#
#
# Elastic Constant Matrix: (Units=GPa)
#
#
# Indices 1 2 3 4 5 6 
#
# 1 72.9641 20.3275 33.2939 4.0527 14.2615 2.8172
# 2 20.3275 132.2882 52.9325 2.2424 0.5063 13.0741
# 3 33.2939 52.9325 99.0462 -24.6174 4.5413 12.0366
# 4 4.0527 2.2424 -24.6174 46.8761 -1.9988 13.0748
# 5 14.2615 0.5063 4.5413 -1.9988 34.7979 5.9465
# 6 2.8172 13.0741 12.0366 13.0748 5.9465 23.1381
#
#
#
# Elastic Compliance Matrix: (Units=1/GPa)
#
#
# Indices 1 2 3 4 5 6 
#
# 1 0.020652 0.000220 -0.010834 -0.011197 -0.009717 0.011821
# 2 0.000220 0.010200 -0.006416 -0.003727 0.000464 -0.000466
# 3 -0.010834 -0.006416 0.024382 0.020057 0.006028 -0.020622
# 4 -0.011197 -0.003727 0.020057 0.042889 0.010272 -0.033840
# 5 -0.009717 0.000464 0.006028 0.010272 0.035443 -0.017128
# 6 0.011821 -0.000466 -0.020622 -0.033840 -0.017128 0.076294
#
#
# Mechanical properties :
#
#
# Convention : Reuss Voigt Hill
#
# Bulk Modulus (GPa) = 47.22654 57.48956 52.35805
# Shear Modulus (GPa) = 19.92205 34.14541 27.03373
#
# Velocity S-wave (km/s) = 2.91660 3.81836 3.39753
# Velocity P-wave (km/s) = 5.61316 6.63230 6.14390
#
# Compressibility (1/GPa) = 0.02117453
#
# Stress axis : x y z
#
# Youngs Moduli (GPa) = 48.42075 98.03794 41.01453
#
# Poissons Ratio (x) = -0.02159 0.44435
# Poissons Ratio (y) = -0.01066 0.26315
# Poissons Ratio (z) = 0.52459 0.62902
#
# Static dielectric constant tensor:
#      x y z
#    x 1.935900 0.006750 -0.008500 
#    y 0.006750 1.895960 -0.010530 
#    z -0.008500 -0.010530 1.943960 
# 
# From -- ./inp_files/475606.got.cif
#   From: 2010.05.17/outbox.cif.g08.bks.cpg/sg2_238_cif.got.tgz:475606.got - 2010.06.03 11:33:40.
