data_PCOD9016735
_publ_section_title
;
Structure prediction by ZEFSAII (Michael W. Deem and Ramdas Pophale) SiO2 
 PCOD9016735
Probable space group: P -1
;
_chemical_formula_sum "Si O2"
_cell_formula_units_Z 16
_cell_length_a 14.284930
_cell_length_b 14.441600
_cell_length_c 8.435700
_cell_angle_alpha 37.439814
_cell_angle_beta 102.868701
_cell_angle_gamma 129.749484
_cell_volume 644.716852
_symmetry_space_group_name_H-M "P -1"
_symmetry_group_IT_number 2
_symmetry_cell_setting 'triclinic'
loop_
_space_group_symop_operation_xyz
x,y,z
-x,-y,-z
loop_
_atom_site_type_symbol
_atom_site_label
_atom_site_fract_x
_atom_site_fract_y
_atom_site_fract_z
Si Si1 0.002830 0.254323 0.239926
Si Si2 0.844663 0.597835 0.329125
Si Si3 0.655996 0.979160 0.743448
Si Si4 0.374017 0.475682 0.441732
Si Si5 0.594643 0.774552 0.666889
Si Si6 0.826639 0.926978 0.353274
Si Si7 0.315945 0.651075 0.713355
Si Si8 0.018596 0.614371 0.612042
O O1 0.883107 0.990907 0.473202
O O2 0.994433 0.297728 0.356402
O O3 0.171093 0.392191 0.092818
O O4 0.996933 0.409719 0.928728
O O5 0.749080 0.615790 0.352246
O O6 0.738065 0.401707 0.416453
O O7 0.896456 0.527246 0.562141
O O8 0.009559 0.853541 0.971285
O O9 0.667212 0.889503 0.712682
O O10 0.672434 0.173559 0.434813
O O11 0.801459 0.133964 0.704288
O O12 0.490422 0.754763 0.062409
O O13 0.500000 0.500000 0.500000
O O14 0.276896 0.304152 0.485686
O O15 0.470539 0.752424 0.640215
O O16 0.705763 0.913901 0.367321
O O17 0.500000 0.500000 0.000000
#
# Coordination Sequence:
#
# PCOD9016735 Si02
#       8
#     2   2   2   2   2   2   2   2
#     4   9  21  41  69  99 138 181 234 292 335 421
#     4  11  26  45  69 100 142 185 232 292 349 428
#     4  11  24  43  73 105 138 188 231 299 349 414
#     4  12  26  44  67 102 148 186 231 282 359 430
#     4  12  24  45  73 105 142 183 238 297 353 417
#     4  11  23  44  66  99 134 186 229 285 349 414
#     4  10  25  45  70 106 139 186 240 286 359 418
#     4  10  21  42  69 102 135 182 234 285 356 404
#
# _framework density 24.817094999999998
#
# number of rings (size 3 to 8) (size 9 to 14) (size 15 to 20)
#    0.000    1.250    2.500    2.250    1.750    7.000 
#    2.250    3.125    0.000    0.000    0.000    0.000 
#    0.000    0.000    0.000    0.000    0.000    0.000 
#
# Total GULP energy -89348.393793 kJ/mol
# GULP energy per Si atom -5584.274612 kJ/mol
# Density = 2.476061 g / cm^3
# Si number density = 24.817095 Si / 1000 Ang^3
#
#
#
# Elastic Constant Matrix: (Units=GPa)
#
#
# Indices 1 2 3 4 5 6 
#
# 1 146.4626 32.4014 29.1310 1.8223 -29.4752 -11.8256
# 2 32.4014 117.2845 22.4093 -13.0866 6.2309 0.0885
# 3 29.1310 22.4093 51.7735 -21.6216 -16.1077 -1.2708
# 4 1.8223 -13.0866 -21.6216 32.8694 -7.4634 7.9268
# 5 -29.4752 6.2309 -16.1077 -7.4634 44.5312 2.7949
# 6 -11.8256 0.0885 -1.2708 7.9268 2.7949 45.1841
#
#
#
# Elastic Compliance Matrix: (Units=1/GPa)
#
#
# Indices 1 2 3 4 5 6 
#
# 1 0.009380 -0.002371 -0.004846 -0.004468 0.003858 0.002868
# 2 -0.002371 0.010298 -0.004291 0.000542 -0.004435 -0.000582
# 3 -0.004846 -0.004291 0.043604 0.033304 0.019190 -0.007063
# 4 -0.004468 0.000542 0.033304 0.060204 0.019859 -0.012024
# 5 0.003858 -0.004435 0.019190 0.019859 0.036162 -0.004162
# 6 0.002868 -0.000582 -0.007063 -0.012024 -0.004162 0.025052
#
#
# Mechanical properties :
#
#
# Convention : Reuss Voigt Hill
#
# Bulk Modulus (GPa) = 24.83477 53.71153 39.27315
# Shear Modulus (GPa) = 22.61047 39.95554 31.28301
#
# Velocity S-wave (km/s) = 3.02169 4.01683 3.55426
# Velocity P-wave (km/s) = 4.71201 6.57292 5.71866
#
# Compressibility (1/GPa) = 0.04026613
#
# Stress axis : x y z
#
# Youngs Moduli (GPa) = 106.61203 97.10952 22.93345
#
# Poissons Ratio (x) = 0.23024 0.11114
# Poissons Ratio (y) = 0.25277 0.09840
# Poissons Ratio (z) = 0.51667 0.41666
#
# Static dielectric constant tensor:
#      x y z
#    x 2.006640 0.045900 0.012940 
#    y 0.045900 1.939060 0.019210 
#    z 0.012940 0.019210 2.171180 
# 
# From -- ./inp_files/314494.got.cif
#   From: 2010.05.17/outbox.cif.g08.bks.cpg/sg2_158_cif.got.tgz:314494.got - 2010.06.03 11:33:40.
