data_PCOD9016216
_publ_section_title
;
Structure prediction by ZEFSAII (Michael W. Deem and Ramdas Pophale) SiO2 
 PCOD9016216
Probable space group: P -1
;
_chemical_formula_sum "Si O2"
_cell_formula_units_Z 14
_cell_length_a 14.114305
_cell_length_b 6.259798
_cell_length_c 10.037091
_cell_angle_alpha 74.033779
_cell_angle_beta 137.611416
_cell_angle_gamma 108.432696
_cell_volume 565.974363
_symmetry_space_group_name_H-M "P -1"
_symmetry_group_IT_number 2
_symmetry_cell_setting 'triclinic'
loop_
_space_group_symop_operation_xyz
x,y,z
-x,-y,-z
loop_
_atom_site_type_symbol
_atom_site_label
_atom_site_fract_x
_atom_site_fract_y
_atom_site_fract_z
Si Si1 0.538867 0.749818 0.715548
Si Si2 0.757091 0.147546 0.863998
Si Si3 0.249123 0.473807 0.401942
Si Si4 0.749164 0.423309 0.049540
Si Si5 0.443477 0.757251 0.901639
Si Si6 0.047921 0.034812 0.197085
Si Si7 0.939469 0.426499 0.594535
O O1 0.418286 0.561850 0.556564
O O2 0.668716 0.632525 0.920216
O O3 0.459987 0.820938 0.753406
O O4 0.632332 0.962978 0.703365
O O5 0.809931 0.332342 0.775280
O O6 0.687408 0.260082 0.894197
O O7 0.894037 0.069851 0.086452
O O8 0.178095 0.241679 0.302831
O O9 0.186127 0.464289 0.488260
O O10 0.707516 0.313712 0.168805
O O11 0.915579 0.495356 0.183090
O O12 0.500000 0.500000 0.000000
O O13 0.500000 0.000000 0.000000
O O14 0.094839 0.837528 0.365758
O O15 0.000000 0.000000 0.000000
O O16 0.000000 0.500000 0.500000
#
# Coordination Sequence:
#
# PCOD9016216 Si02
#       7
#     2   2   2   2   2   2   2
#     4  11  25  44  69 106 149 191 245 314 381 447
#     4  12  23  44  76 101 143 196 247 300 377 462
#     4  12  27  45  71 113 144 184 253 315 372 450
#     4  11  23  44  71 100 146 198 247 299 386 459
#     4  10  21  42  67 100 146 199 247 303 382 464
#     4  12  25  49  77 102 148 199 246 304 385 457
#     4  12  26  47  74 107 144 191 250 310 369 452
#
# _framework density 24.736104999999998
#
# number of rings (size 3 to 8) (size 9 to 14) (size 15 to 20)
#    0.000    0.571    5.714    2.571    0.000    2.286 
#    5.143    0.000    0.000    0.000    0.000    0.000 
#    0.000    0.000    0.000    0.000    0.000    0.000 
#
# Total GULP energy -78003.429484 kJ/mol
# GULP energy per Si atom -5571.673535 kJ/mol
# Density = 2.467980 g / cm^3
# Si number density = 24.736105 Si / 1000 Ang^3
#
#
#
# Elastic Constant Matrix: (Units=GPa)
#
#
# Indices 1 2 3 4 5 6 
#
# 1 109.5171 33.2279 2.2409 11.6192 -8.7137 5.3710
# 2 33.2279 139.0568 45.6757 38.2462 2.9996 30.0939
# 3 2.2409 45.6757 70.2586 30.8268 8.5156 6.4469
# 4 11.6192 38.2462 30.8268 46.2264 14.1711 7.8788
# 5 -8.7137 2.9996 8.5156 14.1711 43.3618 6.0238
# 6 5.3710 30.0939 6.4469 7.8788 6.0238 35.1965
#
#
#
# Elastic Compliance Matrix: (Units=1/GPa)
#
#
# Indices 1 2 3 4 5 6 
#
# 1 0.010363 -0.002560 0.002229 -0.002867 0.002706 0.000378
# 2 -0.002560 0.013066 -0.005318 -0.005957 0.002817 -0.008955
# 3 0.002229 -0.005318 0.022457 -0.011536 -0.000201 0.002711
# 4 -0.002867 -0.005957 -0.011536 0.038023 -0.010453 0.000922
# 5 0.002706 0.002817 -0.000201 -0.010453 0.027584 -0.005166
# 6 0.000378 -0.008955 0.002711 0.000922 -0.005166 0.036193
#
#
# Mechanical properties :
#
#
# Convention : Reuss Voigt Hill
#
# Bulk Modulus (GPa) = 28.91240 53.45796 41.18518
# Shear Modulus (GPa) = 29.32337 40.80278 35.06308
#
# Velocity S-wave (km/s) = 3.44677 4.06584 3.76904
# Velocity P-wave (km/s) = 5.24919 6.61057 5.96882
#
# Compressibility (1/GPa) = 0.03458724
#
# Stress axis : x y z
#
# Youngs Moduli (GPa) = 96.49604 76.53608 44.53000
#
# Poissons Ratio (x) = 0.19593 -0.09926
# Poissons Ratio (y) = 0.24703 0.23683
# Poissons Ratio (z) = -0.21510 0.40704
#
# Static dielectric constant tensor:
#      x y z
#    x 2.067290 -0.111490 0.002810 
#    y -0.111490 2.149330 -0.017420 
#    z 0.002810 -0.017420 2.041180 
# 
# From -- ./inp_files/441850.got.cif
#   From: 2010.05.17/outbox.cif.g08.bks.cpg/sg2_221_cif.got.tgz:441850.got - 2010.06.03 11:33:40.
