data_PCOD9016020
_publ_section_title
;
Structure prediction by ZEFSAII (Michael W. Deem and Ramdas Pophale) SiO2 
 PCOD9016020
Probable space group: P -1
;
_chemical_formula_sum "Si O2"
_cell_formula_units_Z 16
_cell_length_a 8.392206
_cell_length_b 9.361543
_cell_length_c 17.081644
_cell_angle_alpha 93.994196
_cell_angle_beta 66.117653
_cell_angle_gamma 43.717735
_cell_volume 694.866996
_symmetry_space_group_name_H-M "P -1"
_symmetry_group_IT_number 2
_symmetry_cell_setting 'triclinic'
loop_
_space_group_symop_operation_xyz
x,y,z
-x,-y,-z
loop_
_atom_site_type_symbol
_atom_site_label
_atom_site_fract_x
_atom_site_fract_y
_atom_site_fract_z
Si Si1 0.903601 0.900354 0.202134
Si Si2 0.244811 0.336561 0.177388
Si Si3 0.876033 0.131781 0.611230
Si Si4 0.708017 0.234561 0.118235
Si Si5 0.191595 0.188051 0.620777
Si Si6 0.181950 0.582487 0.797886
Si Si7 0.235708 0.241196 0.896461
Si Si8 0.814567 0.038095 0.772925
O O1 0.750057 0.933464 0.311770
O O2 0.936171 0.748063 0.129256
O O3 0.178384 0.817913 0.174178
O O4 0.707329 0.146337 0.197399
O O5 0.411687 0.376617 0.137309
O O6 0.000857 0.538856 0.304397
O O7 0.029124 0.414407 0.157197
O O8 0.533651 0.032080 0.117442
O O9 0.515490 0.347222 0.686150
O O10 0.988719 0.959859 0.655429
O O11 0.968519 0.230950 0.619249
O O12 0.000000 0.000000 0.500000
O O13 0.756651 0.365823 0.135449
O O14 0.000000 0.000000 0.000000
O O15 0.500000 0.000000 0.500000
O O16 0.986182 0.811386 0.785326
O O17 0.497924 0.177849 0.815881
O O18 0.000000 0.500000 0.000000
#
# Coordination Sequence:
#
# PCOD9016020 Si02
#       8
#     2   2   2   2   2   2   2   2
#     4   9  22  43  63  94 137 164 224 281 321 406
#     4  10  22  43  63 100 134 167 232 274 328 418
#     4  11  23  39  67  98 128 177 222 276 345 401
#     4  10  21  43  66  93 130 177 224 277 335 390
#     4  11  23  44  69  99 135 179 222 280 353 400
#     4  10  21  42  66  90 137 170 219 284 330 397
#     4  10  22  42  66  94 130 177 223 276 334 390
#     4   9  22  42  64  92 132 170 223 276 332 400
#
# _framework density 23.025988000000002
#
# number of rings (size 3 to 8) (size 9 to 14) (size 15 to 20)
#    0.000    2.000    1.250    0.750    3.500    3.500 
#    6.750    6.250    0.000    0.000    0.000    0.000 
#    0.000    0.000    0.000    0.000    0.000    0.000 
#
# Total GULP energy -89166.086148 kJ/mol
# GULP energy per Si atom -5572.880384 kJ/mol
# Density = 2.297358 g / cm^3
# Si number density = 23.025988 Si / 1000 Ang^3
#
#
#
# Elastic Constant Matrix: (Units=GPa)
#
#
# Indices 1 2 3 4 5 6 
#
# 1 178.7786 32.3147 26.7568 -5.8106 13.4142 -28.4994
# 2 32.3147 77.3434 13.7982 0.9619 4.0399 0.8992
# 3 26.7568 13.7982 106.7921 9.0007 3.9313 -10.3760
# 4 -5.8106 0.9619 9.0007 25.8881 -1.4844 -0.9567
# 5 13.4142 4.0399 3.9313 -1.4844 36.2650 4.9174
# 6 -28.4994 0.8992 -10.3760 -0.9567 4.9174 50.1728
#
#
#
# Elastic Compliance Matrix: (Units=1/GPa)
#
#
# Indices 1 2 3 4 5 6 
#
# 1 0.007201 -0.002742 -0.001118 0.002106 -0.002722 0.004215
# 2 -0.002742 0.014350 -0.001296 -0.000786 -0.000194 -0.002079
# 3 -0.001118 -0.001296 0.010314 -0.003785 -0.000924 0.001540
# 4 0.002106 -0.000786 -0.003785 0.040556 0.001232 0.001080
# 5 -0.002722 -0.000194 -0.000924 0.001232 0.029376 -0.004590
# 6 0.004215 -0.002079 0.001540 0.001080 -0.004590 0.023152
#
#
# Mechanical properties :
#
#
# Convention : Reuss Voigt Hill
#
# Bulk Modulus (GPa) = 46.39449 56.51707 51.45578
# Shear Modulus (GPa) = 35.10105 41.80148 38.45126
#
# Velocity S-wave (km/s) = 3.90861 4.26538 4.09088
# Velocity P-wave (km/s) = 6.36884 6.98972 6.68649
#
# Compressibility (1/GPa) = 0.02155429
#
# Stress axis : x y z
#
# Youngs Moduli (GPa) = 138.86582 69.68470 96.95522
#
# Poissons Ratio (x) = 0.19110 0.10837
# Poissons Ratio (y) = 0.38082 0.12562
# Poissons Ratio (z) = 0.15521 0.09029
#
# Static dielectric constant tensor:
#      x y z
#    x 1.892710 0.031470 0.024210 
#    y 0.031470 1.985060 -0.043000 
#    z 0.024210 -0.043000 1.755920 
# 
# From -- ./inp_files/559859.got.cif
#   From: 2010.05.17/outbox.cif.g08.bks.cpg/sg2_280_cif.got.tgz:559859.got - 2010.06.03 11:33:40.
