data_PCOD9016571
_publ_section_title
;
Structure prediction by ZEFSAII (Michael W. Deem and Ramdas Pophale) SiO2 
 PCOD9016571
Probable space group: P -1
;
_chemical_formula_sum "Si O2"
_cell_formula_units_Z 14
_cell_length_a 14.492128
_cell_length_b 14.533490
_cell_length_c 9.379036
_cell_angle_alpha 42.294137
_cell_angle_beta 152.355349
_cell_angle_gamma 138.193790
_cell_volume 590.527759
_symmetry_space_group_name_H-M "P -1"
_symmetry_group_IT_number 2
_symmetry_cell_setting 'triclinic'
loop_
_space_group_symop_operation_xyz
x,y,z
-x,-y,-z
loop_
_atom_site_type_symbol
_atom_site_label
_atom_site_fract_x
_atom_site_fract_y
_atom_site_fract_z
Si Si1 0.367381 0.661746 0.552182
Si Si2 0.146760 0.335061 0.326545
Si Si3 0.658579 0.889929 0.263853
Si Si4 0.223322 0.341929 0.733973
Si Si5 0.284009 0.653082 0.135187
Si Si6 0.953175 0.050721 0.721091
Si Si7 0.316136 0.957046 0.178539
O O1 0.232007 0.504261 0.594124
O O2 0.410898 0.654890 0.452319
O O3 0.262955 0.785678 0.298190
O O4 0.591097 0.696094 0.889323
O O5 0.181000 0.203482 0.439628
O O6 0.278882 0.340797 0.644731
O O7 0.219035 0.490758 0.173760
O O8 0.923575 0.321202 0.109803
O O9 0.435905 0.773614 0.111799
O O10 0.746789 0.977285 0.430003
O O11 0.645338 0.985791 0.997563
O O12 0.009493 0.222405 0.610862
O O13 0.134805 0.018866 0.912577
O O14 0.000000 0.000000 0.000000
O O15 0.500000 0.000000 0.500000
#
# Coordination Sequence:
#
# PCOD9016571 Si02
#       7
#     2   2   2   2   2   2   2
#     4  10  21  42  68  99 133 190 233 285 357 420
#     4  10  21  44  68 103 142 181 234 294 352 420
#     4  12  25  43  73 104 145 188 236 293 367 415
#     4  10  21  42  68  93 141 186 227 289 360 412
#     4  10  23  40  71 105 137 183 239 289 350 430
#     4  12  26  45  67 105 146 185 235 296 358 421
#     4  12  25  45  70 105 142 184 242 297 351 423
#
# _framework density 23.707608
#
# number of rings (size 3 to 8) (size 9 to 14) (size 15 to 20)
#    0.000    1.143    2.857    2.571    2.000    1.714 
#    0.000    2.143    0.000    0.000    0.000    0.000 
#    0.000    0.000    0.000    0.000    0.000    0.000 
#
# Total GULP energy -78206.599989 kJ/mol
# GULP energy per Si atom -5586.185713 kJ/mol
# Density = 2.365365 g / cm^3
# Si number density = 23.707608 Si / 1000 Ang^3
#
#
#
# Elastic Constant Matrix: (Units=GPa)
#
#
# Indices 1 2 3 4 5 6 
#
# 1 69.2352 42.9107 35.7081 -6.9835 -5.8297 9.6430
# 2 42.9107 175.9828 51.0277 -24.7406 0.4236 5.6384
# 3 35.7081 51.0277 113.0082 2.2264 -10.8587 4.9670
# 4 -6.9835 -24.7406 2.2264 41.6256 -12.0161 -2.9389
# 5 -5.8297 0.4236 -10.8587 -12.0161 38.8830 -4.1057
# 6 9.6430 5.6384 4.9670 -2.9389 -4.1057 40.2504
#
#
#
# Elastic Compliance Matrix: (Units=1/GPa)
#
#
# Indices 1 2 3 4 5 6 
#
# 1 0.019489 -0.003068 -0.004476 0.002021 0.001977 -0.003338
# 2 -0.003068 0.007790 -0.002638 0.004300 0.000078 0.000291
# 3 -0.004476 -0.002638 0.011682 -0.002400 0.001880 0.000017
# 4 0.002021 0.004300 -0.002400 0.029821 0.009045 0.002310
# 5 0.001977 0.000078 0.001880 0.009045 0.029648 0.002968
# 6 -0.003338 0.000291 0.000017 0.002310 0.002968 0.026073
#
#
# Mechanical properties :
#
#
# Convention : Reuss Voigt Hill
#
# Bulk Modulus (GPa) = 53.77330 68.61326 61.19328
# Shear Modulus (GPa) = 33.09844 39.39044 36.24444
#
# Velocity S-wave (km/s) = 3.74051 4.08059 3.91424
# Velocity P-wave (km/s) = 6.43322 7.15583 6.80412
#
# Compressibility (1/GPa) = 0.01859659
#
# Stress axis : x y z
#
# Youngs Moduli (GPa) = 51.31220 128.36293 85.60431
#
# Poissons Ratio (x) = 0.39381 0.38314
# Poissons Ratio (y) = 0.15742 0.22585
# Poissons Ratio (z) = 0.22966 0.33866
#
# Static dielectric constant tensor:
#      x y z
#    x 1.881980 -0.010280 -0.008690 
#    y -0.010280 1.999910 0.022100 
#    z -0.008690 0.022100 2.006480 
# 
# From -- ./inp_files/314542.got.cif
#   From: 2010.05.17/outbox.cif.g08.bks.cpg/sg2_158_cif.got.tgz:314542.got - 2010.06.03 11:33:40.
