data_PCOD9016059
_publ_section_title
;
Structure prediction by ZEFSAII (Michael W. Deem and Ramdas Pophale) SiO2 
 PCOD9016059
Probable space group: P -1
;
_chemical_formula_sum "Si O2"
_cell_formula_units_Z 16
_cell_length_a 5.558165
_cell_length_b 19.177031
_cell_length_c 6.824928
_cell_angle_alpha 59.726324
_cell_angle_beta 80.819136
_cell_angle_gamma 70.028617
_cell_volume 590.404019
_symmetry_space_group_name_H-M "P -1"
_symmetry_group_IT_number 2
_symmetry_cell_setting 'triclinic'
loop_
_space_group_symop_operation_xyz
x,y,z
-x,-y,-z
loop_
_atom_site_type_symbol
_atom_site_label
_atom_site_fract_x
_atom_site_fract_y
_atom_site_fract_z
Si Si1 0.479176 0.880303 0.961194
Si Si2 0.988705 0.862469 0.037215
Si Si3 0.017891 0.522589 0.192802
Si Si4 0.317014 0.324891 0.754842
Si Si5 0.063725 0.907411 0.532628
Si Si6 0.597594 0.432070 0.385864
Si Si7 0.384846 0.135411 0.469394
Si Si8 0.962785 0.709459 0.526055
O O1 0.686016 0.906961 0.020717
O O2 0.571958 0.776301 0.089666
O O3 0.185620 0.909899 0.008432
O O4 0.516950 0.901925 0.702686
O O5 0.032742 0.777485 0.277577
O O6 0.050573 0.849230 0.810482
O O7 0.322506 0.487121 0.257445
O O8 0.895922 0.619325 0.147092
O O9 0.796074 0.481504 0.360366
O O10 0.000000 0.500000 0.000000
O O11 0.533350 0.371853 0.645579
O O12 0.193154 0.332464 0.541772
O O13 0.844567 0.903919 0.415252
O O14 0.344592 0.879051 0.441613
O O15 0.000000 0.000000 0.500000
O O16 0.785097 0.358850 0.326777
O O17 0.233222 0.234664 0.370953
#
# Coordination Sequence:
#
# PCOD9016059 Si02
#       8
#     2   2   2   2   2   2   2   2
#     4   9  19  36  57  88 114 164 201 259 307 369
#     4   9  19  37  59  90 126 156 207 253 303 372
#     4  12  29  46  62  92 127 169 221 272 319 394
#     4  11  24  42  68  87 127 168 214 264 339 378
#     4  10  21  42  66  93 132 177 205 246 313 381
#     4  12  25  45  65  90 126 169 214 268 334 386
#     4  10  23  38  64  95 130 158 218 263 303 374
#     4  11  24  41  66  98 126 166 214 273 327 366
#
# _framework density 27.100086000000001
#
# number of rings (size 3 to 8) (size 9 to 14) (size 15 to 20)
#    0.000    1.500    2.500    1.500    5.250    0.000 
#    4.500    1.250    0.000    0.000    0.000    0.000 
#    0.000    0.000    0.000    0.000    0.000    0.000 
#
# Total GULP energy -89283.728624 kJ/mol
# GULP energy per Si atom -5580.233039 kJ/mol
# Density = 2.703841 g / cm^3
# Si number density = 27.100086 Si / 1000 Ang^3
#
#
#
# Elastic Constant Matrix: (Units=GPa)
#
#
# Indices 1 2 3 4 5 6 
#
# 1 250.3653 49.2860 32.4912 4.7981 -24.5570 -30.9961
# 2 49.2860 140.5780 13.6819 -3.3624 -2.4842 -24.7676
# 3 32.4912 13.6819 76.4960 -0.4323 -1.5788 -3.0075
# 4 4.7981 -3.3624 -0.4323 36.2954 4.9562 0.1257
# 5 -24.5570 -2.4842 -1.5788 4.9562 40.1886 6.8040
# 6 -30.9961 -24.7676 -3.0075 0.1257 6.8040 45.0926
#
#
#
# Elastic Compliance Matrix: (Units=1/GPa)
#
#
# Indices 1 2 3 4 5 6 
#
# 1 0.005025 -0.001164 -0.001787 -0.001168 0.002684 0.002294
# 2 -0.001164 0.008289 -0.000852 0.001036 -0.001011 0.003845
# 3 -0.001787 -0.000852 0.013948 0.000398 -0.000529 -0.000687
# 4 -0.001168 0.001036 0.000398 0.028378 -0.004192 0.000347
# 5 0.002684 -0.001011 -0.000529 -0.004192 0.027443 -0.002875
# 6 0.002294 0.003845 -0.000687 0.000347 -0.002875 0.026252
#
#
# Mechanical properties :
#
#
# Convention : Reuss Voigt Hill
#
# Bulk Modulus (GPa) = 50.87547 73.15084 62.01315
# Shear Modulus (GPa) = 40.48780 49.11400 44.80090
#
# Velocity S-wave (km/s) = 3.86944 4.26175 4.07032
# Velocity P-wave (km/s) = 6.22714 7.16018 6.70990
#
# Compressibility (1/GPa) = 0.01965584
#
# Stress axis : x y z
#
# Youngs Moduli (GPa) = 199.01084 120.64206 71.69331
#
# Poissons Ratio (x) = 0.14045 0.12812
# Poissons Ratio (y) = 0.23168 0.06108
# Poissons Ratio (z) = 0.35565 0.10278
#
# Static dielectric constant tensor:
#      x y z
#    x 2.208520 -0.026690 -0.013720 
#    y -0.026690 2.128610 -0.015920 
#    z -0.013720 -0.015920 2.220910 
# 
# From -- ./inp_files/140540.got.cif
#   From: 2010.05.17/outbox.cif.g08.bks.cpg/sg2_71_cif.got.tgz:140540.got - 2010.06.03 11:33:40.
