data_PCOD9016357
_publ_section_title
;
Structure prediction by ZEFSAII (Michael W. Deem and Ramdas Pophale) SiO2 
 PCOD9016357
Probable space group: P -1
;
_chemical_formula_sum "Si O2"
_cell_formula_units_Z 16
_cell_length_a 16.153759
_cell_length_b 8.414707
_cell_length_c 9.413193
_cell_angle_alpha 50.130163
_cell_angle_beta 120.965000
_cell_angle_gamma 95.113039
_cell_volume 783.737276
_symmetry_space_group_name_H-M "P -1"
_symmetry_group_IT_number 2
_symmetry_cell_setting 'triclinic'
loop_
_space_group_symop_operation_xyz
x,y,z
-x,-y,-z
loop_
_atom_site_type_symbol
_atom_site_label
_atom_site_fract_x
_atom_site_fract_y
_atom_site_fract_z
Si Si1 0.088612 0.064023 0.473733
Si Si2 0.587112 0.606113 0.992137
Si Si3 0.554764 0.996073 0.202285
Si Si4 0.381942 0.509639 0.404778
Si Si5 0.754282 0.350799 0.515937
Si Si6 0.949458 0.513322 0.605617
Si Si7 0.074457 0.094360 0.107525
Si Si8 0.307534 0.723422 0.933992
O O1 0.091986 0.261253 0.467008
O O2 0.060688 0.114825 0.253867
O O3 0.193104 0.848833 0.704343
O O4 0.000000 0.000000 0.500000
O O5 0.683435 0.473910 0.252374
O O6 0.632705 0.529529 0.921685
O O7 0.500000 0.500000 0.000000
O O8 0.532284 0.859089 0.846233
O O9 0.631612 0.124904 0.160307
O O10 0.610019 0.746522 0.449889
O O11 0.500000 0.000000 0.000000
O O12 0.500000 0.500000 0.500000
O O13 0.324691 0.588337 0.457944
O O14 0.315166 0.688912 0.128370
O O15 0.850261 0.437032 0.557241
O O16 0.810219 0.084823 0.707700
O O17 0.000000 0.500000 0.500000
O O18 0.043506 0.339262 0.877901
O O19 0.000000 0.000000 0.000000
#
# Coordination Sequence:
#
# PCOD9016357 Si02
#       8
#     2   2   2   2   2   2   2   2
#     4  12  25  44  68  99 141 177 229 294 348 417
#     4  10  21  42  67  94 137 178 221 285 339 404
#     4  11  21  43  68  95 138 178 226 285 335 407
#     4  12  24  41  70 104 134 182 234 278 342 421
#     4  11  22  44  71  95 138 181 226 282 348 412
#     4  11  26  44  71 105 135 178 236 290 353 419
#     4  10  23  45  69  96 131 179 227 285 352 416
#     4  11  25  42  68 100 136 179 228 280 355 407
#
# _framework density 20.415005000000001
#
# number of rings (size 3 to 8) (size 9 to 14) (size 15 to 20)
#    0.000    1.000    3.750    3.375    5.250    0.500 
#    2.250    0.000    0.000    0.000    0.000    0.000 
#    0.000    0.000    0.000    0.000    0.000    0.000 
#
# Total GULP energy -89208.525533 kJ/mol
# GULP energy per Si atom -5575.532846 kJ/mol
# Density = 2.036854 g / cm^3
# Si number density = 20.415005 Si / 1000 Ang^3
#
#
#
# Elastic Constant Matrix: (Units=GPa)
#
#
# Indices 1 2 3 4 5 6 
#
# 1 98.1778 28.9419 23.8310 5.5129 4.9136 -15.0114
# 2 28.9419 80.3935 5.2986 -6.1010 -0.4226 -21.9114
# 3 23.8310 5.2986 90.7356 1.4887 -7.2754 0.9474
# 4 5.5129 -6.1010 1.4887 41.6562 -6.9416 4.0902
# 5 4.9136 -0.4226 -7.2754 -6.9416 30.3077 3.6793
# 6 -15.0114 -21.9114 0.9474 4.0902 3.6793 30.4530
#
#
#
# Elastic Compliance Matrix: (Units=1/GPa)
#
#
# Indices 1 2 3 4 5 6 
#
# 1 0.013286 -0.003403 -0.003649 -0.003385 -0.004485 0.005211
# 2 -0.003403 0.016542 -0.000211 0.001893 -0.000047 0.009983
# 3 -0.003649 -0.000211 0.012338 0.000992 0.004138 -0.002968
# 4 -0.003385 0.001893 0.000992 0.026406 0.007442 -0.004784
# 5 -0.004485 -0.000047 0.004138 0.007442 0.037377 -0.007889
# 6 0.005211 0.009983 -0.002968 -0.004784 -0.007889 0.044277
#
#
# Mechanical properties :
#
#
# Convention : Reuss Voigt Hill
#
# Bulk Modulus (GPa) = 36.17994 42.82777 39.50385
# Shear Modulus (GPa) = 28.74136 34.56574 31.65355
#
# Velocity S-wave (km/s) = 3.75621 4.11926 3.94192
# Velocity P-wave (km/s) = 6.04755 6.60670 6.33330
#
# Compressibility (1/GPa) = 0.02763963
#
# Stress axis : x y z
#
# Youngs Moduli (GPa) = 75.26848 60.45236 81.04834
#
# Poissons Ratio (x) = 0.20570 0.29576
# Poissons Ratio (y) = 0.25611 0.01713
# Poissons Ratio (z) = 0.27467 0.01278
#
# Static dielectric constant tensor:
#      x y z
#    x 1.685950 -0.091130 -0.022330 
#    y -0.091130 1.620750 -0.036710 
#    z -0.022330 -0.036710 1.707350 
# 
# From -- ./inp_files/297531.got.cif
#   From: 2010.05.17/outbox.cif.g08.bks.cpg/sg2_149_cif.got.tgz:297531.got - 2010.06.03 11:33:40.
