data_PCOD9016524
_publ_section_title
;
Structure prediction by ZEFSAII (Michael W. Deem and Ramdas Pophale) SiO2 
 PCOD9016524
Probable space group: P -1
;
_chemical_formula_sum "Si O2"
_cell_formula_units_Z 16
_cell_length_a 7.708345
_cell_length_b 10.625776
_cell_length_c 12.105680
_cell_angle_alpha 98.488482
_cell_angle_beta 42.690150
_cell_angle_gamma 109.401770
_cell_volume 626.850549
_symmetry_space_group_name_H-M "P -1"
_symmetry_group_IT_number 2
_symmetry_cell_setting 'triclinic'
loop_
_space_group_symop_operation_xyz
x,y,z
-x,-y,-z
loop_
_atom_site_type_symbol
_atom_site_label
_atom_site_fract_x
_atom_site_fract_y
_atom_site_fract_z
Si Si1 0.569976 0.854295 0.454573
Si Si2 0.141240 0.438239 0.101813
Si Si3 0.208963 0.998294 0.809450
Si Si4 0.817502 0.151926 0.640148
Si Si5 0.951185 0.364323 0.431550
Si Si6 0.655901 0.924787 0.840057
Si Si7 0.506835 0.291974 0.953391
Si Si8 0.632531 0.243422 0.250770
O O1 0.829897 0.910991 0.261737
O O2 0.351001 0.725721 0.480880
O O3 0.602405 0.794327 0.551234
O O4 0.500000 0.000000 0.500000
O O5 0.336578 0.355901 0.961478
O O6 0.100544 0.410321 0.250469
O O7 0.848447 0.391679 0.175685
O O8 0.318822 0.592927 0.030625
O O9 0.519224 0.072819 0.715846
O O10 0.201408 0.845541 0.780673
O O11 0.000000 0.000000 0.000000
O O12 0.005501 0.249691 0.471347
O O13 0.862152 0.030842 0.674969
O O14 0.729123 0.246556 0.779379
O O15 0.000000 0.500000 0.500000
O O16 0.711508 0.827506 0.892489
O O17 0.457407 0.820885 0.832802
O O18 0.500000 0.000000 0.000000
#
# Coordination Sequence:
#
# PCOD9016524 Si02
#       8
#     2   2   2   2   2   2   2   2
#     4   8  16  28  45  72 102 133 172 216 253 307
#     4  10  20  31  51  79 103 131 173 222 259 305
#     4   9  15  25  46  74 101 130 165 216 260 294
#     4   9  17  31  50  71 101 136 171 210 255 316
#     4  10  17  30  51  77 102 136 176 214 260 316
#     4   9  19  34  53  73 103 141 172 212 265 321
#     4  10  19  33  49  75 107 134 170 215 266 303
#     4   9  17  31  48  72 101 134 173 209 255 312
#
# _framework density 25.524426999999999
#
# number of rings (size 3 to 8) (size 9 to 14) (size 15 to 20)
#    0.000    2.750    1.250    1.500    0.000    0.500 
#    0.000    0.625    0.000    6.000    0.000    1.750 
#    0.000    0.000    0.000    0.000    0.000    0.000 
#
# Total GULP energy -89128.316056 kJ/mol
# GULP energy per Si atom -5570.519753 kJ/mol
# Density = 2.546633 g / cm^3
# Si number density = 25.524427 Si / 1000 Ang^3
#
#
#
# Elastic Constant Matrix: (Units=GPa)
#
#
# Indices 1 2 3 4 5 6 
#
# 1 65.3917 17.7856 5.2276 -1.6475 22.9009 18.0060
# 2 17.7856 120.2173 16.1243 -13.4305 -2.1338 19.5792
# 3 5.2276 16.1243 89.7908 -24.1074 16.0279 5.4809
# 4 -1.6475 -13.4305 -24.1074 42.2773 8.3502 6.6024
# 5 22.9009 -2.1338 16.0279 8.3502 32.8799 -9.3442
# 6 18.0060 19.5792 5.4809 6.6024 -9.3442 40.5405
#
#
#
# Elastic Compliance Matrix: (Units=1/GPa)
#
#
# Indices 1 2 3 4 5 6 
#
# 1 0.052054 -0.000080 0.021945 0.035760 -0.069661 -0.047928
# 2 -0.000080 0.009750 0.000292 0.004663 -0.002347 -0.006013
# 3 0.021945 0.000292 0.027521 0.029903 -0.044438 -0.028721
# 4 0.035760 0.004663 0.029903 0.064931 -0.069534 -0.048779
# 5 -0.069661 -0.002347 -0.044438 -0.069534 0.141405 0.081998
# 6 -0.047928 -0.006013 -0.028721 -0.048779 0.081998 0.079585
#
#
# Mechanical properties :
#
#
# Convention : Reuss Voigt Hill
#
# Bulk Modulus (GPa) = 7.48289 39.29720 23.39004
# Shear Modulus (GPa) = 13.31636 38.89036 26.10336
#
# Velocity S-wave (km/s) = 2.28658 3.90763 3.20141
# Velocity P-wave (km/s) = 3.14790 5.98238 4.78007
#
# Compressibility (1/GPa) = 0.13363821
#
# Stress axis : x y z
#
# Youngs Moduli (GPa) = 19.21071 102.56907 36.33590
#
# Poissons Ratio (x) = 0.00822 -0.79740
# Poissons Ratio (y) = 0.00154 -0.01060
# Poissons Ratio (z) = -0.42158 -0.02992
#
# Static dielectric constant tensor:
#      x y z
#    x 2.197050 0.006940 -0.031200 
#    y 0.006940 2.050810 0.043350 
#    z -0.031200 0.043350 2.388730 
# 
# From -- ./inp_files/392667.got.cif
#   From: 2010.05.17/outbox.cif.g08.bks.cpg/sg2_197_cif.got.tgz:392667.got - 2010.06.03 11:33:40.
