data_PCOD9016263
_publ_section_title
;
Structure prediction by ZEFSAII (Michael W. Deem and Ramdas Pophale) SiO2 
 PCOD9016263
Probable space group: P -1
;
_chemical_formula_sum "Si O2"
_cell_formula_units_Z 16
_cell_length_a 8.640539
_cell_length_b 15.217782
_cell_length_c 20.721425
_cell_angle_alpha 26.651606
_cell_angle_beta 35.567802
_cell_angle_gamma 34.976549
_cell_volume 664.846311
_symmetry_space_group_name_H-M "P -1"
_symmetry_group_IT_number 2
_symmetry_cell_setting 'triclinic'
loop_
_space_group_symop_operation_xyz
x,y,z
-x,-y,-z
loop_
_atom_site_type_symbol
_atom_site_label
_atom_site_fract_x
_atom_site_fract_y
_atom_site_fract_z
Si Si1 0.277450 0.084709 0.611389
Si Si2 0.895013 0.071054 0.905939
Si Si3 0.504432 0.898759 0.215615
Si Si4 0.050263 0.290746 0.159924
Si Si5 0.674468 0.715266 0.410098
Si Si6 0.563426 0.345191 0.018748
Si Si7 0.468591 0.320853 0.295540
Si Si8 0.649131 0.268227 0.742610
O O1 0.422079 0.128664 0.598593
O O2 0.242461 0.269624 0.450088
O O3 0.962086 0.111367 0.720797
O O4 0.435774 0.866373 0.666624
O O5 0.619302 0.177623 0.881974
O O6 0.034090 0.251883 0.733962
O O7 0.746302 0.004154 0.061252
O O8 0.150915 0.857983 0.937134
O O9 0.502189 0.774575 0.363330
O O10 0.551444 0.757250 0.229149
O O11 0.212106 0.092109 0.191475
O O12 0.731467 0.293301 0.273802
O O13 0.279393 0.287456 0.139566
O O14 0.000000 0.500000 0.000000
O O15 0.673996 0.495591 0.580616
O O16 0.603830 0.470078 0.859022
O O17 0.500000 0.500000 0.000000
#
# Coordination Sequence:
#
# PCOD9016263 Si02
#       8
#     2   2   2   2   2   2   2   2
#     4  10  21  42  67  89 129 177 226 262 342 396
#     4  11  24  42  70  98 133 176 221 277 332 408
#     4  12  24  44  67 101 134 171 229 279 335 393
#     4  10  23  40  66  94 130 172 211 279 331 394
#     4  11  24  42  66  96 131 177 218 282 329 402
#     4  11  23  41  68  99 134 168 225 279 335 389
#     4  10  22  42  67  94 129 179 219 276 329 409
#     4  11  24  43  66  93 141 176 218 275 339 399
#
# _framework density 24.065712999999999
#
# number of rings (size 3 to 8) (size 9 to 14) (size 15 to 20)
#    0.000    1.250    2.500    4.125    3.500    3.000 
#    2.250    0.625    0.000    0.000    0.000    0.000 
#    0.000    0.000    0.000    0.000    0.000    0.000 
#
# Total GULP energy -89289.794298 kJ/mol
# GULP energy per Si atom -5580.612144 kJ/mol
# Density = 2.401094 g / cm^3
# Si number density = 24.065713 Si / 1000 Ang^3
#
#
#
# Elastic Constant Matrix: (Units=GPa)
#
#
# Indices 1 2 3 4 5 6 
#
# 1 99.9637 22.4617 32.3913 -21.7812 2.4949 10.3650
# 2 22.4617 42.3319 13.4826 -20.9924 15.4478 5.1181
# 3 32.3913 13.4826 110.7642 -15.8193 30.8083 0.6352
# 4 -21.7812 -20.9924 -15.8193 42.9602 0.6645 -1.2404
# 5 2.4949 15.4478 30.8083 0.6645 37.8339 -10.4687
# 6 10.3650 5.1181 0.6352 -1.2404 -10.4687 30.0099
#
#
#
# Elastic Compliance Matrix: (Units=1/GPa)
#
#
# Indices 1 2 3 4 5 6 
#
# 1 0.013207 -0.005987 -0.004001 0.002177 0.004275 -0.001875
# 2 -0.005987 0.049727 0.007989 0.024214 -0.031417 -0.016541
# 3 -0.004001 0.007989 0.015076 0.007519 -0.017049 -0.005937
# 4 0.002177 0.024214 0.007519 0.038989 -0.019687 -0.010297
# 5 0.004275 -0.031417 -0.017049 -0.019687 0.059941 0.024339
# 6 -0.001875 -0.016541 -0.005937 -0.010297 0.024339 0.044981
#
#
# Mechanical properties :
#
#
# Convention : Reuss Voigt Hill
#
# Bulk Modulus (GPa) = 13.51107 43.30343 28.40725
# Shear Modulus (GPa) = 19.95288 34.47575 27.21432
#
# Velocity S-wave (km/s) = 2.88253 3.78903 3.36644
# Velocity P-wave (km/s) = 4.08719 6.09715 5.19039
#
# Compressibility (1/GPa) = 0.07401339
#
# Stress axis : x y z
#
# Youngs Moduli (GPa) = 75.71502 20.10960 66.33180
#
# Poissons Ratio (x) = 0.12040 0.26538
# Poissons Ratio (y) = 0.45333 -0.52995
# Poissons Ratio (z) = 0.30292 -0.16066
#
# Static dielectric constant tensor:
#      x y z
#    x 2.277180 0.041600 -0.044190 
#    y 0.041600 1.893650 -0.005850 
#    z -0.044190 -0.005850 1.899740 
# 
# From -- ./inp_files/590446.got.cif
#   From: 2010.05.17/outbox.cif.g08.bks.cpg/sg2_296_cif.got.tgz:590446.got - 2010.06.03 11:33:40.
