data_PCOD9016780
_publ_section_title
;
Structure prediction by ZEFSAII (Michael W. Deem and Ramdas Pophale) SiO2 
 PCOD9016780
Probable space group: P -1
;
_chemical_formula_sum "Si O2"
_cell_formula_units_Z 15
_cell_length_a 13.713289
_cell_length_b 7.948640
_cell_length_c 11.605940
_cell_angle_alpha 39.671118
_cell_angle_beta 54.645435
_cell_angle_gamma 56.308014
_cell_volume 643.976273
_symmetry_space_group_name_H-M "P -1"
_symmetry_group_IT_number 2
_symmetry_cell_setting 'triclinic'
loop_
_space_group_symop_operation_xyz
x,y,z
-x,-y,-z
loop_
_atom_site_type_symbol
_atom_site_label
_atom_site_fract_x
_atom_site_fract_y
_atom_site_fract_z
Si Si1 0.787035 0.281200 0.326634
Si Si2 0.946527 0.349961 0.983103
Si Si3 0.000000 0.500000 0.500000
Si Si4 0.384497 0.204409 0.724395
Si Si5 0.153693 0.130814 0.795321
Si Si6 0.441873 0.764680 0.608383
Si Si7 0.450989 0.326562 0.027335
Si Si8 0.179287 0.231245 0.308026
O O1 0.907541 0.307306 0.161597
O O2 0.700603 0.562217 0.268687
O O3 0.700134 0.139949 0.379238
O O4 0.816161 0.085857 0.517516
O O5 0.874356 0.160238 0.057989
O O6 0.892280 0.647500 0.820504
O O7 0.082299 0.242037 0.903514
O O8 0.091116 0.327890 0.631353
O O9 0.102021 0.373957 0.395443
O O10 0.293536 0.107461 0.745561
O O11 0.482974 0.303948 0.524613
O O12 0.456009 0.962127 0.881773
O O13 0.451351 0.504293 0.819392
O O14 0.500000 0.000000 0.500000
O O15 0.500000 0.500000 0.000000
O O16 0.316179 0.283803 0.175210
#
# Coordination Sequence:
#
# PCOD9016780 Si02
#       8
#     2   2   1   2   2   2   2   2
#     4  12  24  43  65  98 143 175 213 277 340 392
#     4  10  21  42  69  92 128 175 227 278 317 393
#     4  10  22  40  72  96 122 170 222 282 312 386
#     4  12  27  42  65 103 139 173 216 277 342 396
#     4  10  22  43  68 100 126 172 232 274 327 389
#     4  12  24  43  67  98 134 177 226 268 320 399
#     4  12  24  40  69  98 129 173 222 275 325 394
#     4  11  22  40  68  96 128 172 226 265 331 385
#
# _framework density 23.292781999999999
#
# number of rings (size 3 to 8) (size 9 to 14) (size 15 to 20)
#    0.000    0.800    5.333    2.000    1.867    2.133 
#    0.000    2.667    0.000    0.000    0.000    0.000 
#    0.000    0.000    0.000    0.000    0.000    0.000 
#
# Total GULP energy -83660.476525 kJ/mol
# GULP energy per Si atom -5577.365102 kJ/mol
# Density = 2.323977 g / cm^3
# Si number density = 23.292782 Si / 1000 Ang^3
#
#
#
# Elastic Constant Matrix: (Units=GPa)
#
#
# Indices 1 2 3 4 5 6 
#
# 1 87.1664 22.9149 32.5862 -3.2016 -0.8989 -17.7552
# 2 22.9149 109.4820 46.8136 -12.2987 -0.4142 -23.0514
# 3 32.5862 46.8136 167.6073 -6.9100 13.4351 -25.9487
# 4 -3.2016 -12.2987 -6.9100 37.4075 -19.0042 5.4275
# 5 -0.8989 -0.4142 13.4351 -19.0042 31.8415 2.8918
# 6 -17.7552 -23.0514 -25.9487 5.4275 2.8918 41.3480
#
#
#
# Elastic Compliance Matrix: (Units=1/GPa)
#
#
# Indices 1 2 3 4 5 6 
#
# 1 0.013226 -0.001189 -0.001706 0.000345 0.000935 0.003835
# 2 -0.001189 0.011783 -0.002612 0.004637 0.003667 0.003554
# 3 -0.001706 -0.002612 0.007888 -0.002800 -0.005400 0.003506
# 4 0.000345 0.004637 -0.002800 0.042554 0.027241 -0.006515
# 5 0.000935 0.003667 -0.005400 0.027241 0.050749 -0.008068
# 6 0.003835 0.003554 0.003506 -0.006515 -0.008068 0.031433
#
#
# Mechanical properties :
#
#
# Convention : Reuss Voigt Hill
#
# Bulk Modulus (GPa) = 45.70043 63.20946 54.45495
# Shear Modulus (GPa) = 28.41844 39.58215 34.00030
#
# Velocity S-wave (km/s) = 3.49672 4.12677 3.82474
# Velocity P-wave (km/s) = 5.99711 7.06419 6.55241
#
# Compressibility (1/GPa) = 0.02188163
#
# Stress axis : x y z
#
# Youngs Moduli (GPa) = 75.60708 84.86947 126.77486
#
# Poissons Ratio (x) = 0.10090 0.21633
# Poissons Ratio (y) = 0.08989 0.33119
# Poissons Ratio (z) = 0.12902 0.22171
#
# Static dielectric constant tensor:
#      x y z
#    x 1.911500 0.046220 -0.008370 
#    y 0.046220 1.912190 0.000120 
#    z -0.008370 0.000120 1.906030 
# 
# From -- ./inp_files/446585.got.cif
#   From: 2010.05.17/outbox.cif.g08.bks.cpg/sg2_224_cif.got.tgz:446585.got - 2010.06.03 11:33:40.
