data_PCOD9016449
_publ_section_title
;
Structure prediction by ZEFSAII (Michael W. Deem and Ramdas Pophale) SiO2 
 PCOD9016449
Probable space group: P -1
;
_chemical_formula_sum "Si O2"
_cell_formula_units_Z 16
_cell_length_a 8.461671
_cell_length_b 13.101228
_cell_length_c 7.271436
_cell_angle_alpha 122.003534
_cell_angle_beta 80.210078
_cell_angle_gamma 85.653520
_cell_volume 660.221550
_symmetry_space_group_name_H-M "P -1"
_symmetry_group_IT_number 2
_symmetry_cell_setting 'triclinic'
loop_
_space_group_symop_operation_xyz
x,y,z
-x,-y,-z
loop_
_atom_site_type_symbol
_atom_site_label
_atom_site_fract_x
_atom_site_fract_y
_atom_site_fract_z
Si Si1 0.136936 0.652123 0.375242
Si Si2 0.572174 0.227286 0.613595
Si Si3 0.701385 0.538323 0.124818
Si Si4 0.180887 0.356006 0.432959
Si Si5 0.971139 0.864262 0.329100
Si Si6 0.712388 0.155998 0.923628
Si Si7 0.335395 0.106870 0.365786
Si Si8 0.487759 0.398995 0.254579
O O1 0.299462 0.701617 0.440522
O O2 0.039599 0.760537 0.367168
O O3 0.012005 0.634490 0.543598
O O4 0.185002 0.534003 0.122265
O O5 0.406364 0.328864 0.772246
O O6 0.650414 0.177031 0.743083
O O7 0.514992 0.121592 0.406003
O O8 0.797556 0.560705 0.312745
O O9 0.575475 0.449394 0.114591
O O10 0.262958 0.218005 0.349237
O O11 0.298667 0.388572 0.282581
O O12 0.096321 0.832070 0.102099
O O13 0.777373 0.877759 0.409900
O O14 0.000000 0.000000 0.500000
O O15 0.684308 0.020827 0.843369
O O16 0.596212 0.266936 0.153898
O O17 0.500000 0.500000 0.500000
#
# Coordination Sequence:
#
# PCOD9016449 Si02
#       8
#     2   2   2   2   2   2   2   2
#     4  10  17  30  51  75  99 134 168 210 257 289
#     4  10  19  30  52  78 103 131 167 214 252 303
#     4  10  18  33  53  73 102 132 174 210 254 296
#     4   9  20  33  50  76 103 131 170 215 245 301
#     4   8  15  28  48  75 100 123 162 212 248 289
#     4  10  18  32  55  74 104 137 164 209 260 298
#     4   9  18  32  51  81 104 126 169 212 257 301
#     4  10  20  34  51  74 105 136 171 205 250 302
#
# _framework density 24.234289
#
# number of rings (size 3 to 8) (size 9 to 14) (size 15 to 20)
#    0.000    2.500    2.500    1.125    0.000    0.500 
#    0.000    0.625    0.000    2.250    0.000    0.000 
#    0.000    0.000    0.000    0.000    0.000    0.000 
#
# Total GULP energy -89327.646101 kJ/mol
# GULP energy per Si atom -5582.977881 kJ/mol
# Density = 2.417913 g / cm^3
# Si number density = 24.234289 Si / 1000 Ang^3
#
#
#
# Elastic Constant Matrix: (Units=GPa)
#
#
# Indices 1 2 3 4 5 6 
#
# 1 86.2003 26.5328 39.6698 3.4911 -17.5557 29.8882
# 2 26.5328 93.8849 37.7910 17.8709 -1.9835 15.8409
# 3 39.6698 37.7910 95.1766 18.0731 -19.8508 10.2315
# 4 3.4911 17.8709 18.0731 28.8838 0.4148 2.4185
# 5 -17.5557 -1.9835 -19.8508 0.4148 36.2310 -4.0911
# 6 29.8882 15.8409 10.2315 2.4185 -4.0911 40.4817
#
#
#
# Elastic Compliance Matrix: (Units=1/GPa)
#
#
# Indices 1 2 3 4 5 6 
#
# 1 0.019986 -0.001714 -0.005933 0.003316 0.004914 -0.012287
# 2 -0.001714 0.014379 -0.004077 -0.005830 -0.002576 -0.003243
# 3 -0.005933 -0.004077 0.017193 -0.007848 0.006725 0.002779
# 4 0.003316 -0.005830 -0.007848 0.042883 -0.003629 -0.001112
# 5 0.004914 -0.002576 0.006725 -0.003629 0.033486 -0.000719
# 6 -0.012287 -0.003243 0.002779 -0.001112 -0.000719 0.034335
#
#
# Mechanical properties :
#
#
# Convention : Reuss Voigt Hill
#
# Bulk Modulus (GPa) = 35.57536 53.69432 44.63484
# Shear Modulus (GPa) = 25.63059 32.53719 29.08389
#
# Velocity S-wave (km/s) = 3.25563 3.66814 3.46802
# Velocity P-wave (km/s) = 5.37064 6.33599 5.87318
#
# Compressibility (1/GPa) = 0.02810934
#
# Stress axis : x y z
#
# Youngs Moduli (GPa) = 50.03551 69.54489 58.16443
#
# Poissons Ratio (x) = 0.11920 0.34512
# Poissons Ratio (y) = 0.08576 0.23712
# Poissons Ratio (z) = 0.29688 0.28351
#
# Static dielectric constant tensor:
#      x y z
#    x 2.003010 0.007780 -0.032700 
#    y 0.007780 1.958260 -0.021500 
#    z -0.032700 -0.021500 1.963860 
# 
# From -- ./inp_files/204094.got.cif
#   From: 2010.05.17/outbox.cif.g08.bks.cpg/sg2_103_cif.got.tgz:204094.got - 2010.06.03 11:33:40.
