data_PCOD9016993
_publ_section_title
;
Structure prediction by ZEFSAII (Michael W. Deem and Ramdas Pophale) SiO2 
 PCOD9016993
Probable space group: P -1
;
_chemical_formula_sum "Si O2"
_cell_formula_units_Z 10
_cell_length_a 8.438139
_cell_length_b 13.785779
_cell_length_c 7.869533
_cell_angle_alpha 32.038768
_cell_angle_beta 54.248380
_cell_angle_gamma 59.764118
_cell_volume 394.044730
_symmetry_space_group_name_H-M "P -1"
_symmetry_group_IT_number 2
_symmetry_cell_setting 'triclinic'
loop_
_space_group_symop_operation_xyz
x,y,z
-x,-y,-z
loop_
_atom_site_type_symbol
_atom_site_label
_atom_site_fract_x
_atom_site_fract_y
_atom_site_fract_z
Si Si1 0.870578 0.361589 0.683038
Si Si2 0.493162 0.425202 0.304659
Si Si3 0.604769 0.939738 0.252360
Si Si4 0.783926 0.963401 0.470366
Si Si5 0.866198 0.264320 0.464686
O O1 0.648713 0.442333 0.696784
O O2 0.945445 0.348173 0.464542
O O3 0.000000 0.500000 0.500000
O O4 0.864031 0.162889 0.071053
O O5 0.400358 0.226973 0.627031
O O6 0.711123 0.398078 0.275919
O O7 0.500000 0.500000 0.000000
O O8 0.384228 0.008149 0.328266
O O9 0.687180 0.892572 0.459498
O O10 0.737708 0.096370 0.862754
O O11 0.956812 0.824212 0.620370
#
# Coordination Sequence:
#
# PCOD9016993 Si02
#       5
#     2   2   2   2   2
#     4  11  22  43  68  97 135 170 213 276 334 383
#     4  12  24  43  64  98 137 169 217 279 327 376
#     4  10  21  42  70  94 131 173 217 269 327 393
#     4  10  21  42  71  95 128 173 223 266 324 397
#     4  11  24  43  69  98 129 177 224 259 327 400
#
# _framework density 25.377832000000001
#
# number of rings (size 3 to 8) (size 9 to 14) (size 15 to 20)
#    0.000    1.200    2.000    6.000    0.000    0.800 
#    3.600    2.000    0.000    0.000    0.000    0.000 
#    0.000    0.000    0.000    0.000    0.000    0.000 
#
# Total GULP energy -56108.880096 kJ/mol
# GULP energy per Si atom -5610.888010 kJ/mol
# Density = 2.532007 g / cm^3
# Si number density = 25.377832 Si / 1000 Ang^3
#
#
#
# Elastic Constant Matrix: (Units=GPa)
#
#
# Indices 1 2 3 4 5 6 
#
# 1 87.7991 31.5220 37.9730 -19.7430 -3.1172 -13.4166
# 2 31.5220 135.6629 18.1413 -22.1646 10.4418 -42.9363
# 3 37.9730 18.1413 51.5774 -3.8003 -8.9835 -1.4718
# 4 -19.7430 -22.1646 -3.8003 26.6545 3.1033 -2.0296
# 5 -3.1172 10.4418 -8.9835 3.1033 32.5475 -12.1045
# 6 -13.4166 -42.9363 -1.4718 -2.0296 -12.1045 62.1006
#
#
#
# Elastic Compliance Matrix: (Units=1/GPa)
#
#
# Indices 1 2 3 4 5 6 
#
# 1 0.022059 0.001538 -0.015827 0.016041 -0.002216 0.005546
# 2 0.001538 0.012648 -0.005004 0.011979 -0.003188 0.008729
# 3 -0.015827 -0.005004 0.033252 -0.012519 0.008672 -0.004810
# 4 0.016041 0.011979 -0.012519 0.059300 -0.006940 0.012037
# 5 -0.002216 -0.003188 0.008672 -0.006940 0.036209 0.004354
# 6 0.005546 0.008729 -0.004810 0.012037 0.004354 0.024464
#
#
# Mechanical properties :
#
#
# Convention : Reuss Voigt Hill
#
# Bulk Modulus (GPa) = 34.04689 50.03466 42.04078
# Shear Modulus (GPa) = 21.15871 36.75405 28.95638
#
# Velocity S-wave (km/s) = 2.89060 3.80975 3.38155
# Velocity P-wave (km/s) = 4.95842 6.25387 5.64344
#
# Compressibility (1/GPa) = 0.02937126
#
# Stress axis : x y z
#
# Youngs Moduli (GPa) = 45.33356 79.06305 30.07363
#
# Poissons Ratio (x) = -0.12157 0.47598
# Poissons Ratio (y) = -0.06971 0.15050
# Poissons Ratio (z) = 0.71749 0.39566
#
# Static dielectric constant tensor:
#      x y z
#    x 2.019480 -0.015570 0.000970 
#    y -0.015570 2.012130 -0.061820 
#    z 0.000970 -0.061820 1.993390 
# 
# From -- ./inp_files/143939.got.cif
#   From: 2010.05.17/outbox.cif.g08.bks.cpg/sg2_72_cif.got.tgz:143939.got - 2010.06.03 11:33:40.
