data_PCOD9016315
_publ_section_title
;
Structure prediction by ZEFSAII (Michael W. Deem and Ramdas Pophale) SiO2 
 PCOD9016315
Probable space group: P -1
;
_chemical_formula_sum "Si O2"
_cell_formula_units_Z 16
_cell_length_a 5.294823
_cell_length_b 21.060951
_cell_length_c 15.377162
_cell_angle_alpha 28.188305
_cell_angle_beta 60.521500
_cell_angle_gamma 73.033889
_cell_volume 661.813265
_symmetry_space_group_name_H-M "P -1"
_symmetry_group_IT_number 2
_symmetry_cell_setting 'triclinic'
loop_
_space_group_symop_operation_xyz
x,y,z
-x,-y,-z
loop_
_atom_site_type_symbol
_atom_site_label
_atom_site_fract_x
_atom_site_fract_y
_atom_site_fract_z
Si Si1 0.761165 0.161185 0.854320
Si Si2 0.623889 0.616476 0.549025
Si Si3 0.658025 0.151822 0.674367
Si Si4 0.916692 0.385889 0.077765
Si Si5 0.367695 0.580437 0.355522
Si Si6 0.553663 0.890476 0.692460
Si Si7 0.380600 0.585869 0.078710
Si Si8 0.156781 0.888144 0.491556
O O1 0.738607 0.154458 0.760186
O O2 0.584202 0.259471 0.811668
O O3 0.116759 0.254572 0.701112
O O4 0.635076 0.997619 0.105183
O O5 0.401458 0.700565 0.514077
O O6 0.496036 0.470198 0.692040
O O7 0.789875 0.561306 0.665203
O O8 0.872651 0.132818 0.581483
O O9 0.733812 0.232946 0.336413
O O10 0.716129 0.425794 0.990610
O O11 0.000000 0.500000 0.000000
O O12 0.261819 0.391506 0.987408
O O13 0.500000 0.500000 0.500000
O O14 0.000000 0.500000 0.500000
O O15 0.843410 0.869885 0.618609
O O16 0.500000 0.000000 0.500000
O O17 0.623230 0.960779 0.690610
O O18 0.314949 0.730703 0.939273
#
# Coordination Sequence:
#
# PCOD9016315 Si02
#       8
#     2   2   2   2   2   2   2   2
#     4  10  24  43  65  98 139 177 239 284 351 404
#     4  11  24  41  69  97 140 182 232 287 350 414
#     4  11  23  43  68  97 134 184 229 293 345 420
#     4  11  23  42  63  99 137 173 221 284 342 418
#     4  10  21  42  67  93 130 178 222 285 336 399
#     4  10  21  45  62  95 137 176 226 284 339 419
#     4  11  25  39  70  97 135 178 227 281 343 412
#     4  10  23  39  68  94 134 179 230 281 350 408
#
# _framework density 24.176003999999999
#
# number of rings (size 3 to 8) (size 9 to 14) (size 15 to 20)
#    0.000    1.500    2.500    1.500    5.250    1.000 
#    0.000    2.500    0.000    0.000    0.000    0.000 
#    0.000    0.000    0.000    0.000    0.000    0.000 
#
# Total GULP energy -89135.629748 kJ/mol
# GULP energy per Si atom -5570.976859 kJ/mol
# Density = 2.412098 g / cm^3
# Si number density = 24.176004 Si / 1000 Ang^3
#
#
#
# Elastic Constant Matrix: (Units=GPa)
#
#
# Indices 1 2 3 4 5 6 
#
# 1 55.5037 21.1340 13.4697 3.6728 15.3396 8.0296
# 2 21.1340 184.0497 39.5377 -17.4144 11.5577 11.1327
# 3 13.4697 39.5377 95.5515 -14.1154 13.1874 3.0419
# 4 3.6728 -17.4144 -14.1154 34.3168 4.5333 6.0182
# 5 15.3396 11.5577 13.1874 4.5333 38.7312 -1.5935
# 6 8.0296 11.1327 3.0419 6.0182 -1.5935 23.4151
#
#
#
# Elastic Compliance Matrix: (Units=1/GPa)
#
#
# Indices 1 2 3 4 5 6 
#
# 1 0.022224 -0.001463 -0.001415 -0.001433 -0.008001 -0.006918
# 2 -0.001463 0.006599 -0.001695 0.003592 -0.001374 -0.003432
# 3 -0.001415 -0.001695 0.012788 0.005439 -0.004009 -0.002041
# 4 -0.001433 0.003592 0.005439 0.036351 -0.007094 -0.011749
# 5 -0.008001 -0.001374 -0.004009 -0.007094 0.031919 0.007914
# 6 -0.006918 -0.003432 -0.002041 -0.011749 0.007914 0.050535
#
#
# Mechanical properties :
#
#
# Convention : Reuss Voigt Hill
#
# Bulk Modulus (GPa) = 30.80119 53.70974 42.25547
# Shear Modulus (GPa) = 27.71887 36.69019 32.20453
#
# Velocity S-wave (km/s) = 3.38974 3.89990 3.65374
# Velocity P-wave (km/s) = 5.29986 6.52253 5.94272
#
# Compressibility (1/GPa) = 0.03246627
#
# Stress axis : x y z
#
# Youngs Moduli (GPa) = 44.99663 151.53491 78.19840
#
# Poissons Ratio (x) = 0.22164 0.11064
# Poissons Ratio (y) = 0.06581 0.13254
# Poissons Ratio (z) = 0.06366 0.25683
#
# Static dielectric constant tensor:
#      x y z
#    x 2.158660 0.015620 0.055650 
#    y 0.015620 2.290110 0.108810 
#    z 0.055650 0.108810 2.210150 
# 
# From -- ./inp_files/485525.got.cif
#   From: 2010.05.17/outbox.cif.g08.bks.cpg/sg2_243_cif.got.tgz:485525.got - 2010.06.03 11:33:40.
