data_PCOD9016366
_publ_section_title
;
Structure prediction by ZEFSAII (Michael W. Deem and Ramdas Pophale) SiO2 
 PCOD9016366
Probable space group: P -1
;
_chemical_formula_sum "Si O2"
_cell_formula_units_Z 16
_cell_length_a 5.205994
_cell_length_b 17.850554
_cell_length_c 8.128678
_cell_angle_alpha 101.831933
_cell_angle_beta 63.788612
_cell_angle_gamma 93.962839
_cell_volume 663.122673
_symmetry_space_group_name_H-M "P -1"
_symmetry_group_IT_number 2
_symmetry_cell_setting 'triclinic'
loop_
_space_group_symop_operation_xyz
x,y,z
-x,-y,-z
loop_
_atom_site_type_symbol
_atom_site_label
_atom_site_fract_x
_atom_site_fract_y
_atom_site_fract_z
Si Si1 0.949158 0.916862 0.092014
Si Si2 0.536193 0.808278 0.344435
Si Si3 0.421889 0.717683 0.996682
Si Si4 0.389607 0.939743 0.635582
Si Si5 0.584852 0.866910 0.866749
Si Si6 0.168448 0.335020 0.727513
Si Si7 0.291073 0.429799 0.034584
Si Si8 0.168195 0.481111 0.608569
O O1 0.792281 0.863923 0.247498
O O2 0.834491 0.003614 0.184535
O O3 0.829987 0.881596 0.938088
O O4 0.284951 0.907563 0.028911
O O5 0.456664 0.765769 0.179235
O O6 0.305686 0.864474 0.522271
O O7 0.649051 0.740495 0.398933
O O8 0.096853 0.691248 0.096320
O O9 0.506057 0.777338 0.858807
O O10 0.614096 0.640163 0.904589
O O11 0.606848 0.904897 0.697086
O O12 0.500000 0.000000 0.500000
O O13 0.102813 0.392270 0.624970
O O14 0.329926 0.390986 0.829282
O O15 0.981445 0.465260 0.184686
O O16 0.500000 0.500000 0.000000
O O17 0.500000 0.500000 0.500000
O O18 0.000000 0.500000 0.500000
#
# Coordination Sequence:
#
# PCOD9016366 Si02
#       8
#     2   2   2   2   2   2   2   2
#     4  10  21  42  67  95 131 173 228 274 325 401
#     4   9  21  42  61  99 131 172 220 277 344 395
#     4  10  22  40  72  95 129 179 232 281 326 407
#     4  10  22  42  65  95 135 176 216 276 342 398
#     4  11  22  43  66 101 130 174 229 276 329 404
#     4  11  22  44  70  90 135 183 227 275 339 415
#     4  11  23  44  75  99 130 185 241 273 336 422
#     4  12  28  44  66 106 142 171 221 290 347 397
#
# _framework density 24.128267000000001
#
# number of rings (size 3 to 8) (size 9 to 14) (size 15 to 20)
#    0.000    1.500    2.500    1.875    3.500    1.000 
#    4.500    4.375    0.000    0.000    0.000    0.000 
#    0.000    0.000    0.000    0.000    0.000    0.000 
#
# Total GULP energy -89356.375903 kJ/mol
# GULP energy per Si atom -5584.773494 kJ/mol
# Density = 2.407335 g / cm^3
# Si number density = 24.128267 Si / 1000 Ang^3
#
#
#
# Elastic Constant Matrix: (Units=GPa)
#
#
# Indices 1 2 3 4 5 6 
#
# 1 56.0482 35.5960 18.3202 -3.2026 -10.3732 -0.7265
# 2 35.5960 219.2556 47.9714 -0.5467 4.0279 -25.6486
# 3 18.3202 47.9714 96.6786 1.9461 -3.8723 -6.0161
# 4 -3.2026 -0.5467 1.9461 49.2851 -10.7771 4.1972
# 5 -10.3732 4.0279 -3.8723 -10.7771 31.5820 -5.2420
# 6 -0.7265 -25.6486 -6.0161 4.1972 -5.2420 45.2611
#
#
#
# Elastic Compliance Matrix: (Units=1/GPa)
#
#
# Indices 1 2 3 4 5 6 
#
# 1 0.022567 -0.003437 -0.002376 0.003496 0.008547 -0.001235
# 2 -0.003437 0.005970 -0.002194 -0.000738 -0.001933 0.002881
# 3 -0.002376 -0.002194 0.011956 -0.000499 0.000870 0.000455
# 4 0.003496 -0.000738 -0.000499 0.022544 0.008622 -0.001521
# 5 0.008547 -0.001933 0.000870 0.008622 0.038229 0.002785
# 6 -0.001235 0.002881 0.000455 -0.001521 0.002785 0.024231
#
#
# Mechanical properties :
#
#
# Convention : Reuss Voigt Hill
#
# Bulk Modulus (GPa) = 40.85233 63.97306 52.41270
# Shear Modulus (GPa) = 33.40734 43.23195 38.31964
#
# Velocity S-wave (km/s) = 3.72502 4.23751 3.98950
# Velocity P-wave (km/s) = 5.95560 7.10727 6.55677
#
# Compressibility (1/GPa) = 0.02447841
#
# Stress axis : x y z
#
# Youngs Moduli (GPa) = 44.31320 167.51750 83.64204
#
# Poissons Ratio (x) = 0.57570 0.19873
# Poissons Ratio (y) = 0.15229 0.18352
# Poissons Ratio (z) = 0.10529 0.36755
#
# Static dielectric constant tensor:
#      x y z
#    x 1.923630 0.004190 -0.043550 
#    y 0.004190 1.925500 0.024000 
#    z -0.043550 0.024000 1.962470 
# 
# From -- ./inp_files/137789.got.cif
#   From: 2010.05.17/outbox.cif.g08.bks.cpg/sg2_69_cif.got.tgz:137789.got - 2010.06.03 11:33:40.
