data_PCOD9016154
_publ_section_title
;
Structure prediction by ZEFSAII (Michael W. Deem and Ramdas Pophale) SiO2 
 PCOD9016154
Probable space group: P -1
;
_chemical_formula_sum "Si O2"
_cell_formula_units_Z 14
_cell_length_a 24.089010
_cell_length_b 5.537318
_cell_length_c 10.169527
_cell_angle_alpha 90.780246
_cell_angle_beta 147.360121
_cell_angle_gamma 72.642829
_cell_volume 619.495174
_symmetry_space_group_name_H-M "P -1"
_symmetry_group_IT_number 2
_symmetry_cell_setting 'triclinic'
loop_
_space_group_symop_operation_xyz
x,y,z
-x,-y,-z
loop_
_atom_site_type_symbol
_atom_site_label
_atom_site_fract_x
_atom_site_fract_y
_atom_site_fract_z
Si Si1 0.683745 0.907756 0.882386
Si Si2 0.926112 0.380141 0.782733
Si Si3 0.906766 0.392700 0.450497
Si Si4 0.574597 0.344111 0.279247
Si Si5 0.839805 0.093224 0.111350
Si Si6 0.527260 0.906717 0.337041
Si Si7 0.831255 0.206678 0.807842
O O1 0.622975 0.837464 0.643607
O O2 0.600305 0.972078 0.842371
O O3 0.818195 0.664673 0.190074
O O4 0.708103 0.143503 0.875773
O O5 0.871982 0.492342 0.531735
O O6 0.825763 0.420121 0.687939
O O7 0.000000 0.500000 0.000000
O O8 0.033685 0.060069 0.954162
O O9 0.878396 0.167117 0.326329
O O10 0.051672 0.224476 0.719678
O O11 0.555569 0.615988 0.324812
O O12 0.722206 0.156482 0.560499
O O13 0.531655 0.143046 0.256345
O O14 0.500000 0.500000 0.000000
O O15 0.831541 0.266914 0.963864
#
# Coordination Sequence:
#
# PCOD9016154 Si02
#       7
#     2   2   2   2   2   2   2
#     4  11  24  41  70  94 139 173 229 292 343 406
#     4  10  24  41  66  98 136 175 223 280 356 410
#     4  10  23  38  67  99 128 174 227 280 345 412
#     4  12  27  47  72 100 140 185 236 279 341 416
#     4  10  21  42  66  97 133 171 230 280 350 403
#     4  11  28  45  70 104 136 185 231 285 348 397
#     4  10  23  43  67  94 133 180 222 288 345 410
#
# _framework density 22.599048
#
# number of rings (size 3 to 8) (size 9 to 14) (size 15 to 20)
#    0.000    1.429    1.429    1.714    6.000    9.143 
#    0.000    0.000    0.000    0.000    0.000    0.000 
#    0.000    0.000    0.000    0.000    0.000    0.000 
#
# Total GULP energy -78006.260493 kJ/mol
# GULP energy per Si atom -5571.875749 kJ/mol
# Density = 2.254761 g / cm^3
# Si number density = 22.599048 Si / 1000 Ang^3
#
#
#
# Elastic Constant Matrix: (Units=GPa)
#
#
# Indices 1 2 3 4 5 6 
#
# 1 174.7691 42.7086 55.4161 12.7197 8.0840 21.8642
# 2 42.7086 57.1020 0.3824 9.2758 -3.6548 8.5276
# 3 55.4161 0.3824 79.5820 7.7943 -19.6458 -6.8401
# 4 12.7197 9.2758 7.7943 35.1351 1.3343 -4.3910
# 5 8.0840 -3.6548 -19.6458 1.3343 35.0924 8.7878
# 6 21.8642 8.5276 -6.8401 -4.3910 8.7878 16.5437
#
#
#
# Elastic Compliance Matrix: (Units=1/GPa)
#
#
# Indices 1 2 3 4 5 6 
#
# 1 0.014553 -0.008397 -0.013152 -0.001985 -0.007253 -0.017017
# 2 -0.008397 0.026748 0.008694 -0.007298 0.011677 -0.007235
# 3 -0.013152 0.008694 0.026988 -0.002181 0.015280 0.015364
# 4 -0.001985 -0.007298 -0.002181 0.034189 -0.007462 0.018522
# 5 -0.007253 0.011677 0.015280 -0.007462 0.044109 -0.015526
# 6 -0.017017 -0.007235 0.015364 0.018522 -0.015526 0.106180
#
#
# Mechanical properties :
#
#
# Convention : Reuss Voigt Hill
#
# Bulk Modulus (GPa) = 23.48566 56.49636 39.99101
# Shear Modulus (GPa) = 17.08402 31.55063 24.31733
#
# Velocity S-wave (km/s) = 2.75246 3.74050 3.28385
# Velocity P-wave (km/s) = 4.52949 6.61127 5.66679
#
# Compressibility (1/GPa) = 0.04257918
#
# Stress axis : x y z
#
# Youngs Moduli (GPa) = 68.71401 37.38589 37.05288
#
# Poissons Ratio (x) = 0.31393 0.48733
# Poissons Ratio (y) = 0.57700 -0.32214
# Poissons Ratio (z) = 0.90374 -0.32504
#
# Static dielectric constant tensor:
#      x y z
#    x 2.031090 0.012870 -0.032400 
#    y 0.012870 1.983860 -0.061020 
#    z -0.032400 -0.061020 1.874770 
# 
# From -- ./inp_files/68418.got.cif
#   From: 2010.05.17/outbox.cif.g08.bks.cpg/sg2_35_cif.got.tgz:68418.got - 2010.06.03 11:33:40.
