data_PCOD9016172
_publ_section_title
;
Structure prediction by ZEFSAII (Michael W. Deem and Ramdas Pophale) SiO2 
 PCOD9016172
Probable space group: P -1
;
_chemical_formula_sum "Si O2"
_cell_formula_units_Z 16
_cell_length_a 13.775162
_cell_length_b 17.020365
_cell_length_c 8.415482
_cell_angle_alpha 91.158362
_cell_angle_beta 65.256212
_cell_angle_gamma 146.920397
_cell_volume 728.917588
_symmetry_space_group_name_H-M "P -1"
_symmetry_group_IT_number 2
_symmetry_cell_setting 'triclinic'
loop_
_space_group_symop_operation_xyz
x,y,z
-x,-y,-z
loop_
_atom_site_type_symbol
_atom_site_label
_atom_site_fract_x
_atom_site_fract_y
_atom_site_fract_z
Si Si1 0.646884 0.675021 0.970572
Si Si2 0.884178 0.372053 0.216574
Si Si3 0.503788 0.160611 0.732508
Si Si4 0.557830 0.454974 0.534414
Si Si5 0.170308 0.061240 0.763294
Si Si6 0.942691 0.279563 0.668221
Si Si7 0.310521 0.593281 0.149596
Si Si8 0.432545 0.927541 0.826485
O O1 0.555568 0.617241 0.213350
O O2 0.525527 0.671074 0.973909
O O3 0.500000 0.500000 0.000000
O O4 0.963150 0.891356 0.767424
O O5 0.759012 0.332667 0.450260
O O6 0.650618 0.167203 0.284166
O O7 0.118027 0.476887 0.130594
O O8 0.000000 0.500000 0.000000
O O9 0.290871 0.069406 0.779098
O O10 0.555759 0.238658 0.866738
O O11 0.445050 0.029993 0.796763
O O12 0.500000 0.500000 0.500000
O O13 0.404995 0.277346 0.555639
O O14 0.867175 0.646183 0.351635
O O15 0.000000 0.000000 0.000000
O O16 0.130509 0.445008 0.416040
O O17 0.708665 0.084726 0.716166
O O18 0.788941 0.232868 0.893206
#
# Coordination Sequence:
#
# PCOD9016172 Si02
#       8
#     2   2   2   2   2   2   2   2
#     4  10  23  42  67  97 130 173 219 275 330 392
#     4  12  28  43  63  99 137 169 223 276 337 388
#     4  12  23  42  73  91 131 178 217 278 328 407
#     4  10  22  40  68  93 130 173 223 268 321 400
#     4  10  21  42  66  98 127 170 227 263 330 398
#     4  10  22  42  65  94 134 168 226 260 332 397
#     4  11  23  44  67  91 135 176 218 267 337 399
#     4  11  26  40  67 100 130 172 222 275 331 395
#
# _framework density 21.950354999999998
#
# number of rings (size 3 to 8) (size 9 to 14) (size 15 to 20)
#    0.000    1.250    5.000    1.500    8.750    1.000 
#    0.000    0.625    0.000    0.000    0.000    0.000 
#    0.000    0.000    0.000    0.000    0.000    0.000 
#
# Total GULP energy -89369.797103 kJ/mol
# GULP energy per Si atom -5585.612319 kJ/mol
# Density = 2.190040 g / cm^3
# Si number density = 21.950355 Si / 1000 Ang^3
#
#
#
# Elastic Constant Matrix: (Units=GPa)
#
#
# Indices 1 2 3 4 5 6 
#
# 1 139.3429 51.2742 25.1887 -28.3297 -13.5481 24.8075
# 2 51.2742 171.4864 7.6981 -20.0951 -20.4500 10.9472
# 3 25.1887 7.6981 29.1501 -17.5900 -0.0245 2.7948
# 4 -28.3297 -20.0951 -17.5900 28.0024 8.7190 -6.3684
# 5 -13.5481 -20.4500 -0.0245 8.7190 28.4495 -9.8656
# 6 24.8075 10.9472 2.7948 -6.3684 -9.8656 40.4903
#
#
#
# Elastic Compliance Matrix: (Units=1/GPa)
#
#
# Indices 1 2 3 4 5 6 
#
# 1 0.010792 -0.002054 -0.005447 0.004765 0.000533 -0.004802
# 2 -0.002054 0.007107 0.001807 0.003244 0.003322 0.000532
# 3 -0.005447 0.001807 0.061871 0.038949 -0.012613 0.001631
# 4 0.004765 0.003244 0.038949 0.072929 -0.017463 0.000731
# 5 0.000533 0.003322 -0.012613 -0.017463 0.045939 0.008093
# 6 -0.004802 0.000532 0.001631 0.000731 0.008093 0.029469
#
#
# Mechanical properties :
#
#
# Convention : Reuss Voigt Hill
#
# Bulk Modulus (GPa) = 14.62379 56.47794 35.55086
# Shear Modulus (GPa) = 19.06289 36.44299 27.75294
#
# Velocity S-wave (km/s) = 2.95015 4.07903 3.55963
# Velocity P-wave (km/s) = 4.27565 6.92607 5.75550
#
# Compressibility (1/GPa) = 0.06838174
#
# Stress axis : x y z
#
# Youngs Moduli (GPa) = 92.65724 140.71240 16.16275
#
# Poissons Ratio (x) = 0.28902 0.08804
# Poissons Ratio (y) = 0.19031 -0.02921
# Poissons Ratio (z) = 0.50473 -0.25429
#
# Static dielectric constant tensor:
#      x y z
#    x 1.778480 0.000370 0.007440 
#    y 0.000370 1.876920 -0.051800 
#    z 0.007440 -0.051800 1.816470 
# 
# From -- ./inp_files/317719.got.cif
#   From: 2010.05.17/outbox.cif.g08.bks.cpg/sg2_159_cif.got.tgz:317719.got - 2010.06.03 11:33:40.
