data_PCOD9016151
_publ_section_title
;
Structure prediction by ZEFSAII (Michael W. Deem and Ramdas Pophale) SiO2 
 PCOD9016151
Probable space group: P -1
;
_chemical_formula_sum "Si O2"
_cell_formula_units_Z 16
_cell_length_a 11.809993
_cell_length_b 9.074462
_cell_length_c 11.640415
_cell_angle_alpha 141.050552
_cell_angle_beta 56.700637
_cell_angle_gamma 110.320219
_cell_volume 647.875508
_symmetry_space_group_name_H-M "P -1"
_symmetry_group_IT_number 2
_symmetry_cell_setting 'triclinic'
loop_
_space_group_symop_operation_xyz
x,y,z
-x,-y,-z
loop_
_atom_site_type_symbol
_atom_site_label
_atom_site_fract_x
_atom_site_fract_y
_atom_site_fract_z
Si Si1 0.704221 0.604032 0.366796
Si Si2 0.322283 0.377880 0.086520
Si Si3 0.792605 0.196367 0.450739
Si Si4 0.556859 0.003719 0.843089
Si Si5 0.368632 0.186811 0.716539
Si Si6 0.049788 0.187506 0.176237
Si Si7 0.795473 0.159826 0.935978
Si Si8 0.949515 0.840178 0.334537
O O1 0.670922 0.694083 0.310557
O O2 0.712047 0.325252 0.179335
O O3 0.856621 0.666030 0.338012
O O4 0.601951 0.753923 0.602560
O O5 0.317927 0.604706 0.308816
O O6 0.162640 0.334409 0.152001
O O7 0.437586 0.168319 0.941039
O O8 0.365535 0.387954 0.936013
O O9 0.904205 0.309940 0.384039
O O10 0.729068 0.997949 0.294519
O O11 0.862096 0.030629 0.414316
O O12 0.699492 0.100746 0.849875
O O13 0.500000 0.000000 0.000000
O O14 0.500000 0.000000 0.500000
O O15 0.129636 0.059645 0.164986
O O16 0.000000 0.000000 0.000000
O O17 0.918603 0.277853 0.882478
O O18 0.000000 0.000000 0.500000
#
# Coordination Sequence:
#
# PCOD9016151 Si02
#       8
#     2   2   2   2   2   2   2   2
#     4  11  25  43  68  99 134 175 220 275 336 389
#     4  12  25  43  70  97 136 178 222 274 333 395
#     4  10  25  41  67  98 128 175 219 276 334 380
#     4  12  26  45  65  99 138 177 225 269 324 410
#     4  11  24  43  63  98 137 171 222 269 322 405
#     4  11  23  47  69  98 134 170 229 280 325 398
#     4  11  25  44  69  98 134 177 218 275 337 387
#     4  10  21  42  66  97 132 164 222 275 322 395
#
# _framework density 24.696103999999998
#
# number of rings (size 3 to 8) (size 9 to 14) (size 15 to 20)
#    0.000    1.000    5.000    0.750    3.500    3.000 
#    0.000    0.000    0.000    0.000    0.000    0.000 
#    0.000    0.000    0.000    0.000    0.000    0.000 
#
# Total GULP energy -89406.535015 kJ/mol
# GULP energy per Si atom -5587.908438 kJ/mol
# Density = 2.463989 g / cm^3
# Si number density = 24.696104 Si / 1000 Ang^3
#
#
#
# Elastic Constant Matrix: (Units=GPa)
#
#
# Indices 1 2 3 4 5 6 
#
# 1 57.5130 -5.8237 0.7730 -7.8338 -3.7075 -2.1226
# 2 -5.8237 30.9880 0.3579 -19.6599 -6.2649 10.9514
# 3 0.7730 0.3579 187.0395 -16.1689 -10.4154 -3.2282
# 4 -7.8338 -19.6599 -16.1689 35.7729 2.9795 -2.0190
# 5 -3.7075 -6.2649 -10.4154 2.9795 41.6876 -6.6307
# 6 -2.1226 10.9514 -3.2282 -2.0190 -6.6307 18.7848
#
#
#
# Elastic Compliance Matrix: (Units=1/GPa)
#
#
# Indices 1 2 3 4 5 6 
#
# 1 0.020264 0.012494 0.000979 0.011373 0.002690 -0.002654
# 2 0.012494 0.075709 0.003182 0.043382 0.004467 -0.035940
# 3 0.000979 0.003182 0.005827 0.004471 0.001759 0.000358
# 4 0.011373 0.043382 0.004471 0.055199 0.002066 -0.016575
# 5 0.002690 0.004467 0.001759 0.002066 0.026389 0.007539
# 6 -0.002654 -0.035940 0.000358 -0.016575 0.007539 0.074828
#
#
# Mechanical properties :
#
#
# Convention : Reuss Voigt Hill
#
# Bulk Modulus (GPa) = 7.40132 29.57278 18.48705
# Shear Modulus (GPa) = 18.52246 37.93128 28.22687
#
# Velocity S-wave (km/s) = 2.74161 3.92334 3.38445
# Velocity P-wave (km/s) = 3.60907 5.70299 4.77229
#
# Compressibility (1/GPa) = 0.13511102
#
# Stress axis : x y z
#
# Youngs Moduli (GPa) = 49.34900 13.20845 171.61729
#
# Poissons Ratio (x) = -0.16503 -0.16809
# Poissons Ratio (y) = -0.61657 -0.54611
# Poissons Ratio (z) = -0.04833 -0.04203
#
# Static dielectric constant tensor:
#      x y z
#    x 2.160760 0.033820 -0.090420 
#    y 0.033820 -2.152110 -2.974090 
#    z -0.090420 -2.974090 -0.143630 
# 
# From -- ./inp_files/403315.got.cif
#   From: 2010.05.17/outbox.cif.g08.bks.cpg/sg2_202_cif.got.tgz:403315.got - 2010.06.03 11:33:40.
