data_PCOD9016600
_publ_section_title
;
Structure prediction by ZEFSAII (Michael W. Deem and Ramdas Pophale) SiO2 
 PCOD9016600
Probable space group: P -1
;
_chemical_formula_sum "Si O2"
_cell_formula_units_Z 14
_cell_length_a 7.200475
_cell_length_b 12.032763
_cell_length_c 7.755563
_cell_angle_alpha 91.652296
_cell_angle_beta 72.888128
_cell_angle_gamma 56.746166
_cell_volume 521.620672
_symmetry_space_group_name_H-M "P -1"
_symmetry_group_IT_number 2
_symmetry_cell_setting 'triclinic'
loop_
_space_group_symop_operation_xyz
x,y,z
-x,-y,-z
loop_
_atom_site_type_symbol
_atom_site_label
_atom_site_fract_x
_atom_site_fract_y
_atom_site_fract_z
Si Si1 0.027144 0.763583 0.711355
Si Si2 0.251686 0.467804 0.641824
Si Si3 0.510780 0.836282 0.953935
Si Si4 0.162788 0.967386 0.747882
Si Si5 0.954962 0.248324 0.708928
Si Si6 0.273918 0.457527 0.221528
Si Si7 0.471876 0.177156 0.665452
O O1 0.223692 0.605378 0.708065
O O2 0.082327 0.867012 0.767610
O O3 0.038151 0.761039 0.500420
O O4 0.768256 0.804862 0.838063
O O5 0.292996 0.445807 0.423951
O O6 0.437017 0.322820 0.672719
O O7 0.989318 0.504531 0.747482
O O8 0.457499 0.882267 0.166915
O O9 0.680224 0.061576 0.128822
O O10 0.548763 0.690992 0.912401
O O11 0.335737 0.921222 0.532786
O O12 0.955642 0.126569 0.785845
O O13 0.213983 0.211855 0.691516
O O14 0.753124 0.405443 0.819678
#
# Coordination Sequence:
#
# PCOD9016600 Si02
#       7
#     2   2   2   2   2   2   2
#     4  10  22  42  69  95 132 176 219 272 330 390
#     4   8  15  34  63  93 121 168 215 263 322 382
#     4  11  23  43  70  98 131 171 225 273 328 389
#     4  12  24  44  68  96 137 174 219 271 330 397
#     4  10  21  42  68  95 130 182 217 262 336 398
#     4   8  15  35  66  93 123 170 222 263 322 392
#     4  11  22  40  71  98 130 175 219 273 332 388
#
# _framework density 26.839427000000001
#
# number of rings (size 3 to 8) (size 9 to 14) (size 15 to 20)
#    0.000    2.000    2.857    2.571    0.000    6.286 
#    2.571    1.429    0.000    0.000    0.000    0.000 
#    0.000    0.000    0.000    0.000    0.000    0.000 
#
# Total GULP energy -78621.418086 kJ/mol
# GULP energy per Si atom -5615.815578 kJ/mol
# Density = 2.677834 g / cm^3
# Si number density = 26.839427 Si / 1000 Ang^3
#
#
#
# Elastic Constant Matrix: (Units=GPa)
#
#
# Indices 1 2 3 4 5 6 
#
# 1 93.7611 33.7869 32.9301 0.2315 -3.6913 9.4881
# 2 33.7869 206.6819 55.2367 22.3069 12.2678 6.8675
# 3 32.9301 55.2367 140.2492 -4.8035 4.1149 -19.1998
# 4 0.2315 22.3069 -4.8035 31.7546 -7.9484 9.0403
# 5 -3.6913 12.2678 4.1149 -7.9484 21.9111 3.7497
# 6 9.4881 6.8675 -19.1998 9.0403 3.7497 44.4341
#
#
#
# Elastic Compliance Matrix: (Units=1/GPa)
#
#
# Indices 1 2 3 4 5 6 
#
# 1 0.013203 -0.001936 -0.003093 0.003801 0.006149 -0.005148
# 2 -0.001936 0.006851 -0.002253 -0.006786 -0.006250 0.000289
# 3 -0.003093 -0.002253 0.009511 0.001265 -0.001439 0.004982
# 4 0.003801 -0.006786 0.001265 0.044901 0.022240 -0.010228
# 5 0.006149 -0.006250 -0.001439 0.022240 0.060324 -0.010584
# 6 -0.005148 0.000289 0.004982 -0.010228 -0.010584 0.028687
#
#
# Mechanical properties :
#
#
# Convention : Reuss Voigt Hill
#
# Bulk Modulus (GPa) = 66.65880 76.06660 71.36270
# Shear Modulus (GPa) = 27.31644 40.86919 34.09281
#
# Velocity S-wave (km/s) = 3.19372 3.90645 3.56792
# Velocity P-wave (km/s) = 6.20402 6.98212 6.60454
#
# Compressibility (1/GPa) = 0.01500177
#
# Stress axis : x y z
#
# Youngs Moduli (GPa) = 75.74132 145.97066 105.13802
#
# Poissons Ratio (x) = 0.28258 0.32515
# Poissons Ratio (y) = 0.14663 0.23688
# Poissons Ratio (z) = 0.23424 0.32888
#
# Static dielectric constant tensor:
#      x y z
#    x 2.076070 0.058560 -0.026530 
#    y 0.058560 2.103480 0.015270 
#    z -0.026530 0.015270 2.006460 
# 
# From -- ./inp_files/181215.got.cif
#   From: 2010.05.17/outbox.cif.g08.bks.cpg/sg2_91_cif.got.tgz:181215.got - 2010.06.03 11:33:40.
