data_PCOD9016191
_publ_section_title
;
Structure prediction by ZEFSAII (Michael W. Deem and Ramdas Pophale) SiO2 
 PCOD9016191
Probable space group: P -1
;
_chemical_formula_sum "Si O2"
_cell_formula_units_Z 14
_cell_length_a 11.785579
_cell_length_b 8.969967
_cell_length_c 10.051643
_cell_angle_alpha 58.841956
_cell_angle_beta 38.657454
_cell_angle_gamma 62.659133
_cell_volume 564.983886
_symmetry_space_group_name_H-M "P -1"
_symmetry_group_IT_number 2
_symmetry_cell_setting 'triclinic'
loop_
_space_group_symop_operation_xyz
x,y,z
-x,-y,-z
loop_
_atom_site_type_symbol
_atom_site_label
_atom_site_fract_x
_atom_site_fract_y
_atom_site_fract_z
Si Si1 0.000415 0.838822 0.175629
Si Si2 0.580564 0.648363 0.954930
Si Si3 0.707659 0.024065 0.987783
Si Si4 0.692329 0.357516 0.178756
Si Si5 0.355472 0.205827 0.593094
Si Si6 0.840368 0.442153 0.268760
Si Si7 0.096451 0.180563 0.322593
O O1 0.106398 0.889182 0.184801
O O2 0.789684 0.813748 0.381451
O O3 0.125884 0.685373 0.055716
O O4 0.000000 0.000000 0.000000
O O5 0.780527 0.725140 0.725751
O O6 0.500000 0.500000 0.000000
O O7 0.436494 0.818930 0.999733
O O8 0.600463 0.542567 0.125039
O O9 0.755899 0.876329 0.902389
O O10 0.650392 0.927381 0.218016
O O11 0.552624 0.215662 0.346738
O O12 0.728205 0.343924 0.308667
O O13 0.282706 0.393185 0.637066
O O14 0.937485 0.321638 0.348778
O O15 0.000000 0.500000 0.000000
O O16 0.000000 0.000000 0.500000
#
# Coordination Sequence:
#
# PCOD9016191 Si02
#       7
#     2   2   2   2   2   2   2
#     4  10  21  42  66  98 142 181 237 300 351 419
#     4  12  26  48  70 105 150 187 236 304 366 432
#     4  11  24  46  67 103 148 186 241 301 362 432
#     4  12  24  43  72 104 139 191 244 293 364 430
#     4  11  24  41  74 106 138 192 246 301 358 434
#     4  12  21  45  72  97 145 188 242 298 358 423
#     4  12  28  46  75 105 145 195 240 300 370 436
#
# _framework density 24.779468000000001
#
# number of rings (size 3 to 8) (size 9 to 14) (size 15 to 20)
#    0.000    0.571    5.714    1.714    4.000    3.429 
#    0.000    1.429    0.000    0.000    0.000    0.000 
#    0.000    0.000    0.000    0.000    0.000    0.000 
#
# Total GULP energy -78259.165989 kJ/mol
# GULP energy per Si atom -5589.940428 kJ/mol
# Density = 2.472307 g / cm^3
# Si number density = 24.779468 Si / 1000 Ang^3
#
#
#
# Elastic Constant Matrix: (Units=GPa)
#
#
# Indices 1 2 3 4 5 6 
#
# 1 155.2768 46.2110 34.0484 -8.6878 -31.4010 -5.7625
# 2 46.2110 140.9542 6.5187 -4.2639 7.2317 -9.4202
# 3 34.0484 6.5187 98.2163 -24.8208 -22.7655 -3.0209
# 4 -8.6878 -4.2639 -24.8208 21.4309 8.3914 -6.9089
# 5 -31.4010 7.2317 -22.7655 8.3914 44.2676 -1.8286
# 6 -5.7625 -9.4202 -3.0209 -6.9089 -1.8286 46.2875
#
#
#
# Elastic Compliance Matrix: (Units=1/GPa)
#
#
# Indices 1 2 3 4 5 6 
#
# 1 0.008988 -0.003201 -0.001794 -0.001395 0.006256 0.000389
# 2 -0.003201 0.008526 0.000434 0.002976 -0.003936 0.001654
# 3 -0.001794 0.000434 0.016314 0.017982 0.003793 0.003764
# 4 -0.001395 0.002976 0.017982 0.073737 -0.005694 0.012387
# 5 0.006256 -0.003936 0.003793 -0.005694 0.030725 0.000589
# 6 0.000389 0.001654 0.003764 0.012387 0.000589 0.024107
#
#
# Mechanical properties :
#
#
# Convention : Reuss Voigt Hill
#
# Bulk Modulus (GPa) = 40.47308 63.11149 51.79229
# Shear Modulus (GPa) = 27.81599 42.90847 35.36223
#
# Velocity S-wave (km/s) = 3.35407 4.16578 3.78177
# Velocity P-wave (km/s) = 5.60076 6.97588 6.32579
#
# Compressibility (1/GPa) = 0.02470778
#
# Stress axis : x y z
#
# Youngs Moduli (GPa) = 111.26522 117.28509 61.29762
#
# Poissons Ratio (x) = 0.37540 0.10995
# Poissons Ratio (y) = 0.35613 -0.02663
# Poissons Ratio (z) = 0.19957 -0.05095
#
# Static dielectric constant tensor:
#      x y z
#    x 2.068070 0.054510 -0.037360 
#    y 0.054510 2.044900 0.040230 
#    z -0.037360 0.040230 2.081050 
# 
# From -- ./inp_files/380155.got.cif
#   From: 2010.05.17/outbox.cif.g08.bks.cpg/sg2_191_cif.got.tgz:380155.got - 2010.06.03 11:33:40.
