data_PCOD9016257
_publ_section_title
;
Structure prediction by ZEFSAII (Michael W. Deem and Ramdas Pophale) SiO2 
 PCOD9016257
Probable space group: P -1
;
_chemical_formula_sum "Si O2"
_cell_formula_units_Z 10
_cell_length_a 14.163256
_cell_length_b 5.117352
_cell_length_c 5.099426
_cell_angle_alpha 91.768889
_cell_angle_beta 79.134767
_cell_angle_gamma 70.361314
_cell_volume 340.080254
_symmetry_space_group_name_H-M "P -1"
_symmetry_group_IT_number 2
_symmetry_cell_setting 'triclinic'
loop_
_space_group_symop_operation_xyz
x,y,z
-x,-y,-z
loop_
_atom_site_type_symbol
_atom_site_label
_atom_site_fract_x
_atom_site_fract_y
_atom_site_fract_z
Si Si1 0.461193 0.238040 0.797230
Si Si2 0.056154 0.761008 0.253678
Si Si3 0.668900 0.299676 0.754455
Si Si4 0.714205 0.751275 0.460152
Si Si5 0.870769 0.820404 0.955388
O O1 0.554677 0.345691 0.698187
O O2 0.400220 0.146079 0.598852
O O3 0.500000 0.000000 0.000000
O O4 0.368318 0.509121 0.966257
O O5 0.973929 0.777959 0.071370
O O6 0.098512 0.431770 0.280774
O O7 0.000000 0.000000 0.500000
O O8 0.148601 0.863863 0.116124
O O9 0.729576 0.444563 0.544596
O O10 0.715001 0.964641 0.701050
O O11 0.790652 0.777598 0.199189
#
# Coordination Sequence:
#
# PCOD9016257 Si02
#       5
#     2   2   2   2   2
#     4  11  25  42  63  89 126 168 217 249 304 369
#     4  10  21  42  67  87 127 158 195 249 314 363
#     4  11  25  41  62  89 123 171 205 257 311 356
#     4  12  25  40  65  91 129 160 208 261 305 358
#     4  10  23  40  62  97 119 158 205 247 302 377
#
# _framework density 29.404826
#
# number of rings (size 3 to 8) (size 9 to 14) (size 15 to 20)
#    0.000    1.200    2.000    3.000    5.600    3.200 
#    0.000    0.000    0.000    0.000    0.000    0.000 
#    0.000    0.000    0.000    0.000    0.000    0.000 
#
# Total GULP energy -56053.983981 kJ/mol
# GULP energy per Si atom -5605.398398 kJ/mol
# Density = 2.933790 g / cm^3
# Si number density = 29.404826 Si / 1000 Ang^3
#
#
#
# Elastic Constant Matrix: (Units=GPa)
#
#
# Indices 1 2 3 4 5 6 
#
# 1 100.9863 51.0323 1.3191 -20.0098 -11.6926 33.1405
# 2 51.0323 237.7034 60.3632 3.7600 -9.2917 10.8602
# 3 1.3191 60.3632 86.3390 -0.7709 -18.5610 21.6750
# 4 -20.0098 3.7600 -0.7709 65.9936 7.8283 1.5215
# 5 -11.6926 -9.2917 -18.5610 7.8283 67.4689 -7.1807
# 6 33.1405 10.8602 21.6750 1.5215 -7.1807 77.3638
#
#
#
# Elastic Compliance Matrix: (Units=1/GPa)
#
#
# Indices 1 2 3 4 5 6 
#
# 1 0.015725 -0.004345 0.005188 0.004990 0.002179 -0.007475
# 2 -0.004345 0.006334 -0.005155 -0.001692 -0.000850 0.002371
# 3 0.005188 -0.005155 0.017540 0.001717 0.004170 -0.006059
# 4 0.004990 -0.001692 0.001717 0.016986 -0.001167 -0.002823
# 5 0.002179 -0.000850 0.004170 -0.001167 0.016318 -0.000445
# 6 -0.007475 0.002371 -0.006059 -0.002823 -0.000445 0.017507
#
#
# Mechanical properties :
#
#
# Convention : Reuss Voigt Hill
#
# Bulk Modulus (GPa) = 32.28638 72.27310 52.27974
# Shear Modulus (GPa) = 45.72031 62.98621 54.35326
#
# Velocity S-wave (km/s) = 3.94745 4.63323 4.30402
# Velocity P-wave (km/s) = 5.63740 7.29757 6.52053
#
# Compressibility (1/GPa) = 0.03097281
#
# Stress axis : x y z
#
# Youngs Moduli (GPa) = 63.59432 157.87332 57.01157
#
# Poissons Ratio (x) = 0.68603 -0.29575
# Poissons Ratio (y) = 0.27635 0.29391
# Poissons Ratio (z) = -0.32990 0.81387
#
# Static dielectric constant tensor:
#      x y z
#    x 2.406430 -0.169310 -0.007430 
#    y -0.169310 2.270700 0.010410 
#    z -0.007430 0.010410 2.338460 
# 
# From -- ./inp_files/7306.got.cif
#   From: 2010.05.17/outbox.cif.g08.bks.cpg/sg2_4_cif.got.tgz:7306.got - 2010.06.03 11:33:40.
