data_PCOD9016491
_publ_section_title
;
Structure prediction by ZEFSAII (Michael W. Deem and Ramdas Pophale) SiO2 
 PCOD9016491
Probable space group: P -1
;
_chemical_formula_sum "Si O2"
_cell_formula_units_Z 16
_cell_length_a 11.573351
_cell_length_b 14.361821
_cell_length_c 8.612818
_cell_angle_alpha 97.157588
_cell_angle_beta 69.651912
_cell_angle_gamma 149.304512
_cell_volume 638.071350
_symmetry_space_group_name_H-M "P -1"
_symmetry_group_IT_number 2
_symmetry_cell_setting 'triclinic'
loop_
_space_group_symop_operation_xyz
x,y,z
-x,-y,-z
loop_
_atom_site_type_symbol
_atom_site_label
_atom_site_fract_x
_atom_site_fract_y
_atom_site_fract_z
Si Si1 0.187029 0.397496 0.945653
Si Si2 0.319224 0.958846 0.399692
Si Si3 0.271687 0.222790 0.167350
Si Si4 0.665918 0.237642 0.734975
Si Si5 0.917111 0.397853 0.180122
Si Si6 0.741710 0.927791 0.306211
Si Si7 0.245802 0.983518 0.110076
Si Si8 0.437922 0.354393 0.437614
O O1 0.318254 0.522290 0.748750
O O2 0.991610 0.190768 0.930000
O O3 0.444763 0.547607 0.951565
O O4 0.028206 0.090309 0.154738
O O5 0.613590 0.190072 0.294888
O O6 0.310721 0.841032 0.392409
O O7 0.212711 0.947744 0.588193
O O8 0.190381 0.901113 0.285011
O O9 0.297762 0.127982 0.133476
O O10 0.647025 0.776109 0.421418
O O11 0.229370 0.222234 0.368472
O O12 0.937988 0.455190 0.715099
O O13 0.487840 0.196999 0.727767
O O14 0.493950 0.100820 0.940286
O O15 0.026970 0.366656 0.106058
O O16 0.000000 0.500000 0.000000
O O17 0.500000 0.500000 0.500000
#
# Coordination Sequence:
#
# PCOD9016491 Si02
#       8
#     2   2   2   2   2   2   2   2
#     4  10  22  37  70 102 123 171 240 282 317 398
#     4  12  25  44  71  99 140 189 231 281 330 424
#     4  10  23  43  69 100 134 175 230 285 335 405
#     4  12  26  44  69 104 143 183 223 287 353 401
#     4  12  21  44  67  99 132 175 245 280 327 400
#     4  12  26  45  66 106 149 176 220 291 354 410
#     4  12  21  44  74 102 130 180 243 279 331 409
#     4  10  21  42  68 102 130 183 231 274 336 412
#
# _framework density 25.075565999999998
#
# number of rings (size 3 to 8) (size 9 to 14) (size 15 to 20)
#    0.750    0.000    5.000    3.375    1.750    1.000 
#    2.250    0.625    0.000    0.000    0.000    0.000 
#    0.000    0.000    0.000    0.000    0.000    0.000 
#
# Total GULP energy -89570.868287 kJ/mol
# GULP energy per Si atom -5598.179268 kJ/mol
# Density = 2.501849 g / cm^3
# Si number density = 25.075566 Si / 1000 Ang^3
#
#
#
# Elastic Constant Matrix: (Units=GPa)
#
#
# Indices 1 2 3 4 5 6 
#
# 1 112.8689 53.3674 12.6307 8.5266 10.1595 5.4658
# 2 53.3674 168.8449 -2.0258 -0.9031 -0.6777 -12.2164
# 3 12.6307 -2.0258 20.5603 3.1015 -5.6400 -10.2948
# 4 8.5266 -0.9031 3.1015 32.9306 2.5496 -13.0297
# 5 10.1595 -0.6777 -5.6400 2.5496 43.6593 4.9227
# 6 5.4658 -12.2164 -10.2948 -13.0297 4.9227 28.6063
#
#
#
# Elastic Compliance Matrix: (Units=1/GPa)
#
#
# Indices 1 2 3 4 5 6 
#
# 1 0.015417 -0.006218 -0.017352 -0.008132 -0.003771 -0.014901
# 2 -0.006218 0.008786 0.009510 0.004962 0.001351 0.010390
# 3 -0.017352 0.009510 0.081306 0.012478 0.009370 0.040708
# 4 -0.008132 0.004962 0.012478 0.042649 -0.002060 0.027944
# 5 -0.003771 0.001351 0.009370 -0.002060 0.025202 -0.000606
# 6 -0.014901 0.010390 0.040708 0.027944 -0.000606 0.069724
#
#
# Mechanical properties :
#
#
# Convention : Reuss Voigt Hill
#
# Bulk Modulus (GPa) = 12.92200 47.80209 30.36205
# Shear Modulus (GPa) = 16.83499 36.92603 26.88051
#
# Velocity S-wave (km/s) = 2.59389 3.84160 3.27766
# Velocity P-wave (km/s) = 3.75971 6.22750 5.14379
#
# Compressibility (1/GPa) = 0.07738740
#
# Stress axis : x y z
#
# Youngs Moduli (GPa) = 64.86352 113.82138 12.29926
#
# Poissons Ratio (x) = 0.70773 0.21342
# Poissons Ratio (y) = 0.40331 -0.11696
# Poissons Ratio (z) = 1.12554 -1.08242
#
# Static dielectric constant tensor:
#      x y z
#    x 1.947340 0.034120 0.026780 
#    y 0.034120 1.959530 0.001090 
#    z 0.026780 0.001090 2.037100 
# 
# From -- ./inp_files/337228.got.cif
#   From: 2010.05.17/outbox.cif.g08.bks.cpg/sg2_169_cif.got.tgz:337228.got - 2010.06.03 11:33:40.
