data_PCOD9016186
_publ_section_title
;
Structure prediction by ZEFSAII (Michael W. Deem and Ramdas Pophale) SiO2 
 PCOD9016186
Probable space group: P -1
;
_chemical_formula_sum "Si O2"
_cell_formula_units_Z 15
_cell_length_a 19.003298
_cell_length_b 5.245903
_cell_length_c 5.849094
_cell_angle_alpha 85.401985
_cell_angle_beta 91.305696
_cell_angle_gamma 104.011209
_cell_volume 563.920847
_symmetry_space_group_name_H-M "P -1"
_symmetry_group_IT_number 2
_symmetry_cell_setting 'triclinic'
loop_
_space_group_symop_operation_xyz
x,y,z
-x,-y,-z
loop_
_atom_site_type_symbol
_atom_site_label
_atom_site_fract_x
_atom_site_fract_y
_atom_site_fract_z
Si Si1 0.779299 0.369890 0.991930
Si Si2 0.952642 0.811633 0.315964
Si Si3 0.308562 0.418992 0.648063
Si Si4 0.562484 0.748140 0.415726
Si Si5 0.915771 0.208442 0.909546
Si Si6 0.177814 0.182473 0.409383
Si Si7 0.500000 0.000000 0.000000
Si Si8 0.353863 0.872676 0.242842
O O1 0.734824 0.440973 0.193280
O O2 0.860459 0.337734 0.034870
O O3 0.792244 0.613843 0.802331
O O4 0.722492 0.128902 0.882098
O O5 0.878427 0.697128 0.453093
O O6 0.006870 0.652730 0.212595
O O7 0.000000 0.000000 0.500000
O O8 0.931721 0.987098 0.096788
O O9 0.379539 0.333752 0.744943
O O10 0.246232 0.170267 0.570599
O O11 0.337870 0.629028 0.434790
O O12 0.500000 0.500000 0.500000
O O13 0.525772 0.945444 0.264410
O O14 0.609747 0.870042 0.627454
O O15 0.867205 0.077727 0.698352
O O16 0.415414 0.849090 0.069783
#
# Coordination Sequence:
#
# PCOD9016186 Si02
#       8
#     2   2   2   2   2   2   1   2
#     4  11  25  42  70 101 136 181 232 283 349 415
#     4   9  20  39  66  97 138 182 231 282 345 404
#     4  11  25  46  67 102 142 182 231 291 356 420
#     4  12  27  48  75 102 143 184 229 298 357 421
#     4  10  21  42  66  98 137 184 229 286 344 408
#     4  10  22  41  67  99 138 179 232 283 345 414
#     4  12  26  46  76 102 132 180 236 284 358 424
#     4  11  26  46  68 104 137 176 235 288 355 428
#
# _framework density 26.599478999999999
#
# number of rings (size 3 to 8) (size 9 to 14) (size 15 to 20)
#    0.000    1.333    1.333    2.800    1.867   11.733 
#    0.000    9.333    0.000    0.000    0.000    0.000 
#    0.000    0.000    0.000    0.000    0.000    0.000 
#
# Total GULP energy -83744.088770 kJ/mol
# GULP energy per Si atom -5582.939251 kJ/mol
# Density = 2.653894 g / cm^3
# Si number density = 26.599479 Si / 1000 Ang^3
#
#
#
# Elastic Constant Matrix: (Units=GPa)
#
#
# Indices 1 2 3 4 5 6 
#
# 1 198.2378 19.9513 36.5023 7.9386 -19.4069 10.2194
# 2 19.9513 49.2196 19.7690 13.4675 0.5690 13.6860
# 3 36.5023 19.7690 103.5853 0.3540 -23.9799 9.0559
# 4 7.9386 13.4675 0.3540 34.4074 14.4080 -4.4442
# 5 -19.4069 0.5690 -23.9799 14.4080 60.0833 3.2251
# 6 10.2194 13.6860 9.0559 -4.4442 3.2251 42.5781
#
#
#
# Elastic Compliance Matrix: (Units=1/GPa)
#
#
# Indices 1 2 3 4 5 6 
#
# 1 0.005691 -0.001011 -0.001288 -0.001810 0.001827 -0.001094
# 2 -0.001011 0.028353 -0.003858 -0.012636 0.001404 -0.009476
# 3 -0.001288 -0.003858 0.012033 -0.000424 0.004600 -0.001403
# 4 -0.001810 -0.012636 -0.000424 0.040188 -0.010787 0.009598
# 5 0.001827 0.001404 0.004600 -0.010787 0.021893 -0.004652
# 6 -0.001094 -0.009476 -0.001403 0.009598 -0.004652 0.028447
#
#
# Mechanical properties :
#
#
# Convention : Reuss Voigt Hill
#
# Bulk Modulus (GPa) = 29.61848 55.94309 42.78079
# Shear Modulus (GPa) = 31.21619 45.73510 38.47565
#
# Velocity S-wave (km/s) = 3.42945 4.15106 3.80739
# Velocity P-wave (km/s) = 5.18080 6.63720 5.95370
#
# Compressibility (1/GPa) = 0.03376270
#
# Stress axis : x y z
#
# Youngs Moduli (GPa) = 175.71389 35.26994 83.10494
#
# Poissons Ratio (x) = 0.03566 0.10702
# Poissons Ratio (y) = 0.17767 0.32063
# Poissons Ratio (z) = 0.22628 0.13608
#
# Static dielectric constant tensor:
#      x y z
#    x 1.811650 0.109080 -0.278300 
#    y 0.109080 2.053890 0.247130 
#    z -0.278300 0.247130 1.834650 
# 
# From -- ./inp_files/8127.got.cif
#   From: 2010.05.17/outbox.cif.g08.bks.cpg/sg2_5_cif.got.tgz:8127.got - 2010.06.03 11:33:40.
