data_PCOD9016657
_publ_section_title
;
Structure prediction by ZEFSAII (Michael W. Deem and Ramdas Pophale) SiO2 
 PCOD9016657
Probable space group: P -1
;
_chemical_formula_sum "Si O2"
_cell_formula_units_Z 16
_cell_length_a 9.107495
_cell_length_b 14.280271
_cell_length_c 9.388919
_cell_angle_alpha 123.567223
_cell_angle_beta 110.023336
_cell_angle_gamma 108.865116
_cell_volume 722.480156
_symmetry_space_group_name_H-M "P -1"
_symmetry_group_IT_number 2
_symmetry_cell_setting 'triclinic'
loop_
_space_group_symop_operation_xyz
x,y,z
-x,-y,-z
loop_
_atom_site_type_symbol
_atom_site_label
_atom_site_fract_x
_atom_site_fract_y
_atom_site_fract_z
Si Si1 0.027056 0.920637 0.564974
Si Si2 0.712445 0.388272 0.123147
Si Si3 0.849017 0.222773 0.178240
Si Si4 0.559775 0.647132 0.212178
Si Si5 0.692543 0.526929 0.511511
Si Si6 0.108646 0.711323 0.422172
Si Si7 0.792617 0.949909 0.961554
Si Si8 0.606330 0.337364 0.553358
O O1 0.097006 0.831117 0.457534
O O2 0.799694 0.781696 0.431500
O O3 0.000000 0.000000 0.500000
O O4 0.165910 0.025277 0.833442
O O5 0.779242 0.297966 0.127829
O O6 0.649265 0.437374 0.277791
O O7 0.893240 0.541636 0.227088
O O8 0.521483 0.296287 0.875205
O O9 0.819537 0.241032 0.349310
O O10 0.093324 0.309410 0.311083
O O11 0.743244 0.053307 0.978581
O O12 0.447404 0.606289 0.289852
O O13 0.500000 0.500000 0.000000
O O14 0.500000 0.500000 0.500000
O O15 0.757406 0.467094 0.601528
O O16 0.275311 0.716215 0.398946
O O17 0.598254 0.786761 0.708700
O O18 0.000000 0.000000 0.000000
#
# Coordination Sequence:
#
# PCOD9016657 Si02
#       8
#     2   2   2   2   2   2   2   2
#     4  11  26  47  69  98 139 182 223 270 345 409
#     4  11  21  43  66 100 139 174 221 285 343 389
#     4  10  21  42  68  97 139 175 219 285 338 394
#     4  12  26  46  68  96 140 184 219 285 346 388
#     4  11  21  37  69 103 127 170 239 273 320 410
#     4  10  21  44  69  99 137 174 221 287 337 397
#     4  11  24  46  69  96 141 176 219 284 335 398
#     4  12  24  43  69 102 132 178 232 272 339 407
#
# _framework density 22.145938000000001
#
# number of rings (size 3 to 8) (size 9 to 14) (size 15 to 20)
#    0.000    1.000    5.000    2.250    3.500    3.500 
#    4.500    1.250    0.000    0.000    0.000    0.000 
#    0.000    0.000    0.000    0.000    0.000    0.000 
#
# Total GULP energy -89387.757531 kJ/mol
# GULP energy per Si atom -5586.734846 kJ/mol
# Density = 2.209553 g / cm^3
# Si number density = 22.145938 Si / 1000 Ang^3
#
#
#
# Elastic Constant Matrix: (Units=GPa)
#
#
# Indices 1 2 3 4 5 6 
#
# 1 106.6373 24.4172 30.1851 1.8592 -9.7942 -11.0543
# 2 24.4172 105.9169 31.2168 -0.9010 -8.8647 -28.5119
# 3 30.1851 31.2168 88.9876 -3.7389 -11.9776 -3.0769
# 4 1.8592 -0.9010 -3.7389 21.1913 -10.0261 -2.2485
# 5 -9.7942 -8.8647 -11.9776 -10.0261 21.4937 -4.4092
# 6 -11.0543 -28.5119 -3.0769 -2.2485 -4.4092 45.5321
#
#
#
# Elastic Compliance Matrix: (Units=1/GPa)
#
#
# Indices 1 2 3 4 5 6 
#
# 1 0.010939 -0.000700 -0.002829 0.000618 0.003908 0.002435
# 2 -0.000700 0.013633 -0.002990 0.004739 0.007724 0.009147
# 3 -0.002829 -0.002990 0.014701 0.006827 0.008777 -0.000378
# 4 0.000618 0.004739 0.006827 0.068793 0.040363 0.010885
# 5 0.003908 0.007724 0.008777 0.040363 0.078487 0.015972
# 6 0.002435 0.009147 -0.000378 0.010885 0.015972 0.030340
#
#
# Mechanical properties :
#
#
# Convention : Reuss Voigt Hill
#
# Bulk Modulus (GPa) = 38.11655 52.57556 45.34606
# Shear Modulus (GPa) = 20.94885 32.02494 26.48689
#
# Velocity S-wave (km/s) = 3.07896 3.80687 3.46210
# Velocity P-wave (km/s) = 5.46707 6.56620 6.04169
#
# Compressibility (1/GPa) = 0.02623532
#
# Stress axis : x y z
#
# Youngs Moduli (GPa) = 91.41437 73.35115 68.02201
#
# Poissons Ratio (x) = 0.05137 0.19242
# Poissons Ratio (y) = 0.06402 0.20338
# Poissons Ratio (z) = 0.25860 0.21931
#
# Static dielectric constant tensor:
#      x y z
#    x 1.869710 -0.066220 0.011280 
#    y -0.066220 1.842900 0.014390 
#    z 0.011280 0.014390 1.791290 
# 
# From -- ./inp_files/209073.got.cif
#   From: 2010.05.17/outbox.cif.g08.bks.cpg/sg2_105_cif.got.tgz:209073.got - 2010.06.03 11:33:40.
