data_PCOD9016844
_publ_section_title
;
Structure prediction by ZEFSAII (Michael W. Deem and Ramdas Pophale) SiO2 
 PCOD9016844
Probable space group: P -1
;
_chemical_formula_sum "Si O2"
_cell_formula_units_Z 12
_cell_length_a 16.142449
_cell_length_b 7.148742
_cell_length_c 21.615341
_cell_angle_alpha 120.495436
_cell_angle_beta 161.848097
_cell_angle_gamma 49.489061
_cell_volume 523.495800
_symmetry_space_group_name_H-M "P -1"
_symmetry_group_IT_number 2
_symmetry_cell_setting 'triclinic'
loop_
_space_group_symop_operation_xyz
x,y,z
-x,-y,-z
loop_
_atom_site_type_symbol
_atom_site_label
_atom_site_fract_x
_atom_site_fract_y
_atom_site_fract_z
Si Si1 0.265677 0.627770 0.949222
Si Si2 0.290501 0.256285 0.331875
Si Si3 0.342865 0.286770 0.671073
Si Si4 0.358484 0.760587 0.244176
Si Si5 0.433660 0.483857 0.368576
Si Si6 0.031713 0.889501 0.690115
O O1 0.127482 0.751356 0.803192
O O2 0.014623 0.628386 0.817415
O O3 0.367413 0.794680 0.088096
O O4 0.619552 0.314991 0.135434
O O5 0.215858 0.422819 0.242888
O O6 0.569183 0.278361 0.561433
O O7 0.438300 0.945237 0.367319
O O8 0.395031 0.405945 0.666714
O O9 0.000000 0.500000 0.500000
O O10 0.269605 0.091526 0.555603
O O11 0.336476 0.576453 0.245006
O O12 0.000000 0.000000 0.000000
O O13 0.836584 0.215603 0.611927
#
# Coordination Sequence:
#
# PCOD9016844 Si02
#       6
#     2   2   2   2   2   2
#     4  10  22  42  71  97 133 179 214 272 335 380
#     4  11  24  41  68  97 132 170 223 271 328 395
#     4  10  21  42  69  96 129 177 216 266 332 386
#     4  12  24  44  66  93 136 172 214 280 332 383
#     4  11  26  41  67 100 128 177 222 269 327 397
#     4  10  22  44  68  98 135 173 223 270 323 397
#
# _framework density 22.922819
#
# number of rings (size 3 to 8) (size 9 to 14) (size 15 to 20)
#    0.000    1.333    3.333    1.500    4.667    1.333 
#    3.000    5.000    0.000    0.000    0.000    0.000 
#    0.000    0.000    0.000    0.000    0.000    0.000 
#
# Total GULP energy -66912.072355 kJ/mol
# GULP energy per Si atom -5576.006030 kJ/mol
# Density = 2.287065 g / cm^3
# Si number density = 22.922819 Si / 1000 Ang^3
#
#
#
# Elastic Constant Matrix: (Units=GPa)
#
#
# Indices 1 2 3 4 5 6 
#
# 1 219.6286 47.3947 57.4568 -12.8008 28.6358 22.6505
# 2 47.3947 60.6509 32.3661 1.3042 -8.5090 7.9550
# 3 57.4568 32.3661 104.7399 2.0962 4.5205 8.4282
# 4 -12.8008 1.3042 2.0962 36.1416 -6.5923 -6.6408
# 5 28.6358 -8.5090 4.5205 -6.5923 43.8074 -0.3334
# 6 22.6505 7.9550 8.4282 -6.6408 -0.3334 46.6508
#
#
#
# Elastic Compliance Matrix: (Units=1/GPa)
#
#
# Indices 1 2 3 4 5 6 
#
# 1 0.007139 -0.004999 -0.002009 0.001492 -0.005222 -0.002076
# 2 -0.004999 0.024416 -0.005071 -0.000995 0.008377 -0.000902
# 3 -0.002009 -0.005071 0.012350 -0.001576 -0.001188 -0.000624
# 4 0.001492 -0.000995 -0.001576 0.029693 0.003493 0.003982
# 5 -0.005222 0.008377 -0.001188 0.003493 0.028531 0.002023
# 6 -0.002076 -0.000902 -0.000624 0.003982 0.002023 0.023292
#
#
# Mechanical properties :
#
#
# Convention : Reuss Voigt Hill
#
# Bulk Modulus (GPa) = 50.64491 73.27272 61.95881
# Shear Modulus (GPa) = 32.01794 41.84007 36.92900
#
# Velocity S-wave (km/s) = 3.74140 4.27694 4.01810
# Velocity P-wave (km/s) = 6.38793 7.51159 6.97243
#
# Compressibility (1/GPa) = 0.01974532
#
# Stress axis : x y z
#
# Youngs Moduli (GPa) = 140.06729 40.95730 80.97358
#
# Poissons Ratio (x) = 0.20476 0.16268
# Poissons Ratio (y) = 0.70024 0.41065
# Poissons Ratio (z) = 0.28140 0.20771
#
# Static dielectric constant tensor:
#      x y z
#    x 1.928220 -0.046300 -0.054100 
#    y -0.046300 1.918460 0.047330 
#    z -0.054100 0.047330 1.946000 
# 
# From -- ./inp_files/18471.got.cif
#   From: 2010.05.17/outbox.cif.g08.bks.cpg/sg2_10_cif.got.tgz:18471.got - 2010.06.03 11:33:40.
