data_PCOD9016276
_publ_section_title
;
Structure prediction by ZEFSAII (Michael W. Deem and Ramdas Pophale) SiO2 
 PCOD9016276
Probable space group: P -1
;
_chemical_formula_sum "Si O2"
_cell_formula_units_Z 16
_cell_length_a 12.288537
_cell_length_b 6.875491
_cell_length_c 22.199734
_cell_angle_alpha 82.309282
_cell_angle_beta 152.992536
_cell_angle_gamma 110.973433
_cell_volume 715.555527
_symmetry_space_group_name_H-M "P -1"
_symmetry_group_IT_number 2
_symmetry_cell_setting 'triclinic'
loop_
_space_group_symop_operation_xyz
x,y,z
-x,-y,-z
loop_
_atom_site_type_symbol
_atom_site_label
_atom_site_fract_x
_atom_site_fract_y
_atom_site_fract_z
Si Si1 0.315134 0.437045 0.971255
Si Si2 0.851956 0.567297 0.731118
Si Si3 0.208867 0.071355 0.253094
Si Si4 0.822443 0.777962 0.284796
Si Si5 0.261954 0.917848 0.688176
Si Si6 0.690075 0.863301 0.568343
Si Si7 0.733194 0.666625 0.372895
Si Si8 0.319389 0.152939 0.172958
O O1 0.123870 0.549591 0.869784
O O2 0.500000 0.500000 0.000000
O O3 0.546755 0.554319 0.132597
O O4 0.095959 0.163755 0.881459
O O5 0.824105 0.706096 0.767363
O O6 0.841976 0.717743 0.664385
O O7 0.580094 0.310707 0.597345
O O8 0.372737 0.094348 0.395519
O O9 0.337012 0.068207 0.252433
O O10 0.898912 0.713432 0.389003
O O11 0.733426 0.962739 0.252090
O O12 0.079554 0.903437 0.360530
O O13 0.491145 0.862525 0.784542
O O14 0.945494 0.702506 0.529019
O O15 0.313678 0.120907 0.658104
O O16 0.448426 0.424068 0.235863
O O17 0.000000 0.000000 0.000000
#
# Coordination Sequence:
#
# PCOD9016276 Si02
#       8
#     2   2   2   2   2   2   2   2
#     4  12  23  42  62  96 127 167 205 255 318 381
#     4   9  23  42  63  94 130 163 204 256 324 368
#     4  10  24  40  63  95 128 161 211 253 317 369
#     4  10  21  42  67  90 129 160 213 257 312 371
#     4   9  23  43  64  94 120 171 216 256 304 364
#     4   9  20  45  63  97 119 169 207 255 322 364
#     4   9  22  44  64  90 121 173 208 258 310 354
#     4  12  25  41  63  97 130 164 213 254 311 382
#
# _framework density 22.360247999999999
#
# number of rings (size 3 to 8) (size 9 to 14) (size 15 to 20)
#    1.500    0.500    1.250    1.125    3.500    5.000 
#    4.500    0.000    0.000    0.000    0.000    0.000 
#    0.000    0.000    0.000    0.000    0.000    0.000 
#
# Total GULP energy -89200.676355 kJ/mol
# GULP energy per Si atom -5575.042272 kJ/mol
# Density = 2.230936 g / cm^3
# Si number density = 22.360248 Si / 1000 Ang^3
#
#
#
# Elastic Constant Matrix: (Units=GPa)
#
#
# Indices 1 2 3 4 5 6 
#
# 1 91.9863 10.5162 16.7409 -0.1555 -7.3421 -6.2621
# 2 10.5162 55.9133 29.5118 20.0809 1.8447 -10.0926
# 3 16.7409 29.5118 109.2864 32.4395 -5.0356 -12.7345
# 4 -0.1555 20.0809 32.4395 34.2526 -7.8907 2.9992
# 5 -7.3421 1.8447 -5.0356 -7.8907 26.7041 2.6313
# 6 -6.2621 -10.0926 -12.7345 2.9992 2.6313 36.5078
#
#
#
# Elastic Compliance Matrix: (Units=1/GPa)
#
#
# Indices 1 2 3 4 5 6 
#
# 1 0.012015 -0.003109 -0.002391 0.005250 0.004658 -0.000400
# 2 -0.003109 0.027334 -0.000950 -0.018012 -0.009114 0.008829
# 3 -0.002391 -0.000950 0.014601 -0.014404 -0.002666 0.005796
# 4 0.005250 -0.018012 -0.014404 0.059128 0.018953 -0.015327
# 5 0.004658 -0.009114 -0.002666 0.018953 0.045191 -0.007465
# 6 -0.000400 0.008829 0.005796 -0.015327 -0.007465 0.033582
#
#
# Mechanical properties :
#
#
# Convention : Reuss Voigt Hill
#
# Bulk Modulus (GPa) = 24.36026 41.19154 32.77590
# Shear Modulus (GPa) = 22.89004 32.85403 27.87203
#
# Velocity S-wave (km/s) = 3.20299 3.83731 3.53441
# Velocity P-wave (km/s) = 4.95953 6.17212 5.59875
#
# Compressibility (1/GPa) = 0.04105047
#
# Stress axis : x y z
#
# Youngs Moduli (GPa) = 83.22745 36.58429 68.48824
#
# Poissons Ratio (x) = 0.11374 0.16377
# Poissons Ratio (y) = 0.25875 0.06504
# Poissons Ratio (z) = 0.19902 0.03474
#
# Static dielectric constant tensor:
#      x y z
#    x 1.839760 0.000490 -0.023680 
#    y 0.000490 1.885470 -0.029150 
#    z -0.023680 -0.029150 1.799920 
# 
# From -- ./inp_files/609609.got.cif
#   From: 2010.05.17/outbox.cif.g08.bks.cpg/sg2_305_cif.got.tgz:609609.got - 2010.06.03 11:33:40.
