data_PCOD9016317
_publ_section_title
;
Structure prediction by ZEFSAII (Michael W. Deem and Ramdas Pophale) SiO2 
 PCOD9016317
Probable space group: P -1
;
_chemical_formula_sum "Si O2"
_cell_formula_units_Z 16
_cell_length_a 12.164688
_cell_length_b 8.179420
_cell_length_c 28.818125
_cell_angle_alpha 136.266820
_cell_angle_beta 151.876354
_cell_angle_gamma 35.170422
_cell_volume 778.536535
_symmetry_space_group_name_H-M "P -1"
_symmetry_group_IT_number 2
_symmetry_cell_setting 'triclinic'
loop_
_space_group_symop_operation_xyz
x,y,z
-x,-y,-z
loop_
_atom_site_type_symbol
_atom_site_label
_atom_site_fract_x
_atom_site_fract_y
_atom_site_fract_z
Si Si1 0.725173 0.214902 0.970674
Si Si2 0.246770 0.809447 0.355326
Si Si3 0.381405 0.877185 0.986487
Si Si4 0.799430 0.884560 0.402559
Si Si5 0.352362 0.394517 0.389204
Si Si6 0.752901 0.114260 0.162003
Si Si7 0.274031 0.342734 0.757735
Si Si8 0.155642 0.334841 0.477760
O O1 0.755690 0.113965 0.014167
O O2 0.465418 0.229897 0.851542
O O3 0.632274 0.543227 0.004207
O O4 0.000000 0.000000 0.000000
O O5 0.310072 0.542230 0.353863
O O6 0.527264 0.750888 0.423974
O O7 0.009228 0.917684 0.250778
O O8 0.154774 0.058105 0.409930
O O9 0.507700 0.068105 0.073213
O O10 0.188588 0.957754 0.885866
O O11 0.671496 0.896845 0.307447
O O12 0.993461 0.556265 0.421154
O O13 0.564334 0.062433 0.390093
O O14 0.000000 0.000000 0.500000
O O15 0.500000 0.500000 0.500000
O O16 0.052962 0.486749 0.315938
O O17 0.668063 0.436521 0.199450
O O18 0.000000 0.500000 0.500000
#
# Coordination Sequence:
#
# PCOD9016317 Si02
#       8
#     2   2   2   2   2   2   2   2
#     4  10  22  44  71  99 131 166 223 277 332 401
#     4  11  23  40  61  91 129 168 218 267 326 386
#     4   9  21  44  68  95 131 168 213 277 338 394
#     4  12  23  42  61  93 132 171 224 266 319 389
#     4  12  24  40  67  91 132 182 220 269 322 385
#     4  10  21  42  67  93 131 174 216 271 336 395
#     4  11  24  41  65  97 130 176 220 269 331 395
#     4  11  24  40  59  89 128 170 213 270 321 381
#
# _framework density 20.551382
#
# number of rings (size 3 to 8) (size 9 to 14) (size 15 to 20)
#    0.000    1.250    3.750    1.500    3.500    4.000 
#    0.000    6.875    0.000    0.000    0.000    0.000 
#    0.000    0.000    0.000    0.000    0.000    0.000 
#
# Total GULP energy -89428.202134 kJ/mol
# GULP energy per Si atom -5589.262633 kJ/mol
# Density = 2.050461 g / cm^3
# Si number density = 20.551382 Si / 1000 Ang^3
#
#
#
# Elastic Constant Matrix: (Units=GPa)
#
#
# Indices 1 2 3 4 5 6 
#
# 1 80.6688 21.2525 30.8139 6.2471 -11.2542 -9.7400
# 2 21.2525 62.2344 22.6809 7.5911 4.6966 -19.9077
# 3 30.8139 22.6809 90.9474 10.4578 -11.5747 -6.0346
# 4 6.2471 7.5911 10.4578 29.6664 8.3191 -1.1798
# 5 -11.2542 4.6966 -11.5747 8.3191 31.5060 -5.6144
# 6 -9.7400 -19.9077 -6.0346 -1.1798 -5.6144 46.2482
#
#
#
# Elastic Compliance Matrix: (Units=1/GPa)
#
#
# Indices 1 2 3 4 5 6 
#
# 1 0.015943 -0.003745 -0.003208 -0.002928 0.006205 0.002006
# 2 -0.003745 0.021740 -0.003972 -0.001898 -0.004201 0.007493
# 3 -0.003208 -0.003972 0.014448 -0.005114 0.006124 0.000113
# 4 -0.002928 -0.001898 -0.005114 0.040371 -0.013791 -0.002745
# 5 0.006205 -0.004201 0.006124 -0.013791 0.041359 0.004967
# 6 0.002006 0.007493 0.000113 -0.002745 0.004967 0.025818
#
#
# Mechanical properties :
#
#
# Convention : Reuss Voigt Hill
#
# Bulk Modulus (GPa) = 33.02422 42.59388 37.80905
# Shear Modulus (GPa) = 26.09284 32.09102 29.09193
#
# Velocity S-wave (km/s) = 3.56707 3.95587 3.76649
# Velocity P-wave (km/s) = 5.75059 6.45258 6.11167
#
# Compressibility (1/GPa) = 0.03028081
#
# Stress axis : x y z
#
# Youngs Moduli (GPa) = 62.72326 45.99801 69.21401
#
# Poissons Ratio (x) = 0.17225 0.22206
# Poissons Ratio (y) = 0.23488 0.27493
# Poissons Ratio (z) = 0.20123 0.18271
#
# Static dielectric constant tensor:
#      x y z
#    x 1.729560 0.012380 -0.023940 
#    y 0.012380 1.735060 0.007270 
#    z -0.023940 0.007270 1.730530 
# 
# From -- ./inp_files/222531.got.cif
#   From: 2010.05.17/outbox.cif.g08.bks.cpg/sg2_112_cif.got.tgz:222531.got - 2010.06.03 11:33:40.
