data_PCOD9016017
_publ_section_title
;
Structure prediction by ZEFSAII (Michael W. Deem and Ramdas Pophale) SiO2 
 PCOD9016017
Probable space group: P -1
;
_chemical_formula_sum "Si O2"
_cell_formula_units_Z 16
_cell_length_a 5.184022
_cell_length_b 9.022698
_cell_length_c 17.950150
_cell_angle_alpha 97.522878
_cell_angle_beta 108.393486
_cell_angle_gamma 53.421447
_cell_volume 637.986241
_symmetry_space_group_name_H-M "P -1"
_symmetry_group_IT_number 2
_symmetry_cell_setting 'triclinic'
loop_
_space_group_symop_operation_xyz
x,y,z
-x,-y,-z
loop_
_atom_site_type_symbol
_atom_site_label
_atom_site_fract_x
_atom_site_fract_y
_atom_site_fract_z
Si Si1 0.236943 0.225011 0.409425
Si Si2 0.129861 0.884268 0.740325
Si Si3 0.399012 0.882434 0.025054
Si Si4 0.282413 0.432724 0.312476
Si Si5 0.873093 0.822807 0.445307
Si Si6 0.351239 0.739252 0.346804
Si Si7 0.784361 0.598290 0.153142
Si Si8 0.525288 0.623819 0.890664
O O1 0.246560 0.388943 0.390307
O O2 0.032953 0.261301 0.468855
O O3 0.087446 0.168874 0.327161
O O4 0.616759 0.045217 0.446083
O O5 0.481399 0.766647 0.719196
O O6 0.235168 0.798850 0.826350
O O7 0.919064 0.103590 0.725343
O O8 0.534954 0.701986 0.975427
O O9 0.569834 0.805944 0.116046
O O10 0.500000 0.000000 0.000000
O O11 0.000000 0.000000 0.000000
O O12 0.450886 0.539133 0.321709
O O13 0.925073 0.561880 0.247146
O O14 0.641736 0.764798 0.387387
O O15 0.155253 0.777986 0.409761
O O16 0.566840 0.519350 0.120925
O O17 0.123332 0.475180 0.126828
#
# Coordination Sequence:
#
# PCOD9016017 Si02
#       8
#     2   2   2   2   2   2   2   2
#     4  10  21  42  66  90 133 174 226 272 338 392
#     4  10  23  43  65  96 132 177 221 272 340 391
#     4  12  26  45  70 107 140 173 217 279 331 395
#     4  11  24  41  68  96 134 174 224 279 328 399
#     4  10  24  41  65  93 131 176 221 280 333 399
#     4  11  25  41  63  97 130 173 224 278 335 393
#     4  11  24  45  69 100 132 182 225 267 333 404
#     4  11  23  44  72  95 134 182 220 271 330 408
#
# _framework density 25.07891
#
# number of rings (size 3 to 8) (size 9 to 14) (size 15 to 20)
#    0.000    1.250    2.500    2.250    5.250    2.500 
#    4.500    0.000    0.000    0.000    0.000    0.000 
#    0.000    0.000    0.000    0.000    0.000    0.000 
#
# Total GULP energy -89700.884904 kJ/mol
# GULP energy per Si atom -5606.305306 kJ/mol
# Density = 2.502183 g / cm^3
# Si number density = 25.078910 Si / 1000 Ang^3
#
#
#
# Elastic Constant Matrix: (Units=GPa)
#
#
# Indices 1 2 3 4 5 6 
#
# 1 87.2853 18.4681 18.1589 -4.3163 -13.1106 1.1092
# 2 18.4681 93.0644 24.6466 -37.1817 -6.6229 5.4614
# 3 18.1589 24.6466 100.3257 -35.7104 -2.2254 6.5635
# 4 -4.3163 -37.1817 -35.7104 48.1858 2.7101 -6.4784
# 5 -13.1106 -6.6229 -2.2254 2.7101 36.8807 -1.3428
# 6 1.1092 5.4614 6.5635 -6.4784 -1.3428 39.2498
#
#
#
# Elastic Compliance Matrix: (Units=1/GPa)
#
#
# Indices 1 2 3 4 5 6 
#
# 1 0.013115 -0.002912 -0.002761 -0.003344 0.004222 0.000089
# 2 -0.002912 0.016347 0.001241 0.013191 0.000999 -0.000188
# 3 -0.002761 0.001241 0.014160 0.011160 -0.000748 -0.000646
# 4 -0.003344 0.013191 0.011160 0.039339 -0.000933 0.002854
# 5 0.004222 0.000999 -0.000748 -0.000933 0.028843 0.000699
# 6 0.000089 -0.000188 -0.000646 0.002854 0.000699 0.026105
#
#
# Mechanical properties :
#
#
# Convention : Reuss Voigt Hill
#
# Bulk Modulus (GPa) = 28.77023 44.80252 36.78637
# Shear Modulus (GPa) = 31.57393 39.49004 35.53199
#
# Velocity S-wave (km/s) = 3.55206 3.97247 3.76813
# Velocity P-wave (km/s) = 5.32162 6.24052 5.79930
#
# Compressibility (1/GPa) = 0.03475815
#
# Stress axis : x y z
#
# Youngs Moduli (GPa) = 76.24973 61.17397 70.62018
#
# Poissons Ratio (x) = 0.17815 0.19496
# Poissons Ratio (y) = 0.22205 -0.08764
# Poissons Ratio (z) = 0.21051 -0.07592
#
# Static dielectric constant tensor:
#      x y z
#    x 1.945480 -0.022940 0.015630 
#    y -0.022940 1.987930 -0.007450 
#    z 0.015630 -0.007450 1.984030 
# 
# From -- ./inp_files/137751.got.cif
#   From: 2010.05.17/outbox.cif.g08.bks.cpg/sg2_69_cif.got.tgz:137751.got - 2010.06.03 11:33:40.
