data_PCOD9016248
_publ_section_title
;
Structure prediction by ZEFSAII (Michael W. Deem and Ramdas Pophale) SiO2 
 PCOD9016248
Probable space group: P -1
;
_chemical_formula_sum "Si O2"
_cell_formula_units_Z 16
_cell_length_a 20.470697
_cell_length_b 9.097283
_cell_length_c 23.968811
_cell_angle_alpha 148.420257
_cell_angle_beta 18.288109
_cell_angle_gamma 147.112852
_cell_volume 720.462766
_symmetry_space_group_name_H-M "P -1"
_symmetry_group_IT_number 2
_symmetry_cell_setting 'triclinic'
loop_
_space_group_symop_operation_xyz
x,y,z
-x,-y,-z
loop_
_atom_site_type_symbol
_atom_site_label
_atom_site_fract_x
_atom_site_fract_y
_atom_site_fract_z
Si Si1 0.157633 0.132137 0.463526
Si Si2 0.549618 0.239627 0.841558
Si Si3 0.348108 0.687705 0.432984
Si Si4 0.916832 0.692956 0.299450
Si Si5 0.813592 0.302307 0.552536
Si Si6 0.189385 0.712416 0.986217
Si Si7 0.914019 0.873400 0.165687
Si Si8 0.795048 0.066719 0.155361
O O1 0.335584 0.385044 0.375654
O O2 0.062060 0.273527 0.640306
O O3 0.253661 0.873100 0.327180
O O4 0.000000 0.000000 0.500000
O O5 0.601609 0.334957 0.767313
O O6 0.500000 0.500000 0.000000
O O7 0.366901 0.968752 0.906987
O O8 0.204692 0.626372 0.473657
O O9 0.224275 0.884502 0.635176
O O10 0.578391 0.858029 0.281568
O O11 0.136040 0.715891 0.095645
O O12 0.782166 0.390894 0.289785
O O13 0.827262 0.969368 0.440731
O O14 0.000000 0.500000 0.500000
O O15 0.986530 0.768614 0.132827
O O16 0.226895 0.403775 0.838145
O O17 0.122026 0.943831 0.979419
O O18 0.000000 0.000000 0.000000
#
# Coordination Sequence:
#
# PCOD9016248 Si02
#       8
#     2   2   2   2   2   2   2   2
#     4  11  27  46  68 101 137 185 241 287 356 432
#     4  11  25  43  71  95 133 181 232 289 353 410
#     4  12  25  44  74 102 142 189 228 293 366 417
#     4  10  22  43  71  91 140 178 224 293 341 416
#     4  11  23  44  70  99 132 182 239 286 349 422
#     4  10  21  42  67 105 131 175 231 289 342 413
#     4  10  23  41  71 102 144 173 229 287 347 421
#     4  11  26  43  66 106 145 184 232 287 355 429
#
# _framework density 22.207947000000001
#
# number of rings (size 3 to 8) (size 9 to 14) (size 15 to 20)
#    0.000    1.250    1.250    3.750    8.750    1.500 
#    2.250    1.250    0.000    0.000    0.000    0.000 
#    0.000    0.000    0.000    0.000    0.000    0.000 
#
# Total GULP energy -89401.916106 kJ/mol
# GULP energy per Si atom -5587.619757 kJ/mol
# Density = 2.215740 g / cm^3
# Si number density = 22.207947 Si / 1000 Ang^3
#
#
#
# Elastic Constant Matrix: (Units=GPa)
#
#
# Indices 1 2 3 4 5 6 
#
# 1 101.6929 31.1765 37.6680 -4.3345 26.9548 0.9356
# 2 31.1765 117.6722 54.2697 -17.1552 15.5081 -3.1587
# 3 37.6680 54.2697 96.2202 7.4277 35.7800 13.4459
# 4 -4.3345 -17.1552 7.4277 42.5227 -6.9652 -6.3028
# 5 26.9548 15.5081 35.7800 -6.9652 42.0250 -2.2101
# 6 0.9356 -3.1587 13.4459 -6.3028 -2.2101 30.1115
#
#
#
# Elastic Compliance Matrix: (Units=1/GPa)
#
#
# Indices 1 2 3 4 5 6 
#
# 1 0.012594 -0.001904 -0.001458 -0.000315 -0.006210 -0.000462
# 2 -0.001904 0.017068 -0.015812 0.013142 0.011220 0.012485
# 3 -0.001458 -0.015812 0.035143 -0.020737 -0.027833 -0.023690
# 4 -0.000315 0.013142 -0.020737 0.038771 0.020500 0.020268
# 5 -0.006210 0.011220 -0.027833 0.020500 0.051885 0.021898
# 6 -0.000462 0.012485 -0.023690 0.020268 0.021898 0.050962
#
#
# Mechanical properties :
#
#
# Convention : Reuss Voigt Hill
#
# Bulk Modulus (GPa) = 37.79909 62.42372 50.11141
# Shear Modulus (GPa) = 19.71682 35.76325 27.74004
#
# Velocity S-wave (km/s) = 2.98288 4.01731 3.53810
# Velocity P-wave (km/s) = 5.37781 7.04898 6.26933
#
# Compressibility (1/GPa) = 0.02645566
#
# Stress axis : x y z
#
# Youngs Moduli (GPa) = 79.40056 58.59047 28.45496
#
# Poissons Ratio (x) = 0.11157 0.04149
# Poissons Ratio (y) = 0.15120 0.44994
# Poissons Ratio (z) = 0.11578 0.92646
#
# Static dielectric constant tensor:
#      x y z
#    x 1.854730 0.007980 0.039810 
#    y 0.007980 1.833660 0.014760 
#    z 0.039810 0.014760 1.898020 
# 
# From -- ./inp_files/613630.got.cif
#   From: 2010.05.17/outbox.cif.g08.bks.cpg/sg2_307_cif.got.tgz:613630.got - 2010.06.03 11:33:40.
