data_PCOD9016350
_publ_section_title
;
Structure prediction by ZEFSAII (Michael W. Deem and Ramdas Pophale) SiO2 
 PCOD9016350
Probable space group: P -1
;
_chemical_formula_sum "Si O2"
_cell_formula_units_Z 16
_cell_length_a 21.860184
_cell_length_b 18.190572
_cell_length_c 9.719112
_cell_angle_alpha 129.416680
_cell_angle_beta 40.526328
_cell_angle_gamma 161.602075
_cell_volume 719.021072
_symmetry_space_group_name_H-M "P -1"
_symmetry_group_IT_number 2
_symmetry_cell_setting 'triclinic'
loop_
_space_group_symop_operation_xyz
x,y,z
-x,-y,-z
loop_
_atom_site_type_symbol
_atom_site_label
_atom_site_fract_x
_atom_site_fract_y
_atom_site_fract_z
Si Si1 0.744107 0.772976 0.831504
Si Si2 0.843103 0.080312 0.987452
Si Si3 0.448015 0.745301 0.472786
Si Si4 0.353265 0.477989 0.501049
Si Si5 0.453393 0.194540 0.087382
Si Si6 0.906503 0.636431 0.629122
Si Si7 0.825009 0.918186 0.393878
Si Si8 0.445801 0.055738 0.202646
O O1 0.712420 0.852699 0.944001
O O2 0.779711 0.734690 0.598088
O O3 0.500000 0.500000 0.000000
O O4 0.987309 0.987551 0.768204
O O5 0.751037 0.038921 0.951266
O O6 0.713253 0.011534 0.254958
O O7 0.140656 0.336020 0.781755
O O8 0.453863 0.647905 0.419954
O O9 0.234979 0.536629 0.470995
O O10 0.410801 0.780773 0.707165
O O11 0.599130 0.672943 0.391480
O O12 0.322397 0.168093 0.332816
O O13 0.496526 0.170754 0.120071
O O14 0.709835 0.450083 0.868486
O O15 0.151004 0.801439 0.435317
O O16 0.008736 0.839415 0.667169
O O17 0.500000 0.000000 0.000000
#
# Coordination Sequence:
#
# PCOD9016350 Si02
#       8
#     2   2   2   2   2   2   2   2
#     4  12  23  43  60  93 140 176 224 274 310 372
#     4  11  24  42  67  93 134 179 221 270 317 383
#     4  11  22  44  68  94 128 180 214 262 335 389
#     4  12  22  39  63  93 129 175 223 266 323 369
#     4  10  21  43  67  91 131 175 209 265 334 384
#     4  10  21  42  67  94 133 171 215 265 326 393
#     4  11  23  38  63  95 129 175 224 268 315 375
#     4  11  25  44  69 103 132 161 213 274 334 404
#
# _framework density 22.252476000000001
#
# number of rings (size 3 to 8) (size 9 to 14) (size 15 to 20)
#    0.000    1.000    6.250    1.875    1.750    2.000 
#    0.000    2.500    0.000    0.000    0.000    0.000 
#    0.000    0.000    0.000    0.000    0.000    0.000 
#
# Total GULP energy -89496.043297 kJ/mol
# GULP energy per Si atom -5593.502706 kJ/mol
# Density = 2.220183 g / cm^3
# Si number density = 22.252476 Si / 1000 Ang^3
#
#
#
# Elastic Constant Matrix: (Units=GPa)
#
#
# Indices 1 2 3 4 5 6 
#
# 1 38.4637 13.8584 17.2693 -4.1110 11.1165 9.1487
# 2 13.8584 71.0792 20.7061 -5.4439 11.6202 21.7448
# 3 17.2693 20.7061 85.0822 -12.6896 23.5480 -12.9190
# 4 -4.1110 -5.4439 -12.6896 44.8923 -0.0109 -6.3426
# 5 11.1165 11.6202 23.5480 -0.0109 28.0508 3.2043
# 6 9.1487 21.7448 -12.9190 -6.3426 3.2043 23.4562
#
#
#
# Elastic Compliance Matrix: (Units=1/GPa)
#
#
# Indices 1 2 3 4 5 6 
#
# 1 0.036304 0.004263 -0.011636 -0.002957 -0.003549 -0.024834
# 2 0.004263 0.028748 -0.015944 -0.006189 0.004280 -0.039353
# 3 -0.011636 -0.015944 0.032047 0.012139 -0.020601 0.043066
# 4 -0.002957 -0.006189 0.012139 0.027839 -0.008995 0.022333
# 5 -0.003549 0.004280 -0.020601 -0.008995 0.055306 -0.023917
# 6 -0.024834 -0.039353 0.043066 0.022333 -0.023917 0.121826
#
#
# Mechanical properties :
#
#
# Convention : Reuss Voigt Hill
#
# Bulk Modulus (GPa) = 19.81631 33.14366 26.47999
# Shear Modulus (GPa) = 13.67899 28.79927 21.23913
#
# Velocity S-wave (km/s) = 2.48204 3.60141 3.09279
# Velocity P-wave (km/s) = 4.13988 5.67629 4.96784
#
# Compressibility (1/GPa) = 0.05046348
#
# Stress axis : x y z
#
# Youngs Moduli (GPa) = 27.54552 34.78547 31.20440
#
# Poissons Ratio (x) = -0.14828 0.36308
# Poissons Ratio (y) = -0.11742 0.49753
# Poissons Ratio (z) = 0.32051 0.55463
#
# Static dielectric constant tensor:
#      x y z
#    x 1.816020 0.040210 0.069260 
#    y 0.040210 1.858840 -0.000450 
#    z 0.069260 -0.000450 1.855360 
# 
# From -- ./inp_files/348510.got.cif
#   From: 2010.05.17/outbox.cif.g08.bks.cpg/sg2_175_cif.got.tgz:348510.got - 2010.06.03 11:33:40.
