data_PCOD9016812
_publ_section_title
;
Structure prediction by ZEFSAII (Michael W. Deem and Ramdas Pophale) SiO2 
 PCOD9016812
Probable space group: P -1
;
_chemical_formula_sum "Si O2"
_cell_formula_units_Z 16
_cell_length_a 12.319420
_cell_length_b 8.940227
_cell_length_c 8.100974
_cell_angle_alpha 100.320577
_cell_angle_beta 58.910358
_cell_angle_gamma 90.691109
_cell_volume 748.272103
_symmetry_space_group_name_H-M "P -1"
_symmetry_group_IT_number 2
_symmetry_cell_setting 'triclinic'
loop_
_space_group_symop_operation_xyz
x,y,z
-x,-y,-z
loop_
_atom_site_type_symbol
_atom_site_label
_atom_site_fract_x
_atom_site_fract_y
_atom_site_fract_z
Si Si1 0.127179 0.831591 0.898415
Si Si2 0.972646 0.884168 0.357527
Si Si3 0.931408 0.629069 0.960287
Si Si4 0.637858 0.364384 0.195871
Si Si5 0.754814 0.895179 0.318737
Si Si6 0.606206 0.357328 0.850795
Si Si7 0.530050 0.715657 0.379308
Si Si8 0.888169 0.427283 0.670640
O O1 0.221427 0.697461 0.875046
O O2 0.036238 0.739433 0.835793
O O3 0.207376 0.954345 0.773935
O O4 0.041751 0.908891 0.131221
O O5 0.038343 0.722754 0.336009
O O6 0.820090 0.900308 0.448565
O O7 0.000000 0.000000 0.500000
O O8 0.857590 0.551625 0.861473
O O9 0.836416 0.744090 0.157605
O O10 0.000000 0.500000 0.000000
O O11 0.609166 0.548302 0.257872
O O12 0.550364 0.306323 0.397077
O O13 0.618854 0.293177 0.015010
O O14 0.614464 0.853295 0.381352
O O15 0.553651 0.265746 0.719651
O O16 0.750114 0.397627 0.699384
O O17 0.500000 0.500000 0.000000
O O18 0.000000 0.500000 0.500000
#
# Coordination Sequence:
#
# PCOD9016812 Si02
#       8
#     2   2   2   2   2   2   2   2
#     4  11  23  41  68  91 139 181 216 282 355 407
#     4  11  25  44  61  97 142 176 219 282 349 414
#     4  11  19  40  66  91 127 167 223 273 337 403
#     4  10  21  42  69  94 132 177 227 284 349 396
#     4  11  24  42  65  98 133 180 223 278 347 415
#     4  10  21  44  64  99 142 172 225 286 345 410
#     4  10  23  40  72  97 131 178 235 287 334 420
#     4  12  26  38  70 107 130 173 230 292 349 402
#
# _framework density 21.382594999999998
#
# number of rings (size 3 to 8) (size 9 to 14) (size 15 to 20)
#    0.000    1.250    3.750    3.750    5.250    2.500 
#    2.250    0.625    0.000    0.000    0.000    0.000 
#    0.000    0.000    0.000    0.000    0.000    0.000 
#
# Total GULP energy -89194.811981 kJ/mol
# GULP energy per Si atom -5574.675749 kJ/mol
# Density = 2.133393 g / cm^3
# Si number density = 21.382595 Si / 1000 Ang^3
#
#
#
# Elastic Constant Matrix: (Units=GPa)
#
#
# Indices 1 2 3 4 5 6 
#
# 1 158.6310 45.5449 32.5237 -7.0776 1.3987 37.9351
# 2 45.5449 95.1192 27.2598 -13.1340 4.0915 23.5469
# 3 32.5237 27.2598 78.2622 -12.4080 -9.1885 20.3015
# 4 -7.0776 -13.1340 -12.4080 27.4952 10.8223 -4.2302
# 5 1.3987 4.0915 -9.1885 10.8223 20.1011 6.2807
# 6 37.9351 23.5469 20.3015 -4.2302 6.2807 47.5856
#
#
#
# Elastic Compliance Matrix: (Units=1/GPa)
#
#
# Indices 1 2 3 4 5 6 
#
# 1 0.008510 -0.002634 -0.001236 -0.001062 0.001593 -0.005258
# 2 -0.002634 0.014559 -0.003133 0.007539 -0.007617 -0.002092
# 3 -0.001236 -0.003133 0.017297 0.001168 0.009890 -0.006045
# 4 -0.001062 0.007539 0.001168 0.053442 -0.031423 0.005516
# 5 0.001593 -0.007617 0.009890 -0.031423 0.077222 -0.014706
# 6 -0.005258 -0.002092 -0.006045 0.005516 -0.014706 0.031252
#
#
# Mechanical properties :
#
#
# Convention : Reuss Voigt Hill
#
# Bulk Modulus (GPa) = 37.93697 60.29658 49.11677
# Shear Modulus (GPa) = 22.21501 34.14866 28.18184
#
# Velocity S-wave (km/s) = 3.22674 4.00062 3.63434
# Velocity P-wave (km/s) = 5.62699 7.04273 6.37429
#
# Compressibility (1/GPa) = 0.02635951
#
# Stress axis : x y z
#
# Youngs Moduli (GPa) = 117.51543 68.68776 57.81317
#
# Poissons Ratio (x) = 0.18091 0.07148
# Poissons Ratio (y) = 0.30951 0.18111
# Poissons Ratio (z) = 0.14529 0.21518
#
# Static dielectric constant tensor:
#      x y z
#    x 1.810330 0.002350 -0.014700 
#    y 0.002350 1.789950 -0.032750 
#    z -0.014700 -0.032750 1.860590 
# 
# From -- ./inp_files/226376.got.cif
#   From: 2010.05.17/outbox.cif.g08.bks.cpg/sg2_114_cif.got.tgz:226376.got - 2010.06.03 11:33:40.
