data_PCOD9016679
_publ_section_title
;
Structure prediction by ZEFSAII (Michael W. Deem and Ramdas Pophale) SiO2 
 PCOD9016679
Probable space group: P -1
;
_chemical_formula_sum "Si O2"
_cell_formula_units_Z 15
_cell_length_a 8.520080
_cell_length_b 11.721386
_cell_length_c 9.239026
_cell_angle_alpha 65.003340
_cell_angle_beta 72.842128
_cell_angle_gamma 45.804806
_cell_volume 599.565560
_symmetry_space_group_name_H-M "P -1"
_symmetry_group_IT_number 2
_symmetry_cell_setting 'triclinic'
loop_
_space_group_symop_operation_xyz
x,y,z
-x,-y,-z
loop_
_atom_site_type_symbol
_atom_site_label
_atom_site_fract_x
_atom_site_fract_y
_atom_site_fract_z
Si Si1 0.183096 0.661196 0.463022
Si Si2 0.500000 0.500000 0.000000
Si Si3 0.686322 0.826507 0.128747
Si Si4 0.717573 0.843169 0.448815
Si Si5 0.176855 0.825818 0.628679
Si Si6 0.523729 0.304952 0.814840
Si Si7 0.057881 0.072100 0.067448
Si Si8 0.334775 0.390242 0.345094
O O1 0.185628 0.686575 0.619541
O O2 0.381372 0.645430 0.355080
O O3 0.218744 0.515649 0.444528
O O4 0.931397 0.824453 0.401172
O O5 0.517305 0.381652 0.927104
O O6 0.630832 0.534124 0.838640
O O7 0.657735 0.844769 0.298880
O O8 0.683380 0.682290 0.158415
O O9 0.898998 0.806842 0.056385
O O10 0.500000 0.000000 0.000000
O O11 0.779204 0.685524 0.605021
O O12 0.500000 0.000000 0.500000
O O13 0.415362 0.764439 0.591121
O O14 0.117329 0.835207 0.806585
O O15 0.000000 0.000000 0.500000
O O16 0.716136 0.103497 0.848881
O O17 0.000000 0.000000 0.000000
#
# Coordination Sequence:
#
# PCOD9016679 Si02
#       8
#     2   1   2   2   2   2   2   2
#     4  11  24  45  71 103 149 196 252 311 383 457
#     4  10  24  44  74 106 144 208 246 300 380 468
#     4  10  25  42  67 109 151 191 241 321 377 437
#     4  12  27  43  76 110 148 197 254 321 380 451
#     4  12  24  42  74 109 140 193 253 308 374 447
#     4  10  21  42  68  98 150 186 249 302 372 450
#     4  11  23  40  69 104 150 189 246 315 369 435
#     4  11  26  46  73 104 153 199 251 306 387 454
#
# _framework density 25.018115999999999
#
# number of rings (size 3 to 8) (size 9 to 14) (size 15 to 20)
#    0.000    1.067    1.333    4.000   11.200    2.133 
#    0.000    0.000    0.000   12.000    0.000    0.000 
#    0.000    0.000    0.000    0.000    0.000    0.000 
#
# Total GULP energy -83570.108095 kJ/mol
# GULP energy per Si atom -5571.340540 kJ/mol
# Density = 2.496117 g / cm^3
# Si number density = 25.018116 Si / 1000 Ang^3
#
#
#
# Elastic Constant Matrix: (Units=GPa)
#
#
# Indices 1 2 3 4 5 6 
#
# 1 123.0723 50.1422 66.4865 15.1887 -15.9385 23.4030
# 2 50.1422 110.3274 52.2120 37.3207 -13.4670 10.9415
# 3 66.4865 52.2120 148.1061 32.8686 -10.0078 16.8279
# 4 15.1887 37.3207 32.8686 54.4073 9.6402 6.9231
# 5 -15.9385 -13.4670 -10.0078 9.6402 37.9323 -2.6662
# 6 23.4030 10.9415 16.8279 6.9231 -2.6662 55.6122
#
#
#
# Elastic Compliance Matrix: (Units=1/GPa)
#
#
# Indices 1 2 3 4 5 6 
#
# 1 0.012630 -0.003672 -0.004178 0.001549 0.002267 -0.003412
# 2 -0.003672 0.015371 -0.001196 -0.009939 0.006154 0.000415
# 3 -0.004178 -0.001196 0.010183 -0.004387 0.001589 -0.000465
# 4 0.001549 -0.009939 -0.004387 0.029695 -0.011696 -0.001626
# 5 0.002267 0.006154 0.001589 -0.011696 0.032919 0.000389
# 6 -0.003412 0.000415 -0.000465 -0.001626 0.000389 0.019698
#
#
# Mechanical properties :
#
#
# Convention : Reuss Voigt Hill
#
# Bulk Modulus (GPa) = 49.77118 79.90969 64.84043
# Shear Modulus (GPa) = 34.41520 43.76804 39.09162
#
# Velocity S-wave (km/s) = 3.71295 4.18718 3.95718
# Velocity P-wave (km/s) = 6.19020 7.44223 6.84490
#
# Compressibility (1/GPa) = 0.02009195
#
# Stress axis : x y z
#
# Youngs Moduli (GPa) = 79.17884 65.05823 98.20254
#
# Poissons Ratio (x) = 0.23887 0.41030
# Poissons Ratio (y) = 0.29072 0.11745
# Poissons Ratio (z) = 0.33082 0.07781
#
# Static dielectric constant tensor:
#      x y z
#    x 2.000450 0.010600 -0.001000 
#    y 0.010600 2.028490 -0.132120 
#    z -0.001000 -0.132120 2.009400 
# 
# From -- ./inp_files/176013.got.cif
#   From: 2010.05.17/outbox.cif.g08.bks.cpg/sg2_89_cif.got.tgz:176013.got - 2010.06.03 11:33:40.
