data_PCOD9016355
_publ_section_title
;
Structure prediction by ZEFSAII (Michael W. Deem and Ramdas Pophale) SiO2 
 PCOD9016355
Probable space group: P -1
;
_chemical_formula_sum "Si O2"
_cell_formula_units_Z 16
_cell_length_a 16.953493
_cell_length_b 7.065391
_cell_length_c 22.967289
_cell_angle_alpha 64.866129
_cell_angle_beta 158.799966
_cell_angle_gamma 102.651536
_cell_volume 757.741307
_symmetry_space_group_name_H-M "P -1"
_symmetry_group_IT_number 2
_symmetry_cell_setting 'triclinic'
loop_
_space_group_symop_operation_xyz
x,y,z
-x,-y,-z
loop_
_atom_site_type_symbol
_atom_site_label
_atom_site_fract_x
_atom_site_fract_y
_atom_site_fract_z
Si Si1 0.344740 0.401646 0.371217
Si Si2 0.090829 0.723835 0.616178
Si Si3 0.840486 0.887648 0.932258
Si Si4 0.915040 0.004297 0.605010
Si Si5 0.226383 0.250609 0.782736
Si Si6 0.473626 0.887295 0.582052
Si Si7 0.549146 0.006802 0.257618
Si Si8 0.339600 0.414380 0.959450
O O1 0.500000 0.500000 0.500000
O O2 0.432842 0.320849 0.375707
O O3 0.389911 0.153101 0.462967
O O4 0.049082 0.625156 0.138233
O O5 0.197778 0.462026 0.692231
O O6 0.368767 0.653384 0.844704
O O7 0.000000 0.000000 0.500000
O O8 0.809435 0.778264 0.437248
O O9 0.693718 0.840228 0.785955
O O10 0.635096 0.043574 0.822463
O O11 0.000000 0.000000 0.000000
O O12 0.773418 0.075486 0.559714
O O13 0.693443 0.075744 0.395664
O O14 0.028773 0.169056 0.647571
O O15 0.136087 0.707948 0.794387
O O16 0.221579 0.352039 0.831217
O O17 0.500000 0.000000 0.000000
O O18 0.389018 0.227803 0.071774
#
# Coordination Sequence:
#
# PCOD9016355 Si02
#       8
#     2   2   2   2   2   2   2   2
#     4  11  22  42  68  93 129 172 224 275 344 398
#     4  10  21  42  67  94 135 178 219 275 335 395
#     4  11  22  41  67  95 132 177 221 276 340 396
#     4  11  23  42  66  96 135 173 223 275 336 396
#     4  12  23  40  70  99 129 182 228 272 334 404
#     4  10  24  41  64  99 130 173 221 281 332 407
#     4  10  23  42  64  95 133 176 219 276 336 398
#     4  11  22  44  68  93 141 175 218 283 337 391
#
# _framework density 21.115385
#
# number of rings (size 3 to 8) (size 9 to 14) (size 15 to 20)
#    0.000    1.250    3.750    2.250    0.000    3.000 
#    4.500    3.750    0.000    0.000    0.000    0.000 
#    0.000    0.000    0.000    0.000    0.000    0.000 
#
# Total GULP energy -89083.972250 kJ/mol
# GULP energy per Si atom -5567.748266 kJ/mol
# Density = 2.106733 g / cm^3
# Si number density = 21.115385 Si / 1000 Ang^3
#
#
#
# Elastic Constant Matrix: (Units=GPa)
#
#
# Indices 1 2 3 4 5 6 
#
# 1 51.6353 1.9578 17.4393 -1.6863 8.4755 5.0286
# 2 1.9578 81.9438 21.8984 -10.9106 2.3718 10.7160
# 3 17.4393 21.8984 108.8298 -11.3440 -8.5955 5.9699
# 4 -1.6863 -10.9106 -11.3440 26.3619 1.5547 2.4407
# 5 8.4755 2.3718 -8.5955 1.5547 41.4143 0.7100
# 6 5.0286 10.7160 5.9699 2.4407 0.7100 28.4831
#
#
#
# Elastic Compliance Matrix: (Units=1/GPa)
#
#
# Indices 1 2 3 4 5 6 
#
# 1 0.021875 0.001240 -0.003896 0.000870 -0.005330 -0.003454
# 2 0.001240 0.014318 -0.002321 0.005620 -0.001671 -0.005559
# 3 -0.003896 -0.002321 0.010941 0.003418 0.003092 -0.001102
# 4 0.000870 0.005620 0.003418 0.042471 -0.001272 -0.006592
# 5 -0.005330 -0.001671 0.003092 -0.001272 0.026016 0.000382
# 6 -0.003454 -0.005559 -0.001102 -0.006592 0.000382 0.038596
#
#
# Mechanical properties :
#
#
# Convention : Reuss Voigt Hill
#
# Bulk Modulus (GPa) = 26.89573 36.11109 31.50341
# Shear Modulus (GPa) = 28.31861 32.65943 30.48902
#
# Velocity S-wave (km/s) = 3.66613 3.93709 3.80402
# Velocity P-wave (km/s) = 5.53948 6.14870 5.85202
#
# Compressibility (1/GPa) = 0.03718062
#
# Stress axis : x y z
#
# Youngs Moduli (GPa) = 45.71448 69.84375 91.40077
#
# Poissons Ratio (x) = -0.08662 0.35606
# Poissons Ratio (y) = -0.05670 0.21214
# Poissons Ratio (z) = 0.17809 0.16211
#
# Static dielectric constant tensor:
#      x y z
#    x 1.938270 0.023050 -0.065560 
#    y 0.023050 1.788370 -0.044680 
#    z -0.065560 -0.044680 1.744480 
# 
# From -- ./inp_files/45765.got.cif
#   From: 2010.05.17/outbox.cif.g08.bks.cpg/sg2_23_cif.got.tgz:45765.got - 2010.06.03 11:33:40.
