data_PCOD9016531
_publ_section_title
;
Structure prediction by ZEFSAII (Michael W. Deem and Ramdas Pophale) SiO2 
 PCOD9016531
Probable space group: P -1
;
_chemical_formula_sum "Si O2"
_cell_formula_units_Z 16
_cell_length_a 8.413857
_cell_length_b 20.306188
_cell_length_c 23.935689
_cell_angle_alpha 158.686057
_cell_angle_beta 149.942367
_cell_angle_gamma 28.274112
_cell_volume 679.563766
_symmetry_space_group_name_H-M "P -1"
_symmetry_group_IT_number 2
_symmetry_cell_setting 'triclinic'
loop_
_space_group_symop_operation_xyz
x,y,z
-x,-y,-z
loop_
_atom_site_type_symbol
_atom_site_label
_atom_site_fract_x
_atom_site_fract_y
_atom_site_fract_z
Si Si1 0.590333 0.794952 0.335895
Si Si2 0.658560 0.268733 0.465827
Si Si3 0.178907 0.681421 0.674696
Si Si4 0.299976 0.601119 0.895677
Si Si5 0.552630 0.156268 0.018293
Si Si6 0.174407 0.708853 0.061964
Si Si7 0.455150 0.947831 0.188086
Si Si8 0.411033 0.249433 0.251434
O O1 0.507174 0.630803 0.215204
O O2 0.354021 0.846565 0.249202
O O3 0.011421 0.696358 0.383565
O O4 0.500000 0.000000 0.500000
O O5 0.301249 0.442736 0.516793
O O6 0.598517 0.274485 0.385140
O O7 0.713977 0.050012 0.331410
O O8 0.401532 0.712490 0.715271
O O9 0.304845 0.711830 0.798722
O O10 0.816911 0.879122 0.719059
O O11 0.005814 0.622342 0.777029
O O12 0.079088 0.716447 0.974301
O O13 0.534912 0.726092 0.057696
O O14 0.697401 0.070748 0.934185
O O15 0.138438 0.281054 0.986554
O O16 0.565458 0.972853 0.914871
O O17 0.500000 0.500000 0.000000
#
# Coordination Sequence:
#
# PCOD9016531 Si02
#       8
#     2   2   2   2   2   2   2   2
#     4  11  23  44  66  91 123 168 223 268 312 366
#     4  11  25  41  62  97 140 168 203 269 330 384
#     4  12  20  37  61  97 134 170 206 259 322 391
#     4  11  22  43  67  96 123 169 222 265 313 392
#     4  11  21  38  63  98 135 169 209 268 321 383
#     4  10  21  42  68  90 120 175 226 263 302 371
#     4  11  25  39  60  99 140 170 202 255 343 393
#     4  11  21  38  66  96 131 164 217 263 325 384
#
# _framework density 23.544516000000002
#
# number of rings (size 3 to 8) (size 9 to 14) (size 15 to 20)
#    0.000    1.000    3.750    4.500    1.750    0.000 
#    0.000    6.250    0.000    1.500    0.000    0.000 
#    0.000    0.000    0.000    0.000    0.000    0.000 
#
# Total GULP energy -89132.772763 kJ/mol
# GULP energy per Si atom -5570.798298 kJ/mol
# Density = 2.349093 g / cm^3
# Si number density = 23.544516 Si / 1000 Ang^3
#
#
#
# Elastic Constant Matrix: (Units=GPa)
#
#
# Indices 1 2 3 4 5 6 
#
# 1 52.5526 1.7905 15.2735 12.2451 -5.2751 2.5566
# 2 1.7905 59.3896 8.4226 8.6450 2.8155 -2.0809
# 3 15.2735 8.4226 117.6968 13.0692 -4.2761 13.4416
# 4 12.2451 8.6450 13.0692 56.5631 7.7481 4.3233
# 5 -5.2751 2.8155 -4.2761 7.7481 41.2064 11.4377
# 6 2.5566 -2.0809 13.4416 4.3233 11.4377 18.5859
#
#
#
# Elastic Compliance Matrix: (Units=1/GPa)
#
#
# Indices 1 2 3 4 5 6 
#
# 1 0.021171 -0.000056 -0.001712 -0.004517 0.004294 -0.003272
# 2 -0.000056 0.017722 -0.001682 -0.002379 -0.002399 0.005238
# 3 -0.001712 -0.001682 0.010217 -0.001545 0.003841 -0.009347
# 4 -0.004517 -0.002379 -0.001545 0.019995 -0.004165 -0.000616
# 5 0.004294 -0.002399 0.003841 -0.004165 0.032446 -0.022635
# 6 -0.003272 0.005238 -0.009347 -0.000616 -0.022635 0.075673
#
#
# Mechanical properties :
#
#
# Convention : Reuss Voigt Hill
#
# Bulk Modulus (GPa) = 23.69137 31.17916 27.43527
# Shear Modulus (GPa) = 25.22762 36.88126 31.05444
#
# Velocity S-wave (km/s) = 3.27691 3.96213 3.63570
# Velocity P-wave (km/s) = 4.93981 5.84831 5.41315
#
# Compressibility (1/GPa) = 0.04220945
#
# Stress axis : x y z
#
# Youngs Moduli (GPa) = 47.23502 56.42752 97.87172
#
# Poissons Ratio (x) = 0.00317 0.16756
# Poissons Ratio (y) = 0.00265 0.16463
# Poissons Ratio (z) = 0.08087 0.09492
#
# Static dielectric constant tensor:
#      x y z
#    x 5.674660 4.844330 -5.559740 
#    y 4.844330 8.291690 -7.294190 
#    z -5.559740 -7.294190 10.374070 
# 
# From -- ./inp_files/562692.got.cif
#   From: 2010.05.17/outbox.cif.g08.bks.cpg/sg2_282_cif.got.tgz:562692.got - 2010.06.03 11:33:40.
