data_PCOD9016469
_publ_section_title
;
Structure prediction by ZEFSAII (Michael W. Deem and Ramdas Pophale) SiO2 
 PCOD9016469
Probable space group: P -1
;
_chemical_formula_sum "Si O2"
_cell_formula_units_Z 14
_cell_length_a 9.842085
_cell_length_b 6.806231
_cell_length_c 8.427142
_cell_angle_alpha 107.219896
_cell_angle_beta 93.485010
_cell_angle_gamma 86.601731
_cell_volume 537.707379
_symmetry_space_group_name_H-M "P -1"
_symmetry_group_IT_number 2
_symmetry_cell_setting 'triclinic'
loop_
_space_group_symop_operation_xyz
x,y,z
-x,-y,-z
loop_
_atom_site_type_symbol
_atom_site_label
_atom_site_fract_x
_atom_site_fract_y
_atom_site_fract_z
Si Si1 0.932718 0.843540 0.840053
Si Si2 0.857643 0.514523 0.246440
Si Si3 0.631230 0.259474 0.104608
Si Si4 0.074916 0.840100 0.347222
Si Si5 0.343590 0.208260 0.128492
Si Si6 0.633121 0.757226 0.484604
Si Si7 0.656753 0.216797 0.476837
O O1 0.813375 0.724078 0.887875
O O2 0.874345 0.002785 0.742803
O O3 0.044200 0.679292 0.741463
O O4 0.000000 0.000000 0.000000
O O5 0.745676 0.415880 0.098878
O O6 0.962352 0.685543 0.241660
O O7 0.761630 0.621896 0.399454
O O8 0.796234 0.272696 0.584878
O O9 0.655289 0.241764 0.293284
O O10 0.470906 0.311799 0.080521
O O11 0.652159 0.030961 0.982034
O O12 0.000000 0.000000 0.500000
O O13 0.365943 0.221520 0.321695
O O14 0.479561 0.682276 0.426789
O O15 0.644361 0.974047 0.450126
#
# Coordination Sequence:
#
# PCOD9016469 Si02
#       7
#     2   2   2   2   2   2   2
#     4  12  26  46  70 102 146 187 230 292 352 416
#     4  12  26  43  72 109 140 184 242 281 352 426
#     4  10  23  41  72  99 138 184 235 284 346 417
#     4  12  25  44  70 106 145 184 229 294 351 411
#     4  10  21  44  69  97 139 189 224 290 356 399
#     4  10  22  41  71 101 134 180 241 285 342 415
#     4  10  21  42  68 100 141 183 225 292 349 399
#
# _framework density 26.036466999999998
#
# number of rings (size 3 to 8) (size 9 to 14) (size 15 to 20)
#    0.000    1.143    4.286    0.857    0.000    9.143 
#    0.000    0.000    0.000   13.714    0.000    0.000 
#    0.000    0.000    0.000    0.000    0.000    0.000 
#
# Total GULP energy -78315.730189 kJ/mol
# GULP energy per Si atom -5593.980728 kJ/mol
# Density = 2.597721 g / cm^3
# Si number density = 26.036467 Si / 1000 Ang^3
#
#
#
# Elastic Constant Matrix: (Units=GPa)
#
#
# Indices 1 2 3 4 5 6 
#
# 1 248.6247 55.3990 35.9718 13.7828 -0.8396 25.8355
# 2 55.3990 135.6840 29.3302 13.5527 -1.8633 18.2206
# 3 35.9718 29.3302 32.8786 7.6348 -0.6237 -2.2476
# 4 13.7828 13.5527 7.6348 35.0180 0.7821 9.2657
# 5 -0.8396 -1.8633 -0.6237 0.7821 37.1054 11.4436
# 6 25.8355 18.2206 -2.2476 9.2657 11.4436 46.6749
#
#
#
# Elastic Compliance Matrix: (Units=1/GPa)
#
#
# Indices 1 2 3 4 5 6 
#
# 1 0.005274 -0.000518 -0.005553 0.000177 0.001003 -0.003265
# 2 -0.000518 0.010109 -0.008545 -0.000734 0.001707 -0.004344
# 3 -0.005553 -0.008545 0.046531 -0.007459 -0.002964 0.010858
# 4 0.000177 -0.000734 -0.007459 0.032188 0.001284 -0.006875
# 5 0.001003 0.001707 -0.002964 0.001284 0.029729 -0.008908
# 6 -0.003265 -0.004344 0.010858 -0.006875 -0.008908 0.029000
#
#
# Mechanical properties :
#
#
# Convention : Reuss Voigt Hill
#
# Bulk Modulus (GPa) = 30.59843 73.17658 51.88751
# Shear Modulus (GPa) = 25.91252 43.52541 34.71896
#
# Velocity S-wave (km/s) = 3.15816 4.09309 3.65564
# Velocity P-wave (km/s) = 5.00763 7.10664 6.14738
#
# Compressibility (1/GPa) = 0.03268141
#
# Stress axis : x y z
#
# Youngs Moduli (GPa) = 189.61120 98.92283 21.49103
#
# Poissons Ratio (x) = 0.05128 0.11934
# Poissons Ratio (y) = 0.09829 0.18364
# Poissons Ratio (z) = 1.05292 0.84528
#
# Static dielectric constant tensor:
#      x y z
#    x 2.115870 0.032250 0.049200 
#    y 0.032250 2.045440 -0.005300 
#    z 0.049200 -0.005300 2.059620 
# 
# From -- ./inp_files/232001.got.cif
#   From: 2010.05.17/outbox.cif.g08.bks.cpg/sg2_117_cif.got.tgz:232001.got - 2010.06.03 11:33:40.
