data_PCOD9016802
_publ_section_title
;
Structure prediction by ZEFSAII (Michael W. Deem and Ramdas Pophale) SiO2 
 PCOD9016802
Probable space group: P -1
;
_chemical_formula_sum "Si O2"
_cell_formula_units_Z 16
_cell_length_a 20.079405
_cell_length_b 8.431454
_cell_length_c 15.183952
_cell_angle_alpha 129.135185
_cell_angle_beta 21.025283
_cell_angle_gamma 128.523270
_cell_volume 710.115448
_symmetry_space_group_name_H-M "P -1"
_symmetry_group_IT_number 2
_symmetry_cell_setting 'triclinic'
loop_
_space_group_symop_operation_xyz
x,y,z
-x,-y,-z
loop_
_atom_site_type_symbol
_atom_site_label
_atom_site_fract_x
_atom_site_fract_y
_atom_site_fract_z
Si Si1 0.043594 0.239656 0.555712
Si Si2 0.467361 0.049255 0.228168
Si Si3 0.547013 0.069956 0.325002
Si Si4 0.486992 0.360100 0.053146
Si Si5 0.726141 0.421866 0.947623
Si Si6 0.908483 0.810162 0.185313
Si Si7 0.764620 0.860840 0.137159
Si Si8 0.130993 0.612222 0.997437
O O1 0.263880 0.301330 0.321314
O O2 0.937784 0.364095 0.656240
O O3 0.943311 0.298869 0.790103
O O4 0.000000 0.000000 0.500000
O O5 0.546534 0.969260 0.194263
O O6 0.286447 0.147249 0.517762
O O7 0.607614 0.224001 0.069733
O O8 0.429480 0.854171 0.143717
O O9 0.345366 0.082405 0.620325
O O10 0.659083 0.956880 0.219068
O O11 0.655098 0.297126 0.253958
O O12 0.500000 0.500000 0.000000
O O13 0.607163 0.461335 0.021649
O O14 0.741214 0.619907 0.061379
O O15 0.017370 0.709958 0.094578
O O16 0.896391 0.633200 0.064042
O O17 0.027851 0.020986 0.081271
#
# Coordination Sequence:
#
# PCOD9016802 Si02
#       8
#     2   2   2   2   2   2   2   2
#     4  12  26  46  75 104 142 186 237 291 347 422
#     4  12  24  44  70 101 136 185 234 291 343 424
#     4  10  21  42  69  93 145 177 228 281 357 410
#     4  12  29  49  70 104 144 186 238 294 356 414
#     4  12  26  46  74 103 138 190 238 288 352 420
#     4  10  24  39  70 101 140 180 231 288 351 414
#     4  10  24  43  65 105 141 184 225 289 354 418
#     4  10  21  44  67 102 135 183 230 287 349 416
#
# _framework density 22.531548000000001
#
# number of rings (size 3 to 8) (size 9 to 14) (size 15 to 20)
#    0.000    1.000    2.500    2.625    5.250    8.000 
#    0.000    0.000    0.000    0.000    0.000    0.000 
#    0.000    0.000    0.000    0.000    0.000    0.000 
#
# Total GULP energy -89486.286384 kJ/mol
# GULP energy per Si atom -5592.892899 kJ/mol
# Density = 2.248026 g / cm^3
# Si number density = 22.531548 Si / 1000 Ang^3
#
#
#
# Elastic Constant Matrix: (Units=GPa)
#
#
# Indices 1 2 3 4 5 6 
#
# 1 104.4314 5.1821 22.0875 -6.3158 -1.1864 6.5959
# 2 5.1821 103.2595 20.8448 12.7353 15.2862 16.6345
# 3 22.0875 20.8448 83.1914 9.5823 -3.2486 11.0925
# 4 -6.3158 12.7353 9.5823 20.0148 -1.3934 -0.3234
# 5 -1.1864 15.2862 -3.2486 -1.3934 34.3689 0.1593
# 6 6.5959 16.6345 11.0925 -0.3234 0.1593 33.7695
#
#
#
# Elastic Compliance Matrix: (Units=1/GPa)
#
#
# Indices 1 2 3 4 5 6 
#
# 1 0.010642 -0.000488 -0.003185 0.005216 0.000498 -0.000744
# 2 -0.000488 0.012884 -0.001641 -0.008092 -0.006204 -0.005761
# 3 -0.003185 -0.001641 0.014596 -0.006884 0.001736 -0.003438
# 4 0.005216 -0.008092 -0.006884 0.060534 0.005556 0.005782
# 5 0.000498 -0.006204 0.001736 0.005556 0.032251 0.002289
# 6 -0.000744 -0.005761 -0.003438 0.005782 0.002289 0.033769
#
#
# Mechanical properties :
#
#
# Convention : Reuss Voigt Hill
#
# Bulk Modulus (GPa) = 36.37169 43.01235 39.69202
# Shear Modulus (GPa) = 27.10457 33.81515 30.45986
#
# Velocity S-wave (km/s) = 3.47214 3.87821 3.68078
# Velocity P-wave (km/s) = 5.67908 6.25981 5.97650
#
# Compressibility (1/GPa) = 0.02749391
#
# Stress axis : x y z
#
# Youngs Moduli (GPa) = 93.96992 77.61265 68.50978
#
# Poissons Ratio (x) = 0.03790 0.21822
# Poissons Ratio (y) = 0.04589 0.11241
# Poissons Ratio (z) = 0.29931 0.12735
#
# Static dielectric constant tensor:
#      x y z
#    x 1.909650 -0.005410 -0.047460 
#    y -0.005410 1.809490 -0.012130 
#    z -0.047460 -0.012130 1.792150 
# 
# From -- ./inp_files/245034.got.cif
#   From: 2010.05.17/outbox.cif.g08.bks.cpg/sg2_123_cif.got.tgz:245034.got - 2010.06.03 11:33:40.
