data_PCOD9016183
_publ_section_title
;
Structure prediction by ZEFSAII (Michael W. Deem and Ramdas Pophale) SiO2 
 PCOD9016183
Probable space group: P -1
;
_chemical_formula_sum "Si O2"
_cell_formula_units_Z 16
_cell_length_a 12.391563
_cell_length_b 8.400200
_cell_length_c 14.061562
_cell_angle_alpha 104.741461
_cell_angle_beta 150.968606
_cell_angle_gamma 66.051732
_cell_volume 632.293377
_symmetry_space_group_name_H-M "P -1"
_symmetry_group_IT_number 2
_symmetry_cell_setting 'triclinic'
loop_
_space_group_symop_operation_xyz
x,y,z
-x,-y,-z
loop_
_atom_site_type_symbol
_atom_site_label
_atom_site_fract_x
_atom_site_fract_y
_atom_site_fract_z
Si Si1 0.347191 0.662629 0.837757
Si Si2 0.966610 0.379498 0.677163
Si Si3 0.829947 0.207531 0.916416
Si Si4 0.820865 0.803648 0.365421
Si Si5 0.596038 0.218179 0.296382
Si Si6 0.918335 0.728238 0.046390
Si Si7 0.683588 0.763639 0.445263
Si Si8 0.935467 0.099972 0.183841
O O1 0.483519 0.676993 0.849334
O O2 0.242511 0.831248 0.853641
O O3 0.088761 0.681185 0.594053
O O4 0.500000 0.500000 0.000000
O O5 0.758206 0.302251 0.489349
O O6 0.882120 0.573303 0.596320
O O7 0.179730 0.251814 0.752395
O O8 0.998971 0.393311 0.815781
O O9 0.560903 0.221908 0.691378
O O10 0.922193 0.321337 0.933452
O O11 0.854017 0.232496 0.050721
O O12 0.000000 0.000000 0.000000
O O13 0.647065 0.771466 0.304440
O O14 0.755929 0.014611 0.357405
O O15 0.363361 0.229306 0.177681
O O16 0.938282 0.911134 0.126152
O O17 0.801678 0.904312 0.584848
#
# Coordination Sequence:
#
# PCOD9016183 Si02
#       8
#     2   2   2   2   2   2   2   2
#     4  10  22  37  68 100 134 170 212 268 341 396
#     4  11  24  40  66  99 137 167 220 276 341 392
#     4  10  24  43  66  94 124 179 233 268 325 387
#     4  10  21  42  66  98 134 179 217 266 334 406
#     4  11  24  44  67  97 141 177 220 270 328 400
#     4  11  25  43  67  97 127 181 233 267 325 394
#     4  11  24  41  68  97 133 169 217 283 334 384
#     4  10  23  43  66  95 131 170 223 270 329 399
#
# _framework density 25.30471
#
# number of rings (size 3 to 8) (size 9 to 14) (size 15 to 20)
#    0.000    1.500    0.000    5.625    7.000    6.500 
#    0.000    1.250    0.000    0.000    0.000    0.000 
#    0.000    0.000    0.000    0.000    0.000    0.000 
#
# Total GULP energy -89543.633216 kJ/mol
# GULP energy per Si atom -5596.477076 kJ/mol
# Density = 2.524712 g / cm^3
# Si number density = 25.304710 Si / 1000 Ang^3
#
#
#
# Elastic Constant Matrix: (Units=GPa)
#
#
# Indices 1 2 3 4 5 6 
#
# 1 131.3374 4.7141 28.9628 18.1121 7.6320 32.2152
# 2 4.7141 66.5768 11.3676 -3.2698 -1.1197 5.1896
# 3 28.9628 11.3676 91.0217 15.0367 6.0323 8.1271
# 4 18.1121 -3.2698 15.0367 29.3486 15.5374 -7.2418
# 5 7.6320 -1.1197 6.0323 15.5374 48.9351 2.2521
# 6 32.2152 5.1896 8.1271 -7.2418 2.2521 38.8784
#
#
#
# Elastic Compliance Matrix: (Units=1/GPa)
#
#
# Indices 1 2 3 4 5 6 
#
# 1 0.012256 -0.000252 -0.001077 -0.011281 0.002356 -0.012134
# 2 -0.000252 0.015634 -0.002275 0.002979 -0.000230 -0.000834
# 3 -0.001077 -0.002275 0.013064 -0.007581 0.001051 -0.003008
# 4 -0.011281 0.002979 -0.007581 0.060042 -0.017348 0.022723
# 5 0.002356 -0.000230 0.001051 -0.017348 0.025757 -0.006864
# 6 -0.012134 -0.000834 -0.003008 0.022723 -0.006864 0.041146
#
#
# Mechanical properties :
#
#
# Convention : Reuss Voigt Hill
#
# Bulk Modulus (GPa) = 29.63359 42.11387 35.87373
# Shear Modulus (GPa) = 26.83035 39.69186 33.26110
#
# Velocity S-wave (km/s) = 3.25974 3.96480 3.62943
# Velocity P-wave (km/s) = 5.08960 6.13501 5.63659
#
# Compressibility (1/GPa) = 0.03374549
#
# Stress axis : x y z
#
# Youngs Moduli (GPa) = 81.59445 63.96339 76.54353
#
# Poissons Ratio (x) = 0.01615 0.08246
# Poissons Ratio (y) = 0.02060 0.17411
# Poissons Ratio (z) = 0.08790 0.14549
#
# Static dielectric constant tensor:
#      x y z
#    x 2.051410 0.043990 0.008330 
#    y 0.043990 2.005290 0.002610 
#    z 0.008330 0.002610 2.057140 
# 
# From -- ./inp_files/398782.got.cif
#   From: 2010.05.17/outbox.cif.g08.bks.cpg/sg2_200_cif.got.tgz:398782.got - 2010.06.03 11:33:40.
