data_PCOD9016478
_publ_section_title
;
Structure prediction by ZEFSAII (Michael W. Deem and Ramdas Pophale) SiO2 
 PCOD9016478
Probable space group: P -1
;
_chemical_formula_sum "Si O2"
_cell_formula_units_Z 16
_cell_length_a 12.000311
_cell_length_b 11.802461
_cell_length_c 9.124894
_cell_angle_alpha 90.480968
_cell_angle_beta 142.764586
_cell_angle_gamma 85.516253
_cell_volume 776.507359
_symmetry_space_group_name_H-M "P -1"
_symmetry_group_IT_number 2
_symmetry_cell_setting 'triclinic'
loop_
_space_group_symop_operation_xyz
x,y,z
-x,-y,-z
loop_
_atom_site_type_symbol
_atom_site_label
_atom_site_fract_x
_atom_site_fract_y
_atom_site_fract_z
Si Si1 0.560214 0.491921 0.392053
Si Si2 0.694167 0.677190 0.014540
Si Si3 0.656051 0.710791 0.320789
Si Si4 0.366266 0.861114 0.549710
Si Si5 0.487753 0.952542 0.145530
Si Si6 0.922316 0.309244 0.753626
Si Si7 0.910757 0.823024 0.812664
Si Si8 0.233304 0.976513 0.133033
O O1 0.500000 0.500000 0.500000
O O2 0.401856 0.432049 0.141400
O O3 0.589289 0.610255 0.346100
O O4 0.758449 0.413586 0.582201
O O5 0.544942 0.781247 0.797881
O O6 0.704608 0.679311 0.202633
O O7 0.898226 0.678762 0.157894
O O8 0.498557 0.817820 0.150685
O O9 0.814186 0.767365 0.576409
O O10 0.186373 0.799705 0.399403
O O11 0.363542 0.887891 0.372874
O O12 0.353381 0.987125 0.605373
O O13 0.311872 0.995602 0.057486
O O14 0.500000 0.000000 0.000000
O O15 0.992375 0.282706 0.991683
O O16 0.791841 0.902412 0.809273
O O17 0.054389 0.911640 0.924097
#
# Coordination Sequence:
#
# PCOD9016478 Si02
#       8
#     2   2   2   2   2   2   2   2
#     4  11  27  48  74  99 128 177 236 283 332 398
#     4  11  24  46  70  99 139 175 224 282 344 398
#     4  12  26  42  67 101 137 180 222 275 345 405
#     4  10  21  42  68 101 134 181 224 273 332 401
#     4  12  24  39  63 101 142 177 216 272 342 409
#     4  10  24  44  71  97 132 175 225 288 332 389
#     4  10  22  40  66  99 132 175 230 276 328 396
#     4  10  22  40  66  97 136 182 226 272 325 398
#
# _framework density 20.605086
#
# number of rings (size 3 to 8) (size 9 to 14) (size 15 to 20)
#    0.000    1.250    2.500    2.250    7.000    3.500 
#    0.000    1.250    0.000    0.000    0.000    0.000 
#    0.000    0.000    0.000    0.000    0.000    0.000 
#
# Total GULP energy -89253.525300 kJ/mol
# GULP energy per Si atom -5578.345331 kJ/mol
# Density = 2.055819 g / cm^3
# Si number density = 20.605086 Si / 1000 Ang^3
#
#
#
# Elastic Constant Matrix: (Units=GPa)
#
#
# Indices 1 2 3 4 5 6 
#
# 1 141.6559 42.7998 72.8402 15.5754 -0.0278 5.0648
# 2 42.7998 50.2656 -97.5659 22.9229 61.3984 -4.2686
# 3 72.8402 -97.5659 -157.6103 41.8095 110.9689 -31.2586
# 4 15.5754 22.9229 41.8095 36.7139 -11.4716 -2.0332
# 5 -0.0278 61.3984 110.9689 -11.4716 -13.5187 19.2728
# 6 5.0648 -4.2686 -31.2586 -2.0332 19.2728 20.5612
#
#
#
# Elastic Compliance Matrix: (Units=1/GPa)
#
#
# Indices 1 2 3 4 5 6 
#
# 1 0.008056 -0.000437 -0.000982 -0.003646 -0.005380 0.001114
# 2 -0.000437 0.009909 -0.004366 -0.000900 0.001464 -0.005935
# 3 -0.000982 -0.004366 0.004491 0.001164 0.010700 -0.003752
# 4 -0.003646 -0.000900 0.001164 0.027168 -0.004371 0.009265
# 5 -0.005380 0.001464 0.010700 -0.004371 0.021030 -0.002248
# 6 0.001114 -0.005935 -0.003752 0.009265 -0.002248 0.044448
#
#
# Mechanical properties :
#
#
# Convention : Reuss Voigt Hill
#
# Bulk Modulus (GPa) = 91.86627 7.82883 49.84755
# Shear Modulus (GPa) = 38.37229 9.83376 24.10302
#
# Velocity S-wave (km/s) = 4.32009 2.18697 3.42389
# Velocity P-wave (km/s) = 8.34058 3.19137 6.31467
#
# Compressibility (1/GPa) = 0.01088539
#
# Stress axis : x y z
#
# Youngs Moduli (GPa) = 124.12630 100.92031 222.65949
#
# Poissons Ratio (x) = 0.04412 0.21862
# Poissons Ratio (y) = 0.05426 0.97223
# Poissons Ratio (z) = 0.12187 0.44066
#
# Static dielectric constant tensor:
#      x y z
#    x 1.740690 -0.018500 0.022630 
#    y -0.018500 1.767510 -0.035000 
#    z 0.022630 -0.035000 1.828520 
# 
# From -- ./inp_files/258719.got.cif
#   From: 2010.05.17/outbox.cif.g08.bks.cpg/sg2_130_cif.got.tgz:258719.got - 2010.06.03 11:33:40.
