data_PCOD9016265
_publ_section_title
;
Structure prediction by ZEFSAII (Michael W. Deem and Ramdas Pophale) SiO2 
 PCOD9016265
Probable space group: P -1
;
_chemical_formula_sum "Si O2"
_cell_formula_units_Z 16
_cell_length_a 8.581052
_cell_length_b 10.729071
_cell_length_c 8.827092
_cell_angle_alpha 86.636685
_cell_angle_beta 67.961048
_cell_angle_gamma 101.337219
_cell_volume 730.715511
_symmetry_space_group_name_H-M "P -1"
_symmetry_group_IT_number 2
_symmetry_cell_setting 'triclinic'
loop_
_space_group_symop_operation_xyz
x,y,z
-x,-y,-z
loop_
_atom_site_type_symbol
_atom_site_label
_atom_site_fract_x
_atom_site_fract_y
_atom_site_fract_z
Si Si1 0.689678 0.552092 0.497624
Si Si2 0.548424 0.775101 0.644987
Si Si3 0.776798 0.301135 0.453909
Si Si4 0.974193 0.776133 0.831972
Si Si5 0.978447 0.732663 0.188825
Si Si6 0.625084 0.863520 0.924469
Si Si7 0.308455 0.841737 0.211689
Si Si8 0.878910 0.964598 0.395273
O O1 0.500000 0.500000 0.500000
O O2 0.656861 0.663925 0.610872
O O3 0.753929 0.429000 0.538902
O O4 0.829328 0.616997 0.315505
O O5 0.378158 0.733658 0.609005
O O6 0.507677 0.808962 0.827078
O O7 0.684069 0.899371 0.520887
O O8 0.957391 0.318992 0.298547
O O9 0.751177 0.187256 0.593075
O O10 0.785079 0.798688 0.870673
O O11 0.099995 0.912478 0.728877
O O12 0.980950 0.743248 0.007231
O O13 0.171068 0.737227 0.174808
O O14 0.937712 0.856849 0.279773
O O15 0.689596 0.016302 0.862533
O O16 0.506061 0.833597 0.117464
O O17 0.000000 0.000000 0.500000
#
# Coordination Sequence:
#
# PCOD9016265 Si02
#       8
#     2   2   2   2   2   2   2   2
#     4   9  23  44  69  90 125 168 225 275 316 377
#     4  10  21  42  67  89 131 173 211 267 324 380
#     4  11  25  43  66  95 125 174 225 262 323 377
#     4  12  24  38  67  97 134 168 210 264 325 388
#     4  11  23  41  66  93 131 174 211 265 324 377
#     4  11  24  41  63  99 140 165 208 267 324 387
#     4  11  25  41  65  98 136 170 212 262 319 397
#     4  11  20  37  64  98 130 165 211 257 322 385
#
# _framework density 21.896346000000001
#
# number of rings (size 3 to 8) (size 9 to 14) (size 15 to 20)
#    0.000    1.250    2.500    2.625    7.000    4.000 
#    0.000    0.625    0.000    0.000    0.000    0.000 
#    0.000    0.000    0.000    0.000    0.000    0.000 
#
# Total GULP energy -89383.087693 kJ/mol
# GULP energy per Si atom -5586.442981 kJ/mol
# Density = 2.184651 g / cm^3
# Si number density = 21.896346 Si / 1000 Ang^3
#
#
#
# Elastic Constant Matrix: (Units=GPa)
#
#
# Indices 1 2 3 4 5 6 
#
# 1 97.7138 19.6365 32.7301 -0.3135 -17.0706 -4.9234
# 2 19.6365 58.3113 11.4077 -14.2305 -5.7668 0.4877
# 3 32.7301 11.4077 111.2407 1.6957 -15.0204 4.6259
# 4 -0.3135 -14.2305 1.6957 17.0013 -0.8162 -3.4229
# 5 -17.0706 -5.7668 -15.0204 -0.8162 33.3697 4.1022
# 6 -4.9234 0.4877 4.6259 -3.4229 4.1022 28.4784
#
#
#
# Elastic Compliance Matrix: (Units=1/GPa)
#
#
# Indices 1 2 3 4 5 6 
#
# 1 0.012802 -0.003866 -0.002831 -0.002136 0.004326 0.001859
# 2 -0.003866 0.023886 -0.001431 0.020424 0.001840 0.001345
# 3 -0.002831 -0.001431 0.010591 -0.002748 0.003374 -0.003002
# 4 -0.002136 0.020424 -0.002748 0.078021 0.002025 0.008813
# 5 0.004326 0.001840 0.003374 0.002025 0.034629 -0.004577
# 6 0.001859 0.001345 -0.003002 0.008813 -0.004577 0.037619
#
#
# Mechanical properties :
#
#
# Convention : Reuss Voigt Hill
#
# Bulk Modulus (GPa) = 32.23323 43.86828 38.05076
# Shear Modulus (GPa) = 22.30705 29.33599 25.82152
#
# Velocity S-wave (km/s) = 3.19526 3.66425 3.43776
# Velocity P-wave (km/s) = 5.32595 6.16282 5.75960
#
# Compressibility (1/GPa) = 0.03102388
#
# Stress axis : x y z
#
# Youngs Moduli (GPa) = 78.11496 41.86508 94.41612
#
# Poissons Ratio (x) = 0.16186 0.26727
# Poissons Ratio (y) = 0.30200 0.13509
# Poissons Ratio (z) = 0.22113 0.05990
#
# Static dielectric constant tensor:
#      x y z
#    x 1.815930 -0.036150 -0.026740 
#    y -0.036150 1.848020 0.040260 
#    z -0.026740 0.040260 1.782600 
# 
# From -- ./inp_files/186548.got.cif
#   From: 2010.05.17/outbox.cif.g08.bks.cpg/sg2_94_cif.got.tgz:186548.got - 2010.06.03 11:33:40.
