data_PCOD9016674
_publ_section_title
;
Structure prediction by ZEFSAII (Michael W. Deem and Ramdas Pophale) SiO2 
 PCOD9016674
Probable space group: P -1
;
_chemical_formula_sum "Si O2"
_cell_formula_units_Z 14
_cell_length_a 6.699714
_cell_length_b 12.438165
_cell_length_c 11.178869
_cell_angle_alpha 61.029747
_cell_angle_beta 83.976109
_cell_angle_gamma 120.158947
_cell_volume 625.538043
_symmetry_space_group_name_H-M "P -1"
_symmetry_group_IT_number 2
_symmetry_cell_setting 'triclinic'
loop_
_space_group_symop_operation_xyz
x,y,z
-x,-y,-z
loop_
_atom_site_type_symbol
_atom_site_label
_atom_site_fract_x
_atom_site_fract_y
_atom_site_fract_z
Si Si1 0.908831 0.626558 0.351765
Si Si2 0.399225 0.426623 0.360533
Si Si3 0.424733 0.362673 0.983994
Si Si4 0.301184 0.081642 0.280281
Si Si5 0.587738 0.136508 0.715182
Si Si6 0.059635 0.886937 0.012394
Si Si7 0.282295 0.114441 0.520631
O O1 0.686617 0.492429 0.348904
O O2 0.757467 0.594740 0.501058
O O3 0.001055 0.780737 0.187198
O O4 0.191870 0.687472 0.339236
O O5 0.418311 0.539524 0.198939
O O6 0.272393 0.254520 0.412017
O O7 0.131037 0.235900 0.015515
O O8 0.500000 0.500000 0.000000
O O9 0.466694 0.246837 0.107097
O O10 0.293116 0.946580 0.291375
O O11 0.643930 0.991680 0.113227
O O12 0.012875 0.026313 0.345144
O O13 0.456996 0.151820 0.602616
O O14 0.611965 0.906106 0.595164
O O15 0.000000 0.000000 0.000000
#
# Coordination Sequence:
#
# PCOD9016674 Si02
#       7
#     2   2   2   2   2   2   2
#     4  10  22  39  64  98 136 174 229 278 338 404
#     4  10  21  42  68  98 139 181 217 284 347 407
#     4  11  22  43  72 101 139 184 222 281 358 401
#     4  11  23  42  69  99 136 183 222 280 342 413
#     4  12  23  41  71 104 131 178 241 279 334 414
#     4  11  23  43  71  99 138 182 233 286 340 408
#     4  11  22  41  69  95 142 175 227 276 344 406
#
# _framework density 22.380732999999999
#
# number of rings (size 3 to 8) (size 9 to 14) (size 15 to 20)
#    0.000    1.143    4.286    2.571    0.000    0.571 
#    2.571    3.571    0.000    0.000    0.000    0.000 
#    0.000    0.000    0.000    0.000    0.000    0.000 
#
# Total GULP energy -78083.383612 kJ/mol
# GULP energy per Si atom -5577.384544 kJ/mol
# Density = 2.232979 g / cm^3
# Si number density = 22.380733 Si / 1000 Ang^3
#
#
#
# Elastic Constant Matrix: (Units=GPa)
#
#
# Indices 1 2 3 4 5 6 
#
# 1 44.1121 25.9878 30.9040 4.6570 10.7371 10.8427
# 2 25.9878 80.6929 31.8359 -10.9041 -10.5211 3.8418
# 3 30.9040 31.8359 173.1135 -1.3178 6.9865 7.8859
# 4 4.6570 -10.9041 -1.3178 29.5782 -0.0974 -0.5434
# 5 10.7371 -10.5211 6.9865 -0.0974 28.4410 2.1009
# 6 10.8427 3.8418 7.8859 -0.5434 2.1009 30.9744
#
#
#
# Elastic Compliance Matrix: (Units=1/GPa)
#
#
# Indices 1 2 3 4 5 6 
#
# 1 0.044791 -0.017161 -0.003554 -0.013818 -0.021589 -0.011424
# 2 -0.017161 0.021786 -0.001588 0.010765 0.014751 0.002898
# 3 -0.003554 -0.001588 0.006751 0.000268 -0.000888 -0.000213
# 4 -0.013818 0.010765 0.000268 0.040059 0.009010 0.003525
# 5 -0.021589 0.014751 -0.000888 0.009010 0.048809 0.002801
# 6 -0.011424 0.002898 -0.000213 0.003525 0.002801 0.035850
#
#
# Mechanical properties :
#
#
# Convention : Reuss Voigt Hill
#
# Bulk Modulus (GPa) = 34.81742 52.81930 43.81836
# Shear Modulus (GPa) = 19.82341 31.74477 25.78409
#
# Velocity S-wave (km/s) = 2.97936 3.77025 3.39789
# Velocity P-wave (km/s) = 5.23699 6.52722 5.91738
#
# Compressibility (1/GPa) = 0.02872125
#
# Stress axis : x y z
#
# Youngs Moduli (GPa) = 22.32594 45.90049 148.13564
#
# Poissons Ratio (x) = 0.78772 0.52640
# Poissons Ratio (y) = 0.38315 0.23528
# Poissons Ratio (z) = 0.07934 0.07290
#
# Static dielectric constant tensor:
#      x y z
#    x 1.856910 0.072400 0.003210 
#    y 0.072400 1.892380 0.038260 
#    z 0.003210 0.038260 1.840400 
# 
# From -- ./inp_files/344209.got.cif
#   From: 2010.05.17/outbox.cif.g08.bks.cpg/sg2_173_cif.got.tgz:344209.got - 2010.06.03 11:33:40.
