data_PCOD9016358
_publ_section_title
;
Structure prediction by ZEFSAII (Michael W. Deem and Ramdas Pophale) SiO2 
 PCOD9016358
Probable space group: P -1
;
_chemical_formula_sum "Si O2"
_cell_formula_units_Z 15
_cell_length_a 11.425433
_cell_length_b 5.283571
_cell_length_c 11.914339
_cell_angle_alpha 112.904295
_cell_angle_beta 60.849211
_cell_angle_gamma 83.463863
_cell_volume 535.882870
_symmetry_space_group_name_H-M "P -1"
_symmetry_group_IT_number 2
_symmetry_cell_setting 'triclinic'
loop_
_space_group_symop_operation_xyz
x,y,z
-x,-y,-z
loop_
_atom_site_type_symbol
_atom_site_label
_atom_site_fract_x
_atom_site_fract_y
_atom_site_fract_z
Si Si1 0.089753 0.159560 0.865242
Si Si2 0.575044 0.667809 0.357766
Si Si3 0.311835 0.203133 0.910323
Si Si4 0.311595 0.662419 0.380498
Si Si5 0.500000 0.000000 0.000000
Si Si6 0.203204 0.284622 0.601357
Si Si7 0.728669 0.263290 0.831300
Si Si8 0.013625 0.777349 0.671461
O O1 0.203737 0.049323 0.893483
O O2 0.175202 0.164509 0.712340
O O3 0.009093 0.955595 0.821104
O O4 0.000000 0.500000 0.000000
O O5 0.627927 0.704554 0.214978
O O6 0.451503 0.535762 0.372541
O O7 0.703322 0.528771 0.365018
O O8 0.500000 0.000000 0.500000
O O9 0.425710 0.011497 0.913193
O O10 0.236025 0.510920 0.065095
O O11 0.324764 0.546447 0.227079
O O12 0.161368 0.688984 0.512825
O O13 0.291283 0.008762 0.435202
O O14 0.607142 0.161729 0.921255
O O15 0.046403 0.452094 0.648730
O O16 0.873652 0.969302 0.702067
#
# Coordination Sequence:
#
# PCOD9016358 Si02
#       8
#     2   2   2   2   1   2   2   2
#     4  10  21  42  67  94 140 171 212 292 339 390
#     4   9  19  43  68  92 141 171 219 284 325 395
#     4  11  24  46  68 101 137 179 225 281 346 398
#     4  10  22  43  65  95 140 178 223 285 337 393
#     4  12  28  42  68  98 132 186 226 272 334 414
#     4   9  22  39  64 101 130 177 232 272 336 402
#     4  12  26  45  67  98 144 178 226 280 340 412
#     4  11  24  42  71 104 128 183 230 276 345 405
#
# _framework density 27.99119
#
# number of rings (size 3 to 8) (size 9 to 14) (size 15 to 20)
#    0.000    1.600    2.667    1.600    1.867    4.800 
#    0.000    0.000    0.000    0.000    0.000    0.000 
#    0.000    0.000    0.000    0.000    0.000    0.000 
#
# Total GULP energy -83681.855330 kJ/mol
# GULP energy per Si atom -5578.790355 kJ/mol
# Density = 2.792748 g / cm^3
# Si number density = 27.991190 Si / 1000 Ang^3
#
#
#
# Elastic Constant Matrix: (Units=GPa)
#
#
# Indices 1 2 3 4 5 6 
#
# 1 85.6141 12.6931 12.4520 -16.2852 9.5355 -20.5692
# 2 12.6931 54.4630 2.7880 -16.5399 0.4359 -9.9844
# 3 12.4520 2.7880 116.2164 -22.3111 8.2777 19.5860
# 4 -16.2852 -16.5399 -22.3111 59.5848 5.6552 1.9213
# 5 9.5355 0.4359 8.2777 5.6552 50.0544 -1.8516
# 6 -20.5692 -9.9844 19.5860 1.9213 -1.8516 42.8069
#
#
#
# Elastic Compliance Matrix: (Units=1/GPa)
#
#
# Indices 1 2 3 4 5 6 
#
# 1 0.014806 -0.001030 -0.002090 0.002973 -0.002521 0.007588
# 2 -0.001030 0.021024 -0.000014 0.005458 -0.000448 0.004151
# 3 -0.002090 -0.000014 0.010756 0.003846 -0.002044 -0.006190
# 4 0.002973 0.005458 0.003846 0.020899 -0.003617 -0.000153
# 5 -0.002521 -0.000448 -0.002044 -0.003617 0.021235 0.000700
# 6 0.007588 0.004151 -0.006190 -0.000153 0.000700 0.030845
#
#
# Mechanical properties :
#
#
# Convention : Reuss Voigt Hill
#
# Bulk Modulus (GPa) = 24.80238 34.68440 29.74339
# Shear Modulus (GPa) = 35.90100 45.71323 40.80711
#
# Velocity S-wave (km/s) = 3.58520 4.04558 3.82233
# Velocity P-wave (km/s) = 5.10081 5.85153 5.48902
#
# Compressibility (1/GPa) = 0.04031872
#
# Stress axis : x y z
#
# Youngs Moduli (GPa) = 67.53823 47.56498 92.97059
#
# Poissons Ratio (x) = 0.04897 0.19434
# Poissons Ratio (y) = 0.06954 0.00129
# Poissons Ratio (z) = 0.14118 0.00066
#
# Static dielectric constant tensor:
#      x y z
#    x 2.335210 0.086680 0.026840 
#    y 0.086680 2.308210 0.007790 
#    z 0.026840 0.007790 1.906210 
# 
# From -- ./inp_files/67585.got.cif
#   From: 2010.05.17/outbox.cif.g08.bks.cpg/sg2_34_cif.got.tgz:67585.got - 2010.06.03 11:33:40.
