data_PCOD9016174
_publ_section_title
;
Structure prediction by ZEFSAII (Michael W. Deem and Ramdas Pophale) SiO2 
 PCOD9016174
Probable space group: P -1
;
_chemical_formula_sum "Si O2"
_cell_formula_units_Z 14
_cell_length_a 16.542145
_cell_length_b 13.389363
_cell_length_c 10.829500
_cell_angle_alpha 151.334395
_cell_angle_beta 142.679317
_cell_angle_gamma 33.579248
_cell_volume 617.449918
_symmetry_space_group_name_H-M "P -1"
_symmetry_group_IT_number 2
_symmetry_cell_setting 'triclinic'
loop_
_space_group_symop_operation_xyz
x,y,z
-x,-y,-z
loop_
_atom_site_type_symbol
_atom_site_label
_atom_site_fract_x
_atom_site_fract_y
_atom_site_fract_z
Si Si1 0.166804 0.977333 0.882890
Si Si2 0.166646 0.878031 0.333861
Si Si3 0.659713 0.485588 0.533297
Si Si4 0.843456 0.740020 0.065237
Si Si5 0.466645 0.743259 0.154831
Si Si6 0.590504 0.639340 0.924716
Si Si7 0.579482 0.103296 0.473337
O O1 0.196527 0.736939 0.588216
O O2 0.000469 0.082960 0.851097
O O3 0.175590 0.151714 0.979056
O O4 0.302211 0.889359 0.049958
O O5 0.161377 0.061297 0.631237
O O6 0.257896 0.908814 0.362944
O O7 0.268789 0.607819 0.207131
O O8 0.556445 0.363414 0.316661
O O9 0.546712 0.659702 0.482543
O O10 0.718353 0.654229 0.848918
O O11 0.000000 0.500000 0.000000
O O12 0.466115 0.893583 0.436907
O O13 0.500000 0.500000 0.000000
O O14 0.577601 0.652252 0.073379
O O15 0.584948 0.888274 0.168734
#
# Coordination Sequence:
#
# PCOD9016174 Si02
#       7
#     2   2   2   2   2   2   2
#     4  11  24  43  69 101 133 178 226 273 337 402
#     4  11  25  42  66 101 139 173 225 285 327 399
#     4  10  21  42  66  98 127 176 226 268 328 400
#     4  12  26  43  70  97 135 185 224 272 338 400
#     4  11  20  46  73  97 134 179 221 276 337 401
#     4  10  23  40  67  99 138 171 224 276 331 394
#     4  11  23  44  69 102 136 178 223 276 336 402
#
# _framework density 22.673902999999999
#
# number of rings (size 3 to 8) (size 9 to 14) (size 15 to 20)
#    0.000    1.143    5.714    2.571    2.000    2.857 
#    0.000   10.000    0.000    0.000    0.000    0.000 
#    0.000    0.000    0.000    0.000    0.000    0.000 
#
# Total GULP energy -78101.607605 kJ/mol
# GULP energy per Si atom -5578.686257 kJ/mol
# Density = 2.262230 g / cm^3
# Si number density = 22.673903 Si / 1000 Ang^3
#
#
#
# Elastic Constant Matrix: (Units=GPa)
#
#
# Indices 1 2 3 4 5 6 
#
# 1 72.2328 21.8229 13.5686 8.1008 -1.0235 -0.3520
# 2 21.8229 132.1698 35.6126 22.3425 5.8238 -11.9553
# 3 13.5686 35.6126 142.9472 21.0399 -3.4578 -3.7481
# 4 8.1008 22.3425 21.0399 36.6077 -1.9915 -2.3734
# 5 -1.0235 5.8238 -3.4578 -1.9915 38.9926 0.9662
# 6 -0.3520 -11.9553 -3.7481 -2.3734 0.9662 38.1717
#
#
#
# Elastic Compliance Matrix: (Units=1/GPa)
#
#
# Indices 1 2 3 4 5 6 
#
# 1 0.014782 -0.002076 -0.000648 -0.001645 0.000574 -0.000694
# 2 -0.002076 0.009351 -0.001473 -0.004338 -0.001866 0.002543
# 3 -0.000648 -0.001473 0.007957 -0.003486 0.000729 0.000079
# 4 -0.001645 -0.004338 -0.003486 0.032454 0.001947 0.000252
# 5 0.000574 -0.001866 0.000729 0.001947 0.026130 -0.001048
# 6 -0.000694 0.002543 0.000079 0.000252 -0.001048 0.027037
#
#
# Mechanical properties :
#
#
# Convention : Reuss Voigt Hill
#
# Bulk Modulus (GPa) = 42.19970 54.37310 48.28640
# Shear Modulus (GPa) = 37.31230 41.17743 39.24487
#
# Velocity S-wave (km/s) = 4.06101 4.26616 4.16485
# Velocity P-wave (km/s) = 6.37503 6.94978 6.66860
#
# Compressibility (1/GPa) = 0.02369685
#
# Stress axis : x y z
#
# Youngs Moduli (GPa) = 67.64816 106.93890 125.67904
#
# Poissons Ratio (x) = 0.22201 0.08145
# Poissons Ratio (y) = 0.14044 0.18507
# Poissons Ratio (z) = 0.04384 0.15747
#
# Static dielectric constant tensor:
#      x y z
#    x 1.963760 0.011000 0.023200 
#    y 0.011000 1.794770 0.002430 
#    z 0.023200 0.002430 1.946580 
# 
# From -- ./inp_files/465689.got.cif
#   From: 2010.05.17/outbox.cif.g08.bks.cpg/sg2_233_cif.got.tgz:465689.got - 2010.06.03 11:33:40.
