data_PCOD9016542
_publ_section_title
;
Structure prediction by ZEFSAII (Michael W. Deem and Ramdas Pophale) SiO2 
 PCOD9016542
Probable space group: P -1
;
_chemical_formula_sum "Si O2"
_cell_formula_units_Z 16
_cell_length_a 9.966775
_cell_length_b 9.188476
_cell_length_c 17.701206
_cell_angle_alpha 134.663727
_cell_angle_beta 117.258388
_cell_angle_gamma 42.593577
_cell_volume 774.345117
_symmetry_space_group_name_H-M "P -1"
_symmetry_group_IT_number 2
_symmetry_cell_setting 'triclinic'
loop_
_space_group_symop_operation_xyz
x,y,z
-x,-y,-z
loop_
_atom_site_type_symbol
_atom_site_label
_atom_site_fract_x
_atom_site_fract_y
_atom_site_fract_z
Si Si1 0.873402 0.087392 0.164211
Si Si2 0.032893 0.667453 0.922043
Si Si3 0.120992 0.115667 0.747396
Si Si4 0.561193 0.725714 0.644128
Si Si5 0.599374 0.580085 0.181603
Si Si6 0.793779 0.938736 0.811819
Si Si7 0.835351 0.142521 0.573135
Si Si8 0.422169 0.004219 0.562985
O O1 0.836936 0.024724 0.212815
O O2 0.012383 0.168744 0.226602
O O3 0.667650 0.330705 0.159127
O O4 0.990677 0.824398 0.045001
O O5 0.038603 0.419334 0.844224
O O6 0.240605 0.535938 0.886297
O O7 0.867421 0.884943 0.897323
O O8 0.947122 0.136505 0.671550
O O9 0.329028 0.943226 0.690547
O O10 0.660025 0.445483 0.608259
O O11 0.698259 0.798550 0.728055
O O12 0.558187 0.740829 0.557362
O O13 0.383660 0.760347 0.153912
O O14 0.609186 0.769590 0.309159
O O15 0.764266 0.973043 0.496891
O O16 0.000000 0.000000 0.500000
O O17 0.500000 0.000000 0.500000
#
# Coordination Sequence:
#
# PCOD9016542 Si02
#       8
#     2   2   2   2   2   2   2   2
#     4  11  27  38  71  98 134 174 225 278 328 393
#     4  11  21  46  67  98 130 178 226 270 336 393
#     4  12  25  45  64  99 139 173 219 279 327 393
#     4  11  24  45  66  92 138 176 212 273 333 389
#     4  10  22  45  65  97 138 165 220 280 330 390
#     4  10  21  42  68  92 124 182 214 273 327 388
#     4  12  25  44  70  97 130 184 222 261 340 397
#     4  11  25  42  69  99 130 169 220 275 323 396
#
# _framework density 20.662623
#
# number of rings (size 3 to 8) (size 9 to 14) (size 15 to 20)
#    0.000    1.000    5.000    2.250    7.000    2.000 
#    0.000    1.875    0.000    0.000    0.000    0.000 
#    0.000    0.000    0.000    0.000    0.000    0.000 
#
# Total GULP energy -89318.386722 kJ/mol
# GULP energy per Si atom -5582.399170 kJ/mol
# Density = 2.061559 g / cm^3
# Si number density = 20.662623 Si / 1000 Ang^3
#
#
#
# Elastic Constant Matrix: (Units=GPa)
#
#
# Indices 1 2 3 4 5 6 
#
# 1 99.8884 20.2433 23.5043 -17.3996 -6.4216 6.5616
# 2 20.2433 109.0268 10.4990 -3.1170 -17.1008 -1.7664
# 3 23.5043 10.4990 50.0849 2.3485 -2.6894 -0.1746
# 4 -17.3996 -3.1170 2.3485 26.2067 4.2407 -5.8054
# 5 -6.4216 -17.1008 -2.6894 4.2407 25.1928 -13.5946
# 6 6.5616 -1.7664 -0.1746 -5.8054 -13.5946 34.4274
#
#
#
# Elastic Compliance Matrix: (Units=1/GPa)
#
#
# Indices 1 2 3 4 5 6 
#
# 1 0.013530 -0.001775 -0.006453 0.009151 -0.000776 -0.001466
# 2 -0.001775 0.011163 -0.000964 -0.000286 0.009573 0.004638
# 3 -0.006453 -0.000964 0.023607 -0.006609 0.001822 0.000905
# 4 0.009151 -0.000286 -0.006609 0.046424 -0.003970 0.004468
# 5 -0.000776 0.009573 0.001822 -0.003970 0.059530 0.023486
# 6 -0.001466 0.004638 0.000905 0.004468 0.023486 0.039596
#
#
# Mechanical properties :
#
#
# Convention : Reuss Voigt Hill
#
# Bulk Modulus (GPa) = 33.42561 40.83260 37.12910
# Shear Modulus (GPa) = 22.50164 30.81563 26.65863
#
# Velocity S-wave (km/s) = 3.30358 3.86602 3.59581
# Velocity P-wave (km/s) = 5.54649 6.30338 5.93701
#
# Compressibility (1/GPa) = 0.02991718
#
# Stress axis : x y z
#
# Youngs Moduli (GPa) = 73.91163 89.58310 42.35959
#
# Poissons Ratio (x) = 0.15897 0.27336
# Poissons Ratio (y) = 0.13116 0.04082
# Poissons Ratio (z) = 0.47697 0.08632
#
# Static dielectric constant tensor:
#      x y z
#    x 1.716260 -0.020920 0.033210 
#    y -0.020920 1.829580 0.001820 
#    z 0.033210 0.001820 1.764330 
# 
# From -- ./inp_files/557603.got.cif
#   From: 2010.05.17/outbox.cif.g08.bks.cpg/sg2_279_cif.got.tgz:557603.got - 2010.06.03 11:33:40.
