data_PCOD9016960
_publ_section_title
;
Structure prediction by ZEFSAII (Michael W. Deem and Ramdas Pophale) SiO2 
 PCOD9016960
Probable space group: P -1
;
_chemical_formula_sum "Si O2"
_cell_formula_units_Z 13
_cell_length_a 12.011556
_cell_length_b 8.660373
_cell_length_c 6.388250
_cell_angle_alpha 86.706506
_cell_angle_beta 72.472475
_cell_angle_gamma 119.490342
_cell_volume 534.373804
_symmetry_space_group_name_H-M "P -1"
_symmetry_group_IT_number 2
_symmetry_cell_setting 'triclinic'
loop_
_space_group_symop_operation_xyz
x,y,z
-x,-y,-z
loop_
_atom_site_type_symbol
_atom_site_label
_atom_site_fract_x
_atom_site_fract_y
_atom_site_fract_z
Si Si1 0.790667 0.331441 0.500870
Si Si2 0.244770 0.880886 0.060229
Si Si3 0.382031 0.320896 0.454651
Si Si4 0.428319 0.799424 0.734578
Si Si5 0.000000 0.500000 0.000000
Si Si6 0.842945 0.852788 0.057845
Si Si7 0.724045 0.543401 0.843913
O O1 0.770855 0.177449 0.685241
O O2 0.661444 0.254107 0.421638
O O3 0.925935 0.428687 0.275631
O O4 0.788939 0.480378 0.638051
O O5 0.125728 0.700765 0.017610
O O6 0.391283 0.927341 0.875240
O O7 0.224642 0.046969 0.021992
O O8 0.500000 0.500000 0.500000
O O9 0.427600 0.175171 0.414239
O O10 0.243844 0.237154 0.676388
O O11 0.358296 0.384903 0.240808
O O12 0.368597 0.626136 0.938615
O O13 0.833471 0.697440 0.926303
O O14 0.000000 0.000000 0.000000
#
# Coordination Sequence:
#
# PCOD9016960 Si02
#       7
#     2   2   2   2   1   2   2
#     4  10  21  42  70 105 134 191 243 299 351 436
#     4  10  25  42  68 101 146 190 237 303 364 426
#     4  12  24  46  78 106 142 194 249 301 355 432
#     4  10  22  44  75 105 133 182 255 296 348 429
#     4  10  22  42  70  94 142 192 250 276 356 440
#     4  12  30  47  67 112 155 189 238 303 370 433
#     4  11  23  43  77 106 140 189 244 303 360 426
#
# _framework density 24.327539999999999
#
# number of rings (size 3 to 8) (size 9 to 14) (size 15 to 20)
#    0.000    1.231    3.077    0.923    8.615    3.692 
#    0.000    1.538    0.000    0.000    0.000    0.000 
#    0.000    0.000    0.000    0.000    0.000    0.000 
#
# Total GULP energy -72592.893924 kJ/mol
# GULP energy per Si atom -5584.068763 kJ/mol
# Density = 2.427217 g / cm^3
# Si number density = 24.327540 Si / 1000 Ang^3
#
#
#
# Elastic Constant Matrix: (Units=GPa)
#
#
# Indices 1 2 3 4 5 6 
#
# 1 60.4456 16.3877 32.3481 -3.8052 5.9244 -2.6104
# 2 16.3877 68.3700 39.3918 8.3760 -12.8551 2.4215
# 3 32.3481 39.3918 174.7323 2.6930 2.3927 -1.0083
# 4 -3.8052 8.3760 2.6930 34.5447 -9.5103 5.6468
# 5 5.9244 -12.8551 2.3927 -9.5103 38.2892 -5.0620
# 6 -2.6104 2.4215 -1.0083 5.6468 -5.0620 36.7932
#
#
#
# Elastic Compliance Matrix: (Units=1/GPa)
#
#
# Indices 1 2 3 4 5 6 
#
# 1 0.019629 -0.004140 -0.002682 0.002262 -0.003599 0.000749
# 2 -0.004140 0.019328 -0.003636 -0.003000 0.006572 -0.000301
# 3 -0.002682 -0.003636 0.007063 -0.000346 -0.001318 0.000114
# 4 0.002262 -0.003000 -0.000346 0.032267 0.006183 -0.003753
# 5 -0.003599 0.006572 -0.001318 0.006183 0.030838 0.002570
# 6 0.000749 -0.000301 0.000114 -0.003753 0.002570 0.028185
#
#
# Mechanical properties :
#
#
# Convention : Reuss Voigt Hill
#
# Bulk Modulus (GPa) = 39.83491 53.31146 46.57319
# Shear Modulus (GPa) = 30.01316 36.28677 33.14996
#
# Velocity S-wave (km/s) = 3.51623 3.86630 3.69542
# Velocity P-wave (km/s) = 5.73543 6.47246 6.11506
#
# Compressibility (1/GPa) = 0.02510361
#
# Stress axis : x y z
#
# Youngs Moduli (GPa) = 50.94535 51.73960 141.57623
#
# Poissons Ratio (x) = 0.21420 0.37968
# Poissons Ratio (y) = 0.21091 0.51481
# Poissons Ratio (z) = 0.13663 0.18814
#
# Static dielectric constant tensor:
#      x y z
#    x 2.042910 0.005600 0.033050 
#    y 0.005600 1.972020 0.002990 
#    z 0.033050 0.002990 1.953530 
# 
# From -- ./inp_files/49938.got.cif
#   From: 2010.05.17/outbox.cif.g08.bks.cpg/sg2_25_cif.got.tgz:49938.got - 2010.06.03 11:33:40.
