data_PCOD9016293
_publ_section_title
;
Structure prediction by ZEFSAII (Michael W. Deem and Ramdas Pophale) SiO2 
 PCOD9016293
Probable space group: P -1
;
_chemical_formula_sum "Si O2"
_cell_formula_units_Z 12
_cell_length_a 24.383043
_cell_length_b 21.127591
_cell_length_c 5.150348
_cell_angle_alpha 104.438360
_cell_angle_beta 102.835594
_cell_angle_gamma 9.979917
_cell_volume 440.936053
_symmetry_space_group_name_H-M "P -1"
_symmetry_group_IT_number 2
_symmetry_cell_setting 'triclinic'
loop_
_space_group_symop_operation_xyz
x,y,z
-x,-y,-z
loop_
_atom_site_type_symbol
_atom_site_label
_atom_site_fract_x
_atom_site_fract_y
_atom_site_fract_z
Si Si1 0.456138 0.361150 0.937386
Si Si2 0.288205 0.197384 0.655356
Si Si3 0.028436 0.921409 0.698667
Si Si4 0.116868 0.032829 0.665275
Si Si5 0.951259 0.706691 0.984110
Si Si6 0.388186 0.298186 0.286233
O O1 0.144060 0.695255 0.117523
O O2 0.345634 0.518557 0.709897
O O3 0.627758 0.219768 0.154372
O O4 0.705531 0.015154 0.823663
O O5 0.000000 0.500000 0.500000
O O6 0.121624 0.441100 0.915624
O O7 0.500000 0.000000 0.500000
O O8 0.493232 0.900992 0.646761
O O9 0.787155 0.138069 0.589805
O O10 0.000000 0.000000 0.500000
O O11 0.000000 0.000000 0.000000
O O12 0.914340 0.313321 0.552748
O O13 0.228172 0.443992 0.017775
O O14 0.688492 0.999782 0.233551
#
# Coordination Sequence:
#
# PCOD9016293 Si02
#       6
#     2   2   2   2   2   2
#     4  10  24  47  73 107 142 191 246 302 367 441
#     4  12  24  36  58 102 138 180 236 293 351 418
#     4  12  26  50  78 111 150 193 244 312 374 448
#     4  10  24  47  73 107 142 191 246 302 367 441
#     4  10  21  42  67  91 134 187 237 288 352 426
#     4  10  21  42  67  91 134 187 237 288 352 426
#
# _framework density 27.214829000000002
#
# number of rings (size 3 to 8) (size 9 to 14) (size 15 to 20)
#    0.000    1.333    1.667    3.000    2.333    2.667 
#    0.000    0.000    0.000    0.000    0.000    0.000 
#    0.000    0.000    0.000    0.000    0.000    0.000 
#
# Total GULP energy -67040.477559 kJ/mol
# GULP energy per Si atom -5586.706463 kJ/mol
# Density = 2.715289 g / cm^3
# Si number density = 27.214829 Si / 1000 Ang^3
#
#
#
# Elastic Constant Matrix: (Units=GPa)
#
#
# Indices 1 2 3 4 5 6 
#
# 1 172.6049 59.7679 53.7987 -20.7971 1.6446 19.5053
# 2 59.7679 131.6262 38.4974 -23.4565 -19.8558 6.2324
# 3 53.7987 38.4974 119.2544 -18.8342 -0.6285 6.6581
# 4 -20.7971 -23.4565 -18.8342 33.1155 12.6827 -8.6281
# 5 1.6446 -19.8558 -0.6285 12.6827 57.5349 -14.2843
# 6 19.5053 6.2324 6.6581 -8.6281 -14.2843 82.7507
#
#
#
# Elastic Compliance Matrix: (Units=1/GPa)
#
#
# Indices 1 2 3 4 5 6 
#
# 1 0.007922 -0.002802 -0.002262 0.002079 -0.002078 -0.001616
# 2 -0.002802 0.010413 -0.001530 0.003821 0.003044 0.000923
# 3 -0.002262 -0.001530 0.010516 0.003944 -0.001217 0.000003
# 4 0.002079 0.003821 0.003944 0.039600 -0.006972 0.001830
# 5 -0.002078 0.003044 -0.001217 -0.006972 0.020815 0.003224
# 6 -0.001616 0.000923 0.000003 0.001830 0.003224 0.013143
#
#
# Mechanical properties :
#
#
# Convention : Reuss Voigt Hill
#
# Bulk Modulus (GPa) = 63.83891 80.84594 72.34243
# Shear Modulus (GPa) = 41.38529 52.77497 47.08013
#
# Velocity S-wave (km/s) = 3.90383 4.40841 4.16377
# Velocity P-wave (km/s) = 6.62029 7.46212 7.05377
#
# Compressibility (1/GPa) = 0.01566443
#
# Stress axis : x y z
#
# Youngs Moduli (GPa) = 126.23730 96.03039 95.09560
#
# Poissons Ratio (x) = 0.26908 0.21506
# Poissons Ratio (y) = 0.35372 0.14546
# Poissons Ratio (z) = 0.28549 0.14689
#
# Static dielectric constant tensor:
#      x y z
#    x 2.220490 0.115930 0.090250 
#    y 0.115930 2.245810 0.094510 
#    z 0.090250 0.094510 2.233280 
# 
# From -- ./inp_files/12180.got.cif
#   From: 2010.05.17/outbox.cif.g08.bks.cpg/sg2_7_cif.got.tgz:12180.got - 2010.06.03 11:33:40.
