data_PCOD9016948
_publ_section_title
;
Structure prediction by ZEFSAII (Michael W. Deem and Ramdas Pophale) SiO2 
 PCOD9016948
Probable space group: P -1
;
_chemical_formula_sum "Si O2"
_cell_formula_units_Z 16
_cell_length_a 11.418246
_cell_length_b 10.976256
_cell_length_c 11.340319
_cell_angle_alpha 109.854359
_cell_angle_beta 97.273988
_cell_angle_gamma 140.886262
_cell_volume 635.418379
_symmetry_space_group_name_H-M "P -1"
_symmetry_group_IT_number 2
_symmetry_cell_setting 'triclinic'
loop_
_space_group_symop_operation_xyz
x,y,z
-x,-y,-z
loop_
_atom_site_type_symbol
_atom_site_label
_atom_site_fract_x
_atom_site_fract_y
_atom_site_fract_z
Si Si1 0.263956 0.255589 0.974324
Si Si2 0.361300 0.629533 0.649158
Si Si3 0.095519 0.472404 0.781375
Si Si4 0.428031 0.883273 0.167467
Si Si5 0.846886 0.077824 0.293318
Si Si6 0.458068 0.331219 0.662440
Si Si7 0.185094 0.033557 0.303779
Si Si8 0.716363 0.306443 0.663483
O O1 0.182867 0.030345 0.867271
O O2 0.500000 0.500000 0.000000
O O3 0.349945 0.388120 0.156185
O O4 0.045398 0.128128 0.846442
O O5 0.247557 0.526395 0.730860
O O6 0.587361 0.756805 0.687351
O O7 0.126939 0.379728 0.454865
O O8 0.478148 0.882619 0.728065
O O9 0.953995 0.456587 0.695389
O O10 0.283696 0.717545 0.975879
O O11 0.905743 0.193224 0.731300
O O12 0.254527 0.673889 0.184633
O O13 0.668847 0.027517 0.249427
O O14 0.734829 0.893041 0.331817
O O15 0.292344 0.212365 0.490615
O O16 0.611281 0.350132 0.647499
O O17 0.500000 0.000000 0.500000
#
# Coordination Sequence:
#
# PCOD9016948 Si02
#       8
#     2   2   2   2   2   2   2   2
#     4  10  24  45  74 102 132 183 237 280 335 408
#     4  12  25  42  67 104 136 178 225 279 348 410
#     4  12  23  42  66 102 142 176 225 281 341 413
#     4  11  23  40  68 101 136 184 219 284 349 400
#     4  10  22  45  66  98 139 174 236 281 332 416
#     4  10  21  42  70 103 132 184 229 282 339 404
#     4  12  24  45  74 101 136 184 224 281 349 399
#     4  11  19  37  66  98 139 174 225 274 340 414
#
# _framework density 25.180259
#
# number of rings (size 3 to 8) (size 9 to 14) (size 15 to 20)
#    0.000    1.000    3.750    4.125    1.750    3.500 
#    4.500    0.625    0.000    0.000    0.000    0.000 
#    0.000    0.000    0.000    0.000    0.000    0.000 
#
# Total GULP energy -89601.520706 kJ/mol
# GULP energy per Si atom -5600.095044 kJ/mol
# Density = 2.512295 g / cm^3
# Si number density = 25.180259 Si / 1000 Ang^3
#
#
#
# Elastic Constant Matrix: (Units=GPa)
#
#
# Indices 1 2 3 4 5 6 
#
# 1 216.6200 -42.1244 -16.0890 196.7661 61.2923 -12.1957
# 2 -42.1244 127.7598 82.5791 -95.7363 -33.7989 49.8287
# 3 -16.0890 82.5791 250.1868 -96.7117 -42.4567 42.4046
# 4 196.7661 -95.7363 -96.7117 291.2124 88.3610 -57.0248
# 5 61.2923 -33.7989 -42.4567 88.3610 76.7974 -8.0900
# 6 -12.1957 49.8287 42.4046 -57.0248 -8.0900 52.8357
#
#
#
# Elastic Compliance Matrix: (Units=1/GPa)
#
#
# Indices 1 2 3 4 5 6 
#
# 1 0.016371 0.000716 -0.002819 -0.013770 0.000543 -0.009413
# 2 0.000716 0.015164 -0.002329 0.000693 0.002850 -0.011082
# 3 -0.002819 -0.002329 0.005861 0.002635 0.001423 -0.000096
# 4 -0.013770 0.000693 0.002635 0.018595 -0.007273 0.013009
# 5 0.000543 0.002850 0.001423 -0.007273 0.022137 -0.008165
# 6 -0.009413 -0.011082 -0.000096 0.013009 -0.008165 0.040073
#
#
# Mechanical properties :
#
#
# Convention : Reuss Voigt Hill
#
# Bulk Modulus (GPa) = 35.04915 71.47757 53.26336
# Shear Modulus (GPa) = 36.60945 122.18249 79.39597
#
# Velocity S-wave (km/s) = 3.81713 6.97341 5.62134
# Velocity P-wave (km/s) = 5.77727 9.65846 7.95810
#
# Compressibility (1/GPa) = 0.02853136
#
# Stress axis : x y z
#
# Youngs Moduli (GPa) = 61.08492 65.94355 170.62314
#
# Poissons Ratio (x) = -0.04722 0.48098
# Poissons Ratio (y) = -0.04374 0.39745
# Poissons Ratio (z) = 0.17220 0.15361
#
# Static dielectric constant tensor:
#      x y z
#    x 2.058050 -0.005920 0.011460 
#    y -0.005920 2.053380 -0.032100 
#    z 0.011460 -0.032100 1.963200 
# 
# From -- ./inp_files/428571.got.cif
#   From: 2010.05.17/outbox.cif.g08.bks.cpg/sg2_215_cif.got.tgz:428571.got - 2010.06.03 11:33:40.
