data_PCOD9016897
_publ_section_title
;
Structure prediction by ZEFSAII (Michael W. Deem and Ramdas Pophale) SiO2 
 PCOD9016897
Probable space group: P -1
;
_chemical_formula_sum "Si O2"
_cell_formula_units_Z 16
_cell_length_a 8.864180
_cell_length_b 11.358111
_cell_length_c 15.605007
_cell_angle_alpha 102.201491
_cell_angle_beta 83.370007
_cell_angle_gamma 37.143549
_cell_volume 812.875849
_symmetry_space_group_name_H-M "P -1"
_symmetry_group_IT_number 2
_symmetry_cell_setting 'triclinic'
loop_
_space_group_symop_operation_xyz
x,y,z
-x,-y,-z
loop_
_atom_site_type_symbol
_atom_site_label
_atom_site_fract_x
_atom_site_fract_y
_atom_site_fract_z
Si Si1 0.797639 0.606933 0.109413
Si Si2 0.243294 0.123453 0.179422
Si Si3 0.438415 0.626637 0.103969
Si Si4 0.802620 0.127122 0.447026
Si Si5 0.704025 0.410876 0.366934
Si Si6 0.742425 0.622272 0.827704
Si Si7 0.769888 0.353864 0.705214
Si Si8 0.212245 0.937612 0.033223
O O1 0.704071 0.531639 0.096251
O O2 0.965442 0.536440 0.170244
O O3 0.507029 0.875133 0.163445
O O4 0.000000 0.500000 0.000000
O O5 0.350969 0.187463 0.174553
O O6 0.960736 0.298117 0.280892
O O7 0.179694 0.098306 0.088977
O O8 0.342822 0.622677 0.193584
O O9 0.210273 0.870847 0.114772
O O10 0.500000 0.500000 0.000000
O O11 0.827769 0.222191 0.392318
O O12 0.476136 0.367142 0.534805
O O13 0.000000 0.000000 0.500000
O O14 0.928936 0.917909 0.369025
O O15 0.465431 0.517545 0.332970
O O16 0.787413 0.484891 0.737113
O O17 0.512504 0.735255 0.931804
O O18 0.000000 0.000000 0.000000
#
# Coordination Sequence:
#
# PCOD9016897 Si02
#       8
#     2   2   2   2   2   2   2   2
#     4  11  22  38  56  81 122 171 215 259 312 367
#     4  11  24  39  59  87 127 165 208 260 317 378
#     4  11  21  37  58  88 124 166 217 262 301 366
#     4   9  20  40  73  99 123 152 207 273 324 383
#     4  10  21  42  69  99 121 160 211 267 328 376
#     4  12  24  39  57  89 128 177 212 253 319 379
#     4  11  22  40  63  96 128 166 214 264 319 376
#     4  11  23  37  58  85 118 169 221 265 306 364
#
# _framework density 19.683204
#
# number of rings (size 3 to 8) (size 9 to 14) (size 15 to 20)
#    0.000    1.250    3.750    3.375    1.750    3.000 
#    0.000    0.625    0.000    7.500    0.000    0.000 
#    0.000    0.000    0.000    0.000    0.000    0.000 
#
# Total GULP energy -89178.374363 kJ/mol
# GULP energy per Si atom -5573.648398 kJ/mol
# Density = 1.963840 g / cm^3
# Si number density = 19.683204 Si / 1000 Ang^3
#
#
#
# Elastic Constant Matrix: (Units=GPa)
#
#
# Indices 1 2 3 4 5 6 
#
# 1 97.4240 14.5860 35.9264 13.2904 18.0082 1.0173
# 2 14.5860 85.4425 19.9052 -1.1008 3.5736 2.0417
# 3 35.9264 19.9052 91.3515 17.3495 5.8033 8.7629
# 4 13.2904 -1.1008 17.3495 35.7341 -1.1389 6.8828
# 5 18.0082 3.5736 5.8033 -1.1389 20.7986 7.5007
# 6 1.0173 2.0417 8.7629 6.8828 7.5007 34.2634
#
#
#
# Elastic Compliance Matrix: (Units=1/GPa)
#
#
# Indices 1 2 3 4 5 6 
#
# 1 0.015212 -0.001181 -0.004373 -0.004919 -0.013723 0.004729
# 2 -0.001181 0.012564 -0.002639 0.002191 -0.000117 -0.000453
# 3 -0.004373 -0.002639 0.014364 -0.004899 0.000901 -0.002600
# 4 -0.004919 0.002191 -0.004899 0.034068 0.009908 -0.007744
# 5 -0.013723 -0.000117 0.000901 0.009908 0.066147 -0.016287
# 6 0.004729 -0.000453 -0.002600 -0.007744 -0.016287 0.034858
#
#
# Mechanical properties :
#
#
# Convention : Reuss Voigt Hill
#
# Bulk Modulus (GPa) = 38.82575 46.11702 42.47138
# Shear Modulus (GPa) = 24.73021 31.74593 28.23807
#
# Velocity S-wave (km/s) = 3.54844 4.02038 3.79176
# Velocity P-wave (km/s) = 6.04621 6.71057 6.38703
#
# Compressibility (1/GPa) = 0.02575610
#
# Stress axis : x y z
#
# Youngs Moduli (GPa) = 65.73730 79.59285 69.61829
#
# Poissons Ratio (x) = 0.09396 0.30443
# Poissons Ratio (y) = 0.07761 0.18369
# Poissons Ratio (z) = 0.28746 0.21001
#
# Static dielectric constant tensor:
#      x y z
#    x 1.665120 -0.003050 0.050490 
#    y -0.003050 1.672540 0.067250 
#    z 0.050490 0.067250 1.683300 
# 
# From -- ./inp_files/500568.got.cif
#   From: 2010.05.17/outbox.cif.g08.bks.cpg/sg2_251_cif.got.tgz:500568.got - 2010.06.03 11:33:40.
