data_PCOD9016049
_publ_section_title
;
Structure prediction by ZEFSAII (Michael W. Deem and Ramdas Pophale) SiO2 
 PCOD9016049
Probable space group: P -1
;
_chemical_formula_sum "Si O2"
_cell_formula_units_Z 16
_cell_length_a 5.467124
_cell_length_b 9.122772
_cell_length_c 19.917745
_cell_angle_alpha 49.604176
_cell_angle_beta 65.526841
_cell_angle_gamma 81.188681
_cell_volume 678.997692
_symmetry_space_group_name_H-M "P -1"
_symmetry_group_IT_number 2
_symmetry_cell_setting 'triclinic'
loop_
_space_group_symop_operation_xyz
x,y,z
-x,-y,-z
loop_
_atom_site_type_symbol
_atom_site_label
_atom_site_fract_x
_atom_site_fract_y
_atom_site_fract_z
Si Si1 0.288390 0.965419 0.855439
Si Si2 0.319351 0.629936 0.058213
Si Si3 0.959407 0.664230 0.215080
Si Si4 0.265667 0.058466 0.608486
Si Si5 0.838980 0.220904 0.696588
Si Si6 0.869443 0.675323 0.933859
Si Si7 0.402523 0.405101 0.383711
Si Si8 0.814213 0.879910 0.614399
O O1 0.091659 0.866931 0.847659
O O2 0.189061 0.153730 0.841288
O O3 0.591408 0.040230 0.772462
O O4 0.257553 0.797442 0.964601
O O5 0.267847 0.416740 0.091586
O O6 0.150506 0.621070 0.146776
O O7 0.641265 0.698474 0.007586
O O8 0.717759 0.490128 0.311882
O O9 0.119807 0.737588 0.241908
O O10 0.371247 0.220815 0.491440
O O11 0.112312 0.174597 0.645523
O O12 0.530208 0.967295 0.628775
O O13 0.018277 0.906837 0.646810
O O14 0.741148 0.419672 0.622767
O O15 0.000000 0.500000 0.000000
O O16 0.275705 0.329835 0.348265
O O17 0.000000 0.000000 0.500000
#
# Coordination Sequence:
#
# PCOD9016049 Si02
#       8
#     2   2   2   2   2   2   2   2
#     4  10  22  42  63  91 131 169 220 275 334 411
#     4  10  21  42  66  93 124 174 214 282 333 403
#     4  11  25  40  64  96 133 171 225 271 342 406
#     4  11  25  45  75 100 140 185 230 285 344 405
#     4  11  26  41  64 102 134 179 227 278 341 413
#     4   9  20  39  66  91 123 163 224 268 340 395
#     4  10  24  44  66  98 137 177 225 283 339 411
#     4  10  23  45  74 102 133 184 235 283 346 406
#
# _framework density 23.564142
#
# number of rings (size 3 to 8) (size 9 to 14) (size 15 to 20)
#    0.000    1.750    0.000    3.000    8.750    7.500 
#    6.750    0.000    0.000    0.000    0.000    0.000 
#    0.000    0.000    0.000    0.000    0.000    0.000 
#
# Total GULP energy -89443.747511 kJ/mol
# GULP energy per Si atom -5590.234219 kJ/mol
# Density = 2.351051 g / cm^3
# Si number density = 23.564142 Si / 1000 Ang^3
#
#
#
# Elastic Constant Matrix: (Units=GPa)
#
#
# Indices 1 2 3 4 5 6 
#
# 1 120.9902 40.0550 39.5773 -4.1589 -35.4884 -9.2586
# 2 40.0550 109.7032 55.4069 3.5372 -25.7528 -12.6855
# 3 39.5773 55.4069 94.3649 -10.1814 -23.1633 -3.4415
# 4 -4.1589 3.5372 -10.1814 32.2625 1.0695 -19.9614
# 5 -35.4884 -25.7528 -23.1633 1.0695 37.5704 -2.8184
# 6 -9.2586 -12.6855 -3.4415 -19.9614 -2.8184 34.7924
#
#
#
# Elastic Compliance Matrix: (Units=1/GPa)
#
#
# Indices 1 2 3 4 5 6 
#
# 1 0.012994 -0.000743 -0.001431 0.005240 0.011255 0.006963
# 2 -0.000743 0.014721 -0.007044 -0.001665 0.005390 0.003954
# 3 -0.001431 -0.007044 0.017545 0.008455 0.004697 0.004018
# 4 0.005240 -0.001665 0.008455 0.055341 0.010010 0.034185
# 5 0.011255 0.005390 0.004697 0.010010 0.044663 0.014786
# 6 0.006963 0.003954 0.004018 0.034185 0.014786 0.053245
#
#
# Mechanical properties :
#
#
# Convention : Reuss Voigt Hill
#
# Bulk Modulus (GPa) = 37.28218 66.12631 51.70425
# Shear Modulus (GPa) = 22.13506 33.59300 27.86403
#
# Velocity S-wave (km/s) = 3.06821 3.77981 3.44245
# Velocity P-wave (km/s) = 5.32990 6.86822 6.14737
#
# Compressibility (1/GPa) = 0.02682247
#
# Stress axis : x y z
#
# Youngs Moduli (GPa) = 76.96145 67.93179 56.99536
#
# Poissons Ratio (x) = 0.05047 0.08158
# Poissons Ratio (y) = 0.05718 0.40149
# Poissons Ratio (z) = 0.11016 0.47852
#
# Static dielectric constant tensor:
#      x y z
#    x 2.049810 0.038640 0.072250 
#    y 0.038640 1.918320 -0.019440 
#    z 0.072250 -0.019440 1.869370 
# 
# From -- ./inp_files/582243.got.cif
#   From: 2010.05.17/outbox.cif.g08.bks.cpg/sg2_292_cif.got.tgz:582243.got - 2010.06.03 11:33:40.
