data_PCOD9016482
_publ_section_title
;
Structure prediction by ZEFSAII (Michael W. Deem and Ramdas Pophale) SiO2 
 PCOD9016482
Probable space group: P -1
;
_chemical_formula_sum "Si O2"
_cell_formula_units_Z 14
_cell_length_a 8.883155
_cell_length_b 5.311416
_cell_length_c 16.987848
_cell_angle_alpha 96.527869
_cell_angle_beta 53.230479
_cell_angle_gamma 98.749592
_cell_volume 634.328643
_symmetry_space_group_name_H-M "P -1"
_symmetry_group_IT_number 2
_symmetry_cell_setting 'triclinic'
loop_
_space_group_symop_operation_xyz
x,y,z
-x,-y,-z
loop_
_atom_site_type_symbol
_atom_site_label
_atom_site_fract_x
_atom_site_fract_y
_atom_site_fract_z
Si Si1 0.531651 0.327313 0.863639
Si Si2 0.292612 0.214532 0.070451
Si Si3 0.204333 0.023278 0.254535
Si Si4 0.964484 0.264008 0.062222
Si Si5 0.383997 0.457546 0.454355
Si Si6 0.438432 0.625152 0.768257
Si Si7 0.866764 0.072217 0.471713
O O1 0.584439 0.574673 0.908741
O O2 0.408012 0.391612 0.831071
O O3 0.724562 0.251043 0.763004
O O4 0.420728 0.133355 0.954339
O O5 0.207440 0.029989 0.158902
O O6 0.117758 0.318614 0.085202
O O7 0.374361 0.204922 0.250253
O O8 0.006601 0.072930 0.353562
O O9 0.751689 0.241362 0.161017
O O10 0.000000 0.500000 0.000000
O O11 0.000000 0.000000 0.000000
O O12 0.500000 0.500000 0.500000
O O13 0.516458 0.458714 0.336152
O O14 0.714190 0.828352 0.513549
O O15 0.235587 0.667310 0.490114
O O16 0.000000 0.000000 0.500000
#
# Coordination Sequence:
#
# PCOD9016482 Si02
#       7
#     2   2   2   2   2   2   2
#     4  10  21  42  68 101 137 182 240 288 349 422
#     4  10  23  40  65 101 140 180 236 286 348 420
#     4  11  24  40  74 100 137 186 242 294 354 418
#     4  12  27  45  68 103 144 188 231 284 357 436
#     4  12  29  50  75 110 150 189 243 314 373 431
#     4  11  25  44  72  99 143 190 233 291 368 421
#     4  12  26  49  77 105 142 190 255 301 358 438
#
# _framework density 22.070578999999999
#
# number of rings (size 3 to 8) (size 9 to 14) (size 15 to 20)
#    0.000    0.857    2.857    3.000    8.000    0.000 
#    0.000    0.000    0.000    0.000    0.000    0.000 
#    0.000    0.000    0.000    0.000    0.000    0.000 
#
# Total GULP energy -78116.074414 kJ/mol
# GULP energy per Si atom -5579.719601 kJ/mol
# Density = 2.202035 g / cm^3
# Si number density = 22.070579 Si / 1000 Ang^3
#
#
#
# Elastic Constant Matrix: (Units=GPa)
#
#
# Indices 1 2 3 4 5 6 
#
# 1 75.2373 2.9108 44.1720 -14.1125 26.5079 -24.9286
# 2 2.9108 87.5305 48.6885 10.8822 1.3546 -17.0991
# 3 44.1720 48.6885 183.5658 25.6589 -0.8401 -21.6382
# 4 -14.1125 10.8822 25.6589 33.2930 -7.7410 -8.0766
# 5 26.5079 1.3546 -0.8401 -7.7410 34.1089 0.7920
# 6 -24.9286 -17.0991 -21.6382 -8.0766 0.7920 35.6190
#
#
#
# Elastic Compliance Matrix: (Units=1/GPa)
#
#
# Indices 1 2 3 4 5 6 
#
# 1 0.058999 0.012820 -0.017419 0.036172 -0.039648 0.045948
# 2 0.012820 0.017002 -0.006808 0.006431 -0.009687 0.014672
# 3 -0.017419 -0.006808 0.012193 -0.014823 0.011014 -0.011658
# 4 0.036172 0.006431 -0.014823 0.058981 -0.016115 0.033130
# 5 -0.039648 -0.009687 0.011014 -0.016115 0.057840 -0.030647
# 6 0.045948 0.014672 -0.011658 0.033130 -0.030647 0.068387
#
#
# Mechanical properties :
#
#
# Convention : Reuss Voigt Hill
#
# Bulk Modulus (GPa) = 15.29528 59.76402 37.52965
# Shear Modulus (GPa) = 15.72274 37.30832 26.51553
#
# Velocity S-wave (km/s) = 2.67195 4.11592 3.46988
# Velocity P-wave (km/s) = 4.05762 7.05160 5.75280
#
# Compressibility (1/GPa) = 0.06537965
#
# Stress axis : x y z
#
# Youngs Moduli (GPa) = 16.94930 58.81744 82.01380
#
# Poissons Ratio (x) = -0.75402 1.42858
# Poissons Ratio (y) = -0.21728 0.55836
# Poissons Ratio (z) = 0.29524 0.40044
#
# Static dielectric constant tensor:
#      x y z
#    x 1.852410 -0.023850 -0.022390 
#    y -0.023850 1.906740 -0.023280 
#    z -0.022390 -0.023280 1.836640 
# 
# From -- ./inp_files/552526.got.cif
#   From: 2010.05.17/outbox.cif.g08.bks.cpg/sg2_277_cif.got.tgz:552526.got - 2010.06.03 11:33:40.
