data_PCOD9016554
_publ_section_title
;
Structure prediction by ZEFSAII (Michael W. Deem and Ramdas Pophale) SiO2 
 PCOD9016554
Probable space group: P -1
;
_chemical_formula_sum "Si O2"
_cell_formula_units_Z 16
_cell_length_a 21.076618
_cell_length_b 14.084874
_cell_length_c 9.378855
_cell_angle_alpha 57.829414
_cell_angle_beta 131.914806
_cell_angle_gamma 158.320092
_cell_volume 724.798376
_symmetry_space_group_name_H-M "P -1"
_symmetry_group_IT_number 2
_symmetry_cell_setting 'triclinic'
loop_
_space_group_symop_operation_xyz
x,y,z
-x,-y,-z
loop_
_atom_site_type_symbol
_atom_site_label
_atom_site_fract_x
_atom_site_fract_y
_atom_site_fract_z
Si Si1 0.614620 0.305052 0.089490
Si Si2 0.514561 0.798326 0.341578
Si Si3 0.967647 0.335806 0.526939
Si Si4 0.875235 0.764326 0.288562
Si Si5 0.706893 0.772931 0.176099
Si Si6 0.608073 0.138268 0.704737
Si Si7 0.681852 0.666995 0.545985
Si Si8 0.998147 0.296182 0.287261
O O1 0.683260 0.503237 0.108797
O O2 0.829182 0.491145 0.264993
O O3 0.450550 0.041000 0.149122
O O4 0.534204 0.223207 0.875651
O O5 0.485400 0.868411 0.344940
O O6 0.356244 0.510906 0.372270
O O7 0.749986 0.036456 0.505723
O O8 0.000000 0.500000 0.500000
O O9 0.946369 0.301268 0.350480
O O10 0.858995 0.863122 0.263408
O O11 0.891641 0.683875 0.494827
O O12 0.087283 0.022046 0.311008
O O13 0.668103 0.697756 0.342002
O O14 0.500000 0.500000 0.000000
O O15 0.808827 0.017832 0.136779
O O16 0.846208 0.448816 0.781332
O O17 0.500000 0.000000 0.500000
O O18 0.500000 0.500000 0.500000
#
# Coordination Sequence:
#
# PCOD9016554 Si02
#       8
#     2   2   2   2   2   2   2   2
#     4  11  25  42  71  98 135 181 227 272 345 405
#     4  12  25  43  70  95 138 176 224 279 338 403
#     4  11  22  43  68  96 136 177 222 282 341 399
#     4  10  21  42  68  92 134 177 222 274 342 397
#     4  11  24  43  68  99 136 177 226 281 342 407
#     4  12  21  42  70  99 129 176 226 276 338 405
#     4  11  24  44  68  99 133 175 225 281 340 404
#     4  10  21  42  68  96 131 175 223 278 339 401
#
# _framework density 22.075106000000002
#
# number of rings (size 3 to 8) (size 9 to 14) (size 15 to 20)
#    0.000    1.000    3.750    5.625    3.500    0.500 
#    6.750    0.625    0.000    0.000    0.000    0.000 
#    0.000    0.000    0.000    0.000    0.000    0.000 
#
# Total GULP energy -89503.406450 kJ/mol
# GULP energy per Si atom -5593.962903 kJ/mol
# Density = 2.202486 g / cm^3
# Si number density = 22.075106 Si / 1000 Ang^3
#
#
#
# Elastic Constant Matrix: (Units=GPa)
#
#
# Indices 1 2 3 4 5 6 
#
# 1 129.9954 46.6120 18.0515 16.4799 -24.9951 -5.1031
# 2 46.6120 188.1995 35.2176 9.9974 -15.5193 -6.2866
# 3 18.0515 35.2176 62.9329 15.7729 -16.8750 -7.1612
# 4 16.4799 9.9974 15.7729 22.7155 -1.2892 -4.6393
# 5 -24.9951 -15.5193 -16.8750 -1.2892 31.0957 7.3296
# 6 -5.1031 -6.2866 -7.1612 -4.6393 7.3296 40.4181
#
#
#
# Elastic Compliance Matrix: (Units=1/GPa)
#
#
# Indices 1 2 3 4 5 6 
#
# 1 0.010792 -0.001975 0.002349 -0.008310 0.008876 -0.001092
# 2 -0.001975 0.006353 -0.003247 0.000943 -0.000213 0.000310
# 3 0.002349 -0.003247 0.024694 -0.016706 0.013001 -0.000108
# 4 -0.008310 0.000943 -0.016706 0.061615 -0.014079 0.005763
# 5 0.008876 -0.000213 0.013001 -0.014079 0.047261 -0.006795
# 6 -0.001092 0.000310 -0.000108 0.005763 -0.006795 0.026526
#
#
# Mechanical properties :
#
#
# Convention : Reuss Voigt Hill
#
# Bulk Modulus (GPa) = 27.70711 64.54331 46.12521
# Shear Modulus (GPa) = 25.63854 37.59563 31.61709
#
# Velocity S-wave (km/s) = 3.41166 4.13131 3.78861
# Velocity P-wave (km/s) = 5.30074 7.21516 6.33073
#
# Compressibility (1/GPa) = 0.03609182
#
# Stress axis : x y z
#
# Youngs Moduli (GPa) = 92.66009 157.40497 40.49566
#
# Poissons Ratio (x) = 0.31095 -0.09510
# Poissons Ratio (y) = 0.18305 0.13148
# Poissons Ratio (z) = -0.21761 0.51105
#
# Static dielectric constant tensor:
#      x y z
#    x 1.845360 -0.014980 0.050770 
#    y -0.014980 1.823550 0.055110 
#    z 0.050770 0.055110 1.836630 
# 
# From -- ./inp_files/285173.got.cif
#   From: 2010.05.17/outbox.cif.g08.bks.cpg/sg2_143_cif.got.tgz:285173.got - 2010.06.03 11:33:40.
