data_PCOD9016285
_publ_section_title
;
Structure prediction by ZEFSAII (Michael W. Deem and Ramdas Pophale) SiO2 
 PCOD9016285
Probable space group: P -1
;
_chemical_formula_sum "Si O2"
_cell_formula_units_Z 10
_cell_length_a 5.542905
_cell_length_b 22.520700
_cell_length_c 5.366305
_cell_angle_alpha 111.225853
_cell_angle_beta 89.611237
_cell_angle_gamma 44.478437
_cell_volume 399.837766
_symmetry_space_group_name_H-M "P -1"
_symmetry_group_IT_number 2
_symmetry_cell_setting 'triclinic'
loop_
_space_group_symop_operation_xyz
x,y,z
-x,-y,-z
loop_
_atom_site_type_symbol
_atom_site_label
_atom_site_fract_x
_atom_site_fract_y
_atom_site_fract_z
Si Si1 0.095241 0.207166 0.575372
Si Si2 0.913402 0.384951 0.823549
Si Si3 0.406196 0.889668 0.068949
Si Si4 0.060200 0.564191 0.599471
Si Si5 0.070751 0.081352 0.543463
O O1 0.306354 0.166508 0.780942
O O2 0.927538 0.170323 0.524871
O O3 0.864332 0.319123 0.731625
O O4 0.369867 0.155184 0.255821
O O5 0.105929 0.370873 0.549566
O O6 0.500000 0.500000 0.000000
O O7 0.106893 0.372357 0.051448
O O8 0.159529 0.879850 0.141653
O O9 0.111010 0.008531 0.272323
O O10 0.500000 0.500000 0.500000
O O11 0.000000 0.500000 0.500000
O O12 0.500000 0.000000 0.500000
#
# Coordination Sequence:
#
# PCOD9016285 Si02
#       5
#     2   2   2   2   2
#     4  11  22  41  62  93 134 164 222 266 326 390
#     4  10  22  42  64  95 129 177 221 275 333 396
#     4  10  22  39  63  98 123 170 215 263 332 392
#     4  10  21  42  67  91 125 173 226 275 335 395
#     4   9  21  40  66  90 131 168 209 268 327 397
#
# _framework density 25.010141999999998
#
# number of rings (size 3 to 8) (size 9 to 14) (size 15 to 20)
#    0.000    2.000    0.000    2.400    0.000   10.400 
#   21.600    0.000    0.000    0.000    0.000    0.000 
#    0.000    0.000    0.000    0.000    0.000    0.000 
#
# Total GULP energy -55857.445132 kJ/mol
# GULP energy per Si atom -5585.744513 kJ/mol
# Density = 2.495322 g / cm^3
# Si number density = 25.010142 Si / 1000 Ang^3
#
#
#
# Elastic Constant Matrix: (Units=GPa)
#
#
# Indices 1 2 3 4 5 6 
#
# 1 91.1248 49.0728 36.3136 -0.7646 -4.2836 43.0676
# 2 49.0728 174.1768 83.3417 6.8387 7.4295 58.0720
# 3 36.3136 83.3417 149.7245 -23.0056 8.4376 18.9707
# 4 -0.7646 6.8387 -23.0056 56.0389 3.0561 13.3334
# 5 -4.2836 7.4295 8.4376 3.0561 24.4382 0.0258
# 6 43.0676 58.0720 18.9707 13.3334 0.0258 58.8694
#
#
#
# Elastic Compliance Matrix: (Units=1/GPa)
#
#
# Indices 1 2 3 4 5 6 
#
# 1 0.018458 0.000443 -0.002934 0.001981 0.003880 -0.013446
# 2 0.000443 0.011549 -0.005422 -0.001248 -0.001395 -0.009686
# 3 -0.002934 -0.005422 0.010921 0.004581 -0.003213 0.002940
# 4 0.001981 -0.001248 0.004581 0.021669 -0.003558 -0.006600
# 5 0.003880 -0.001395 -0.003213 -0.003558 0.043577 0.000359
# 6 -0.013446 -0.009686 0.002940 -0.006600 0.000359 0.036925
#
#
# Mechanical properties :
#
#
# Convention : Reuss Voigt Hill
#
# Bulk Modulus (GPa) = 39.83727 83.60915 61.72321
# Shear Modulus (GPa) = 29.88776 44.28917 37.08847
#
# Velocity S-wave (km/s) = 3.46066 4.21271 3.85507
# Velocity P-wave (km/s) = 5.65078 7.56077 6.67445
#
# Compressibility (1/GPa) = 0.02510212
#
# Stress axis : x y z
#
# Youngs Moduli (GPa) = 54.17604 86.59113 91.56705
#
# Poissons Ratio (x) = -0.03837 0.26867
# Poissons Ratio (y) = -0.02400 0.49646
# Poissons Ratio (z) = 0.15896 0.46948
#
# Static dielectric constant tensor:
#      x y z
#    x 2.021600 0.049060 0.137700 
#    y 0.049060 1.990580 -0.100790 
#    z 0.137700 -0.100790 1.988410 
# 
# From -- ./inp_files/2306.got.cif
#   From: 2010.05.17/outbox.cif.g08.bks.cpg/sg2_2_cif.got.tgz:2306.got - 2010.06.03 11:33:40.
