data_PCOD9016792
_publ_section_title
;
Structure prediction by ZEFSAII (Michael W. Deem and Ramdas Pophale) SiO2 
 PCOD9016792
Probable space group: P -1
;
_chemical_formula_sum "Si O2"
_cell_formula_units_Z 16
_cell_length_a 5.515729
_cell_length_b 13.703894
_cell_length_c 13.714390
_cell_angle_alpha 43.129210
_cell_angle_beta 105.508028
_cell_angle_gamma 93.441055
_cell_volume 668.368596
_symmetry_space_group_name_H-M "P -1"
_symmetry_group_IT_number 2
_symmetry_cell_setting 'triclinic'
loop_
_space_group_symop_operation_xyz
x,y,z
-x,-y,-z
loop_
_atom_site_type_symbol
_atom_site_label
_atom_site_fract_x
_atom_site_fract_y
_atom_site_fract_z
Si Si1 0.044847 0.175616 0.445042
Si Si2 0.514348 0.756520 0.348131
Si Si3 0.643430 0.505660 0.908941
Si Si4 0.760299 0.544924 0.688815
Si Si5 0.655535 0.055906 0.632359
Si Si6 0.864717 0.231824 0.869531
Si Si7 0.945201 0.757857 0.815419
Si Si8 0.228338 0.053055 0.877940
O O1 0.055186 0.343741 0.347448
O O2 0.348794 0.096615 0.545518
O O3 0.973870 0.170654 0.327246
O O4 0.833445 0.122500 0.527022
O O5 0.613548 0.614434 0.526076
O O6 0.323472 0.868492 0.315851
O O7 0.394194 0.726333 0.254495
O O8 0.734100 0.847142 0.281481
O O9 0.565581 0.543360 0.760329
O O10 0.793362 0.634823 0.854098
O O11 0.500000 0.500000 0.000000
O O12 0.809906 0.341647 0.036037
O O13 0.913896 0.381675 0.806698
O O14 0.762703 0.883353 0.764777
O O15 0.062609 0.152769 0.868137
O O16 0.849685 0.101258 0.037591
O O17 0.500000 0.000000 0.000000
#
# Coordination Sequence:
#
# PCOD9016792 Si02
#       8
#     2   2   2   2   2   2   2   2
#     4  10  24  43  66 102 135 173 232 287 337 413
#     4  10  23  40  65 101 135 172 230 282 334 410
#     4  10  24  42  64  97 138 181 233 286 337 417
#     4  10  23  44  64 100 132 180 228 280 346 405
#     4  11  24  41  70 101 137 177 228 284 346 404
#     4  10  21  42  69  92 140 176 223 277 347 406
#     4  10  23  41  65  95 132 182 230 279 349 402
#     4   9  21  41  61  96 127 172 225 280 328 405
#
# _framework density 23.938886
#
# number of rings (size 3 to 8) (size 9 to 14) (size 15 to 20)
#    0.000    2.000    0.000    1.125   10.500    4.500 
#    9.000    0.000    0.000    0.000    0.000    0.000 
#    0.000    0.000    0.000    0.000    0.000    0.000 
#
# Total GULP energy -89317.942978 kJ/mol
# GULP energy per Si atom -5582.371436 kJ/mol
# Density = 2.388440 g / cm^3
# Si number density = 23.938886 Si / 1000 Ang^3
#
#
#
# Elastic Constant Matrix: (Units=GPa)
#
#
# Indices 1 2 3 4 5 6 
#
# 1 86.5613 16.7981 49.4220 -6.4546 -21.0124 -15.5632
# 2 16.7981 88.7914 42.3108 -42.4635 -6.1120 -12.2013
# 3 49.4220 42.3108 136.3381 -14.7506 -15.7407 -13.3962
# 4 -6.4546 -42.4635 -14.7506 61.2742 -8.4773 8.6479
# 5 -21.0124 -6.1120 -15.7407 -8.4773 33.7200 8.4989
# 6 -15.5632 -12.2013 -13.3962 8.6479 8.4989 19.8591
#
#
#
# Elastic Compliance Matrix: (Units=1/GPa)
#
#
# Indices 1 2 3 4 5 6 
#
# 1 0.017315 0.001316 -0.004969 0.001521 0.007262 0.007256
# 2 0.001316 0.020292 -0.004479 0.013509 0.005207 0.002366
# 3 -0.004969 -0.004479 0.010539 -0.001115 0.000551 0.000712
# 4 0.001521 0.013509 -0.001115 0.028541 0.012308 -0.008956
# 5 0.007262 0.005207 0.000551 0.012308 0.042027 -0.014083
# 6 0.007256 0.002366 0.000712 -0.008956 -0.014083 0.067903
#
#
# Mechanical properties :
#
#
# Convention : Reuss Voigt Hill
#
# Bulk Modulus (GPa) = 31.36569 58.75028 45.05799
# Shear Modulus (GPa) = 23.41829 36.51465 29.96647
#
# Velocity S-wave (km/s) = 3.13110 3.90978 3.54190
# Velocity P-wave (km/s) = 5.11884 6.70648 5.96571
#
# Compressibility (1/GPa) = 0.03188197
#
# Stress axis : x y z
#
# Youngs Moduli (GPa) = 57.75312 49.28033 94.88397
#
# Poissons Ratio (x) = -0.06487 0.47150
# Poissons Ratio (y) = -0.07602 0.42501
# Poissons Ratio (z) = 0.28699 0.22074
#
# Static dielectric constant tensor:
#      x y z
#    x 2.009200 0.062760 0.035390 
#    y 0.062760 1.947190 0.055340 
#    z 0.035390 0.055340 1.966770 
# 
# From -- ./inp_files/484247.got.cif
#   From: 2010.05.17/outbox.cif.g08.bks.cpg/sg2_243_cif.got.tgz:484247.got - 2010.06.03 11:33:40.
