data_PCOD9016398
_publ_section_title
;
Structure prediction by ZEFSAII (Michael W. Deem and Ramdas Pophale) SiO2 
 PCOD9016398
Probable space group: P -1
;
_chemical_formula_sum "Si O2"
_cell_formula_units_Z 11
_cell_length_a 11.765408
_cell_length_b 6.914657
_cell_length_c 18.753326
_cell_angle_alpha 136.108806
_cell_angle_beta 153.073825
_cell_angle_gamma 39.138964
_cell_volume 433.816261
_symmetry_space_group_name_H-M "P -1"
_symmetry_group_IT_number 2
_symmetry_cell_setting 'triclinic'
loop_
_space_group_symop_operation_xyz
x,y,z
-x,-y,-z
loop_
_atom_site_type_symbol
_atom_site_label
_atom_site_fract_x
_atom_site_fract_y
_atom_site_fract_z
Si Si1 0.293190 0.072151 0.485670
Si Si2 0.803354 0.859708 0.988622
Si Si3 0.122216 0.240324 0.272820
Si Si4 0.500000 0.000000 0.000000
Si Si5 0.712462 0.428747 0.292527
Si Si6 0.793240 0.846378 0.325784
O O1 0.223841 0.084039 0.366554
O O2 0.339267 0.377649 0.612954
O O3 0.006875 0.127301 0.379094
O O4 0.578914 0.804340 0.601691
O O5 0.704442 0.009332 0.051422
O O6 0.516586 0.920875 0.805205
O O7 0.000000 0.500000 0.000000
O O8 0.965143 0.055801 0.100047
O O9 0.917979 0.595641 0.265006
O O10 0.511552 0.682189 0.887053
O O11 0.756097 0.648137 0.317031
O O12 0.000000 0.000000 0.500000
#
# Coordination Sequence:
#
# PCOD9016398 Si02
#       6
#     2   2   2   1   2   2
#     4   9  19  38  69  95 132 176 226 277 330 413
#     4  12  27  45  70 102 136 186 228 280 345 407
#     4  10  21  42  67  96 138 176 228 276 344 397
#     4  12  24  42  72  98 136 180 228 278 340 406
#     4  10  22  41  66 101 136 178 227 279 339 406
#     4  11  26  43  67  97 142 175 225 285 339 400
#
# _framework density 25.356356999999999
#
# number of rings (size 3 to 8) (size 9 to 14) (size 15 to 20)
#    0.000    1.455    3.636    1.636   15.273    0.000 
#    3.273    2.727    0.000    0.000    0.000    0.000 
#    0.000    0.000    0.000    0.000    0.000    0.000 
#
# Total GULP energy -61239.508606 kJ/mol
# GULP energy per Si atom -5567.228055 kJ/mol
# Density = 2.529864 g / cm^3
# Si number density = 25.356357 Si / 1000 Ang^3
#
#
#
# Elastic Constant Matrix: (Units=GPa)
#
#
# Indices 1 2 3 4 5 6 
#
# 1 56.2789 11.2066 6.2474 -0.5848 1.0934 2.7141
# 2 11.2066 134.8507 69.5664 -24.7234 15.2527 -6.0170
# 3 6.2474 69.5664 177.4159 11.7229 13.7871 18.2829
# 4 -0.5848 -24.7234 11.7229 57.3255 -7.4975 14.9885
# 5 1.0934 15.2527 13.7871 -7.4975 25.6372 11.8147
# 6 2.7141 -6.0170 18.2829 14.9885 11.8147 35.0376
#
#
#
# Elastic Compliance Matrix: (Units=1/GPa)
#
#
# Indices 1 2 3 4 5 6 
#
# 1 0.018203 -0.001856 0.000217 0.000128 0.001329 -0.002345
# 2 -0.001856 0.011604 -0.004832 0.004077 -0.005182 0.004661
# 3 0.000217 -0.004832 0.008141 -0.002887 -0.000685 -0.003629
# 4 0.000128 0.004077 -0.002887 0.024605 0.012024 -0.012383
# 5 0.001329 -0.005182 -0.000685 0.012024 0.057518 -0.025174
# 6 -0.002345 0.004661 -0.003629 -0.012383 -0.025174 0.045202
#
#
# Mechanical properties :
#
#
# Convention : Reuss Voigt Hill
#
# Bulk Modulus (GPa) = 39.99048 60.28735 50.13891
# Shear Modulus (GPa) = 26.80237 42.36840 34.58539
#
# Velocity S-wave (km/s) = 3.25472 4.09212 3.69721
# Velocity P-wave (km/s) = 5.47082 6.79374 6.16785
#
# Compressibility (1/GPa) = 0.02500595
#
# Stress axis : x y z
#
# Youngs Moduli (GPa) = 54.93674 86.17695 122.82953
#
# Poissons Ratio (x) = 0.15995 -0.02661
# Poissons Ratio (y) = 0.10196 0.59348
# Poissons Ratio (z) = -0.01190 0.41638
#
# Static dielectric constant tensor:
#      x y z
#    x 3.946290 0.279490 0.776900 
#    y 0.279490 2.069000 0.028270 
#    z 0.776900 0.028270 2.403520 
# 
# From -- ./inp_files/232359.got.cif
#   From: 2010.05.17/outbox.cif.g08.bks.cpg/sg2_117_cif.got.tgz:232359.got - 2010.06.03 11:33:40.
