data_PCOD9016290
_publ_section_title
;
Structure prediction by ZEFSAII (Michael W. Deem and Ramdas Pophale) SiO2 
 PCOD9016290
Probable space group: P -1
;
_chemical_formula_sum "Si O2"
_cell_formula_units_Z 16
_cell_length_a 10.305603
_cell_length_b 10.846355
_cell_length_c 17.322109
_cell_angle_alpha 110.447139
_cell_angle_beta 26.677010
_cell_angle_gamma 112.255078
_cell_volume 804.258315
_symmetry_space_group_name_H-M "P -1"
_symmetry_group_IT_number 2
_symmetry_cell_setting 'triclinic'
loop_
_space_group_symop_operation_xyz
x,y,z
-x,-y,-z
loop_
_atom_site_type_symbol
_atom_site_label
_atom_site_fract_x
_atom_site_fract_y
_atom_site_fract_z
Si Si1 0.001323 0.947247 0.401475
Si Si2 0.937117 0.414532 0.092180
Si Si3 0.102921 0.549275 0.190750
Si Si4 0.523910 0.812120 0.078981
Si Si5 0.569343 0.674553 0.554532
Si Si6 0.070416 0.719928 0.709901
Si Si7 0.611918 0.096752 0.533128
Si Si8 0.814889 0.859026 0.095133
O O1 0.323710 0.925621 0.198120
O O2 0.791968 0.805484 0.486007
O O3 0.000000 0.000000 0.500000
O O4 0.851974 0.035430 0.440917
O O5 0.601690 0.396559 0.296799
O O6 0.123444 0.490537 0.081091
O O7 0.000000 0.500000 0.000000
O O8 0.008754 0.264215 0.013682
O O9 0.331558 0.677033 0.120026
O O10 0.778143 0.587961 0.380160
O O11 0.106603 0.428708 0.222373
O O12 0.586880 0.811658 0.136881
O O13 0.842400 0.819745 0.872729
O O14 0.316768 0.719949 0.645110
O O15 0.237783 0.764227 0.552904
O O16 0.351331 0.114486 0.732873
O O17 0.500000 0.000000 0.500000
O O18 0.000000 0.000000 0.000000
#
# Coordination Sequence:
#
# PCOD9016290 Si02
#       8
#     2   2   2   2   2   2   2   2
#     4  11  23  42  64  96 133 172 219 273 345 396
#     4  11  24  40  69 103 134 170 234 284 325 403
#     4  10  23  42  69  93 136 177 218 273 350 397
#     4  11  23  43  69  93 133 180 220 275 345 409
#     4  10  21  42  67  91 131 181 217 268 335 405
#     4  11  21  40  67  95 127 172 223 270 333 403
#     4  12  25  42  68  96 132 174 231 278 327 413
#     4  12  25  43  70  99 135 185 226 273 343 414
#
# _framework density 19.894103999999999
#
# number of rings (size 3 to 8) (size 9 to 14) (size 15 to 20)
#    0.000    1.000    5.000    3.375    3.500    0.500 
#    2.250    0.625    0.000    0.000    0.000    0.000 
#    0.000    0.000    0.000    0.000    0.000    0.000 
#
# Total GULP energy -89332.410211 kJ/mol
# GULP energy per Si atom -5583.275638 kJ/mol
# Density = 1.984882 g / cm^3
# Si number density = 19.894104 Si / 1000 Ang^3
#
#
#
# Elastic Constant Matrix: (Units=GPa)
#
#
# Indices 1 2 3 4 5 6 
#
# 1 91.3233 45.6174 48.3428 2.1093 11.6561 -7.3675
# 2 45.6174 90.3239 42.3207 12.5459 16.6595 -10.5732
# 3 48.3428 42.3207 149.7736 14.6847 7.9788 -12.5458
# 4 2.1093 12.5459 14.6847 32.2126 -9.9822 5.8714
# 5 11.6561 16.6595 7.9788 -9.9822 42.3575 -3.3133
# 6 -7.3675 -10.5732 -12.5458 5.8714 -3.3133 34.0137
#
#
#
# Elastic Compliance Matrix: (Units=1/GPa)
#
#
# Indices 1 2 3 4 5 6 
#
# 1 0.016285 -0.006995 -0.003640 0.003331 -0.000306 -0.000594
# 2 -0.006995 0.018232 -0.001268 -0.008997 -0.006769 0.004578
# 3 -0.003640 -0.001268 0.008889 -0.004102 -0.000929 0.002714
# 4 0.003331 -0.008997 -0.004102 0.041822 0.012501 -0.009590
# 5 -0.000306 -0.006769 -0.000929 0.012501 0.029334 -0.001814
# 6 -0.000594 0.004578 0.002714 -0.009590 -0.001814 0.033174
#
#
# Mechanical properties :
#
#
# Convention : Reuss Voigt Hill
#
# Bulk Modulus (GPa) = 51.01776 67.10918 59.06347
# Shear Modulus (GPa) = 28.07796 34.72609 31.40203
#
# Velocity S-wave (km/s) = 3.76090 4.18251 3.97729
# Velocity P-wave (km/s) = 6.67529 7.55850 7.13058
#
# Compressibility (1/GPa) = 0.01960102
#
# Stress axis : x y z
#
# Youngs Moduli (GPa) = 61.40525 54.84794 112.50049
#
# Poissons Ratio (x) = 0.38366 0.40949
# Poissons Ratio (y) = 0.42953 0.14262
# Poissons Ratio (z) = 0.22351 0.06953
#
# Static dielectric constant tensor:
#      x y z
#    x 1.670930 0.001260 -0.016040 
#    y 0.001260 1.744760 0.022170 
#    z -0.016040 0.022170 1.733790 
# 
# From -- ./inp_files/185793.got.cif
#   From: 2010.05.17/outbox.cif.g08.bks.cpg/sg2_93_cif.got.tgz:185793.got - 2010.06.03 11:33:40.
