data_PCOD9016989
_publ_section_title
;
Structure prediction by ZEFSAII (Michael W. Deem and Ramdas Pophale) SiO2 
 PCOD9016989
Probable space group: P -1
;
_chemical_formula_sum "Si O2"
_cell_formula_units_Z 16
_cell_length_a 20.752148
_cell_length_b 9.934652
_cell_length_c 8.629204
_cell_angle_alpha 47.785495
_cell_angle_beta 40.503804
_cell_angle_gamma 31.741469
_cell_volume 606.221462
_symmetry_space_group_name_H-M "P -1"
_symmetry_group_IT_number 2
_symmetry_cell_setting 'triclinic'
loop_
_space_group_symop_operation_xyz
x,y,z
-x,-y,-z
loop_
_atom_site_type_symbol
_atom_site_label
_atom_site_fract_x
_atom_site_fract_y
_atom_site_fract_z
Si Si1 0.827917 0.988748 0.787702
Si Si2 0.402064 0.844069 0.165822
Si Si3 0.522607 0.648577 0.522445
Si Si4 0.043642 0.842175 0.274948
Si Si5 0.653707 0.570168 0.682341
Si Si6 0.218656 0.201939 0.698552
Si Si7 0.282000 0.361303 0.037310
Si Si8 0.991743 0.735650 0.138473
O O1 0.724445 0.050026 0.796582
O O2 0.028922 0.131889 0.458724
O O3 0.749915 0.270967 0.773049
O O4 0.840417 0.817101 0.024492
O O5 0.448295 0.602712 0.354343
O O6 0.528272 0.742311 0.901900
O O7 0.352413 0.081697 0.169376
O O8 0.583983 0.623991 0.599460
O O9 0.609208 0.650432 0.237662
O O10 0.359889 0.909530 0.623312
O O11 0.955618 0.868431 0.269997
O O12 0.199206 0.570582 0.162883
O O13 0.031841 0.072212 0.089727
O O14 0.737040 0.650371 0.464302
O O15 0.102912 0.312026 0.693830
O O16 0.155567 0.484214 0.052258
#
# Coordination Sequence:
#
# PCOD9016989 Si02
#       8
#     2   2   2   2   2   2   2   2
#     4  11  22  40  70 103 138 174 237 285 341 415
#     4  11  20  36  68 103 132 180 231 282 335 419
#     4  11  20  38  67 104 134 175 233 285 343 407
#     4   9  22  47  69  93 137 198 227 267 347 438
#     4  11  21  38  64 106 143 174 223 290 356 406
#     4  12  22  39  73 109 132 176 229 305 344 388
#     4  10  21  42  70  93 134 189 229 272 338 432
#     4   9  22  44  69  99 136 186 234 273 355 409
#
# _framework density 26.392994999999999
#
# number of rings (size 3 to 8) (size 9 to 14) (size 15 to 20)
#    0.750    0.750    3.750    3.375    0.000    1.000 
#    0.000   10.000    0.000    2.250    0.000    0.000 
#    0.000    0.000    0.000    0.000    0.000    0.000 
#
# Total GULP energy -89883.464077 kJ/mol
# GULP energy per Si atom -5617.716505 kJ/mol
# Density = 2.633292 g / cm^3
# Si number density = 26.392995 Si / 1000 Ang^3
#
#
#
# Elastic Constant Matrix: (Units=GPa)
#
#
# Indices 1 2 3 4 5 6 
#
# 1 92.7497 37.5111 50.2575 -3.2716 -21.7770 -15.0937
# 2 37.5111 150.2703 63.2962 -9.7512 -5.5002 13.8006
# 3 50.2575 63.2962 183.9150 0.0759 6.6399 9.4165
# 4 -3.2716 -9.7512 0.0759 52.6767 5.2841 -6.9918
# 5 -21.7770 -5.5002 6.6399 5.2841 51.9759 0.7922
# 6 -15.0937 13.8006 9.4165 -6.9918 0.7922 35.1093
#
#
#
# Elastic Compliance Matrix: (Units=1/GPa)
#
#
# Indices 1 2 3 4 5 6 
#
# 1 0.018071 -0.003145 -0.004657 0.001158 0.007559 0.010314
# 2 -0.003145 0.008668 -0.001910 0.000891 -0.000185 -0.004066
# 3 -0.004657 -0.001910 0.007650 -0.000804 -0.002997 -0.003396
# 4 0.001158 0.000891 -0.000804 0.019943 -0.001412 0.004366
# 5 0.007559 -0.000185 -0.002997 -0.001412 0.022863 0.003329
# 6 0.010314 -0.004066 -0.003396 0.004366 0.003329 0.036220
#
#
# Mechanical properties :
#
#
# Convention : Reuss Voigt Hill
#
# Bulk Modulus (GPa) = 66.81814 81.00719 73.91266
# Shear Modulus (GPa) = 36.27737 46.34372 41.31055
#
# Velocity S-wave (km/s) = 3.71146 4.19490 3.96056
# Velocity P-wave (km/s) = 6.61348 7.36358 6.99859
#
# Compressibility (1/GPa) = 0.01496600
#
# Stress axis : x y z
#
# Youngs Moduli (GPa) = 55.33636 115.36147 130.72588
#
# Poissons Ratio (x) = 0.36278 0.60885
# Poissons Ratio (y) = 0.17402 0.24962
# Poissons Ratio (z) = 0.25773 0.22029
#
# Static dielectric constant tensor:
#      x y z
#    x 2.148450 -0.018650 0.004800 
#    y -0.018650 2.011310 -0.008490 
#    z 0.004800 -0.008490 1.958680 
# 
# From -- ./inp_files/474741.got.cif
#   From: 2010.05.17/outbox.cif.g08.bks.cpg/sg2_238_cif.got.tgz:474741.got - 2010.06.03 11:33:40.
