data_PCOD9016807
_publ_section_title
;
Structure prediction by ZEFSAII (Michael W. Deem and Ramdas Pophale) SiO2 
 PCOD9016807
Probable space group: P -1
;
_chemical_formula_sum "Si O2"
_cell_formula_units_Z 16
_cell_length_a 21.306666
_cell_length_b 5.446579
_cell_length_c 9.852597
_cell_angle_alpha 42.978929
_cell_angle_beta 56.722830
_cell_angle_gamma 76.837856
_cell_volume 620.653664
_symmetry_space_group_name_H-M "P -1"
_symmetry_group_IT_number 2
_symmetry_cell_setting 'triclinic'
loop_
_space_group_symop_operation_xyz
x,y,z
-x,-y,-z
loop_
_atom_site_type_symbol
_atom_site_label
_atom_site_fract_x
_atom_site_fract_y
_atom_site_fract_z
Si Si1 0.116325 0.091603 0.290777
Si Si2 0.497100 0.784069 0.266910
Si Si3 0.875387 0.740051 0.316209
Si Si4 0.584957 0.414237 0.105330
Si Si5 0.204425 0.263426 0.847512
Si Si6 0.643627 0.806241 0.421851
Si Si7 0.276223 0.140527 0.414440
Si Si8 0.969593 0.861354 0.391668
O O1 0.110316 0.275239 0.367928
O O2 0.112342 0.669448 0.514160
O O3 0.183861 0.223552 0.046268
O O4 0.040720 0.141385 0.277623
O O5 0.500000 0.500000 0.500000
O O6 0.547659 0.690910 0.120399
O O7 0.407481 0.616071 0.390346
O O8 0.532932 0.188960 0.131578
O O9 0.867652 0.875735 0.117686
O O10 0.792616 0.719831 0.494072
O O11 0.945610 0.995488 0.223270
O O12 0.595777 0.093097 0.324307
O O13 0.672052 0.628384 0.861086
O O14 0.273855 0.092655 0.796700
O O15 0.236159 0.708008 0.596966
O O16 0.663462 0.836284 0.543194
O O17 0.000000 0.500000 0.500000
#
# Coordination Sequence:
#
# PCOD9016807 Si02
#       8
#     2   2   2   2   2   2   2   2
#     4  10  21  42  69  94 126 177 213 277 330 398
#     4  10  23  44  71  99 129 178 231 281 344 402
#     4  10  22  43  61  95 135 169 220 276 329 406
#     4  11  25  44  72  95 135 181 224 288 341 399
#     4  11  25  40  65  96 136 171 227 271 337 403
#     4  10  24  43  65  95 132 171 225 276 333 407
#     4  11  26  40  63  98 131 177 220 272 334 406
#     4   9  20  40  68  95 127 165 224 265 335 398
#
# _framework density 25.779273
#
# number of rings (size 3 to 8) (size 9 to 14) (size 15 to 20)
#    0.000    1.750    0.000    3.000    8.750    7.500 
#    0.000    8.750    0.000    0.000    0.000    0.000 
#    0.000    0.000    0.000    0.000    0.000    0.000 
#
# Total GULP energy -89532.344544 kJ/mol
# GULP energy per Si atom -5595.771534 kJ/mol
# Density = 2.572060 g / cm^3
# Si number density = 25.779273 Si / 1000 Ang^3
#
#
#
# Elastic Constant Matrix: (Units=GPa)
#
#
# Indices 1 2 3 4 5 6 
#
# 1 118.3324 33.5784 -6.9584 0.9511 19.3854 1.9474
# 2 33.5784 107.0518 20.9937 23.1057 11.8447 -7.9359
# 3 -6.9584 20.9937 57.2413 7.0838 3.0110 -17.6479
# 4 0.9511 23.1057 7.0838 39.5238 -6.5185 -3.9845
# 5 19.3854 11.8447 3.0110 -6.5185 26.4014 8.4004
# 6 1.9474 -7.9359 -17.6479 -3.9845 8.4004 40.5835
#
#
#
# Elastic Compliance Matrix: (Units=1/GPa)
#
#
# Indices 1 2 3 4 5 6 
#
# 1 0.010716 -0.003019 0.003423 -0.000158 -0.007559 0.001933
# 2 -0.003019 0.013482 -0.003480 -0.007995 -0.005955 0.001716
# 3 0.003423 -0.003480 0.023095 -0.002366 -0.007518 0.010522
# 4 -0.000158 -0.007995 -0.002366 0.032275 0.012584 -0.002021
# 5 -0.007559 -0.005955 -0.007518 0.012584 0.054558 -0.014129
# 6 0.001933 0.001716 0.010522 -0.002021 -0.014129 0.032185
#
#
# Mechanical properties :
#
#
# Convention : Reuss Voigt Hill
#
# Bulk Modulus (GPa) = 24.30640 41.98365 33.14503
# Shear Modulus (GPa) = 26.85619 36.96919 31.91269
#
# Velocity S-wave (km/s) = 3.23116 3.79102 3.52223
# Velocity P-wave (km/s) = 4.83421 5.95681 5.42463
#
# Compressibility (1/GPa) = 0.04114143
#
# Stress axis : x y z
#
# Youngs Moduli (GPa) = 93.31444 74.17159 43.30003
#
# Poissons Ratio (x) = 0.22391 -0.14822
# Poissons Ratio (y) = 0.28170 0.15069
# Poissons Ratio (z) = -0.31942 0.25813
#
# Static dielectric constant tensor:
#      x y z
#    x 2.076130 0.057950 -0.037840 
#    y 0.057950 2.119860 -0.005140 
#    z -0.037840 -0.005140 2.019990 
# 
# From -- ./inp_files/340033.got.cif
#   From: 2010.05.17/outbox.cif.g08.bks.cpg/sg2_171_cif.got.tgz:340033.got - 2010.06.03 11:33:40.
