data_PCOD9016205
_publ_section_title
;
Structure prediction by ZEFSAII (Michael W. Deem and Ramdas Pophale) SiO2 
 PCOD9016205
Probable space group: P -1
;
_chemical_formula_sum "Si O2"
_cell_formula_units_Z 15
_cell_length_a 12.166669
_cell_length_b 11.547335
_cell_length_c 8.736626
_cell_angle_alpha 82.011186
_cell_angle_beta 129.457410
_cell_angle_gamma 63.490188
_cell_volume 670.882962
_symmetry_space_group_name_H-M "P -1"
_symmetry_group_IT_number 2
_symmetry_cell_setting 'triclinic'
loop_
_space_group_symop_operation_xyz
x,y,z
-x,-y,-z
loop_
_atom_site_type_symbol
_atom_site_label
_atom_site_fract_x
_atom_site_fract_y
_atom_site_fract_z
Si Si1 0.104430 0.675037 0.743943
Si Si2 0.581473 0.825115 0.642374
Si Si3 0.942724 0.749866 0.074444
Si Si4 0.167605 0.034681 0.350834
Si Si5 0.118950 0.809613 0.443182
Si Si6 0.693022 0.616910 0.479213
Si Si7 0.516542 0.483849 0.700378
Si Si8 0.000000 0.500000 0.500000
O O1 0.145036 0.759536 0.649748
O O2 0.897097 0.826809 0.615340
O O3 0.092129 0.563050 0.658791
O O4 0.282200 0.576952 0.042955
O O5 0.625483 0.737732 0.536757
O O6 0.500000 0.000000 0.500000
O O7 0.402186 0.874365 0.571411
O O8 0.779648 0.740771 0.927555
O O9 0.955273 0.812813 0.231851
O O10 0.147616 0.564001 0.270212
O O11 0.905574 0.870137 0.892693
O O12 0.068392 0.970654 0.325207
O O13 0.325745 0.657805 0.571365
O O14 0.512123 0.637253 0.262590
O O15 0.815884 0.599411 0.449813
O O16 0.500000 0.500000 0.500000
#
# Coordination Sequence:
#
# PCOD9016205 Si02
#       8
#     2   2   2   2   2   2   2   1
#     4  12  25  46  68 104 145 182 233 284 356 424
#     4  10  22  41  65 101 139 180 237 285 349 408
#     4  10  21  42  67 100 134 180 240 283 342 414
#     4  11  24  42  70  97 142 188 229 294 343 415
#     4  11  23  43  65 104 140 178 233 285 361 410
#     4  11  23  42  69 103 136 182 239 288 347 416
#     4  11  24  45  73 106 134 181 241 290 344 409
#     4  12  24  42  70  98 144 182 226 280 360 406
#
# _framework density 22.358594
#
# number of rings (size 3 to 8) (size 9 to 14) (size 15 to 20)
#    0.000    1.067    2.667    5.600    0.000    4.267 
#    0.000    0.667    0.000    0.000    0.000    0.000 
#    0.000    0.000    0.000    0.000    0.000    0.000 
#
# Total GULP energy -83506.064483 kJ/mol
# GULP energy per Si atom -5567.070966 kJ/mol
# Density = 2.230770 g / cm^3
# Si number density = 22.358594 Si / 1000 Ang^3
#
#
#
# Elastic Constant Matrix: (Units=GPa)
#
#
# Indices 1 2 3 4 5 6 
#
# 1 86.5307 26.6427 32.5657 14.4796 6.4024 -14.5511
# 2 26.6427 143.4861 56.0664 26.5569 20.8183 -9.9020
# 3 32.5657 56.0664 72.1601 22.1014 5.0556 -4.1147
# 4 14.4796 26.5569 22.1014 27.9550 7.8391 3.1388
# 5 6.4024 20.8183 5.0556 7.8391 36.0023 0.1233
# 6 -14.5511 -9.9020 -4.1147 3.1388 0.1233 42.7267
#
#
#
# Elastic Compliance Matrix: (Units=1/GPa)
#
#
# Indices 1 2 3 4 5 6 
#
# 1 0.015153 0.000776 -0.005764 -0.004198 -0.001437 0.005098
# 2 0.000776 0.011374 -0.007389 -0.004317 -0.004746 0.002520
# 3 -0.005764 -0.007389 0.025285 -0.011105 0.004167 -0.000437
# 4 -0.004198 -0.004317 -0.011105 0.053577 -0.006838 -0.007416
# 5 -0.001437 -0.004746 0.004167 -0.006838 0.031682 -0.000777
# 6 0.005098 0.002520 -0.000437 -0.007416 -0.000777 0.026230
#
#
# Mechanical properties :
#
#
# Convention : Reuss Voigt Hill
#
# Bulk Modulus (GPa) = 36.95852 59.19184 48.07518
# Shear Modulus (GPa) = 25.37107 33.79694 29.58401
#
# Velocity S-wave (km/s) = 3.37224 3.89213 3.64147
# Velocity P-wave (km/s) = 5.63280 6.83590 6.26331
#
# Compressibility (1/GPa) = 0.02705736
#
# Stress axis : x y z
#
# Youngs Moduli (GPa) = 65.99292 87.92018 39.54922
#
# Poissons Ratio (x) = -0.06823 0.22798
# Poissons Ratio (y) = -0.05122 0.29223
# Poissons Ratio (z) = 0.38041 0.64964
#
# Static dielectric constant tensor:
#      x y z
#    x 1.924370 0.021800 0.062660 
#    y 0.021800 1.824710 0.005020 
#    z 0.062660 0.005020 1.912280 
# 
# From -- ./inp_files/262610.got.cif
#   From: 2010.05.17/outbox.cif.g08.bks.cpg/sg2_132_cif.got.tgz:262610.got - 2010.06.03 11:33:40.
