data_PCOD9016765
_publ_section_title
;
Structure prediction by ZEFSAII (Michael W. Deem and Ramdas Pophale) SiO2 
 PCOD9016765
Probable space group: P -1
;
_chemical_formula_sum "Si O2"
_cell_formula_units_Z 13
_cell_length_a 8.672380
_cell_length_b 7.158641
_cell_length_c 11.876549
_cell_angle_alpha 48.400974
_cell_angle_beta 89.218755
_cell_angle_gamma 104.504278
_cell_volume 517.060244
_symmetry_space_group_name_H-M "P -1"
_symmetry_group_IT_number 2
_symmetry_cell_setting 'triclinic'
loop_
_space_group_symop_operation_xyz
x,y,z
-x,-y,-z
loop_
_atom_site_type_symbol
_atom_site_label
_atom_site_fract_x
_atom_site_fract_y
_atom_site_fract_z
Si Si1 0.198740 0.354286 0.752623
Si Si2 0.671703 0.106046 0.095284
Si Si3 0.548484 0.760108 0.644152
Si Si4 0.317316 0.659056 0.245721
Si Si5 0.862535 0.561921 0.048018
Si Si6 0.193827 0.983047 0.273579
Si Si7 0.000000 0.500000 0.500000
O O1 0.377614 0.513160 0.741635
O O2 0.086092 0.370954 0.851449
O O3 0.148917 0.487000 0.594439
O O4 0.210614 0.068766 0.839982
O O5 0.708484 0.296780 0.126020
O O6 0.485196 0.899215 0.181794
O O7 0.699290 0.280911 0.910167
O O8 0.661616 0.624654 0.628549
O O9 0.650370 0.868857 0.712454
O O10 0.500000 0.000000 0.500000
O O11 0.183845 0.710204 0.310754
O O12 0.824474 0.811018 0.898204
O O13 0.000000 0.500000 0.000000
O O14 0.035537 0.823478 0.409857
#
# Coordination Sequence:
#
# PCOD9016765 Si02
#       7
#     2   2   2   2   2   2   1
#     4  11  25  47  71 102 146 177 236 292 344 416
#     4  10  21  42  69 110 128 175 231 292 351 397
#     4  11  23  46  71 104 139 183 230 287 353 414
#     4  10  22  40  75 101 137 171 231 293 346 404
#     4  12  26  43  73 105 138 186 233 285 347 415
#     4  12  25  46  71 102 139 185 233 286 346 413
#     4  12  28  46  66  98 146 196 222 278 356 418
#
# _framework density 25.142140000000001
#
# number of rings (size 3 to 8) (size 9 to 14) (size 15 to 20)
#    0.000    0.923    4.615    1.846    2.154    3.077 
#    5.538    3.846    0.000    0.000    0.000    0.000 
#    0.000    0.000    0.000    0.000    0.000    0.000 
#
# Total GULP energy -72521.660053 kJ/mol
# GULP energy per Si atom -5578.589235 kJ/mol
# Density = 2.508492 g / cm^3
# Si number density = 25.142140 Si / 1000 Ang^3
#
#
#
# Elastic Constant Matrix: (Units=GPa)
#
#
# Indices 1 2 3 4 5 6 
#
# 1 72.6289 43.8631 -0.1877 15.2910 -3.7015 8.3661
# 2 43.8631 159.1696 59.2252 -6.4305 21.0425 -7.2162
# 3 -0.1877 59.2252 101.2045 4.5267 27.1139 -10.0856
# 4 15.2910 -6.4305 4.5267 43.4839 10.1342 7.4340
# 5 -3.7015 21.0425 27.1139 10.1342 32.6347 -6.1241
# 6 8.3661 -7.2162 -10.0856 7.4340 -6.1241 63.3588
#
#
#
# Elastic Compliance Matrix: (Units=1/GPa)
#
#
# Indices 1 2 3 4 5 6 
#
# 1 0.022242 -0.009066 0.003352 -0.011368 0.008880 -0.001244
# 2 -0.009066 0.011999 -0.005674 0.006946 -0.006161 0.000250
# 3 0.003352 -0.005674 0.015556 -0.001878 -0.008149 0.000820
# 4 -0.011368 0.006946 -0.001878 0.032221 -0.014818 -0.003220
# 5 0.008880 -0.006161 -0.008149 -0.014818 0.047588 0.003167
# 6 -0.001244 0.000250 0.000820 -0.003220 0.003167 0.016790
#
#
# Mechanical properties :
#
#
# Convention : Reuss Voigt Hill
#
# Bulk Modulus (GPa) = 37.00705 59.86713 48.43709
# Shear Modulus (GPa) = 28.06170 43.23564 35.64867
#
# Velocity S-wave (km/s) = 3.34447 4.15136 3.76957
# Velocity P-wave (km/s) = 5.44656 6.84409 6.18493
#
# Compressibility (1/GPa) = 0.02702188
#
# Stress axis : x y z
#
# Youngs Moduli (GPa) = 44.96016 83.34302 64.28240
#
# Poissons Ratio (x) = 0.75561 -0.21550
# Poissons Ratio (y) = 0.40762 0.36471
# Poissons Ratio (z) = -0.15072 0.47285
#
# Static dielectric constant tensor:
#      x y z
#    x 3.112640 -0.064740 -1.108090 
#    y -0.064740 2.007560 0.004340 
#    z -1.108090 0.004340 2.994850 
# 
# From -- ./inp_files/175081.got.cif
#   From: 2010.05.17/outbox.cif.g08.bks.cpg/sg2_88_cif.got.tgz:175081.got - 2010.06.03 11:33:40.
