data_PCOD9016500
_publ_section_title
;
Structure prediction by ZEFSAII (Michael W. Deem and Ramdas Pophale) SiO2 
 PCOD9016500
Probable space group: P -1
;
_chemical_formula_sum "Si O2"
_cell_formula_units_Z 16
_cell_length_a 8.124382
_cell_length_b 10.672897
_cell_length_c 16.948015
_cell_angle_alpha 135.227090
_cell_angle_beta 40.469054
_cell_angle_gamma 137.159337
_cell_volume 608.828153
_symmetry_space_group_name_H-M "P -1"
_symmetry_group_IT_number 2
_symmetry_cell_setting 'triclinic'
loop_
_space_group_symop_operation_xyz
x,y,z
-x,-y,-z
loop_
_atom_site_type_symbol
_atom_site_label
_atom_site_fract_x
_atom_site_fract_y
_atom_site_fract_z
Si Si1 0.807216 0.335782 0.558696
Si Si2 0.305678 0.299728 0.652193
Si Si3 0.439673 0.678144 0.199733
Si Si4 0.743080 0.719102 0.517658
Si Si5 0.547312 0.277732 0.157577
Si Si6 0.070733 0.328040 0.089599
Si Si7 0.265213 0.844258 0.113181
Si Si8 0.385454 0.958905 0.783035
O O1 0.529946 0.212493 0.552759
O O2 0.654289 0.400732 0.714113
O O3 0.000000 0.500000 0.500000
O O4 0.009336 0.265862 0.505937
O O5 0.180483 0.229067 0.579145
O O6 0.474300 0.537654 0.709677
O O7 0.047871 0.246118 0.781390
O O8 0.168757 0.540843 0.187017
O O9 0.539029 0.910789 0.264421
O O10 0.691946 0.661706 0.052975
O O11 0.500000 0.500000 0.500000
O O12 0.571471 0.838090 0.662404
O O13 0.801576 0.267918 0.108278
O O14 0.310075 0.054857 0.152432
O O15 0.655405 0.292460 0.035348
O O16 0.941485 0.172642 0.139324
O O17 0.480710 0.887727 0.126328
#
# Coordination Sequence:
#
# PCOD9016500 Si02
#       8
#     2   2   2   2   2   2   2   2
#     4  12  27  45  73 108 145 196 255 303 363 440
#     4  12  25  46  75 102 143 198 244 301 367 433
#     4  11  24  45  70 111 148 189 253 306 376 447
#     4  12  25  50  75 103 149 200 251 300 367 442
#     4  10  21  42  68 102 147 186 239 303 370 441
#     4  10  22  42  76 108 146 195 242 311 379 445
#     4  10  22  39  67 105 137 184 240 298 370 436
#     4  11  24  45  76 105 149 198 245 309 378 445
#
# _framework density 26.279990999999999
#
# number of rings (size 3 to 8) (size 9 to 14) (size 15 to 20)
#    0.000    1.000    1.250    6.000    0.000    4.000 
#    0.000   11.250    0.000    0.000    0.000    0.000 
#    0.000    0.000    0.000    0.000    0.000    0.000 
#
# Total GULP energy -89389.981036 kJ/mol
# GULP energy per Si atom -5586.873815 kJ/mol
# Density = 2.622018 g / cm^3
# Si number density = 26.279991 Si / 1000 Ang^3
#
#
#
# Elastic Constant Matrix: (Units=GPa)
#
#
# Indices 1 2 3 4 5 6 
#
# 1 110.4330 25.8036 53.6206 -8.8811 -0.1132 -3.8201
# 2 25.8036 115.5739 47.9931 -28.9686 6.0693 -4.8966
# 3 53.6206 47.9931 144.0957 -25.2605 14.9006 -6.9259
# 4 -8.8811 -28.9686 -25.2605 48.3136 1.2968 -1.0190
# 5 -0.1132 6.0693 14.9006 1.2968 40.4161 -8.6037
# 6 -3.8201 -4.8966 -6.9259 -1.0190 -8.6037 29.9993
#
#
#
# Elastic Compliance Matrix: (Units=1/GPa)
#
#
# Indices 1 2 3 4 5 6 
#
# 1 0.011281 -0.001056 -0.004137 -0.000756 0.001917 0.000833
# 2 -0.001056 0.011284 -0.002278 0.005426 -0.000789 0.001139
# 3 -0.004137 -0.002278 0.010199 0.003310 -0.003410 0.000591
# 4 -0.000756 0.005426 0.003310 0.025646 -0.002497 0.001709
# 5 0.001917 -0.000789 -0.003410 -0.002497 0.027736 0.007198
# 6 0.000833 0.001139 0.000591 0.001709 0.007198 0.035885
#
#
# Mechanical properties :
#
#
# Convention : Reuss Voigt Hill
#
# Bulk Modulus (GPa) = 56.10726 69.43744 62.77235
# Shear Modulus (GPa) = 34.98646 39.92482 37.45564
#
# Velocity S-wave (km/s) = 3.65265 3.90193 3.77935
# Velocity P-wave (km/s) = 6.25982 6.83956 6.55610
#
# Compressibility (1/GPa) = 0.01782300
#
# Stress axis : x y z
#
# Youngs Moduli (GPa) = 88.64839 88.62290 98.04635
#
# Poissons Ratio (x) = 0.09355 0.40560
# Poissons Ratio (y) = 0.09357 0.22334
# Poissons Ratio (z) = 0.36672 0.20187
#
# Static dielectric constant tensor:
#      x y z
#    x 2.160760 -0.154650 0.003170 
#    y -0.154650 2.195000 0.013960 
#    z 0.003170 0.013960 2.083130 
# 
# From -- ./inp_files/560002.got.cif
#   From: 2010.05.17/outbox.cif.g08.bks.cpg/sg2_281_cif.got.tgz:560002.got - 2010.06.03 11:33:40.
