data_PCOD9016063
_publ_section_title
;
Structure prediction by ZEFSAII (Michael W. Deem and Ramdas Pophale) SiO2 
 PCOD9016063
Probable space group: P -1
;
_chemical_formula_sum "Si O2"
_cell_formula_units_Z 16
_cell_length_a 24.626981
_cell_length_b 6.175076
_cell_length_c 13.673635
_cell_angle_alpha 49.128570
_cell_angle_beta 153.814203
_cell_angle_gamma 122.767167
_cell_volume 687.254916
_symmetry_space_group_name_H-M "P -1"
_symmetry_group_IT_number 2
_symmetry_cell_setting 'triclinic'
loop_
_space_group_symop_operation_xyz
x,y,z
-x,-y,-z
loop_
_atom_site_type_symbol
_atom_site_label
_atom_site_fract_x
_atom_site_fract_y
_atom_site_fract_z
Si Si1 0.066643 0.278344 0.027159
Si Si2 0.840587 0.902375 0.184482
Si Si3 0.549187 0.296728 0.044725
Si Si4 0.913032 0.873776 0.531955
Si Si5 0.613139 0.436322 0.432406
Si Si6 0.701475 0.551646 0.743463
Si Si7 0.364077 0.147678 0.271148
Si Si8 0.768373 0.869350 0.484640
O O1 0.978657 0.565864 0.768827
O O2 0.185310 0.270460 0.149813
O O3 0.121025 0.272321 0.225884
O O4 0.000000 0.000000 0.000000
O O5 0.979909 0.915801 0.364949
O O6 0.858120 0.834335 0.347270
O O7 0.769666 0.227512 0.962123
O O8 0.746162 0.743183 0.014504
O O9 0.689580 0.143354 0.330934
O O10 0.500000 0.500000 0.000000
O O11 0.522505 0.524774 0.845210
O O12 0.500000 0.000000 0.000000
O O13 0.810406 0.972495 0.418010
O O14 0.617806 0.588514 0.500028
O O15 0.675117 0.117034 0.649338
O O16 0.689272 0.600604 0.429360
O O17 0.626217 0.618386 0.700283
O O18 0.500000 0.000000 0.500000
#
# Coordination Sequence:
#
# PCOD9016063 Si02
#       8
#     2   2   2   2   2   2   2   2
#     4  10  22  36  61 100 129 173 225 283 350 425
#     4   9  22  45  63  92 137 174 228 291 337 428
#     4  10  23  41  65 102 145 186 224 287 356 427
#     4  10  21  42  66  93 136 183 225 283 358 413
#     4   9  22  41  64  92 136 172 221 288 340 425
#     4   9  21  41  65  92 128 174 223 284 344 410
#     4  11  24  40  67  95 126 181 231 286 350 416
#     4  10  22  39  66  98 132 185 222 285 360 425
#
# _framework density 23.281026000000001
#
# number of rings (size 3 to 8) (size 9 to 14) (size 15 to 20)
#    0.000    2.250    0.000    1.125    8.750    5.000 
#    6.750    1.875    0.000    0.000    0.000    0.000 
#    0.000    0.000    0.000    0.000    0.000    0.000 
#
# Total GULP energy -89072.569910 kJ/mol
# GULP energy per Si atom -5567.035619 kJ/mol
# Density = 2.322804 g / cm^3
# Si number density = 23.281026 Si / 1000 Ang^3
#
#
#
# Elastic Constant Matrix: (Units=GPa)
#
#
# Indices 1 2 3 4 5 6 
#
# 1 127.4930 35.3243 37.6823 -1.6161 -4.3755 -20.8459
# 2 35.3243 50.6637 17.7150 8.7074 1.5663 -6.4461
# 3 37.6823 17.7150 133.1044 5.5983 -34.2834 -9.0805
# 4 -1.6161 8.7074 5.5983 25.6353 -2.2641 -2.3062
# 5 -4.3755 1.5663 -34.2834 -2.2641 26.9389 -7.2850
# 6 -20.8459 -6.4461 -9.0805 -2.3062 -7.2850 24.9465
#
#
#
# Elastic Compliance Matrix: (Units=1/GPa)
#
#
# Indices 1 2 3 4 5 6 
#
# 1 0.012009 -0.007862 -0.000790 0.004834 0.004361 0.009436
# 2 -0.007862 0.028148 -0.004025 -0.010501 -0.010192 -0.004709
# 3 -0.000790 -0.004025 0.014316 0.000925 0.021037 0.009740
# 4 0.004834 -0.010501 0.000925 0.044171 0.008512 0.008232
# 5 0.004361 -0.010192 0.021037 0.008512 0.074337 0.031163
# 6 0.009436 -0.004709 0.009740 0.008232 0.031163 0.060161
#
#
# Mechanical properties :
#
#
# Convention : Reuss Voigt Hill
#
# Bulk Modulus (GPa) = 34.34174 54.74491 44.54333
# Shear Modulus (GPa) = 18.64268 30.20675 24.42472
#
# Velocity S-wave (km/s) = 2.83285 3.60597 3.24253
# Velocity P-wave (km/s) = 5.04807 6.39556 5.76135
#
# Compressibility (1/GPa) = 0.02911909
#
# Stress axis : x y z
#
# Youngs Moduli (GPa) = 83.26955 35.52670 69.85128
#
# Poissons Ratio (x) = 0.27931 0.05518
# Poissons Ratio (y) = 0.65466 0.28116
# Poissons Ratio (z) = 0.06577 0.14300
#
# Static dielectric constant tensor:
#      x y z
#    x 1.923410 -0.067280 -0.076630 
#    y -0.067280 1.814720 -0.235440 
#    z -0.076630 -0.235440 1.481470 
# 
# From -- ./inp_files/473375.got.cif
#   From: 2010.05.17/outbox.cif.g08.bks.cpg/sg2_237_cif.got.tgz:473375.got - 2010.06.03 11:33:40.
