data_PCOD9016764
_publ_section_title
;
Structure prediction by ZEFSAII (Michael W. Deem and Ramdas Pophale) SiO2 
 PCOD9016764
Probable space group: P -1
;
_chemical_formula_sum "Si O2"
_cell_formula_units_Z 16
_cell_length_a 14.803285
_cell_length_b 15.043399
_cell_length_c 8.613905
_cell_angle_alpha 54.574072
_cell_angle_beta 49.716003
_cell_angle_gamma 27.696163
_cell_volume 679.992720
_symmetry_space_group_name_H-M "P -1"
_symmetry_group_IT_number 2
_symmetry_cell_setting 'triclinic'
loop_
_space_group_symop_operation_xyz
x,y,z
-x,-y,-z
loop_
_atom_site_type_symbol
_atom_site_label
_atom_site_fract_x
_atom_site_fract_y
_atom_site_fract_z
Si Si1 0.956171 0.241316 0.476698
Si Si2 0.402203 0.936777 0.244074
Si Si3 0.830974 0.774267 0.276059
Si Si4 0.636855 0.843833 0.720019
Si Si5 0.856398 0.299754 0.163461
Si Si6 0.137957 0.441091 0.761498
Si Si7 0.900818 0.068226 0.871225
Si Si8 0.499125 0.728477 0.038296
O O1 0.909604 0.271651 0.313677
O O2 0.902349 0.406312 0.402080
O O3 0.847084 0.228969 0.704629
O O4 0.199480 0.037395 0.443074
O O5 0.622256 0.744760 0.267924
O O6 0.408211 0.871236 0.137085
O O7 0.357880 0.099296 0.175009
O O8 0.785627 0.794168 0.486896
O O9 0.900969 0.609983 0.284422
O O10 0.600364 0.965252 0.267991
O O11 0.985731 0.750032 0.069808
O O12 0.662861 0.694101 0.828884
O O13 0.629941 0.524045 0.156438
O O14 0.917303 0.129872 0.228189
O O15 0.000000 0.500000 0.000000
O O16 0.686023 0.164489 0.980205
O O17 0.000000 0.000000 0.000000
#
# Coordination Sequence:
#
# PCOD9016764 Si02
#       8
#     2   2   2   2   2   2   2   2
#     4  12  26  46  76 108 147 198 246 302 364 431
#     4  11  24  40  73 111 147 189 244 300 371 441
#     4  10  21  42  69 108 159 189 237 300 372 451
#     4  10  23  39  71 111 153 198 229 299 386 438
#     4  12  25  47  76 108 143 188 250 308 366 435
#     4  11  23  42  71 116 151 186 243 303 371 441
#     4  12  31  52  73 102 150 202 252 302 362 438
#     4  12  25  46  78 106 147 193 253 307 362 439
#
# _framework density 23.529662999999999
#
# number of rings (size 3 to 8) (size 9 to 14) (size 15 to 20)
#    0.000    0.750    5.000    0.750    7.000    4.500 
#    0.000    0.000    0.000    0.000    0.000    0.000 
#    0.000    0.000    0.000    0.000    0.000    0.000 
#
# Total GULP energy -89337.235785 kJ/mol
# GULP energy per Si atom -5583.577237 kJ/mol
# Density = 2.347611 g / cm^3
# Si number density = 23.529663 Si / 1000 Ang^3
#
#
#
# Elastic Constant Matrix: (Units=GPa)
#
#
# Indices 1 2 3 4 5 6 
#
# 1 129.2250 58.3341 34.8331 -3.2841 1.1512 -17.1298
# 2 58.3341 109.3816 34.5064 -24.8066 4.2148 -6.7791
# 3 34.8331 34.5064 100.6335 -10.4272 -8.7387 4.3431
# 4 -3.2841 -24.8066 -10.4272 33.2317 9.7523 -7.1570
# 5 1.1512 4.2148 -8.7387 9.7523 30.6465 -5.8311
# 6 -17.1298 -6.7791 4.3431 -7.1570 -5.8311 46.9288
#
#
#
# Elastic Compliance Matrix: (Units=1/GPa)
#
#
# Indices 1 2 3 4 5 6 
#
# 1 0.011415 -0.006156 -0.002245 -0.003987 0.001633 0.003080
# 2 -0.006156 0.016718 -0.002884 0.013316 -0.006820 0.001618
# 3 -0.002245 -0.002884 0.012092 -0.000044 0.003578 -0.001917
# 4 -0.003987 0.013316 -0.000044 0.045222 -0.015038 0.005500
# 5 0.001633 -0.006820 0.003578 -0.015038 0.039677 0.001916
# 6 0.003080 0.001618 -0.001917 0.005500 0.001916 0.023921
#
#
# Mechanical properties :
#
#
# Convention : Reuss Voigt Hill
#
# Bulk Modulus (GPa) = 56.63834 66.06527 61.35181
# Shear Modulus (GPa) = 28.16917 36.26584 32.21751
#
# Velocity S-wave (km/s) = 3.46378 3.93018 3.70432
# Velocity P-wave (km/s) = 6.33406 6.98093 6.66535
#
# Compressibility (1/GPa) = 0.01765588
#
# Stress axis : x y z
#
# Youngs Moduli (GPa) = 87.60685 59.81525 82.70036
#
# Poissons Ratio (x) = 0.36820 0.18563
# Poissons Ratio (y) = 0.53928 0.23852
# Poissons Ratio (z) = 0.19664 0.17251
#
# Static dielectric constant tensor:
#      x y z
#    x 1.903480 0.030650 -0.013360 
#    y 0.030650 1.950050 0.008270 
#    z -0.013360 0.008270 1.966700 
# 
# From -- ./inp_files/314591.got.cif
#   From: 2010.05.17/outbox.cif.g08.bks.cpg/sg2_158_cif.got.tgz:314591.got - 2010.06.03 11:33:40.
