data_PCOD9016843
_publ_section_title
;
Structure prediction by ZEFSAII (Michael W. Deem and Ramdas Pophale) SiO2 
 PCOD9016843
Probable space group: P -1
;
_chemical_formula_sum "Si O2"
_cell_formula_units_Z 16
_cell_length_a 10.808367
_cell_length_b 7.546515
_cell_length_c 13.781165
_cell_angle_alpha 64.545579
_cell_angle_beta 138.277073
_cell_angle_gamma 99.821384
_cell_volume 654.037154
_symmetry_space_group_name_H-M "P -1"
_symmetry_group_IT_number 2
_symmetry_cell_setting 'triclinic'
loop_
_space_group_symop_operation_xyz
x,y,z
-x,-y,-z
loop_
_atom_site_type_symbol
_atom_site_label
_atom_site_fract_x
_atom_site_fract_y
_atom_site_fract_z
Si Si1 0.831486 0.667877 0.268235
Si Si2 0.094324 0.725473 0.717149
Si Si3 0.247249 0.650316 0.443895
Si Si4 0.523773 0.169519 0.107405
Si Si5 0.307624 0.025267 0.315158
Si Si6 0.561925 0.630961 0.794839
Si Si7 0.271972 0.220288 0.599121
Si Si8 0.065227 0.650264 0.928885
O O1 0.847930 0.440241 0.294275
O O2 0.806268 0.690663 0.362700
O O3 0.025062 0.715992 0.330539
O O4 0.640696 0.799590 0.074858
O O5 0.264836 0.832906 0.808891
O O6 0.889688 0.864351 0.531215
O O7 0.059791 0.607268 0.821311
O O8 0.376977 0.667427 0.609796
O O9 0.298387 0.410636 0.508353
O O10 0.291676 0.794329 0.351318
O O11 0.475648 0.347423 0.117822
O O12 0.549443 0.961039 0.229900
O O13 0.338720 0.185888 0.215749
O O14 0.095235 0.138760 0.205073
O O15 0.500000 0.000000 0.500000
O O16 0.704291 0.412146 0.904470
O O17 0.000000 0.500000 0.000000
#
# Coordination Sequence:
#
# PCOD9016843 Si02
#       8
#     2   2   2   2   2   2   2   2
#     4  11  23  42  61  93 140 174 212 274 330 387
#     4  11  23  41  68  97 132 173 224 268 318 396
#     4  10  22  41  64  91 131 175 212 272 332 379
#     4  12  24  39  67 100 131 174 225 266 321 391
#     4   9  21  40  70  95 122 168 221 268 325 385
#     4  10  21  42  69  96 129 168 228 269 316 394
#     4  11  25  39  61  94 139 175 210 268 334 382
#     4  10  22  40  69 101 125 163 223 278 317 374
#
# _framework density 24.463443000000002
#
# number of rings (size 3 to 8) (size 9 to 14) (size 15 to 20)
#    0.000    1.500    1.250    4.125    7.000    1.000 
#    0.000    1.250    5.500    0.000    0.000    0.000 
#    0.000    0.000    0.000    0.000    0.000    0.000 
#
# Total GULP energy -89316.640993 kJ/mol
# GULP energy per Si atom -5582.290062 kJ/mol
# Density = 2.440776 g / cm^3
# Si number density = 24.463443 Si / 1000 Ang^3
#
#
#
# Elastic Constant Matrix: (Units=GPa)
#
#
# Indices 1 2 3 4 5 6 
#
# 1 65.1909 27.4539 26.4802 3.5912 3.6156 8.0885
# 2 27.4539 68.3364 35.1024 -8.9909 14.0052 23.8246
# 3 26.4802 35.1024 173.5624 -3.5102 12.0903 12.1947
# 4 3.5912 -8.9909 -3.5102 39.2109 -0.9921 0.8186
# 5 3.6156 14.0052 12.0903 -0.9921 21.0815 0.9127
# 6 8.0885 23.8246 12.1947 0.8186 0.9127 36.3876
#
#
#
# Elastic Compliance Matrix: (Units=1/GPa)
#
#
# Indices 1 2 3 4 5 6 
#
# 1 0.019534 -0.008901 -0.001627 -0.003937 0.003223 0.002039
# 2 -0.008901 0.029061 -0.002162 0.007229 -0.015502 -0.016098
# 3 -0.001627 -0.002162 0.006622 0.000202 -0.002056 -0.000395
# 4 -0.003937 0.007229 0.000202 0.027563 -0.002752 -0.004477
# 5 0.003223 -0.015502 -0.002056 -0.002752 0.057852 0.008733
# 6 0.002039 -0.016098 -0.000395 -0.004477 0.008733 0.037583
#
#
# Mechanical properties :
#
#
# Convention : Reuss Voigt Hill
#
# Bulk Modulus (GPa) = 33.51708 53.90695 43.71201
# Shear Modulus (GPa) = 23.41453 33.87288 28.64371
#
# Velocity S-wave (km/s) = 3.09710 3.72510 3.42552
# Velocity P-wave (km/s) = 5.14975 6.37067 5.79247
#
# Compressibility (1/GPa) = 0.02983554
#
# Stress axis : x y z
#
# Youngs Moduli (GPa) = 51.19189 34.41065 151.00587
#
# Poissons Ratio (x) = 0.30630 0.24576
# Poissons Ratio (y) = 0.45567 0.32651
# Poissons Ratio (z) = 0.08331 0.07440
#
# Static dielectric constant tensor:
#      x y z
#    x 1.987070 0.000780 0.052980 
#    y 0.000780 1.982290 -0.042120 
#    z 0.052980 -0.042120 1.951420 
# 
# From -- ./inp_files/515247.got.cif
#   From: 2010.05.17/outbox.cif.g08.bks.cpg/sg2_258_cif.got.tgz:515247.got - 2010.06.03 11:33:40.
