data_PCOD9016119
_publ_section_title
;
Structure prediction by ZEFSAII (Michael W. Deem and Ramdas Pophale) SiO2 
 PCOD9016119
Probable space group: P -1
;
_chemical_formula_sum "Si O2"
_cell_formula_units_Z 16
_cell_length_a 16.866245
_cell_length_b 10.850690
_cell_length_c 14.687288
_cell_angle_alpha 29.226579
_cell_angle_beta 146.921724
_cell_angle_gamma 130.174639
_cell_volume 677.849085
_symmetry_space_group_name_H-M "P -1"
_symmetry_group_IT_number 2
_symmetry_cell_setting 'triclinic'
loop_
_space_group_symop_operation_xyz
x,y,z
-x,-y,-z
loop_
_atom_site_type_symbol
_atom_site_label
_atom_site_fract_x
_atom_site_fract_y
_atom_site_fract_z
Si Si1 0.637986 0.760204 0.467002
Si Si2 0.157492 0.953563 0.443476
Si Si3 0.324122 0.128276 0.218292
Si Si4 0.716453 0.416128 0.484756
Si Si5 0.159832 0.694159 0.795501
Si Si6 0.929003 0.487550 0.796013
Si Si7 0.436641 0.651872 0.200852
Si Si8 0.656071 0.562378 0.135253
O O1 0.792363 0.604133 0.660686
O O2 0.502500 0.828421 0.217980
O O3 0.601823 0.565966 0.631627
O O4 0.684528 0.987586 0.416833
O O5 0.098584 0.868182 0.535668
O O6 0.203964 0.700926 0.586181
O O7 0.039844 0.210926 0.120111
O O8 0.500000 0.000000 0.500000
O O9 0.251383 0.893745 0.309864
O O10 0.245908 0.393548 0.031918
O O11 0.327236 0.212009 0.061835
O O12 0.856166 0.450362 0.653700
O O13 0.571415 0.501733 0.358141
O O14 0.670883 0.593409 0.236412
O O15 0.032388 0.672034 0.756554
O O16 0.286325 0.790036 0.907891
O O17 0.500000 0.500000 0.000000
#
# Coordination Sequence:
#
# PCOD9016119 Si02
#       8
#     2   2   2   2   2   2   2   2
#     4  10  23  43  68  92 127 171 217 266 320 374
#     4  11  24  41  66  94 131 171 210 260 326 379
#     4  11  21  38  65  96 129 166 205 261 322 377
#     4  11  23  41  66  97 131 167 211 265 322 373
#     4  11  23  40  67  95 128 167 217 261 320 385
#     4  11  25  44  65  93 133 172 213 263 317 384
#     4  10  21  42  66  96 125 162 220 270 311 379
#     4  11  23  38  65 101 128 163 215 261 318 384
#
# _framework density 23.604075000000002
#
# number of rings (size 3 to 8) (size 9 to 14) (size 15 to 20)
#    0.000    1.250    3.750    1.875    1.750    4.000 
#    0.000    2.500    0.000    0.000    0.000    0.000 
#    0.000    0.000    0.000    0.000    0.000    0.000 
#
# Total GULP energy -89668.172146 kJ/mol
# GULP energy per Si atom -5604.260759 kJ/mol
# Density = 2.355035 g / cm^3
# Si number density = 23.604075 Si / 1000 Ang^3
#
#
#
# Elastic Constant Matrix: (Units=GPa)
#
#
# Indices 1 2 3 4 5 6 
#
# 1 139.6782 16.7393 64.1760 -3.5280 -19.3344 -3.6979
# 2 16.7393 63.1090 41.2711 6.1795 4.5843 -11.3010
# 3 64.1760 41.2711 104.5293 15.0889 -23.0359 -2.0337
# 4 -3.5280 6.1795 15.0889 37.1170 -2.1563 -4.3209
# 5 -19.3344 4.5843 -23.0359 -2.1563 36.3597 4.3969
# 6 -3.6979 -11.3010 -2.0337 -4.3209 4.3969 30.6192
#
#
#
# Elastic Compliance Matrix: (Units=1/GPa)
#
#
# Indices 1 2 3 4 5 6 
#
# 1 0.010776 0.002352 -0.008032 0.004170 0.000329 0.002177
# 2 0.002352 0.028486 -0.015837 0.002529 -0.013684 0.012068
# 3 -0.008032 -0.015837 0.024888 -0.008404 0.014006 -0.008359
# 4 0.004170 0.002529 -0.008404 0.030849 -0.002268 0.005558
# 5 0.000329 -0.013684 0.014006 -0.002268 0.039358 -0.010052
# 6 0.002177 0.012068 -0.008359 0.005558 -0.010052 0.039049
#
#
# Mechanical properties :
#
#
# Convention : Reuss Voigt Hill
#
# Bulk Modulus (GPa) = 47.35675 61.29879 54.32777
# Shear Modulus (GPa) = 22.37363 33.16119 27.76741
#
# Velocity S-wave (km/s) = 3.08209 3.75226 3.43356
# Velocity P-wave (km/s) = 5.72470 6.69317 6.22779
#
# Compressibility (1/GPa) = 0.02111631
#
# Stress axis : x y z
#
# Youngs Moduli (GPa) = 92.79665 35.10513 40.18069
#
# Poissons Ratio (x) = -0.08256 0.32272
# Poissons Ratio (y) = -0.21823 0.63633
# Poissons Ratio (z) = 0.74531 0.55595
#
# Static dielectric constant tensor:
#      x y z
#    x 1.879540 -0.029150 0.003260 
#    y -0.029150 1.913030 0.005940 
#    z 0.003260 0.005940 1.863210 
# 
# From -- ./inp_files/538398.got.cif
#   From: 2010.05.17/outbox.cif.g08.bks.cpg/sg2_270_cif.got.tgz:538398.got - 2010.06.03 11:33:40.
