data_PCOD9016200
_publ_section_title
;
Structure prediction by ZEFSAII (Michael W. Deem and Ramdas Pophale) SiO2 
 PCOD9016200
Probable space group: P -1
;
_chemical_formula_sum "Si O2"
_cell_formula_units_Z 16
_cell_length_a 5.380832
_cell_length_b 26.719529
_cell_length_c 5.948997
_cell_angle_alpha 103.358506
_cell_angle_beta 104.980215
_cell_angle_gamma 51.171692
_cell_volume 640.954541
_symmetry_space_group_name_H-M "P -1"
_symmetry_group_IT_number 2
_symmetry_cell_setting 'triclinic'
loop_
_space_group_symop_operation_xyz
x,y,z
-x,-y,-z
loop_
_atom_site_type_symbol
_atom_site_label
_atom_site_fract_x
_atom_site_fract_y
_atom_site_fract_z
Si Si1 0.347751 0.504849 0.724690
Si Si2 0.284094 0.392947 0.517926
Si Si3 0.245628 0.931802 0.114174
Si Si4 0.789523 0.278926 0.241176
Si Si5 0.209293 0.060758 0.628148
Si Si6 0.677900 0.693096 0.199732
Si Si7 0.285293 0.215048 0.945720
Si Si8 0.163059 0.805045 0.485256
O O1 0.500000 0.500000 0.500000
O O2 0.302852 0.448760 0.664172
O O3 0.994378 0.573583 0.700469
O O4 0.500000 0.500000 0.000000
O O5 0.636963 0.335372 0.445955
O O6 0.178178 0.363320 0.646237
O O7 0.583586 0.922937 0.162096
O O8 0.376253 0.857169 0.033070
O O9 0.031550 0.947193 0.304621
O O10 0.000000 0.000000 0.000000
O O11 0.739590 0.229452 0.290150
O O12 0.567438 0.311551 0.006241
O O13 0.145692 0.231950 0.183389
O O14 0.991375 0.120946 0.474828
O O15 0.500000 0.000000 0.500000
O O16 0.828878 0.713133 0.077557
O O17 0.468601 0.761632 0.351786
O O18 0.090701 0.203421 0.704170
#
# Coordination Sequence:
#
# PCOD9016200 Si02
#       8
#     2   2   2   2   2   2   2   2
#     4  11  28  50  83 115 156 210 251 316 388 468
#     4  10  26  48  74 110 155 185 262 309 376 470
#     4  11  24  42  66  97 138 189 250 318 389 465
#     4  10  23  40  68 101 135 190 238 304 378 453
#     4  11  23  41  65  95 135 187 248 314 387 466
#     4  10  21  42  66  99 138 186 232 311 371 452
#     4  10  22  41  66  95 142 181 246 305 388 452
#     4   9  21  41  58  91 138 175 237 303 372 451
#
# _framework density 24.962769999999999
#
# number of rings (size 3 to 8) (size 9 to 14) (size 15 to 20)
#    0.000    1.750    1.250    0.750    5.250    8.000 
#    0.000    0.000    0.000    0.000    0.000    0.000 
#    0.000    0.000    0.000    0.000    0.000    0.000 
#
# Total GULP energy -89090.228124 kJ/mol
# GULP energy per Si atom -5568.139258 kJ/mol
# Density = 2.490595 g / cm^3
# Si number density = 24.962770 Si / 1000 Ang^3
#
#
#
# Elastic Constant Matrix: (Units=GPa)
#
#
# Indices 1 2 3 4 5 6 
#
# 1 63.9275 10.0321 22.6516 7.5339 -9.7685 5.6030
# 2 10.0321 172.2322 48.9654 -19.0159 -8.8387 9.8780
# 3 22.6516 48.9654 90.8147 -22.3483 8.6609 -3.4165
# 4 7.5339 -19.0159 -22.3483 35.1026 -15.0590 -3.9173
# 5 -9.7685 -8.8387 8.6609 -15.0590 42.4119 4.2864
# 6 5.6030 9.8780 -3.4165 -3.9173 4.2864 38.8939
#
#
#
# Elastic Compliance Matrix: (Units=1/GPa)
#
#
# Indices 1 2 3 4 5 6 
#
# 1 0.020370 0.000729 -0.007992 -0.007826 0.004210 -0.005074
# 2 0.000729 0.007550 -0.004044 0.002700 0.003780 -0.002522
# 3 -0.007992 -0.004044 0.018227 0.010304 -0.003270 0.005178
# 4 -0.007826 0.002700 0.010304 0.043719 0.011729 0.004458
# 5 0.004210 0.003780 -0.003270 0.011729 0.030577 -0.004042
# 6 -0.005074 -0.002522 0.005178 0.004458 -0.004042 0.028432
#
#
# Mechanical properties :
#
#
# Convention : Reuss Voigt Hill
#
# Bulk Modulus (GPa) = 42.49181 54.47476 48.48329
# Shear Modulus (GPa) = 27.88094 39.63670 33.75882
#
# Velocity S-wave (km/s) = 3.34563 3.98908 3.68144
# Velocity P-wave (km/s) = 5.65538 6.56406 6.12659
#
# Compressibility (1/GPa) = 0.02353395
#
# Stress axis : x y z
#
# Youngs Moduli (GPa) = 49.09079 132.45033 54.86220
#
# Poissons Ratio (x) = -0.09650 0.43845
# Poissons Ratio (y) = -0.03577 0.22184
# Poissons Ratio (z) = 0.39233 0.53558
#
# Static dielectric constant tensor:
#      x y z
#    x 2.127550 -0.009800 0.088150 
#    y -0.009800 1.953820 0.039840 
#    z 0.088150 0.039840 2.104040 
# 
# From -- ./inp_files/14625.got.cif
#   From: 2010.05.17/outbox.cif.g08.bks.cpg/sg2_8_cif.got.tgz:14625.got - 2010.06.03 11:33:40.
