data_PCOD9016123
_publ_section_title
;
Structure prediction by ZEFSAII (Michael W. Deem and Ramdas Pophale) SiO2 
 PCOD9016123
Probable space group: P -1
;
_chemical_formula_sum "Si O2"
_cell_formula_units_Z 12
_cell_length_a 9.231425
_cell_length_b 9.376626
_cell_length_c 11.497172
_cell_angle_alpha 106.515405
_cell_angle_beta 44.797148
_cell_angle_gamma 127.365221
_cell_volume 537.933585
_symmetry_space_group_name_H-M "P -1"
_symmetry_group_IT_number 2
_symmetry_cell_setting 'triclinic'
loop_
_space_group_symop_operation_xyz
x,y,z
-x,-y,-z
loop_
_atom_site_type_symbol
_atom_site_label
_atom_site_fract_x
_atom_site_fract_y
_atom_site_fract_z
Si Si1 0.125056 0.689643 0.405636
Si Si2 0.730801 0.976668 0.432286
Si Si3 0.187456 0.803250 0.765607
Si Si4 0.352841 0.587901 0.066678
Si Si5 0.795995 0.680002 0.392494
Si Si6 0.812901 0.295971 0.006091
O O1 0.214097 0.856385 0.480776
O O2 0.337355 0.702833 0.205029
O O3 0.000000 0.500000 0.500000
O O4 0.902936 0.663556 0.447185
O O5 0.833274 0.051689 0.260868
O O6 0.423657 0.826962 0.571424
O O7 0.824367 0.868834 0.413494
O O8 0.257215 0.830817 0.869138
O O9 0.932597 0.599663 0.838528
O O10 0.500000 0.500000 0.000000
O O11 0.402710 0.708317 0.948152
O O12 0.500000 0.500000 0.500000
O O13 0.999225 0.710162 0.188289
O O14 0.000000 0.500000 0.000000
#
# Coordination Sequence:
#
# PCOD9016123 Si02
#       6
#     2   2   2   2   2   2
#     4  11  23  42  66  95 132 168 218 271 323 386
#     4  11  23  43  67  97 131 169 223 269 320 390
#     4  10  22  43  64  92 135 167 218 265 322 383
#     4  10  21  42  66  96 129 171 216 267 328 387
#     4  11  24  42  71  95 129 172 220 267 331 387
#     4   9  20  41  63  94 127 168 215 262 321 386
#
# _framework density 22.307586000000001
#
# number of rings (size 3 to 8) (size 9 to 14) (size 15 to 20)
#    0.000    1.667    1.667    3.500    2.333    4.667 
#    6.000    1.667    0.000    0.000    0.000    0.000 
#    0.000    0.000    0.000    0.000    0.000    0.000 
#
# Total GULP energy -66928.598455 kJ/mol
# GULP energy per Si atom -5577.383205 kJ/mol
# Density = 2.225681 g / cm^3
# Si number density = 22.307586 Si / 1000 Ang^3
#
#
#
# Elastic Constant Matrix: (Units=GPa)
#
#
# Indices 1 2 3 4 5 6 
#
# 1 193.7103 84.2472 62.9217 13.0215 29.0623 -37.0611
# 2 84.2472 117.5093 37.1266 13.8463 1.5388 -32.0153
# 3 62.9217 37.1266 51.2147 -5.5049 18.3745 -10.2359
# 4 13.0215 13.8463 -5.5049 32.7785 -10.3365 -0.8360
# 5 29.0623 1.5388 18.3745 -10.3365 39.4618 -7.5423
# 6 -37.0611 -32.0153 -10.2359 -0.8360 -7.5423 39.5868
#
#
#
# Elastic Compliance Matrix: (Units=1/GPa)
#
#
# Indices 1 2 3 4 5 6 
#
# 1 0.012040 -0.003063 -0.010638 -0.006584 -0.004556 0.005037
# 2 -0.003063 0.016733 -0.009344 -0.005167 0.006389 0.009357
# 3 -0.010638 -0.009344 0.042641 0.011945 -0.010087 -0.008160
# 4 -0.006584 -0.005167 0.011945 0.040058 0.009087 -0.004677
# 5 -0.004556 0.006389 -0.010087 0.009087 0.036566 0.005452
# 6 0.005037 0.009357 -0.008160 -0.004677 0.005452 0.036374
#
#
# Mechanical properties :
#
#
# Convention : Reuss Voigt Hill
#
# Bulk Modulus (GPa) = 39.48970 81.22505 60.35737
# Shear Modulus (GPa) = 20.92556 34.24133 27.58345
#
# Velocity S-wave (km/s) = 3.06608 3.92211 3.52021
# Velocity P-wave (km/s) = 5.50229 7.54990 6.60592
#
# Compressibility (1/GPa) = 0.02532306
#
# Stress axis : x y z
#
# Youngs Moduli (GPa) = 83.05910 59.76300 23.45175
#
# Poissons Ratio (x) = 0.18306 0.24947
# Poissons Ratio (y) = 0.25442 0.21914
# Poissons Ratio (z) = 0.88355 0.55844
#
# Static dielectric constant tensor:
#      x y z
#    x 1.914740 -0.057810 0.012960 
#    y -0.057810 1.829970 -0.051760 
#    z 0.012960 -0.051760 1.744050 
# 
# From -- ./inp_files/155641.got.cif
#   From: 2010.05.17/outbox.cif.g08.bks.cpg/sg2_78_cif.got.tgz:155641.got - 2010.06.03 11:33:40.
