data_PCOD9016039
_publ_section_title
;
Structure prediction by ZEFSAII (Michael W. Deem and Ramdas Pophale) SiO2 
 PCOD9016039
Probable space group: P -1
;
_chemical_formula_sum "Si O2"
_cell_formula_units_Z 16
_cell_length_a 8.588298
_cell_length_b 12.506095
_cell_length_c 14.808617
_cell_angle_alpha 62.706420
_cell_angle_beta 39.231117
_cell_angle_gamma 83.726448
_cell_volume 803.829143
_symmetry_space_group_name_H-M "P -1"
_symmetry_group_IT_number 2
_symmetry_cell_setting 'triclinic'
loop_
_space_group_symop_operation_xyz
x,y,z
-x,-y,-z
loop_
_atom_site_type_symbol
_atom_site_label
_atom_site_fract_x
_atom_site_fract_y
_atom_site_fract_z
Si Si1 0.360081 0.877290 0.180211
Si Si2 0.761863 0.247064 0.008164
Si Si3 0.170559 0.188601 0.946050
Si Si4 0.581327 0.489722 0.690565
Si Si5 0.742899 0.356958 0.172424
Si Si6 0.915874 0.398615 0.700853
Si Si7 0.149160 0.036271 0.323749
Si Si8 0.806758 0.114336 0.309041
O O1 0.593461 0.861395 0.141938
O O2 0.211648 0.742396 0.241367
O O3 0.149720 0.908173 0.322744
O O4 0.500000 0.000000 0.000000
O O5 0.711485 0.296315 0.109534
O O6 0.468862 0.136396 0.150890
O O7 0.876000 0.363751 0.837290
O O8 0.985562 0.188623 0.944551
O O9 0.326373 0.344937 0.846222
O O10 0.956115 0.107022 0.152092
O O11 0.498365 0.608391 0.699726
O O12 0.746886 0.475102 0.708230
O O13 0.776198 0.520750 0.503917
O O14 0.789500 0.254583 0.256919
O O15 0.000000 0.500000 0.000000
O O16 0.995247 0.102001 0.307436
O O17 0.000000 0.000000 0.500000
O O18 0.500000 0.000000 0.500000
#
# Coordination Sequence:
#
# PCOD9016039 Si02
#       8
#     2   2   2   2   2   2   2   2
#     4  11  21  42  68  87 128 177 207 260 342 391
#     4  11  23  40  64  96 132 162 223 279 311 385
#     4  10  21  42  66  92 130 171 218 269 328 391
#     4  10  21  43  65  88 132 168 220 261 332 394
#     4  11  23  43  67  94 129 183 211 262 341 387
#     4  10  23  40  65  96 120 172 216 274 318 387
#     4  12  25  43  62  99 135 166 224 276 321 394
#     4  11  23  42  67  95 135 175 215 270 329 392
#
# _framework density 19.904730000000001
#
# number of rings (size 3 to 8) (size 9 to 14) (size 15 to 20)
#    0.000    1.250    5.000    2.250    3.500    1.500 
#    2.250    0.000    0.000    0.000    0.000    0.000 
#    0.000    0.000    0.000    0.000    0.000    0.000 
#
# Total GULP energy -89372.176357 kJ/mol
# GULP energy per Si atom -5585.761022 kJ/mol
# Density = 1.985943 g / cm^3
# Si number density = 19.904730 Si / 1000 Ang^3
#
#
#
# Elastic Constant Matrix: (Units=GPa)
#
#
# Indices 1 2 3 4 5 6 
#
# 1 128.2529 44.1758 39.7085 4.3261 5.9680 -34.4859
# 2 44.1758 99.1632 7.1488 2.7263 -1.3461 -36.6798
# 3 39.7085 7.1488 96.7469 -1.6944 -0.1888 -17.2664
# 4 4.3261 2.7263 -1.6944 28.4596 4.5444 -3.0440
# 5 5.9680 -1.3461 -0.1888 4.5444 33.5855 -9.1074
# 6 -34.4859 -36.6798 -17.2664 -3.0440 -9.1074 37.1425
#
#
#
# Elastic Compliance Matrix: (Units=1/GPa)
#
#
# Indices 1 2 3 4 5 6 
#
# 1 0.011487 -0.002424 -0.003383 -0.000974 -0.000247 0.006559
# 2 -0.002424 0.017738 0.002924 -0.000193 0.006093 0.018104
# 3 -0.003383 0.002924 0.012662 0.001291 0.002325 0.006309
# 4 -0.000974 -0.000193 0.001291 0.036226 -0.004347 0.001408
# 5 -0.000247 0.006093 0.002325 -0.004347 0.034740 0.015031
# 6 0.006559 0.018104 0.006309 0.001408 0.015031 0.057625
#
#
# Mechanical properties :
#
#
# Convention : Reuss Voigt Hill
#
# Bulk Modulus (GPa) = 27.68481 56.24769 41.96625
# Shear Modulus (GPa) = 26.55556 35.37951 30.96754
#
# Velocity S-wave (km/s) = 3.65654 4.22055 3.94863
# Velocity P-wave (km/s) = 5.63613 7.21599 6.47443
#
# Compressibility (1/GPa) = 0.03612089
#
# Stress axis : x y z
#
# Youngs Moduli (GPa) = 87.05222 56.37627 78.97868
#
# Poissons Ratio (x) = 0.13666 0.26716
# Poissons Ratio (y) = 0.21102 -0.23091
# Poissons Ratio (z) = 0.29447 -0.16483
#
# Static dielectric constant tensor:
#      x y z
#    x 1.710970 -0.021690 -0.014700 
#    y -0.021690 1.691220 0.014540 
#    z -0.014700 0.014540 1.694280 
# 
# From -- ./inp_files/498919.got.cif
#   From: 2010.05.17/outbox.cif.g08.bks.cpg/sg2_250_cif.got.tgz:498919.got - 2010.06.03 11:33:40.
