data_PCOD9016381
_publ_section_title
;
Structure prediction by ZEFSAII (Michael W. Deem and Ramdas Pophale) SiO2 
 PCOD9016381
Probable space group: P -1
;
_chemical_formula_sum "Si O2"
_cell_formula_units_Z 14
_cell_length_a 12.082579
_cell_length_b 11.102477
_cell_length_c 5.358759
_cell_angle_alpha 125.059202
_cell_angle_beta 101.633885
_cell_angle_gamma 74.895563
_cell_volume 566.869811
_symmetry_space_group_name_H-M "P -1"
_symmetry_group_IT_number 2
_symmetry_cell_setting 'triclinic'
loop_
_space_group_symop_operation_xyz
x,y,z
-x,-y,-z
loop_
_atom_site_type_symbol
_atom_site_label
_atom_site_fract_x
_atom_site_fract_y
_atom_site_fract_z
Si Si1 0.941367 0.176282 0.918305
Si Si2 0.821044 0.979327 0.906700
Si Si3 0.193128 0.519639 0.534175
Si Si4 0.315884 0.726608 0.577334
Si Si5 0.075481 0.347392 0.939644
Si Si6 0.301363 0.267635 0.618132
Si Si7 0.538488 0.329282 0.910486
O O1 0.857499 0.058872 0.767025
O O2 0.872887 0.334079 0.181568
O O3 0.059136 0.111996 0.043104
O O4 0.994803 0.223907 0.744036
O O5 0.724971 0.877425 0.710916
O O6 0.770126 0.119745 0.223270
O O7 0.247633 0.587148 0.398058
O O8 0.112340 0.401514 0.290348
O O9 0.288422 0.415655 0.616565
O O10 0.377286 0.737081 0.355602
O O11 0.400587 0.692314 0.816830
O O12 0.193756 0.296915 0.791927
O O13 0.000000 0.500000 0.000000
O O14 0.425954 0.252482 0.776647
O O15 0.500000 0.500000 0.000000
#
# Coordination Sequence:
#
# PCOD9016381 Si02
#       7
#     2   2   2   2   2   2   2
#     4  10  21  42  67  95 147 179 233 283 359 422
#     4  10  24  44  65 103 141 192 220 291 356 437
#     4  11  22  42  67 101 140 180 236 296 339 422
#     4  11  27  47  74 102 146 183 240 292 361 417
#     4  12  23  37  70 105 134 183 233 297 344 416
#     4  12  25  40  70 100 139 180 241 285 356 415
#     4  12  26  47  76 107 134 186 242 305 348 414
#
# _framework density 24.697029000000001
#
# number of rings (size 3 to 8) (size 9 to 14) (size 15 to 20)
#    0.000    0.857    4.286    2.571    2.000    2.857 
#    0.000    0.000    0.000    0.000    0.000    0.000 
#    0.000    0.000    0.000    0.000    0.000    0.000 
#
# Total GULP energy -78300.312680 kJ/mol
# GULP energy per Si atom -5592.879477 kJ/mol
# Density = 2.464082 g / cm^3
# Si number density = 24.697029 Si / 1000 Ang^3
#
#
#
# Elastic Constant Matrix: (Units=GPa)
#
#
# Indices 1 2 3 4 5 6 
#
# 1 125.5343 28.8516 16.0942 3.2966 6.8893 14.5503
# 2 28.8516 92.0612 24.1030 9.1686 15.0208 -1.2836
# 3 16.0942 24.1030 65.0785 12.6050 -4.3610 -6.7911
# 4 3.2966 9.1686 12.6050 38.7517 -2.9245 11.4750
# 5 6.8893 15.0208 -4.3610 -2.9245 43.5226 -12.1050
# 6 14.5503 -1.2836 -6.7911 11.4750 -12.1050 32.7601
#
#
#
# Elastic Compliance Matrix: (Units=1/GPa)
#
#
# Indices 1 2 3 4 5 6 
#
# 1 0.009748 -0.002140 -0.003027 0.002513 -0.002882 -0.006986
# 2 -0.002140 0.013767 -0.004673 -0.001710 -0.005221 -0.000809
# 3 -0.003027 -0.004673 0.021007 -0.008178 0.006663 0.010843
# 4 0.002513 -0.001710 -0.008178 0.033026 -0.002704 -0.015445
# 5 -0.002882 -0.005221 0.006663 -0.002704 0.029722 0.014386
# 6 -0.006986 -0.000809 0.010843 -0.015445 0.014386 0.046569
#
#
# Mechanical properties :
#
#
# Convention : Reuss Voigt Hill
#
# Bulk Modulus (GPa) = 40.25302 46.75240 43.50271
# Shear Modulus (GPa) = 27.50286 37.24856 32.37571
#
# Velocity S-wave (km/s) = 3.34070 3.88779 3.62458
# Velocity P-wave (km/s) = 5.58699 6.25498 5.93040
#
# Compressibility (1/GPa) = 0.02484286
#
# Stress axis : x y z
#
# Youngs Moduli (GPa) = 102.58835 72.63626 47.60264
#
# Poissons Ratio (x) = 0.15543 0.14409
# Poissons Ratio (y) = 0.21952 0.22244
# Poissons Ratio (z) = 0.31053 0.33942
#
# Static dielectric constant tensor:
#      x y z
#    x 2.052730 -0.063060 0.085410 
#    y -0.063060 2.073740 -0.129920 
#    z 0.085410 -0.129920 2.135560 
# 
# From -- ./inp_files/26967.got.cif
#   From: 2010.05.17/outbox.cif.g08.bks.cpg/sg2_14_cif.got.tgz:26967.got - 2010.06.03 11:33:40.
