data_PCOD9016146
_publ_section_title
;
Structure prediction by ZEFSAII (Michael W. Deem and Ramdas Pophale) SiO2 
 PCOD9016146
Probable space group: P -1
;
_chemical_formula_sum "Si O2"
_cell_formula_units_Z 12
_cell_length_a 4.974100
_cell_length_b 11.165465
_cell_length_c 15.925038
_cell_angle_alpha 38.814200
_cell_angle_beta 114.382673
_cell_angle_gamma 104.661135
_cell_volume 501.268623
_symmetry_space_group_name_H-M "P -1"
_symmetry_group_IT_number 2
_symmetry_cell_setting 'triclinic'
loop_
_space_group_symop_operation_xyz
x,y,z
-x,-y,-z
loop_
_atom_site_type_symbol
_atom_site_label
_atom_site_fract_x
_atom_site_fract_y
_atom_site_fract_z
Si Si1 0.573007 0.541510 0.187757
Si Si2 0.370960 0.145150 0.644541
Si Si3 0.194860 0.189988 0.164143
Si Si4 0.797571 0.386766 0.476086
Si Si5 0.775556 0.941391 0.933937
Si Si6 0.078810 0.582776 0.852933
O O1 0.238220 0.491656 0.168104
O O2 0.691582 0.507409 0.315122
O O3 0.758124 0.398421 0.223674
O O4 0.634320 0.752840 0.049335
O O5 0.021690 0.200780 0.576883
O O6 0.520902 0.318966 0.526969
O O7 0.508921 0.959291 0.709658
O O8 0.516371 0.101615 0.779710
O O9 0.056019 0.108291 0.106350
O O10 0.993971 0.236031 0.194070
O O11 0.249434 0.404312 0.025192
O O12 0.000000 0.500000 0.500000
O O13 0.000000 0.000000 0.000000
#
# Coordination Sequence:
#
# PCOD9016146 Si02
#       6
#     2   2   2   2   2   2
#     4  11  24  40  68  95 126 171 218 258 322 378
#     4  10  24  41  65  93 129 165 218 254 326 372
#     4   8  21  39  67  96 131 163 212 267 326 362
#     4  12  25  44  62  91 135 175 204 261 327 386
#     4   9  20  40  65  96 124 161 218 267 307 374
#     4  10  21  42  66  97 129 166 213 268 317 377
#
# _framework density 23.939261999999999
#
# number of rings (size 3 to 8) (size 9 to 14) (size 15 to 20)
#    1.000    1.000    0.000    2.500    2.333   10.000 
#    0.000   10.000    0.000    0.000    0.000    0.000 
#    0.000    0.000    0.000    0.000    0.000    0.000 
#
# Total GULP energy -67058.431791 kJ/mol
# GULP energy per Si atom -5588.202649 kJ/mol
# Density = 2.388477 g / cm^3
# Si number density = 23.939262 Si / 1000 Ang^3
#
#
#
# Elastic Constant Matrix: (Units=GPa)
#
#
# Indices 1 2 3 4 5 6 
#
# 1 112.1404 19.6947 19.2969 3.3460 -14.5727 4.7958
# 2 19.6947 85.0516 13.6505 9.7574 -9.1474 -6.8258
# 3 19.2969 13.6505 99.0654 25.7502 -21.3573 -3.1575
# 4 3.3460 9.7574 25.7502 36.1683 -7.7734 7.7338
# 5 -14.5727 -9.1474 -21.3573 -7.7734 23.5067 -8.2961
# 6 4.7958 -6.8258 -3.1575 7.7338 -8.2961 28.4383
#
#
#
# Elastic Compliance Matrix: (Units=1/GPa)
#
#
# Indices 1 2 3 4 5 6 
#
# 1 0.010061 -0.001981 -0.001247 0.001756 0.004381 -0.001510
# 2 -0.001981 0.013742 0.001198 -0.004513 0.006106 0.006774
# 3 -0.001247 0.001198 0.016367 -0.010799 0.014320 0.009429
# 4 0.001756 -0.004513 -0.010799 0.038812 -0.002541 -0.013875
# 5 0.004381 0.006106 0.014320 -0.002541 0.067851 0.022801
# 6 -0.001510 0.006774 0.009429 -0.013875 0.022801 0.048516
#
#
# Mechanical properties :
#
#
# Convention : Reuss Voigt Hill
#
# Bulk Modulus (GPa) = 27.69327 44.61575 36.15451
# Shear Modulus (GPa) = 23.64651 33.86368 28.75509
#
# Velocity S-wave (km/s) = 3.14629 3.76515 3.46955
# Velocity P-wave (km/s) = 4.97917 6.13020 5.58442
#
# Compressibility (1/GPa) = 0.03610986
#
# Stress axis : x y z
#
# Youngs Moduli (GPa) = 99.38933 72.76864 61.09882
#
# Poissons Ratio (x) = 0.14417 0.07618
# Poissons Ratio (y) = 0.19690 -0.07317
# Poissons Ratio (z) = 0.12392 -0.08715
#
# Static dielectric constant tensor:
#      x y z
#    x 1.945380 -0.010600 0.011090 
#    y -0.010600 1.974040 -0.064370 
#    z 0.011090 -0.064370 1.941360 
# 
# From -- ./inp_files/481437.got.cif
#   From: 2010.05.17/outbox.cif.g08.bks.cpg/sg2_241_cif.got.tgz:481437.got - 2010.06.03 11:33:40.
