data_PCOD9016018
_publ_section_title
;
Structure prediction by ZEFSAII (Michael W. Deem and Ramdas Pophale) SiO2 
 PCOD9016018
Probable space group: P -1
;
_chemical_formula_sum "Si O2"
_cell_formula_units_Z 16
_cell_length_a 11.820356
_cell_length_b 10.617715
_cell_length_c 14.740366
_cell_angle_alpha 149.178404
_cell_angle_beta 123.515737
_cell_angle_gamma 76.824385
_cell_volume 645.760904
_symmetry_space_group_name_H-M "P -1"
_symmetry_group_IT_number 2
_symmetry_cell_setting 'triclinic'
loop_
_space_group_symop_operation_xyz
x,y,z
-x,-y,-z
loop_
_atom_site_type_symbol
_atom_site_label
_atom_site_fract_x
_atom_site_fract_y
_atom_site_fract_z
Si Si1 0.534791 0.705151 0.424035
Si Si2 0.613064 0.693615 0.254065
Si Si3 0.142730 0.625415 0.015736
Si Si4 0.631584 0.388405 0.402510
Si Si5 0.266544 0.066742 0.097251
Si Si6 0.879279 0.588750 0.308841
Si Si7 0.138786 0.795127 0.687298
Si Si8 0.201461 0.613402 0.243120
O O1 0.512844 0.674559 0.286800
O O2 0.582227 0.494534 0.357612
O O3 0.369007 0.641903 0.354556
O O4 0.690870 0.045159 0.723229
O O5 0.724569 0.585035 0.270696
O O6 0.740461 0.044290 0.502655
O O7 0.500000 0.500000 0.000000
O O8 0.159431 0.547988 0.077376
O O9 0.120719 0.392393 0.787411
O O10 0.974047 0.610720 0.924851
O O11 0.458190 0.172136 0.245228
O O12 0.738770 0.686845 0.696668
O O13 0.728546 0.249200 0.327361
O O14 0.156359 0.736427 0.887980
O O15 0.215625 0.035084 0.949967
O O16 0.042016 0.830057 0.585795
O O17 0.000000 0.500000 0.500000
#
# Coordination Sequence:
#
# PCOD9016018 Si02
#       8
#     2   2   2   2   2   2   2   2
#     4  11  21  43  69  94 130 174 219 269 336 396
#     4  11  23  41  69  94 130 175 213 269 341 394
#     4  10  21  42  66  90 134 166 216 280 318 393
#     4  11  23  43  69  98 128 181 221 264 340 396
#     4  10  23  43  67  95 135 168 227 272 319 402
#     4  11  22  43  65  93 132 173 210 272 339 384
#     4  10  23  42  61  95 137 165 216 277 321 390
#     4  10  23  42  65  99 128 167 223 275 324 402
#
# _framework density 24.776972000000001
#
# number of rings (size 3 to 8) (size 9 to 14) (size 15 to 20)
#    0.000    1.500    1.250    4.875    0.000    4.500 
#   18.000    0.000    0.000    0.000    0.000    0.000 
#    0.000    0.000    0.000    0.000    0.000    0.000 
#
# Total GULP energy -89572.576848 kJ/mol
# GULP energy per Si atom -5598.286053 kJ/mol
# Density = 2.472058 g / cm^3
# Si number density = 24.776972 Si / 1000 Ang^3
#
#
#
# Elastic Constant Matrix: (Units=GPa)
#
#
# Indices 1 2 3 4 5 6 
#
# 1 106.4016 11.5146 35.6749 -11.6613 12.5075 0.1489
# 2 11.5146 52.1868 48.8590 -15.4341 0.0458 -2.2054
# 3 35.6749 48.8590 146.3916 -29.6850 -10.9408 5.5016
# 4 -11.6613 -15.4341 -29.6850 43.2549 8.8240 1.9294
# 5 12.5075 0.0458 -10.9408 8.8240 39.3916 -10.8986
# 6 0.1489 -2.2054 5.5016 1.9294 -10.8986 20.8430
#
#
#
# Elastic Compliance Matrix: (Units=1/GPa)
#
#
# Indices 1 2 3 4 5 6 
#
# 1 0.011197 0.000834 -0.002798 0.002646 -0.005597 -0.002425
# 2 0.000834 0.029311 -0.009393 0.004681 -0.002962 0.003592
# 3 -0.002798 -0.009393 0.011665 0.003527 0.002499 -0.003073
# 4 0.002646 0.004681 0.003527 0.030060 -0.008763 -0.007819
# 5 -0.005597 -0.002962 0.002499 -0.008763 0.034829 0.018090
# 6 -0.002425 0.003592 -0.003073 -0.007819 0.018090 0.059369
#
#
# Mechanical properties :
#
#
# Convention : Reuss Voigt Hill
#
# Bulk Modulus (GPa) = 33.94473 55.23080 44.58777
# Shear Modulus (GPa) = 23.92749 34.62666 29.27707
#
# Velocity S-wave (km/s) = 3.11097 3.74242 3.44121
# Velocity P-wave (km/s) = 5.16081 6.40420 5.81583
#
# Compressibility (1/GPa) = 0.02945966
#
# Stress axis : x y z
#
# Youngs Moduli (GPa) = 89.30577 34.11703 85.72546
#
# Poissons Ratio (x) = -0.02844 0.23982
# Poissons Ratio (y) = -0.07444 0.80522
# Poissons Ratio (z) = 0.24984 0.32046
#
# Static dielectric constant tensor:
#      x y z
#    x 1.945460 0.001790 0.009180 
#    y 0.001790 1.982610 -0.012220 
#    z 0.009180 -0.012220 1.963250 
# 
# From -- ./inp_files/519967.got.cif
#   From: 2010.05.17/outbox.cif.g08.bks.cpg/sg2_260_cif.got.tgz:519967.got - 2010.06.03 11:33:40.
