data_PCOD9016945
_publ_section_title
;
Structure prediction by ZEFSAII (Michael W. Deem and Ramdas Pophale) SiO2 
 PCOD9016945
Probable space group: P -1
;
_chemical_formula_sum "Si O2"
_cell_formula_units_Z 15
_cell_length_a 12.220971
_cell_length_b 12.127878
_cell_length_c 18.141514
_cell_angle_alpha 152.270328
_cell_angle_beta 31.051931
_cell_angle_gamma 139.017516
_cell_volume 645.279353
_symmetry_space_group_name_H-M "P -1"
_symmetry_group_IT_number 2
_symmetry_cell_setting 'triclinic'
loop_
_space_group_symop_operation_xyz
x,y,z
-x,-y,-z
loop_
_atom_site_type_symbol
_atom_site_label
_atom_site_fract_x
_atom_site_fract_y
_atom_site_fract_z
Si Si1 0.003246 0.825923 0.284837
Si Si2 0.500000 0.500000 0.000000
Si Si3 0.561924 0.725246 0.411861
Si Si4 0.927778 0.823701 0.738366
Si Si5 0.011743 0.649717 0.336453
Si Si6 0.342549 0.607259 0.321906
Si Si7 0.337251 0.794410 0.953344
Si Si8 0.860093 0.196459 0.236983
O O1 0.970958 0.675106 0.288023
O O2 0.792641 0.812103 0.349389
O O3 0.200843 0.734795 0.069291
O O4 0.044564 0.094973 0.445080
O O5 0.741146 0.410457 0.829001
O O6 0.553605 0.444430 0.846882
O O7 0.492809 0.728621 0.367995
O O8 0.558212 0.450266 0.276830
O O9 0.384246 0.866556 0.645398
O O10 0.737654 0.636597 0.738203
O O11 0.117822 0.751299 0.530661
O O12 0.036176 0.787866 0.733415
O O13 0.829749 0.081352 0.932664
O O14 0.883331 0.440084 0.324225
O O15 0.500000 0.000000 0.000000
O O16 0.000000 0.000000 0.000000
#
# Coordination Sequence:
#
# PCOD9016945 Si02
#       8
#     2   1   2   2   2   2   2   2
#     4  11  27  47  68 107 150 191 239 306 369 432
#     4  12  22  40  76 102 136 190 240 298 358 432
#     4  11  25  46  71 106 145 189 250 300 367 436
#     4  10  22  43  70 101 141 188 243 298 354 443
#     4  11  26  46  71 102 149 191 244 301 366 440
#     4  10  21  42  70 102 141 187 244 296 364 436
#     4  12  23  42  73 100 139 191 241 297 364 444
#     4  11  26  49  73 105 143 193 248 302 367 437
#
# _framework density 23.245747000000001
#
# number of rings (size 3 to 8) (size 9 to 14) (size 15 to 20)
#    0.000    1.067    2.667    2.800    5.600    0.533 
#    2.400    2.000    0.000    0.000    0.000    0.000 
#    0.000    0.000    0.000    0.000    0.000    0.000 
#
# Total GULP energy -83716.278354 kJ/mol
# GULP energy per Si atom -5581.085224 kJ/mol
# Density = 2.319284 g / cm^3
# Si number density = 23.245747 Si / 1000 Ang^3
#
#
#
# Elastic Constant Matrix: (Units=GPa)
#
#
# Indices 1 2 3 4 5 6 
#
# 1 100.9321 32.5539 10.4312 -17.9937 3.2163 -17.5184
# 2 32.5539 58.2455 18.8727 8.7523 -0.5181 -16.6651
# 3 10.4312 18.8727 123.7104 -26.3944 5.8631 -11.2296
# 4 -17.9937 8.7523 -26.3944 34.9642 -5.9829 -6.5841
# 5 3.2163 -0.5181 5.8631 -5.9829 28.5471 -3.6808
# 6 -17.5184 -16.6651 -11.2296 -6.5841 -3.6808 39.3275
#
#
#
# Elastic Compliance Matrix: (Units=1/GPa)
#
#
# Indices 1 2 3 4 5 6 
#
# 1 0.017372 -0.011662 0.004467 0.016779 0.001334 0.007006
# 2 -0.011662 0.029404 -0.007245 -0.018487 -0.000271 0.002076
# 3 0.004467 -0.007245 0.012307 0.014407 0.000488 0.004891
# 4 0.016779 -0.018487 0.014407 0.056851 0.008544 0.014072
# 5 0.001334 -0.000271 0.000488 0.008544 0.037279 0.005538
# 6 0.007006 0.002076 0.004891 0.014072 0.005538 0.033699
#
#
# Mechanical properties :
#
#
# Convention : Reuss Voigt Hill
#
# Bulk Modulus (GPa) = 33.10996 45.17816 39.14406
# Shear Modulus (GPa) = 22.13763 35.30311 28.72037
#
# Velocity S-wave (km/s) = 3.08933 3.90127 3.51880
# Velocity P-wave (km/s) = 5.19612 6.30638 5.77798
#
# Compressibility (1/GPa) = 0.03020240
#
# Stress axis : x y z
#
# Youngs Moduli (GPa) = 57.56364 34.00949 81.25542
#
# Poissons Ratio (x) = 0.39661 -0.36296
# Poissons Ratio (y) = 0.67128 0.58872
# Poissons Ratio (z) = -0.25713 0.24641
#
# Static dielectric constant tensor:
#      x y z
#    x 1.923910 0.013320 0.015630 
#    y 0.013320 1.889890 0.035910 
#    z 0.015630 0.035910 1.893790 
# 
# From -- ./inp_files/569232.got.cif
#   From: 2010.05.17/outbox.cif.g08.bks.cpg/sg2_285_cif.got.tgz:569232.got - 2010.06.03 11:33:40.
