data_PCOD9016683
_publ_section_title
;
Structure prediction by ZEFSAII (Michael W. Deem and Ramdas Pophale) SiO2 
 PCOD9016683
Probable space group: P -1
;
_chemical_formula_sum "Si O2"
_cell_formula_units_Z 16
_cell_length_a 14.998700
_cell_length_b 15.798149
_cell_length_c 8.589948
_cell_angle_alpha 91.456646
_cell_angle_beta 115.827387
_cell_angle_gamma 143.252564
_cell_volume 787.662503
_symmetry_space_group_name_H-M "P -1"
_symmetry_group_IT_number 2
_symmetry_cell_setting 'triclinic'
loop_
_space_group_symop_operation_xyz
x,y,z
-x,-y,-z
loop_
_atom_site_type_symbol
_atom_site_label
_atom_site_fract_x
_atom_site_fract_y
_atom_site_fract_z
Si Si1 0.810877 0.906579 0.445395
Si Si2 0.368037 0.833381 0.786943
Si Si3 0.999778 0.685580 0.516544
Si Si4 0.990059 0.779603 0.202920
Si Si5 0.564833 0.957914 0.611395
Si Si6 0.549640 0.454604 0.632544
Si Si7 0.587709 0.328748 0.421864
Si Si8 0.371203 0.110124 0.943888
O O1 0.657680 0.723521 0.416152
O O2 0.655857 0.837361 0.199265
O O3 0.917258 0.060224 0.647838
O O4 0.000000 0.000000 0.500000
O O5 0.131915 0.700120 0.572509
O O6 0.532929 0.949754 0.769476
O O7 0.390402 0.759556 0.882093
O O8 0.500000 0.000000 0.000000
O O9 0.920347 0.669336 0.295480
O O10 0.809326 0.517220 0.492343
O O11 0.171414 0.888269 0.736244
O O12 0.197501 0.890625 0.276317
O O13 0.783548 0.636166 0.919541
O O14 0.399445 0.746958 0.467145
O O15 0.500000 0.000000 0.500000
O O16 0.500000 0.500000 0.500000
O O17 0.554515 0.380786 0.512427
O O18 0.381870 0.156308 0.129534
#
# Coordination Sequence:
#
# PCOD9016683 Si02
#       8
#     2   2   2   2   2   2   2   2
#     4  11  26  48  74  98 131 185 236 287 356 406
#     4   9  19  35  67  97 130 176 223 266 334 399
#     4  10  21  42  68  99 132 183 226 276 335 410
#     4  11  25  47  71  99 146 180 230 288 345 413
#     4  11  22  44  69 100 144 186 221 283 343 414
#     4  12  30  45  68 103 138 178 235 296 350 407
#     4  11  25  42  68 100 139 175 233 279 344 408
#     4   9  22  41  69  94 134 173 227 280 332 410
#
# _framework density 20.313267
#
# number of rings (size 3 to 8) (size 9 to 14) (size 15 to 20)
#    0.000    1.500    2.500    0.750   10.500    3.000 
#    2.250    0.625    0.000    0.000    0.000    0.000 
#    0.000    0.000    0.000    0.000    0.000    0.000 
#
# Total GULP energy -89170.626526 kJ/mol
# GULP energy per Si atom -5573.164158 kJ/mol
# Density = 2.026703 g / cm^3
# Si number density = 20.313267 Si / 1000 Ang^3
#
#
#
# Elastic Constant Matrix: (Units=GPa)
#
#
# Indices 1 2 3 4 5 6 
#
# 1 139.2357 63.7300 61.3271 -5.4446 1.5362 4.7717
# 2 63.7300 166.7240 54.9499 -12.3843 33.4743 -4.6181
# 3 61.3271 54.9499 126.7356 -13.8844 4.6654 -10.7213
# 4 -5.4446 -12.3843 -13.8844 28.5345 -8.3849 8.5184
# 5 1.5362 33.4743 4.6654 -8.3849 27.5886 -2.5836
# 6 4.7717 -4.6181 -10.7213 8.5184 -2.5836 43.5628
#
#
#
# Elastic Compliance Matrix: (Units=1/GPa)
#
#
# Indices 1 2 3 4 5 6 
#
# 1 0.010631 -0.003737 -0.003826 0.000581 0.004547 -0.002346
# 2 -0.003737 0.010708 -0.002455 -0.001103 -0.012666 0.000405
# 3 -0.003826 -0.002455 0.011323 0.003788 0.002649 0.002362
# 4 0.000581 -0.001103 0.003788 0.042329 0.012897 -0.006761
# 5 0.004547 -0.012666 0.002649 0.012897 0.054791 -0.000461
# 6 -0.002346 0.000405 0.002362 -0.006761 -0.000461 0.025131
#
#
# Mechanical properties :
#
#
# Convention : Reuss Voigt Hill
#
# Bulk Modulus (GPa) = 79.19936 88.07881 83.63909
# Shear Modulus (GPa) = 27.90843 36.78308 32.34576
#
# Velocity S-wave (km/s) = 3.71064 4.25996 3.99475
# Velocity P-wave (km/s) = 7.57840 8.22500 7.90831
#
# Compressibility (1/GPa) = 0.01262636
#
# Stress axis : x y z
#
# Youngs Moduli (GPa) = 94.06617 93.38900 88.31304
#
# Poissons Ratio (x) = 0.34902 0.33789
# Poissons Ratio (y) = 0.35155 0.21677
# Poissons Ratio (z) = 0.35990 0.22923
#
# Static dielectric constant tensor:
#      x y z
#    x 1.737940 -0.031920 0.019790 
#    y -0.031920 1.775000 -0.012120 
#    z 0.019790 -0.012120 1.766060 
# 
# From -- ./inp_files/313426.got.cif
#   From: 2010.05.17/outbox.cif.g08.bks.cpg/sg2_157_cif.got.tgz:313426.got - 2010.06.03 11:33:40.
