data_PCOD9016521
_publ_section_title
;
Structure prediction by ZEFSAII (Michael W. Deem and Ramdas Pophale) SiO2 
 PCOD9016521
Probable space group: P -1
;
_chemical_formula_sum "Si O2"
_cell_formula_units_Z 14
_cell_length_a 8.716302
_cell_length_b 15.185866
_cell_length_c 9.269031
_cell_angle_alpha 120.601214
_cell_angle_beta 84.574958
_cell_angle_gamma 141.780204
_cell_volume 535.222699
_symmetry_space_group_name_H-M "P -1"
_symmetry_group_IT_number 2
_symmetry_cell_setting 'triclinic'
loop_
_space_group_symop_operation_xyz
x,y,z
-x,-y,-z
loop_
_atom_site_type_symbol
_atom_site_label
_atom_site_fract_x
_atom_site_fract_y
_atom_site_fract_z
Si Si1 0.859137 0.717000 0.115372
Si Si2 0.281101 0.680059 0.431586
Si Si3 0.324128 0.571527 0.606957
Si Si4 0.117313 0.247414 0.193244
Si Si5 0.225227 0.538171 0.034370
Si Si6 0.252851 0.039021 0.765254
Si Si7 0.500000 0.000000 0.500000
Si Si8 0.000000 0.000000 0.500000
O O1 0.500000 0.500000 0.000000
O O2 0.923733 0.754574 0.972806
O O3 0.964773 0.673419 0.149503
O O4 0.978154 0.884793 0.315229
O O5 0.394150 0.698748 0.587788
O O6 0.328767 0.614959 0.255475
O O7 0.932544 0.519117 0.348236
O O8 0.440831 0.868752 0.506645
O O9 0.172883 0.388575 0.383322
O O10 0.603895 0.672528 0.740614
O O11 0.839216 0.038515 0.129682
O O12 0.515163 0.733090 0.079046
O O13 0.000000 0.500000 0.000000
O O14 0.390969 0.020697 0.655907
O O15 0.977642 0.917835 0.587888
#
# Coordination Sequence:
#
# PCOD9016521 Si02
#       8
#     2   2   2   2   2   2   1   1
#     4  12  28  53  78 116 161 212 275 330 408 489
#     4  10  21  42  68 115 152 210 261 321 402 478
#     4  10  22  40  74 114 161 209 261 330 404 474
#     4  11  25  45  77 116 162 209 266 339 397 482
#     4  11  26  48  79 110 156 213 266 329 400 487
#     4  11  26  47  78 117 157 209 266 330 403 475
#     4  10  22  38  70 110 160 196 264 312 390 480
#     4  12  30  48  82 112 162 208 270 336 406 470
#
# _framework density 26.157335
#
# number of rings (size 3 to 8) (size 9 to 14) (size 15 to 20)
#    0.000    1.143    4.286    0.000   14.000    0.571 
#    0.000    0.714    0.000    0.000    0.000    0.000 
#    0.000    0.000    0.000    0.000    0.000    0.000 
#
# Total GULP energy -77971.277341 kJ/mol
# GULP energy per Si atom -5569.376953 kJ/mol
# Density = 2.609780 g / cm^3
# Si number density = 26.157335 Si / 1000 Ang^3
#
#
#
# Elastic Constant Matrix: (Units=GPa)
#
#
# Indices 1 2 3 4 5 6 
#
# 1 144.2461 50.0816 26.1693 8.9074 -23.6579 -18.2042
# 2 50.0816 196.3568 46.9835 -26.0044 -24.1992 -20.3731
# 3 26.1693 46.9835 93.7368 -16.1190 -44.2162 -14.2957
# 4 8.9074 -26.0044 -16.1190 34.3650 -7.6250 -5.7062
# 5 -23.6579 -24.1992 -44.2162 -7.6250 56.0252 4.9560
# 6 -18.2042 -20.3731 -14.2957 -5.7062 4.9560 54.2189
#
#
#
# Elastic Compliance Matrix: (Units=1/GPa)
#
#
# Indices 1 2 3 4 5 6 
#
# 1 0.008473 -0.002135 -0.001395 -0.004074 0.000897 0.001164
# 2 -0.002135 0.007191 -0.000068 0.007010 0.002889 0.002441
# 3 -0.001395 -0.000068 0.024897 0.017624 0.020897 0.006015
# 4 -0.004074 0.007010 0.017624 0.049963 0.021199 0.009233
# 5 0.000897 0.002889 0.020897 0.021199 0.038356 0.005622
# 6 0.001164 0.002441 0.006015 0.009233 0.005622 0.021796
#
#
# Mechanical properties :
#
#
# Convention : Reuss Voigt Hill
#
# Bulk Modulus (GPa) = 29.97248 75.64540 52.80894
# Shear Modulus (GPa) = 29.58694 49.66220 39.62457
#
# Velocity S-wave (km/s) = 3.36685 4.36201 3.89634
# Velocity P-wave (km/s) = 5.15729 7.37236 6.36197
#
# Compressibility (1/GPa) = 0.03336394
#
# Stress axis : x y z
#
# Youngs Moduli (GPa) = 118.02657 139.05710 40.16561
#
# Poissons Ratio (x) = 0.29695 0.05603
# Poissons Ratio (y) = 0.25204 0.00273
# Poissons Ratio (z) = 0.16465 0.00945
#
# Static dielectric constant tensor:
#      x y z
#    x 2.114740 -0.087760 -0.133230 
#    y -0.087760 1.976580 -0.018810 
#    z -0.133230 -0.018810 2.009130 
# 
# From -- ./inp_files/208694.got.cif
#   From: 2010.05.17/outbox.cif.g08.bks.cpg/sg2_105_cif.got.tgz:208694.got - 2010.06.03 11:33:40.
