data_PCOD9016784
_publ_section_title
;
Structure prediction by ZEFSAII (Michael W. Deem and Ramdas Pophale) SiO2 
 PCOD9016784
Probable space group: P -1
;
_chemical_formula_sum "Si O2"
_cell_formula_units_Z 16
_cell_length_a 17.752379
_cell_length_b 12.015167
_cell_length_c 21.635376
_cell_angle_alpha 41.944199
_cell_angle_beta 19.157832
_cell_angle_gamma 32.576665
_cell_volume 779.011382
_symmetry_space_group_name_H-M "P -1"
_symmetry_group_IT_number 2
_symmetry_cell_setting 'triclinic'
loop_
_space_group_symop_operation_xyz
x,y,z
-x,-y,-z
loop_
_atom_site_type_symbol
_atom_site_label
_atom_site_fract_x
_atom_site_fract_y
_atom_site_fract_z
Si Si1 0.178559 0.541273 0.120910
Si Si2 0.037576 0.526462 0.569864
Si Si3 0.663400 0.045645 0.904207
Si Si4 0.800748 0.415611 0.263278
Si Si5 0.549125 0.702980 0.772046
Si Si6 0.837885 0.172340 0.608006
Si Si7 0.201579 0.548598 0.894846
Si Si8 0.066085 0.139542 0.927796
O O1 0.966711 0.599117 0.318585
O O2 0.994840 0.677079 0.145767
O O3 0.413587 0.280403 0.033586
O O4 0.353405 0.629515 0.965031
O O5 0.759217 0.623070 0.701040
O O6 0.300183 0.401131 0.368194
O O7 0.036120 0.703373 0.531726
O O8 0.859654 0.075333 0.697067
O O9 0.905752 0.832501 0.845026
O O10 0.500000 0.000000 0.000000
O O11 0.500000 0.500000 0.500000
O O12 0.744912 0.434768 0.224970
O O13 0.925310 0.548342 0.119569
O O14 0.387386 0.954085 0.783590
O O15 0.494625 0.335455 0.786115
O O16 0.000000 0.000000 0.500000
O O17 0.142896 0.740034 0.901056
O O18 0.000000 0.000000 0.000000
#
# Coordination Sequence:
#
# PCOD9016784 Si02
#       8
#     2   2   2   2   2   2   2   2
#     4  11  22  42  66  96 133 176 226 275 342 398
#     4  11  24  41  66  98 132 174 230 279 331 408
#     4  12  22  42  68  99 137 176 221 276 337 406
#     4  11  26  45  69 102 135 178 226 276 344 409
#     4  10  23  44  64  95 137 174 228 283 334 398
#     4  12  23  41  68  98 134 179 223 274 342 404
#     4  11  24  46  67  97 141 173 223 284 335 406
#     4  10  21  42  69  92 132 183 221 275 340 393
#
# _framework density 20.538851999999999
#
# number of rings (size 3 to 8) (size 9 to 14) (size 15 to 20)
#    0.000    1.000    3.750    2.625    1.750    3.500 
#    0.000    0.000    0.000    0.000    0.000    0.000 
#    0.000    0.000    0.000    0.000    0.000    0.000 
#
# Total GULP energy -89223.910215 kJ/mol
# GULP energy per Si atom -5576.494388 kJ/mol
# Density = 2.049210 g / cm^3
# Si number density = 20.538852 Si / 1000 Ang^3
#
#
#
# Elastic Constant Matrix: (Units=GPa)
#
#
# Indices 1 2 3 4 5 6 
#
# 1 108.6596 33.6586 65.3443 16.2910 9.4485 -20.1825
# 2 33.6586 90.8355 29.3178 8.8249 0.5597 -12.3193
# 3 65.3443 29.3178 144.0646 18.7489 -12.3850 -49.9678
# 4 16.2910 8.8249 18.7489 64.9469 -17.2252 -29.8841
# 5 9.4485 0.5597 -12.3850 -17.2252 31.2027 8.8511
# 6 -20.1825 -12.3193 -49.9678 -29.8841 8.8511 77.0560
#
#
#
# Elastic Compliance Matrix: (Units=1/GPa)
#
#
# Indices 1 2 3 4 5 6 
#
# 1 0.015915 -0.003218 -0.007449 -0.004923 -0.009882 -0.001951
# 2 -0.003218 0.012591 -0.000900 -0.000448 0.000028 0.000410
# 3 -0.007449 -0.000900 0.013070 0.003304 0.007349 0.006817
# 4 -0.004923 -0.000448 0.003304 0.023004 0.013187 0.008188
# 5 -0.009882 0.000028 0.007349 0.013187 0.044621 0.002171
# 6 -0.001951 0.000410 0.006817 0.008188 0.002171 0.019879
#
#
# Mechanical properties :
#
#
# Convention : Reuss Voigt Hill
#
# Bulk Modulus (GPa) = 54.22766 66.68900 60.45833
# Shear Modulus (GPa) = 31.57353 48.99040 40.28196
#
# Velocity S-wave (km/s) = 3.92504 4.88921 4.43341
# Velocity P-wave (km/s) = 6.85573 8.02575 7.46370
#
# Compressibility (1/GPa) = 0.01844078
#
# Stress axis : x y z
#
# Youngs Moduli (GPa) = 62.83550 79.42367 76.51398
#
# Poissons Ratio (x) = 0.25560 0.56995
# Poissons Ratio (y) = 0.20222 0.06885
# Poissons Ratio (z) = 0.46806 0.07146
#
# Static dielectric constant tensor:
#      x y z
#    x 1.724220 0.011170 -0.021110 
#    y 0.011170 1.925140 0.007010 
#    z -0.021110 0.007010 1.737560 
# 
# From -- ./inp_files/467150.got.cif
#   From: 2010.05.17/outbox.cif.g08.bks.cpg/sg2_234_cif.got.tgz:467150.got - 2010.06.03 11:33:40.
