data_PCOD9016476
_publ_section_title
;
Structure prediction by ZEFSAII (Michael W. Deem and Ramdas Pophale) SiO2 
 PCOD9016476
Probable space group: P -1
;
_chemical_formula_sum "Si O2"
_cell_formula_units_Z 14
_cell_length_a 9.901665
_cell_length_b 15.281286
_cell_length_c 5.058172
_cell_angle_alpha 86.124227
_cell_angle_beta 116.585838
_cell_angle_gamma 126.700630
_cell_volume 527.000940
_symmetry_space_group_name_H-M "P -1"
_symmetry_group_IT_number 2
_symmetry_cell_setting 'triclinic'
loop_
_space_group_symop_operation_xyz
x,y,z
-x,-y,-z
loop_
_atom_site_type_symbol
_atom_site_label
_atom_site_fract_x
_atom_site_fract_y
_atom_site_fract_z
Si Si1 0.683087 0.899806 0.849333
Si Si2 0.028812 0.592015 0.314847
Si Si3 0.013124 0.775186 0.815999
Si Si4 0.383179 0.659580 0.343946
Si Si5 0.978778 0.104499 0.707095
Si Si6 0.685261 0.531678 0.306908
Si Si7 0.652621 0.211172 0.090780
O O1 0.539098 0.776146 0.613782
O O2 0.541203 0.899377 0.924848
O O3 0.781645 0.993135 0.686327
O O4 0.857759 0.911081 0.139582
O O5 0.156078 0.606014 0.182239
O O6 0.178364 0.713789 0.559684
O O7 0.000000 0.500000 0.500000
O O8 0.814232 0.550088 0.158440
O O9 0.832859 0.649485 0.575112
O O10 0.037045 0.860257 0.602026
O O11 0.222333 0.800962 0.003325
O O12 0.962033 0.798754 0.047563
O O13 0.381112 0.566892 0.517825
O O14 0.414636 0.714299 0.070864
O O15 0.500000 0.500000 0.000000
#
# Coordination Sequence:
#
# PCOD9016476 Si02
#       7
#     2   2   2   2   2   2   2
#     4  10  25  46  73 100 138 189 240 288 356 422
#     4   8  18  36  59  90 134 174 226 280 336 413
#     4  11  27  46  72 107 147 184 234 299 360 410
#     4  10  21  42  68 101 133 186 238 287 347 430
#     4  11  27  49  72 103 147 187 236 299 352 425
#     4  10  21  43  69 103 140 184 233 292 356 422
#     4  10  23  41  70 102 137 186 239 288 352 425
#
# _framework density 26.565418999999999
#
# number of rings (size 3 to 8) (size 9 to 14) (size 15 to 20)
#    0.000    2.000    0.000    0.857   10.000    7.429 
#    5.143    1.429    0.000    0.000    0.000    0.000 
#    0.000    0.000    0.000    0.000    0.000    0.000 
#
# Total GULP energy -78225.968893 kJ/mol
# GULP energy per Si atom -5587.569207 kJ/mol
# Density = 2.650496 g / cm^3
# Si number density = 26.565419 Si / 1000 Ang^3
#
#
#
# Elastic Constant Matrix: (Units=GPa)
#
#
# Indices 1 2 3 4 5 6 
#
# 1 98.0364 8.2472 38.7195 6.5754 32.9921 16.4916
# 2 8.2472 141.9168 45.5131 -2.3523 19.2894 6.7303
# 3 38.7195 45.5131 126.5544 -25.3933 12.5599 7.6424
# 4 6.5754 -2.3523 -25.3933 53.5753 1.0329 2.8538
# 5 32.9921 19.2894 12.5599 1.0329 38.6368 7.6008
# 6 16.4916 6.7303 7.6424 2.8538 7.6008 35.6671
#
#
#
# Elastic Compliance Matrix: (Units=1/GPa)
#
#
# Indices 1 2 3 4 5 6 
#
# 1 0.017894 0.002808 -0.005709 -0.004283 -0.013869 -0.004282
# 2 0.002808 0.008838 -0.003771 -0.001593 -0.005367 -0.000887
# 3 -0.005709 -0.003771 0.011989 0.006181 0.002754 -0.000299
# 4 -0.004283 -0.001593 0.006181 0.022077 0.002101 -0.001257
# 5 -0.013869 -0.005367 0.002754 0.002101 0.039810 -0.001816
# 6 -0.004282 -0.000887 -0.000299 -0.001257 -0.001816 0.030736
#
#
# Mechanical properties :
#
#
# Convention : Reuss Voigt Hill
#
# Bulk Modulus (GPa) = 39.40524 61.27413 50.33969
# Shear Modulus (GPa) = 32.64846 43.84437 38.24642
#
# Velocity S-wave (km/s) = 3.50949 4.06696 3.79846
# Velocity P-wave (km/s) = 5.59352 6.72079 6.18290
#
# Compressibility (1/GPa) = 0.02537734
#
# Stress axis : x y z
#
# Youngs Moduli (GPa) = 55.88587 113.15155 83.40652
#
# Poissons Ratio (x) = -0.31774 0.47616
# Poissons Ratio (y) = -0.15693 0.31452
# Poissons Ratio (z) = 0.31905 0.42669
#
# Static dielectric constant tensor:
#      x y z
#    x 3.620000 0.796290 -0.221780 
#    y 0.796290 2.683310 -0.109570 
#    z -0.221780 -0.109570 2.067580 
# 
# From -- ./inp_files/81316.got.cif
#   From: 2010.05.17/outbox.cif.g08.bks.cpg/sg2_41_cif.got.tgz:81316.got - 2010.06.03 11:33:40.
