data_PCOD9016351
_publ_section_title
;
Structure prediction by ZEFSAII (Michael W. Deem and Ramdas Pophale) SiO2 
 PCOD9016351
Probable space group: P -1
;
_chemical_formula_sum "Si O2"
_cell_formula_units_Z 14
_cell_length_a 9.497984
_cell_length_b 10.572970
_cell_length_c 7.577608
_cell_angle_alpha 87.153039
_cell_angle_beta 74.679454
_cell_angle_gamma 55.068267
_cell_volume 596.699348
_symmetry_space_group_name_H-M "P -1"
_symmetry_group_IT_number 2
_symmetry_cell_setting 'triclinic'
loop_
_space_group_symop_operation_xyz
x,y,z
-x,-y,-z
loop_
_atom_site_type_symbol
_atom_site_label
_atom_site_fract_x
_atom_site_fract_y
_atom_site_fract_z
Si Si1 0.824159 0.491140 0.696373
Si Si2 0.725277 0.297553 0.913728
Si Si3 0.984956 0.211995 0.394100
Si Si4 0.114580 0.012615 0.694300
Si Si5 0.931608 0.461623 0.193867
Si Si6 0.450278 0.772882 0.721881
Si Si7 0.516912 0.615553 0.359330
O O1 0.763256 0.427449 0.877549
O O2 0.857209 0.373218 0.536323
O O3 0.993050 0.529893 0.319307
O O4 0.659311 0.671073 0.711599
O O5 0.603859 0.324520 0.780542
O O6 0.626100 0.302409 0.123032
O O7 0.921552 0.136784 0.838423
O O8 0.896765 0.129566 0.351446
O O9 0.036111 0.277676 0.212432
O O10 0.118492 0.094547 0.508681
O O11 0.282325 0.953663 0.771809
O O12 0.722496 0.538191 0.251094
O O13 0.000000 0.500000 0.000000
O O14 0.459695 0.750014 0.509720
O O15 0.500000 0.500000 0.500000
#
# Coordination Sequence:
#
# PCOD9016351 Si02
#       7
#     2   2   2   2   2   2   2
#     4  11  23  40  68 104 134 171 232 287 343 408
#     4  11  24  42  68 106 135 175 241 284 330 413
#     4  10  21  42  67  94 133 179 230 274 336 411
#     4  10  22  41  69  99 136 183 228 284 334 400
#     4  12  26  42  68 106 145 176 216 294 358 399
#     4  12  22  38  71 100 135 178 230 285 340 396
#     4  12  23  41  68 101 133 180 227 284 337 394
#
# _framework density 23.462401
#
# number of rings (size 3 to 8) (size 9 to 14) (size 15 to 20)
#    0.000    0.857    2.857    6.429    4.000    0.000 
#    0.000    0.714    6.286    4.286    0.000    0.000 
#    0.000    0.000    0.000    0.000    0.000    0.000 
#
# Total GULP energy -78102.293680 kJ/mol
# GULP energy per Si atom -5578.735263 kJ/mol
# Density = 2.340900 g / cm^3
# Si number density = 23.462401 Si / 1000 Ang^3
#
#
#
# Elastic Constant Matrix: (Units=GPa)
#
#
# Indices 1 2 3 4 5 6 
#
# 1 111.4767 50.7094 30.6610 7.4113 -9.3025 -26.9854
# 2 50.7094 107.8586 34.8291 -6.8141 -6.6396 -28.9818
# 3 30.6610 34.8291 131.3993 -16.2067 -3.5431 -4.1041
# 4 7.4113 -6.8141 -16.2067 42.0292 5.0721 -6.3012
# 5 -9.3025 -6.6396 -3.5431 5.0721 33.0105 3.2644
# 6 -26.9854 -28.9818 -4.1041 -6.3012 3.2644 34.8581
#
#
#
# Elastic Compliance Matrix: (Units=1/GPa)
#
#
# Indices 1 2 3 4 5 6 
#
# 1 0.013235 -0.003997 -0.002179 -0.003263 0.002617 0.005831
# 2 -0.003997 0.014641 -0.002201 0.003639 0.000087 0.009469
# 3 -0.002179 -0.002201 0.009040 0.003290 -0.000412 -0.001819
# 4 -0.003263 0.003639 0.003290 0.027749 -0.004726 0.006345
# 5 0.002617 0.000087 -0.000412 -0.004726 0.031907 -0.001793
# 6 0.005831 0.009469 -0.001819 0.006345 -0.001793 0.042175
#
#
# Mechanical properties :
#
#
# Convention : Reuss Voigt Hill
#
# Bulk Modulus (GPa) = 49.59800 64.79263 57.19531
# Shear Modulus (GPa) = 30.82205 37.61523 34.21864
#
# Velocity S-wave (km/s) = 3.62840 4.00836 3.82310
# Velocity P-wave (km/s) = 6.22406 7.00700 6.62710
#
# Compressibility (1/GPa) = 0.02016210
#
# Stress axis : x y z
#
# Youngs Moduli (GPa) = 75.55868 68.30143 110.61845
#
# Poissons Ratio (x) = 0.27301 0.24099
# Poissons Ratio (y) = 0.30202 0.24349
# Poissons Ratio (z) = 0.16461 0.15034
#
# Static dielectric constant tensor:
#      x y z
#    x 1.936690 -0.036290 0.031890 
#    y -0.036290 1.981460 0.009760 
#    z 0.031890 0.009760 2.057340 
# 
# From -- ./inp_files/311143.got.cif
#   From: 2010.05.17/outbox.cif.g08.bks.cpg/sg2_156_cif.got.tgz:311143.got - 2010.06.03 11:33:40.
