data_PCOD9016737
_publ_section_title
;
Structure prediction by ZEFSAII (Michael W. Deem and Ramdas Pophale) SiO2 
 PCOD9016737
Probable space group: P -1
;
_chemical_formula_sum "Si O2"
_cell_formula_units_Z 12
_cell_length_a 7.401824
_cell_length_b 11.254407
_cell_length_c 12.972173
_cell_angle_alpha 39.138290
_cell_angle_beta 111.791955
_cell_angle_gamma 134.804647
_cell_volume 445.313285
_symmetry_space_group_name_H-M "P -1"
_symmetry_group_IT_number 2
_symmetry_cell_setting 'triclinic'
loop_
_space_group_symop_operation_xyz
x,y,z
-x,-y,-z
loop_
_atom_site_type_symbol
_atom_site_label
_atom_site_fract_x
_atom_site_fract_y
_atom_site_fract_z
Si Si1 0.306513 0.988142 0.141148
Si Si2 0.197286 0.553353 0.921313
Si Si3 0.031650 0.132083 0.035634
Si Si4 0.679728 0.440786 0.541290
Si Si5 0.047192 0.758479 0.589567
Si Si6 0.451039 0.363313 0.327512
O O1 0.378111 0.818595 0.267185
O O2 0.237009 0.988706 0.005267
O O3 0.517705 0.225595 0.107889
O O4 0.034945 0.908726 0.184968
O O5 0.079737 0.266029 0.063281
O O6 0.164867 0.658024 0.741724
O O7 0.000000 0.500000 0.000000
O O8 0.310080 0.389996 0.860302
O O9 0.500000 0.500000 0.500000
O O10 0.958857 0.655284 0.523914
O O11 0.601399 0.374758 0.449183
O O12 0.772104 0.637685 0.675930
O O13 0.266229 0.077295 0.426626
#
# Coordination Sequence:
#
# PCOD9016737 Si02
#       6
#     2   2   2   2   2   2
#     4  11  24  47  67 102 144 180 233 282 351 415
#     4  12  25  45  71 101 138 188 236 287 348 414
#     4  11  26  46  68 105 144 182 230 290 352 413
#     4  10  21  43  70 101 138 179 233 280 343 412
#     4  10  21  42  69 102 138 180 234 282 339 415
#     4  10  22  43  71 101 139 183 227 288 348 408
#
# _framework density 26.947320999999999
#
# number of rings (size 3 to 8) (size 9 to 14) (size 15 to 20)
#    0.000    1.333    3.333    1.500    0.000    3.333 
#   12.000    0.000    0.000    0.000    0.000    0.000 
#    0.000    0.000    0.000    0.000    0.000    0.000 
#
# Total GULP energy -67021.051562 kJ/mol
# GULP energy per Si atom -5585.087630 kJ/mol
# Density = 2.688599 g / cm^3
# Si number density = 26.947321 Si / 1000 Ang^3
#
#
#
# Elastic Constant Matrix: (Units=GPa)
#
#
# Indices 1 2 3 4 5 6 
#
# 1 118.3767 34.4003 36.2379 2.8935 28.0164 -7.3037
# 2 34.4003 247.2161 36.8611 14.0433 22.8242 -0.9645
# 3 36.2379 36.8611 74.1600 31.9108 27.2398 19.1522
# 4 2.8935 14.0433 31.9108 40.9842 1.7682 13.3183
# 5 28.0164 22.8242 27.2398 1.7682 53.2047 1.7505
# 6 -7.3037 -0.9645 19.1522 13.3183 1.7505 57.7778
#
#
#
# Elastic Compliance Matrix: (Units=1/GPa)
#
#
# Indices 1 2 3 4 5 6 
#
# 1 0.011342 -0.000549 -0.006714 0.003797 -0.002519 0.002851
# 2 -0.000549 0.004467 -0.001683 -0.000366 -0.000776 0.000671
# 3 -0.006714 -0.001683 0.033082 -0.022125 -0.011734 -0.006387
# 4 0.003797 -0.000366 -0.022125 0.041807 0.008164 -0.002076
# 5 -0.002519 -0.000776 -0.011734 0.008164 0.026162 0.000884
# 6 0.002851 0.000671 -0.006387 -0.002076 0.000884 0.020248
#
#
# Mechanical properties :
#
#
# Convention : Reuss Voigt Hill
#
# Bulk Modulus (GPa) = 32.25957 72.75015 52.50486
# Shear Modulus (GPa) = 30.24189 52.54358 41.39274
#
# Velocity S-wave (km/s) = 3.35365 4.42052 3.92351
# Velocity P-wave (km/s) = 5.19551 7.28769 6.32865
#
# Compressibility (1/GPa) = 0.03099855
#
# Stress axis : x y z
#
# Youngs Moduli (GPa) = 88.16882 223.84259 30.22800
#
# Poissons Ratio (x) = 0.12291 0.20295
# Poissons Ratio (y) = 0.04841 0.05088
# Poissons Ratio (z) = 0.59198 0.37675
#
# Static dielectric constant tensor:
#      x y z
#    x 2.363700 0.605770 -0.236640 
#    y 0.605770 3.807320 -0.739490 
#    z -0.236640 -0.739490 2.541990 
# 
# From -- ./inp_files/391876.got.cif
#   From: 2010.05.17/outbox.cif.g08.bks.cpg/sg2_196_cif.got.tgz:391876.got - 2010.06.03 11:33:40.
