data_PCOD9016253
_publ_section_title
;
Structure prediction by ZEFSAII (Michael W. Deem and Ramdas Pophale) SiO2 
 PCOD9016253
Probable space group: P -1
;
_chemical_formula_sum "Si O2"
_cell_formula_units_Z 16
_cell_length_a 6.719049
_cell_length_b 19.761935
_cell_length_c 15.587122
_cell_angle_alpha 160.639083
_cell_angle_beta 110.271146
_cell_angle_gamma 63.621022
_cell_volume 595.982353
_symmetry_space_group_name_H-M "P -1"
_symmetry_group_IT_number 2
_symmetry_cell_setting 'triclinic'
loop_
_space_group_symop_operation_xyz
x,y,z
-x,-y,-z
loop_
_atom_site_type_symbol
_atom_site_label
_atom_site_fract_x
_atom_site_fract_y
_atom_site_fract_z
Si Si1 0.969690 0.860058 0.442706
Si Si2 0.006566 0.903501 0.790928
Si Si3 0.689277 0.662727 0.476826
Si Si4 0.340622 0.480743 0.116598
Si Si5 0.951797 0.823487 0.036040
Si Si6 0.514864 0.463762 0.559764
Si Si7 0.478222 0.134959 0.872035
Si Si8 0.598338 0.142271 0.606725
O O1 0.934123 0.058310 0.740078
O O2 0.185727 0.835410 0.384264
O O3 0.078673 0.635352 0.242895
O O4 0.738078 0.939277 0.449057
O O5 0.054843 0.061363 0.917958
O O6 0.220500 0.671571 0.541238
O O7 0.592228 0.292389 0.122315
O O8 0.000000 0.000000 0.000000
O O9 0.607626 0.684447 0.590273
O O10 0.777234 0.848956 0.678659
O O11 0.490654 0.617762 0.339893
O O12 0.908109 0.434145 0.240637
O O13 0.469034 0.353089 0.898193
O O14 0.343420 0.314049 0.992592
O O15 0.698047 0.880150 0.101289
O O16 0.500000 0.500000 0.500000
O O17 0.547793 0.919648 0.563108
#
# Coordination Sequence:
#
# PCOD9016253 Si02
#       8
#     2   2   2   2   2   2   2   2
#     4  10  22  39  70 101 151 200 246 303 370 446
#     4  12  28  48  75 111 145 196 255 307 386 454
#     4  11  25  47  75 105 151 195 243 312 376 448
#     4  11  22  45  69 112 149 198 257 300 377 452
#     4  11  22  47  72 104 149 192 245 306 374 443
#     4  11  25  48  74 106 147 192 248 311 381 446
#     4  10  23  42  74 103 148 199 245 316 371 441
#     4  10  21  42  67 107 151 196 251 307 371 437
#
# _framework density 26.846432
#
# number of rings (size 3 to 8) (size 9 to 14) (size 15 to 20)
#    0.000    1.250    2.500    3.000    1.750    2.000 
#   18.000    1.250    0.000    2.250    0.000    0.000 
#    0.000    0.000    0.000    0.000    0.000    0.000 
#
# Total GULP energy -89587.689915 kJ/mol
# GULP energy per Si atom -5599.230620 kJ/mol
# Density = 2.678533 g / cm^3
# Si number density = 26.846432 Si / 1000 Ang^3
#
#
#
# Elastic Constant Matrix: (Units=GPa)
#
#
# Indices 1 2 3 4 5 6 
#
# 1 101.9306 12.9808 11.2013 -3.2971 -2.3598 4.2817
# 2 12.9808 138.2310 27.9287 -18.7838 4.1308 20.3982
# 3 11.2013 27.9287 103.9390 -8.2601 -15.7173 2.3707
# 4 -3.2971 -18.7838 -8.2601 44.7417 1.6511 1.5495
# 5 -2.3598 4.1308 -15.7173 1.6511 46.5488 9.1624
# 6 4.2817 20.3982 2.3707 1.5495 9.1624 47.9296
#
#
#
# Elastic Compliance Matrix: (Units=1/GPa)
#
#
# Indices 1 2 3 4 5 6 
#
# 1 0.010030 -0.000649 -0.000802 0.000326 0.000415 -0.000670
# 2 -0.000649 0.008714 -0.002065 0.003384 -0.000939 -0.003478
# 3 -0.000802 -0.002065 0.010932 0.000962 0.003871 -0.000361
# 4 0.000326 0.003384 0.000962 0.024064 -0.000375 -0.002223
# 5 0.000415 -0.000939 0.003871 -0.000375 0.023766 -0.004360
# 6 -0.000670 -0.003478 -0.000361 -0.002223 -0.004360 0.023327
#
#
# Mechanical properties :
#
#
# Convention : Reuss Voigt Hill
#
# Bulk Modulus (GPa) = 44.16417 49.81359 46.98888
# Shear Modulus (GPa) = 43.32255 47.31000 45.31628
#
# Velocity S-wave (km/s) = 4.02147 4.20246 4.11296
# Velocity P-wave (km/s) = 6.16841 6.49176 6.33215
#
# Compressibility (1/GPa) = 0.02264279
#
# Stress axis : x y z
#
# Youngs Moduli (GPa) = 99.70348 114.76241 91.47079
#
# Poissons Ratio (x) = 0.07447 0.07340
# Poissons Ratio (y) = 0.06470 0.18890
# Poissons Ratio (z) = 0.08001 0.23700
#
# Static dielectric constant tensor:
#      x y z
#    x 2.185180 -0.008920 -0.018260 
#    y -0.008920 2.161050 0.049570 
#    z -0.018260 0.049570 2.141420 
# 
# From -- ./inp_files/505787.got.cif
#   From: 2010.05.17/outbox.cif.g08.bks.cpg/sg2_253_cif.got.tgz:505787.got - 2010.06.03 11:33:40.
