data_PCOD9016026
_publ_section_title
;
Structure prediction by ZEFSAII (Michael W. Deem and Ramdas Pophale) SiO2 
 PCOD9016026
Probable space group: P -1
;
_chemical_formula_sum "Si O2"
_cell_formula_units_Z 16
_cell_length_a 17.528012
_cell_length_b 9.226147
_cell_length_c 9.564535
_cell_angle_alpha 94.039868
_cell_angle_beta 115.471243
_cell_angle_gamma 37.816357
_cell_volume 748.032820
_symmetry_space_group_name_H-M "P -1"
_symmetry_group_IT_number 2
_symmetry_cell_setting 'triclinic'
loop_
_space_group_symop_operation_xyz
x,y,z
-x,-y,-z
loop_
_atom_site_type_symbol
_atom_site_label
_atom_site_fract_x
_atom_site_fract_y
_atom_site_fract_z
Si Si1 0.591807 0.777523 0.829505
Si Si2 0.816176 0.645286 0.461807
Si Si3 0.320717 0.376464 0.794831
Si Si4 0.546873 0.510437 0.682245
Si Si5 0.832391 0.827393 0.245872
Si Si6 0.804514 0.640364 0.764311
Si Si7 0.171511 0.097813 0.054076
Si Si8 0.365249 0.642848 0.796515
O O1 0.551369 0.678950 0.720030
O O2 0.694526 0.716984 0.793378
O O3 0.448596 0.085439 0.798212
O O4 0.678628 0.624829 0.036771
O O5 0.836377 0.466623 0.380361
O O6 0.752251 0.846742 0.303729
O O7 0.746488 0.710077 0.563697
O O8 0.983734 0.470933 0.624225
O O9 0.353819 0.488908 0.779039
O O10 0.500000 0.500000 0.500000
O O11 0.417403 0.632727 0.691619
O O12 0.715264 0.200216 0.843394
O O13 0.795188 0.048098 0.263427
O O14 0.776355 0.894469 0.047385
O O15 0.809643 0.805379 0.809000
O O16 0.987383 0.324868 0.905431
O O17 0.500000 0.500000 0.000000
#
# Coordination Sequence:
#
# PCOD9016026 Si02
#       8
#     2   2   2   2   2   2   2   2
#     4  11  24  43  65  94 128 169 209 263 320 378
#     4  10  23  39  65  99 124 165 212 266 311 373
#     4  11  24  41  67  94 126 166 215 260 315 380
#     4  12  27  42  64  96 129 168 213 263 316 374
#     4  10  21  42  66  91 130 167 214 256 314 380
#     4  10  23  39  65  96 129 166 209 260 322 373
#     4  10  21  43  64  91 131 172 207 257 318 381
#     4  12  23  43  66  91 123 171 213 259 315 379
#
# _framework density 21.389434000000001
#
# number of rings (size 3 to 8) (size 9 to 14) (size 15 to 20)
#    0.000    1.250    2.500    2.250    7.000    2.500 
#    0.000    0.000    0.000    0.000    0.000    0.000 
#    0.000    0.000    0.000    0.000    0.000    0.000 
#
# Total GULP energy -89209.938591 kJ/mol
# GULP energy per Si atom -5575.621162 kJ/mol
# Density = 2.134075 g / cm^3
# Si number density = 21.389434 Si / 1000 Ang^3
#
#
#
# Elastic Constant Matrix: (Units=GPa)
#
#
# Indices 1 2 3 4 5 6 
#
# 1 120.4302 30.3512 38.8588 16.8678 -17.2893 11.3933
# 2 30.3512 84.7569 22.6145 11.1383 -6.2590 14.0454
# 3 38.8588 22.6145 109.9580 38.4053 -11.3984 5.1634
# 4 16.8678 11.1383 38.4053 38.7520 -4.5516 3.2019
# 5 -17.2893 -6.2590 -11.3984 -4.5516 25.6918 13.5606
# 6 11.3933 14.0454 5.1634 3.2019 13.5606 39.0389
#
#
#
# Elastic Compliance Matrix: (Units=1/GPa)
#
#
# Indices 1 2 3 4 5 6 
#
# 1 0.011380 -0.001828 -0.002201 -0.000745 0.008968 -0.005426
# 2 -0.001828 0.014239 -0.001114 -0.001147 0.004697 -0.005979
# 3 -0.002201 -0.001114 0.015089 -0.013234 0.003094 -0.000942
# 4 -0.000745 -0.001147 -0.013234 0.039803 0.001061 -0.001253
# 5 0.008968 0.004697 0.003094 0.001061 0.061468 -0.026155
# 6 -0.005426 -0.005979 -0.000942 -0.001253 -0.026155 0.038663
#
#
# Mechanical properties :
#
#
# Convention : Reuss Voigt Hill
#
# Bulk Modulus (GPa) = 32.87254 55.42157 44.14705
# Shear Modulus (GPa) = 24.86723 35.58458 30.22590
#
# Velocity S-wave (km/s) = 3.41338 4.08321 3.76323
# Velocity P-wave (km/s) = 5.56209 6.94242 6.29023
#
# Compressibility (1/GPa) = 0.03042053
#
# Stress axis : x y z
#
# Youngs Moduli (GPa) = 87.87557 70.23018 66.27530
#
# Poissons Ratio (x) = 0.12841 0.14586
# Poissons Ratio (y) = 0.16068 0.07383
# Poissons Ratio (z) = 0.19340 0.07824
#
# Static dielectric constant tensor:
#      x y z
#    x 1.810930 -0.071130 0.029030 
#    y -0.071130 1.847720 -0.084660 
#    z 0.029030 -0.084660 1.744150 
# 
# From -- ./inp_files/329191.got.cif
#   From: 2010.05.17/outbox.cif.g08.bks.cpg/sg2_165_cif.got.tgz:329191.got - 2010.06.03 11:33:40.
