data_PCOD9016220
_publ_section_title
;
Structure prediction by ZEFSAII (Michael W. Deem and Ramdas Pophale) SiO2 
 PCOD9016220
Probable space group: P -1
;
_chemical_formula_sum "Si O2"
_cell_formula_units_Z 15
_cell_length_a 9.518701
_cell_length_b 12.175162
_cell_length_c 10.054689
_cell_angle_alpha 143.939560
_cell_angle_beta 59.828489
_cell_angle_gamma 113.495620
_cell_volume 592.923245
_symmetry_space_group_name_H-M "P -1"
_symmetry_group_IT_number 2
_symmetry_cell_setting 'triclinic'
loop_
_space_group_symop_operation_xyz
x,y,z
-x,-y,-z
loop_
_atom_site_type_symbol
_atom_site_label
_atom_site_fract_x
_atom_site_fract_y
_atom_site_fract_z
Si Si1 0.000000 0.500000 0.000000
Si Si2 0.868531 0.501565 0.444321
Si Si3 0.415956 0.995604 0.257819
Si Si4 0.676917 0.679826 0.194483
Si Si5 0.587423 0.615243 0.882306
Si Si6 0.017198 0.849697 0.673080
Si Si7 0.235083 0.881219 0.833441
Si Si8 0.916812 0.112194 0.769179
O O1 0.164359 0.404064 0.893589
O O2 0.898374 0.322009 0.934561
O O3 0.700408 0.567527 0.655818
O O4 0.948351 0.653920 0.455495
O O5 0.834347 0.289195 0.211810
O O6 0.000000 0.500000 0.500000
O O7 0.360428 0.116367 0.529337
O O8 0.575211 0.091755 0.215748
O O9 0.262628 0.976751 0.214914
O O10 0.476171 0.793154 0.076243
O O11 0.524843 0.555961 0.192002
O O12 0.689562 0.664480 0.014210
O O13 0.180261 0.820291 0.650793
O O14 0.031535 0.025652 0.744441
O O15 0.868015 0.926809 0.911609
O O16 0.000000 0.000000 0.500000
#
# Coordination Sequence:
#
# PCOD9016220 Si02
#       8
#     1   2   2   2   2   2   2   2
#     4  12  26  46  64  94 142 174 224 276 342 408
#     4  10  21  42  67 101 133 170 230 279 330 397
#     4  12  23  44  66 101 138 173 227 277 337 406
#     4  11  25  42  68 100 136 181 224 284 335 404
#     4  11  23  42  70 101 135 177 228 282 339 391
#     4  10  24  44  67  97 135 181 224 281 335 404
#     4  10  22  41  72 100 132 173 231 282 332 397
#     4  12  28  45  66  97 140 183 224 275 348 412
#
# _framework density 25.298386000000001
#
# number of rings (size 3 to 8) (size 9 to 14) (size 15 to 20)
#    0.000    1.067    5.333    0.400    1.867    4.800 
#    0.000    0.667    0.000    0.000    0.000    0.000 
#    0.000    0.000    0.000    0.000    0.000    0.000 
#
# Total GULP energy -83662.850754 kJ/mol
# GULP energy per Si atom -5577.523384 kJ/mol
# Density = 2.524081 g / cm^3
# Si number density = 25.298386 Si / 1000 Ang^3
#
#
#
# Elastic Constant Matrix: (Units=GPa)
#
#
# Indices 1 2 3 4 5 6 
#
# 1 100.2421 -3.7935 6.3828 2.7989 -23.4994 28.5764
# 2 -3.7935 68.2955 11.1217 17.0728 -8.0129 10.9094
# 3 6.3828 11.1217 86.6269 20.8350 -12.1848 4.9915
# 4 2.7989 17.0728 20.8350 41.7384 5.4482 -2.9762
# 5 -23.4994 -8.0129 -12.1848 5.4482 35.1409 10.3378
# 6 28.5764 10.9094 4.9915 -2.9762 10.3378 50.8515
#
#
#
# Elastic Compliance Matrix: (Units=1/GPa)
#
#
# Indices 1 2 3 4 5 6 
#
# 1 0.024263 0.011422 0.005931 -0.014884 0.030156 -0.023669
# 2 0.011422 0.024293 0.004323 -0.017055 0.022506 -0.017628
# 3 0.005931 0.004323 0.016464 -0.013118 0.015581 -0.009812
# 4 -0.014884 -0.017055 -0.013118 0.044231 -0.031829 0.022370
# 5 0.030156 0.022506 0.015581 -0.031829 0.076044 -0.040626
# 6 -0.023669 -0.017628 -0.009812 0.022370 -0.040626 0.047279
#
#
# Mechanical properties :
#
#
# Convention : Reuss Voigt Hill
#
# Bulk Modulus (GPa) = 9.22755 31.39851 20.31303
# Shear Modulus (GPa) = 22.18815 41.64307 31.91561
#
# Velocity S-wave (km/s) = 2.96473 4.06159 3.55571
# Velocity P-wave (km/s) = 3.92108 5.86801 4.99041
#
# Compressibility (1/GPa) = 0.10837108
#
# Stress axis : x y z
#
# Youngs Moduli (GPa) = 41.21529 41.16466 60.73952
#
# Poissons Ratio (x) = -0.47016 -0.36026
# Poissons Ratio (y) = -0.47074 -0.26258
# Poissons Ratio (z) = -0.24446 -0.17796
#
# Static dielectric constant tensor:
#      x y z
#    x 2.028610 -0.046020 0.162240 
#    y -0.046020 2.191450 -0.155960 
#    z 0.162240 -0.155960 2.105630 
# 
# From -- ./inp_files/391519.got.cif
#   From: 2010.05.17/outbox.cif.g08.bks.cpg/sg2_196_cif.got.tgz:391519.got - 2010.06.03 11:33:40.
