data_PCOD9016788
_publ_section_title
;
Structure prediction by ZEFSAII (Michael W. Deem and Ramdas Pophale) SiO2 
 PCOD9016788
Probable space group: P -1
;
_chemical_formula_sum "Si O2"
_cell_formula_units_Z 14
_cell_length_a 8.591550
_cell_length_b 8.646577
_cell_length_c 23.727558
_cell_angle_alpha 147.089768
_cell_angle_beta 133.248444
_cell_angle_gamma 59.182737
_cell_volume 688.706653
_symmetry_space_group_name_H-M "P -1"
_symmetry_group_IT_number 2
_symmetry_cell_setting 'triclinic'
loop_
_space_group_symop_operation_xyz
x,y,z
-x,-y,-z
loop_
_atom_site_type_symbol
_atom_site_label
_atom_site_fract_x
_atom_site_fract_y
_atom_site_fract_z
Si Si1 0.222749 0.215868 0.617470
Si Si2 0.780574 0.417765 0.383447
Si Si3 0.912391 0.504715 0.222105
Si Si4 0.677624 0.811519 0.756764
Si Si5 0.712709 0.349327 0.012204
Si Si6 0.010890 0.098110 0.737901
Si Si7 0.590542 0.840802 0.619603
O O1 0.230988 0.379243 0.610458
O O2 0.214517 0.431212 0.734054
O O3 0.408435 0.021933 0.610813
O O4 0.000000 0.000000 0.500000
O O5 0.555541 0.385422 0.351079
O O6 0.000000 0.500000 0.500000
O O7 0.806391 0.100737 0.270731
O O8 0.764028 0.314306 0.080580
O O9 0.124950 0.367204 0.245860
O O10 0.988018 0.802413 0.296826
O O11 0.670259 0.940737 0.732325
O O12 0.704036 0.062218 0.886585
O O13 0.913945 0.596200 0.119385
O O14 0.500000 0.500000 0.000000
O O15 0.790500 0.920556 0.651375
O O16 0.500000 0.500000 0.500000
#
# Coordination Sequence:
#
# PCOD9016788 Si02
#       7
#     2   2   2   2   2   2   2
#     4  12  24  42  64  94 132 170 219 269 325 390
#     4  12  24  40  67  97 129 172 217 267 331 389
#     4  10  23  41  66  97 129 170 220 268 324 386
#     4  12  22  42  67  94 134 174 215 272 325 383
#     4  10  21  42  69  92 134 171 221 267 325 383
#     4  10  22  41  64  93 131 166 220 259 332 373
#     4  12  25  42  66  97 132 173 217 271 326 387
#
# _framework density 20.327959
#
# number of rings (size 3 to 8) (size 9 to 14) (size 15 to 20)
#    0.857    0.000    1.429    8.143    0.000    0.571 
#    0.000    5.000    0.000    0.000    0.000    0.000 
#    0.000    0.000    0.000    0.000    0.000    0.000 
#
# Total GULP energy -78172.884137 kJ/mol
# GULP energy per Si atom -5583.777438 kJ/mol
# Density = 2.028169 g / cm^3
# Si number density = 20.327959 Si / 1000 Ang^3
#
#
#
# Elastic Constant Matrix: (Units=GPa)
#
#
# Indices 1 2 3 4 5 6 
#
# 1 91.5456 49.4086 13.6857 -2.9090 1.6426 -4.1526
# 2 49.4086 171.4560 15.6914 -10.8300 -0.2202 -3.5050
# 3 13.6857 15.6914 92.7047 -0.8276 -10.5058 4.2603
# 4 -2.9090 -10.8300 -0.8276 32.7093 1.2933 0.0298
# 5 1.6426 -0.2202 -10.5058 1.2933 32.5447 -4.6709
# 6 -4.1526 -3.5050 4.2603 0.0298 -4.6709 39.0708
#
#
#
# Elastic Compliance Matrix: (Units=1/GPa)
#
#
# Indices 1 2 3 4 5 6 
#
# 1 0.013180 -0.003642 -0.001496 -0.000033 -0.001011 0.001116
# 2 -0.003642 0.007075 -0.000658 0.002002 -0.000015 0.000316
# 3 -0.001496 -0.000658 0.011581 -0.000202 0.003668 -0.001042
# 4 -0.000033 0.002002 -0.000202 0.031278 -0.001290 0.000020
# 5 -0.001011 -0.000015 0.003668 -0.001290 0.032498 0.003377
# 6 0.001116 0.000316 -0.001042 0.000020 0.003377 0.026259
#
#
# Mechanical properties :
#
#
# Convention : Reuss Voigt Hill
#
# Bulk Modulus (GPa) = 49.39481 57.03085 53.21283
# Shear Modulus (GPa) = 35.66050 39.32634 37.49342
#
# Velocity S-wave (km/s) = 4.19293 4.40317 4.29934
# Velocity P-wave (km/s) = 6.91322 7.34621 7.13300
#
# Compressibility (1/GPa) = 0.02024504
#
# Stress axis : x y z
#
# Youngs Moduli (GPa) = 75.87013 141.34195 86.34912
#
# Poissons Ratio (x) = 0.51475 0.12914
# Poissons Ratio (y) = 0.27631 0.05684
# Poissons Ratio (z) = 0.11347 0.09304
#
# Static dielectric constant tensor:
#      x y z
#    x 1.778580 -0.085280 -0.016290 
#    y -0.085280 1.826950 -0.025160 
#    z -0.016290 -0.025160 1.817130 
# 
# From -- ./inp_files/606963.got.cif
#   From: 2010.05.17/outbox.cif.g08.bks.cpg/sg2_304_cif.got.tgz:606963.got - 2010.06.03 11:33:40.
