data_PCOD9016272
_publ_section_title
;
Structure prediction by ZEFSAII (Michael W. Deem and Ramdas Pophale) SiO2 
 PCOD9016272
Probable space group: P -1
;
_chemical_formula_sum "Si O2"
_cell_formula_units_Z 16
_cell_length_a 26.740097
_cell_length_b 19.260425
_cell_length_c 17.277409
_cell_angle_alpha 26.376804
_cell_angle_beta 162.852230
_cell_angle_gamma 161.851219
_cell_volume 810.052922
_symmetry_space_group_name_H-M "P -1"
_symmetry_group_IT_number 2
_symmetry_cell_setting 'triclinic'
loop_
_space_group_symop_operation_xyz
x,y,z
-x,-y,-z
loop_
_atom_site_type_symbol
_atom_site_label
_atom_site_fract_x
_atom_site_fract_y
_atom_site_fract_z
Si Si1 0.617849 0.674595 0.724573
Si Si2 0.084771 0.610299 0.706164
Si Si3 0.147843 0.902280 0.635977
Si Si4 0.147113 0.506633 0.277246
Si Si5 0.391724 0.781983 0.514444
Si Si6 0.439175 0.568888 0.268341
Si Si7 0.025361 0.807569 0.300576
Si Si8 0.743560 0.753509 0.084400
O O1 0.372169 0.554051 0.528588
O O2 0.561285 0.547516 0.688650
O O3 0.814038 0.692179 0.040128
O O4 0.752959 0.930726 0.654500
O O5 0.209334 0.818076 0.742185
O O6 0.809544 0.422643 0.520011
O O7 0.100936 0.687549 0.565104
O O8 0.192589 0.507600 0.974325
O O9 0.042047 0.731007 0.720641
O O10 0.926570 0.864959 0.315272
O O11 0.364479 0.161497 0.717870
O O12 0.258817 0.694393 0.321969
O O13 0.000000 0.500000 0.000000
O O14 0.500000 0.000000 0.500000
O O15 0.633830 0.840256 0.805574
O O16 0.500000 0.500000 0.500000
O O17 0.897695 0.789524 0.206360
O O18 0.500000 0.500000 0.000000
#
# Coordination Sequence:
#
# PCOD9016272 Si02
#       8
#     2   2   2   2   2   2   2   2
#     4  11  25  41  67  92 131 171 212 270 325 386
#     4  10  23  42  66  92 126 170 215 268 328 384
#     4  10  23  42  70  90 125 176 211 268 326 393
#     4  11  25  44  65  94 137 175 212 258 339 396
#     4  11  24  39  71  99 125 166 224 275 309 382
#     4  12  27  41  63  98 133 166 220 267 323 398
#     4  10  21  42  67  90 124 173 213 262 330 384
#     4  11  17  41  68  92 119 165 219 262 319 378
#
# _framework density 19.751798000000001
#
# number of rings (size 3 to 8) (size 9 to 14) (size 15 to 20)
#    0.000    1.250    5.000    1.875    8.750    1.000 
#    2.250    0.000    0.000    0.000    0.000    0.000 
#    0.000    0.000    0.000    0.000    0.000    0.000 
#
# Total GULP energy -89193.567598 kJ/mol
# GULP energy per Si atom -5574.597975 kJ/mol
# Density = 1.970684 g / cm^3
# Si number density = 19.751798 Si / 1000 Ang^3
#
#
#
# Elastic Constant Matrix: (Units=GPa)
#
#
# Indices 1 2 3 4 5 6 
#
# 1 85.7991 36.6611 29.5706 -5.6770 -24.3634 -3.1898
# 2 36.6611 64.3205 24.4797 4.4429 -18.1022 -5.1050
# 3 29.5706 24.4797 90.1914 -13.8509 -18.7360 -3.4848
# 4 -5.6770 4.4429 -13.8509 23.6520 8.1808 0.7877
# 5 -24.3634 -18.1022 -18.7360 8.1808 41.5772 -0.7456
# 6 -3.1898 -5.1050 -3.4848 0.7877 -0.7456 29.3691
#
#
#
# Elastic Compliance Matrix: (Units=1/GPa)
#
#
# Indices 1 2 3 4 5 6 
#
# 1 0.017396 -0.007756 -0.002075 0.002541 0.005388 0.000364
# 2 -0.007756 0.024504 -0.004386 -0.011374 0.006446 0.003365
# 3 -0.002075 -0.004386 0.014631 0.008232 0.001858 0.000575
# 4 0.002541 -0.011374 0.008232 0.053498 -0.010323 -0.002421
# 5 0.005388 0.006446 0.001858 -0.010323 0.032939 0.003039
# 6 0.000364 0.003365 0.000575 -0.002421 0.003039 0.034884
#
#
# Mechanical properties :
#
#
# Convention : Reuss Voigt Hill
#
# Bulk Modulus (GPa) = 35.58984 46.85933 41.22458
# Shear Modulus (GPa) = 23.18571 28.89295 26.03933
#
# Velocity S-wave (km/s) = 3.42987 3.82881 3.63482
# Velocity P-wave (km/s) = 5.80887 6.58194 6.20745
#
# Compressibility (1/GPa) = 0.02809791
#
# Stress axis : x y z
#
# Youngs Moduli (GPa) = 57.48469 40.80992 68.35018
#
# Poissons Ratio (x) = 0.31651 0.14181
# Poissons Ratio (y) = 0.44584 0.29976
# Poissons Ratio (z) = 0.11926 0.17898
#
# Static dielectric constant tensor:
#      x y z
#    x 1.661570 0.065440 -0.076690 
#    y 0.065440 1.926690 -0.063050 
#    z -0.076690 -0.063050 1.742370 
# 
# From -- ./inp_files/543162.got.cif
#   From: 2010.05.17/outbox.cif.g08.bks.cpg/sg2_272_cif.got.tgz:543162.got - 2010.06.03 11:33:40.
