data_PCOD9016660
_publ_section_title
;
Structure prediction by ZEFSAII (Michael W. Deem and Ramdas Pophale) SiO2 
 PCOD9016660
Probable space group: P -1
;
_chemical_formula_sum "Si O2"
_cell_formula_units_Z 14
_cell_length_a 13.595485
_cell_length_b 8.336668
_cell_length_c 10.541430
_cell_angle_alpha 71.969763
_cell_angle_beta 50.052210
_cell_angle_gamma 105.744160
_cell_volume 665.695722
_symmetry_space_group_name_H-M "P -1"
_symmetry_group_IT_number 2
_symmetry_cell_setting 'triclinic'
loop_
_space_group_symop_operation_xyz
x,y,z
-x,-y,-z
loop_
_atom_site_type_symbol
_atom_site_label
_atom_site_fract_x
_atom_site_fract_y
_atom_site_fract_z
Si Si1 0.878904 0.425772 0.001596
Si Si2 0.592016 0.926035 0.375896
Si Si3 0.859521 0.404004 0.744860
Si Si4 0.386771 0.527144 0.174397
Si Si5 0.784935 0.806120 0.369736
Si Si6 0.630773 0.880346 0.089697
Si Si7 0.841414 0.743617 0.055301
O O1 0.946693 0.506442 0.784264
O O2 0.785393 0.519172 0.095884
O O3 0.000000 0.500000 0.000000
O O4 0.772103 0.165179 0.142537
O O5 0.632269 0.801144 0.459606
O O6 0.521387 0.822399 0.321715
O O7 0.500000 0.000000 0.500000
O O8 0.734100 0.453060 0.810321
O O9 0.000000 0.500000 0.500000
O O10 0.747374 0.139666 0.903156
O O11 0.270500 0.335185 0.422707
O O12 0.516581 0.744540 0.098006
O O13 0.500000 0.500000 0.000000
O O14 0.814590 0.725426 0.234566
O O15 0.960787 0.053982 0.183171
O O16 0.740856 0.812000 0.057678
#
# Coordination Sequence:
#
# PCOD9016660 Si02
#       7
#     2   2   2   2   2   2   2
#     4  11  23  41  69  98 128 168 223 282 327 394
#     4  10  23  38  64  98 130 165 218 275 333 387
#     4  11  26  46  68  98 137 179 224 274 338 408
#     4  12  27  44  66  96 141 183 222 271 343 409
#     4  10  23  40  65  96 134 174 219 282 331 395
#     4  10  24  43  66  94 133 174 217 277 331 399
#     4  10  21  42  68  98 128 167 232 279 332 386
#
# _framework density 21.030631
#
# number of rings (size 3 to 8) (size 9 to 14) (size 15 to 20)
#    0.000    1.429    1.429    2.143   12.000    2.286 
#    0.000    2.857    0.000    0.000    0.000    0.000 
#    0.000    0.000    0.000    0.000    0.000    0.000 
#
# Total GULP energy -78189.638584 kJ/mol
# GULP energy per Si atom -5584.974185 kJ/mol
# Density = 2.098276 g / cm^3
# Si number density = 21.030631 Si / 1000 Ang^3
#
#
#
# Elastic Constant Matrix: (Units=GPa)
#
#
# Indices 1 2 3 4 5 6 
#
# 1 106.2383 39.5050 58.1926 23.4083 13.7062 0.2045
# 2 39.5050 85.4357 22.2995 13.8886 10.8155 3.4898
# 3 58.1926 22.2995 84.8415 8.8536 10.1102 -0.0711
# 4 23.4083 13.8886 8.8536 37.8563 -4.2090 3.7044
# 5 13.7062 10.8155 10.1102 -4.2090 30.5396 1.2500
# 6 0.2045 3.4898 -0.0711 3.7044 1.2500 45.7578
#
#
#
# Elastic Compliance Matrix: (Units=1/GPa)
#
#
# Indices 1 2 3 4 5 6 
#
# 1 0.019339 -0.004184 -0.010688 -0.008568 -0.004883 0.001043
# 2 -0.004184 0.014694 -0.000238 -0.003079 -0.003641 -0.000754
# 3 -0.010688 -0.000238 0.019097 0.002106 -0.001149 -0.000044
# 4 -0.008568 -0.003079 0.002106 0.033613 0.008981 -0.002690
# 5 -0.004883 -0.003641 -0.001149 0.008981 0.037903 -0.001465
# 6 0.001043 -0.000754 -0.000044 -0.002690 -0.001465 0.022165
#
#
# Mechanical properties :
#
#
# Convention : Reuss Voigt Hill
#
# Bulk Modulus (GPa) = 43.64843 57.38996 50.51920
# Shear Modulus (GPa) = 27.07584 33.26531 30.17057
#
# Velocity S-wave (km/s) = 3.59199 3.98144 3.79172
# Velocity P-wave (km/s) = 6.16466 6.96303 6.57597
#
# Compressibility (1/GPa) = 0.02291033
#
# Stress axis : x y z
#
# Youngs Moduli (GPa) = 51.70920 68.05668 52.36418
#
# Poissons Ratio (x) = 0.28476 0.55966
# Poissons Ratio (y) = 0.21636 0.01244
# Poissons Ratio (z) = 0.55266 0.01617
#
# Static dielectric constant tensor:
#      x y z
#    x 1.773860 -0.005190 -0.001920 
#    y -0.005190 1.767180 -0.000610 
#    z -0.001920 -0.000610 1.805810 
# 
# From -- ./inp_files/153781.got.cif
#   From: 2010.05.17/outbox.cif.g08.bks.cpg/sg2_77_cif.got.tgz:153781.got - 2010.06.03 11:33:40.
