data_PCOD9016815
_publ_section_title
;
Structure prediction by ZEFSAII (Michael W. Deem and Ramdas Pophale) SiO2 
 PCOD9016815
Probable space group: P -1
;
_chemical_formula_sum "Si O2"
_cell_formula_units_Z 16
_cell_length_a 9.148480
_cell_length_b 5.252641
_cell_length_c 17.503264
_cell_angle_alpha 62.943716
_cell_angle_beta 119.060516
_cell_angle_gamma 98.895693
_cell_volume 652.367597
_symmetry_space_group_name_H-M "P -1"
_symmetry_group_IT_number 2
_symmetry_cell_setting 'triclinic'
loop_
_space_group_symop_operation_xyz
x,y,z
-x,-y,-z
loop_
_atom_site_type_symbol
_atom_site_label
_atom_site_fract_x
_atom_site_fract_y
_atom_site_fract_z
Si Si1 0.232183 0.415235 0.477798
Si Si2 0.474502 0.321841 0.415485
Si Si3 0.615876 0.206220 0.784349
Si Si4 0.133670 0.356549 0.693742
Si Si5 0.147889 0.263813 0.043973
Si Si6 0.694155 0.064865 0.327422
Si Si7 0.777760 0.793944 0.101152
Si Si8 0.560578 0.340406 0.927571
O O1 0.337777 0.459901 0.422218
O O2 0.339426 0.575349 0.544676
O O3 0.248915 0.094026 0.557931
O O4 0.041815 0.522769 0.402933
O O5 0.401108 0.468640 0.298504
O O6 0.500000 0.000000 0.500000
O O7 0.492881 0.025514 0.726195
O O8 0.556046 0.222910 0.855411
O O9 0.801346 0.036660 0.858502
O O10 0.202895 0.093024 0.694553
O O11 0.112105 0.258978 0.788899
O O12 0.257607 0.612086 0.695861
O O13 0.323139 0.403751 0.078672
O O14 0.132662 0.214692 0.956197
O O15 0.000000 0.500000 0.000000
O O16 0.623967 0.588454 0.094994
O O17 0.667914 0.097978 0.036490
#
# Coordination Sequence:
#
# PCOD9016815 Si02
#       8
#     2   2   2   2   2   2   2   2
#     4  10  25  43  65 102 139 185 236 297 354 435
#     4  10  24  44  70  97 141 189 241 288 357 432
#     4  10  23  43  70 102 134 190 240 292 364 432
#     4  12  25  42  72 105 143 182 238 303 362 424
#     4  11  25  42  68  99 144 187 233 302 358 435
#     4  11  25  43  71 105 140 186 236 297 368 429
#     4  10  23  40  66 102 131 182 237 293 357 425
#     4  10  21  42  69  94 138 178 239 293 357 425
#
# _framework density 24.526050000000001
#
# number of rings (size 3 to 8) (size 9 to 14) (size 15 to 20)
#    0.000    1.500    1.250    1.875    7.000    6.000 
#    0.000    0.000    0.000    0.000    0.000    0.000 
#    0.000    0.000    0.000    0.000    0.000    0.000 
#
# Total GULP energy -89385.879515 kJ/mol
# GULP energy per Si atom -5586.617470 kJ/mol
# Density = 2.447023 g / cm^3
# Si number density = 24.526050 Si / 1000 Ang^3
#
#
#
# Elastic Constant Matrix: (Units=GPa)
#
#
# Indices 1 2 3 4 5 6 
#
# 1 77.2246 27.8279 54.0321 1.1923 14.3270 -15.2001
# 2 27.8279 81.2083 25.0946 -5.0005 8.5159 -7.5897
# 3 54.0321 25.0946 186.4208 -23.8550 0.3843 -13.7736
# 4 1.1923 -5.0005 -23.8550 30.7575 -2.3915 -9.0146
# 5 14.3270 8.5159 0.3843 -2.3915 43.0251 6.6194
# 6 -15.2001 -7.5897 -13.7736 -9.0146 6.6194 35.7536
#
#
#
# Elastic Compliance Matrix: (Units=1/GPa)
#
#
# Indices 1 2 3 4 5 6 
#
# 1 0.021133 -0.004455 -0.005675 -0.004752 -0.007293 0.006005
# 2 -0.004455 0.014418 -0.000111 0.002941 -0.001537 0.002150
# 3 -0.005675 -0.000111 0.008112 0.007278 0.001910 0.002170
# 4 -0.004752 0.002941 0.007278 0.042400 0.001473 0.011825
# 5 -0.007293 -0.001537 0.001910 0.001473 0.027170 -0.007350
# 6 0.006005 0.002150 0.002170 0.011825 -0.007350 0.036157
#
#
# Mechanical properties :
#
#
# Convention : Reuss Voigt Hill
#
# Bulk Modulus (GPa) = 43.13897 62.08477 52.61187
# Shear Modulus (GPa) = 28.15326 37.76717 32.96021
#
# Velocity S-wave (km/s) = 3.39173 3.92839 3.66988
# Velocity P-wave (km/s) = 5.74157 6.77828 6.28135
#
# Compressibility (1/GPa) = 0.02318090
#
# Stress axis : x y z
#
# Youngs Moduli (GPa) = 47.31824 69.35716 123.27863
#
# Poissons Ratio (x) = 0.30898 0.69961
# Poissons Ratio (y) = 0.21080 0.01372
# Poissons Ratio (z) = 0.26853 0.00772
#
# Static dielectric constant tensor:
#      x y z
#    x 1.968630 0.042310 -0.045880 
#    y 0.042310 2.072110 -0.061700 
#    z -0.045880 -0.061700 1.995090 
# 
# From -- ./inp_files/116869.got.cif
#   From: 2010.05.17/outbox.cif.g08.bks.cpg/sg2_59_cif.got.tgz:116869.got - 2010.06.03 11:33:40.
