data_PCOD9016485
_publ_section_title
;
Structure prediction by ZEFSAII (Michael W. Deem and Ramdas Pophale) SiO2 
 PCOD9016485
Probable space group: P -1
;
_chemical_formula_sum "Si O2"
_cell_formula_units_Z 16
_cell_length_a 17.887248
_cell_length_b 11.350433
_cell_length_c 6.046708
_cell_angle_alpha 88.549380
_cell_angle_beta 131.216314
_cell_angle_gamma 121.339715
_cell_volume 685.773296
_symmetry_space_group_name_H-M "P -1"
_symmetry_group_IT_number 2
_symmetry_cell_setting 'triclinic'
loop_
_space_group_symop_operation_xyz
x,y,z
-x,-y,-z
loop_
_atom_site_type_symbol
_atom_site_label
_atom_site_fract_x
_atom_site_fract_y
_atom_site_fract_z
Si Si1 0.319487 0.318183 0.588120
Si Si2 0.189222 0.232204 0.769968
Si Si3 0.527650 0.779249 0.328381
Si Si4 0.105662 0.012336 0.986877
Si Si5 0.318680 0.535151 0.293452
Si Si6 0.227425 0.882103 0.295070
Si Si7 0.984105 0.544759 0.710228
Si Si8 0.718443 0.322538 0.408519
O O1 0.310309 0.316896 0.831384
O O2 0.403779 0.280797 0.645334
O O3 0.364525 0.477475 0.570368
O O4 0.162152 0.170244 0.220609
O O5 0.043774 0.125671 0.379488
O O6 0.181984 0.105129 0.901784
O O7 0.219731 0.373843 0.964297
O O8 0.440545 0.675157 0.374780
O O9 0.643272 0.967502 0.587773
O O10 0.425610 0.755465 0.955966
O O11 0.159909 0.948968 0.246593
O O12 0.258135 0.596240 0.311375
O O13 0.269754 0.809319 0.539508
O O14 0.102768 0.732866 0.923688
O O15 0.829371 0.456898 0.445211
O O16 0.000000 0.500000 0.500000
O O17 0.000000 0.500000 0.000000
#
# Coordination Sequence:
#
# PCOD9016485 Si02
#       8
#     2   2   2   2   2   2   2   2
#     4  10  22  43  67  99 137 181 238 297 361 431
#     4  10  21  42  68 101 138 182 234 297 360 431
#     4  11  25  45  69 102 140 188 242 295 367 433
#     4   9  21  40  66 103 136 179 231 293 365 430
#     4  11  25  41  69  99 142 183 239 290 364 434
#     4  10  24  47  69 104 143 186 236 302 360 438
#     4  10  25  50  76 106 146 195 250 300 364 435
#     4  11  26  46  71 104 140 190 238 295 364 442
#
# _framework density 23.331327000000002
#
# number of rings (size 3 to 8) (size 9 to 14) (size 15 to 20)
#    0.000    1.750    0.000    1.875    7.000    5.500 
#   18.000    0.000    0.000    0.000    0.000    0.000 
#    0.000    0.000    0.000    0.000    0.000    0.000 
#
# Total GULP energy -89119.360011 kJ/mol
# GULP energy per Si atom -5569.960001 kJ/mol
# Density = 2.327822 g / cm^3
# Si number density = 23.331327 Si / 1000 Ang^3
#
#
#
# Elastic Constant Matrix: (Units=GPa)
#
#
# Indices 1 2 3 4 5 6 
#
# 1 99.2657 60.4475 37.4573 -11.7482 -9.8829 24.8528
# 2 60.4475 151.9468 50.7342 11.4085 1.4064 6.7564
# 3 37.4573 50.7342 73.4938 21.5866 13.9879 15.7730
# 4 -11.7482 11.4085 21.5866 51.7418 -0.1704 12.2859
# 5 -9.8829 1.4064 13.9879 -0.1704 31.8365 -10.4738
# 6 24.8528 6.7564 15.7730 12.2859 -10.4738 30.2335
#
#
#
# Elastic Compliance Matrix: (Units=1/GPa)
#
#
# Indices 1 2 3 4 5 6 
#
# 1 0.025238 -0.007163 -0.009942 0.015767 0.006663 -0.018058
# 2 -0.007163 0.011011 -0.005030 -0.003952 0.002255 0.008439
# 3 -0.009942 -0.005030 0.031383 -0.012185 -0.019658 -0.008935
# 4 0.015767 -0.003952 -0.012185 0.033023 0.004856 -0.017458
# 5 0.006663 0.002255 -0.019658 0.004856 0.048305 0.019036
# 6 -0.018058 0.008439 -0.008935 -0.017458 0.019036 0.064385
#
#
# Mechanical properties :
#
#
# Convention : Reuss Voigt Hill
#
# Bulk Modulus (GPa) = 42.80229 69.10936 55.95582
# Shear Modulus (GPa) = 18.83937 34.50017 26.66977
#
# Velocity S-wave (km/s) = 2.84469 3.84957 3.38463
# Velocity P-wave (km/s) = 5.40138 7.03164 6.26973
#
# Compressibility (1/GPa) = 0.02336324
#
# Stress axis : x y z
#
# Youngs Moduli (GPa) = 39.62294 90.81868 31.86388
#
# Poissons Ratio (x) = 0.65056 0.31678
# Poissons Ratio (y) = 0.28383 0.16027
# Poissons Ratio (z) = 0.39392 0.45679
#
# Static dielectric constant tensor:
#      x y z
#    x 1.911100 -0.011840 0.018790 
#    y -0.011840 1.911090 -0.036550 
#    z 0.018790 -0.036550 2.005030 
# 
# From -- ./inp_files/109755.got.cif
#   From: 2010.05.17/outbox.cif.g08.bks.cpg/sg2_55_cif.got.tgz:109755.got - 2010.06.03 11:33:40.
