data_PCOD9016171
_publ_section_title
;
Structure prediction by ZEFSAII (Michael W. Deem and Ramdas Pophale) SiO2 
 PCOD9016171
Probable space group: P -1
;
_chemical_formula_sum "Si O2"
_cell_formula_units_Z 14
_cell_length_a 8.864236
_cell_length_b 17.403467
_cell_length_c 5.824295
_cell_angle_alpha 114.566395
_cell_angle_beta 60.579731
_cell_angle_gamma 127.811127
_cell_volume 609.674004
_symmetry_space_group_name_H-M "P -1"
_symmetry_group_IT_number 2
_symmetry_cell_setting 'triclinic'
loop_
_space_group_symop_operation_xyz
x,y,z
-x,-y,-z
loop_
_atom_site_type_symbol
_atom_site_label
_atom_site_fract_x
_atom_site_fract_y
_atom_site_fract_z
Si Si1 0.415025 0.729180 0.063433
Si Si2 0.954698 0.447445 0.719452
Si Si3 0.795856 0.766420 0.088069
Si Si4 0.706569 0.579938 0.683615
Si Si5 0.555647 0.075118 0.759156
Si Si6 0.849913 0.032446 0.777398
Si Si7 0.505488 0.638410 0.513223
O O1 0.275916 0.638942 0.220808
O O2 0.643311 0.773022 0.032990
O O3 0.361529 0.812843 0.230327
O O4 0.375683 0.680727 0.778676
O O5 0.000000 0.500000 0.500000
O O6 0.100006 0.403937 0.575353
O O7 0.000000 0.500000 0.000000
O O8 0.685366 0.733708 0.375705
O O9 0.999407 0.870410 0.069077
O O10 0.798311 0.667515 0.906334
O O11 0.570665 0.601674 0.644040
O O12 0.590201 0.463269 0.689128
O O13 0.732968 0.067509 0.740722
O O14 0.500000 0.000000 0.500000
O O15 0.347967 0.045126 0.020903
O O16 0.000000 0.000000 0.500000
#
# Coordination Sequence:
#
# PCOD9016171 Si02
#       7
#     2   2   2   2   2   2   2
#     4  11  25  43  70 104 142 191 243 310 377 455
#     4  12  27  45  70 107 152 203 250 313 379 453
#     4  11  24  41  71  99 137 190 242 307 377 453
#     4  10  23  39  63 100 139 190 243 298 364 446
#     4  11  27  48  74 106 145 185 250 318 384 460
#     4  11  26  49  74 105 143 191 249 317 389 464
#     4  10  21  42  66  97 142 184 244 293 370 443
#
# _framework density 22.963092
#
# number of rings (size 3 to 8) (size 9 to 14) (size 15 to 20)
#    0.000    1.143    1.429    3.000    6.000    4.571 
#    0.000    0.000    0.000    0.000    0.000    0.000 
#    0.000    0.000    0.000    0.000    0.000    0.000 
#
# Total GULP energy -77982.926326 kJ/mol
# GULP energy per Si atom -5570.209023 kJ/mol
# Density = 2.291083 g / cm^3
# Si number density = 22.963092 Si / 1000 Ang^3
#
#
#
# Elastic Constant Matrix: (Units=GPa)
#
#
# Indices 1 2 3 4 5 6 
#
# 1 92.2237 53.2162 27.9959 11.7317 -10.4393 9.1998
# 2 53.2162 77.8905 37.0789 18.2247 9.3144 -2.3507
# 3 27.9959 37.0789 119.5197 15.8235 -17.0696 -11.0595
# 4 11.7317 18.2247 15.8235 31.8052 1.8561 -1.9360
# 5 -10.4393 9.3144 -17.0696 1.8561 33.8427 -1.9216
# 6 9.1998 -2.3507 -11.0595 -1.9360 -1.9216 42.5878
#
#
#
# Elastic Compliance Matrix: (Units=1/GPa)
#
#
# Indices 1 2 3 4 5 6 
#
# 1 0.022470 -0.017717 0.001526 0.000090 0.012295 -0.004877
# 2 -0.017717 0.032165 -0.007113 -0.007183 -0.017361 0.002646
# 3 0.001526 -0.007113 0.012107 -0.002863 0.008845 0.002691
# 4 0.000090 -0.007183 -0.002863 0.037061 -0.001446 0.000460
# 5 0.012295 -0.017361 0.008845 -0.001446 0.042691 0.000543
# 6 -0.004877 0.002646 0.002691 0.000460 0.000543 0.025425
#
#
# Mechanical properties :
#
#
# Convention : Reuss Voigt Hill
#
# Bulk Modulus (GPa) = 49.66310 58.46842 54.06576
# Shear Modulus (GPa) = 22.19877 33.06998 27.63437
#
# Velocity S-wave (km/s) = 3.11258 3.79903 3.47281
# Velocity P-wave (km/s) = 5.88148 6.69034 6.29891
#
# Compressibility (1/GPa) = 0.02013568
#
# Stress axis : x y z
#
# Youngs Moduli (GPa) = 44.50382 31.08926 82.59563
#
# Poissons Ratio (x) = 0.55080 -0.12603
# Poissons Ratio (y) = 0.78846 0.58746
# Poissons Ratio (z) = -0.06790 0.22112
#
# Static dielectric constant tensor:
#      x y z
#    x 1.886700 -0.012350 0.026110 
#    y -0.012350 1.812510 0.002860 
#    z 0.026110 0.002860 2.002900 
# 
# From -- ./inp_files/48845.got.cif
#   From: 2010.05.17/outbox.cif.g08.bks.cpg/sg2_25_cif.got.tgz:48845.got - 2010.06.03 11:33:40.
