data_PCOD9016607
_publ_section_title
;
Structure prediction by ZEFSAII (Michael W. Deem and Ramdas Pophale) SiO2 
 PCOD9016607
Probable space group: P -1
;
_chemical_formula_sum "Si O2"
_cell_formula_units_Z 12
_cell_length_a 4.990506
_cell_length_b 5.861328
_cell_length_c 17.022430
_cell_angle_alpha 101.649751
_cell_angle_beta 111.444342
_cell_angle_gamma 82.590334
_cell_volume 453.075263
_symmetry_space_group_name_H-M "P -1"
_symmetry_group_IT_number 2
_symmetry_cell_setting 'triclinic'
loop_
_space_group_symop_operation_xyz
x,y,z
-x,-y,-z
loop_
_atom_site_type_symbol
_atom_site_label
_atom_site_fract_x
_atom_site_fract_y
_atom_site_fract_z
Si Si1 0.254600 0.707366 0.484343
Si Si2 0.019204 0.735823 0.781630
Si Si3 0.880882 0.233244 0.746521
Si Si4 0.371252 0.156310 0.606591
Si Si5 0.973750 0.266736 0.935814
Si Si6 0.624649 0.896652 0.900501
O O1 0.500000 0.500000 0.500000
O O2 0.361053 0.831758 0.424856
O O3 0.911936 0.683913 0.436993
O O4 0.283261 0.891060 0.571248
O O5 0.336022 0.768194 0.851101
O O6 0.957374 0.475238 0.727828
O O7 0.814993 0.792132 0.839367
O O8 0.970442 0.952120 0.728549
O O9 0.530768 0.230230 0.706798
O O10 0.009592 0.279019 0.848711
O O11 0.658765 0.169138 0.906376
O O12 0.000000 0.500000 0.000000
O O13 0.223247 0.120313 0.999368
#
# Coordination Sequence:
#
# PCOD9016607 Si02
#       6
#     2   2   2   2   2   2
#     4  10  22  46  74 103 138 183 225 287 356 435
#     4  11  26  44  68  95 141 180 237 285 350 401
#     4  11  26  45  68 106 139 186 231 297 346 421
#     4  10  24  43  70 106 140 177 236 284 357 426
#     4  10  21  42  68  95 139 185 240 288 352 403
#     4  10  24  43  64  95 130 191 235 290 339 413
#
# _framework density 26.485666999999999
#
# number of rings (size 3 to 8) (size 9 to 14) (size 15 to 20)
#    0.000    1.667    1.667    0.500    4.667   10.667 
#    0.000    0.000    0.000    0.000    0.000    0.000 
#    0.000    0.000    0.000    0.000    0.000    0.000 
#
# Total GULP energy -66922.352805 kJ/mol
# GULP energy per Si atom -5576.862734 kJ/mol
# Density = 2.642538 g / cm^3
# Si number density = 26.485667 Si / 1000 Ang^3
#
#
#
# Elastic Constant Matrix: (Units=GPa)
#
#
# Indices 1 2 3 4 5 6 
#
# 1 135.3097 28.4966 50.7852 12.0701 34.4512 -4.8440
# 2 28.4966 179.6482 52.7584 8.2716 23.4234 10.1187
# 3 50.7852 52.7584 132.8388 15.6966 42.9583 -6.5647
# 4 12.0701 8.2716 15.6966 36.1766 4.4791 9.9547
# 5 34.4512 23.4234 42.9583 4.4791 51.7681 5.1716
# 6 -4.8440 10.1187 -6.5647 9.9547 5.1716 27.9575
#
#
#
# Elastic Compliance Matrix: (Units=1/GPa)
#
#
# Indices 1 2 3 4 5 6 
#
# 1 0.009711 -0.000549 -0.001272 -0.002898 -0.005267 0.003589
# 2 -0.000549 0.006595 -0.002598 0.000740 -0.000196 -0.003319
# 3 -0.001272 -0.002598 0.012979 -0.005536 -0.009010 0.007405
# 4 -0.002898 0.000740 -0.005536 0.034441 0.004727 -0.015208
# 5 -0.005267 -0.000196 -0.009010 0.004727 0.031015 -0.010378
# 6 0.003589 -0.003319 0.007405 -0.015208 -0.010378 0.046665
#
#
# Mechanical properties :
#
#
# Convention : Reuss Voigt Hill
#
# Bulk Modulus (GPa) = 48.90112 79.09749 63.99930
# Shear Modulus (GPa) = 31.83507 44.23087 38.03297
#
# Velocity S-wave (km/s) = 3.47071 4.09099 3.79355
# Velocity P-wave (km/s) = 5.87915 7.22800 6.58819
#
# Compressibility (1/GPa) = 0.02044943
#
# Stress axis : x y z
#
# Youngs Moduli (GPa) = 102.97177 151.63640 77.04491
#
# Poissons Ratio (x) = 0.08325 0.09797
# Poissons Ratio (y) = 0.05653 0.20013
# Poissons Ratio (z) = 0.13093 0.39388
#
# Static dielectric constant tensor:
#      x y z
#    x 2.206050 -0.131300 0.004440 
#    y -0.131300 2.604400 -0.302610 
#    z 0.004440 -0.302610 2.398510 
# 
# From -- ./inp_files/580844.got.cif
#   From: 2010.05.17/outbox.cif.g08.bks.cpg/sg2_291_cif.got.tgz:580844.got - 2010.06.03 11:33:40.
