data_PCOD9016424
_publ_section_title
;
Structure prediction by ZEFSAII (Michael W. Deem and Ramdas Pophale) SiO2 
 PCOD9016424
Probable space group: P -1
;
_chemical_formula_sum "Si O2"
_cell_formula_units_Z 11
_cell_length_a 5.894850
_cell_length_b 4.956259
_cell_length_c 16.234173
_cell_angle_alpha 122.854424
_cell_angle_beta 89.839580
_cell_angle_gamma 99.518058
_cell_volume 390.786865
_symmetry_space_group_name_H-M "P -1"
_symmetry_group_IT_number 2
_symmetry_cell_setting 'triclinic'
loop_
_space_group_symop_operation_xyz
x,y,z
-x,-y,-z
loop_
_atom_site_type_symbol
_atom_site_label
_atom_site_fract_x
_atom_site_fract_y
_atom_site_fract_z
Si Si1 0.579101 0.060002 0.879113
Si Si2 0.307625 0.870158 0.700647
Si Si3 0.500000 0.500000 0.500000
Si Si4 0.154903 0.728262 0.940415
Si Si5 0.052342 0.065563 0.416237
Si Si6 0.111323 0.478375 0.240328
O O1 0.469233 0.128546 0.803213
O O2 0.367614 0.895614 0.910533
O O3 0.723088 0.777764 0.813097
O O4 0.736392 0.335860 0.981880
O O5 0.437549 0.614362 0.612997
O O6 0.100802 0.688349 0.728787
O O7 0.177066 0.012727 0.650516
O O8 0.778732 0.586791 0.535603
O O9 0.995346 0.460283 0.839285
O O10 0.000000 0.000000 0.000000
O O11 0.212070 0.815172 0.341719
O O12 0.000000 0.000000 0.500000
#
# Coordination Sequence:
#
# PCOD9016424 Si02
#       6
#     2   2   1   2   2   2
#     4   9  18  36  68  98 133 178 218 277 343 395
#     4  11  24  42  64  97 134 175 232 281 331 400
#     4  12  26  44  68  92 134 182 230 282 336 388
#     4   8  16  34  65 101 132 173 219 272 341 402
#     4  12  27  45  66  97 138 180 232 282 334 402
#     4  10  21  42  67  97 138 179 222 278 337 404
#
# _framework density 28.148337000000001
#
# number of rings (size 3 to 8) (size 9 to 14) (size 15 to 20)
#    0.000    1.818    1.818    1.636    2.545    3.636 
#    0.000    0.909    0.000   44.727    0.000    0.000 
#    0.000    0.000    0.000    0.000    0.000    0.000 
#
# Total GULP energy -61406.012845 kJ/mol
# GULP energy per Si atom -5582.364804 kJ/mol
# Density = 2.808427 g / cm^3
# Si number density = 28.148337 Si / 1000 Ang^3
#
#
#
# Elastic Constant Matrix: (Units=GPa)
#
#
# Indices 1 2 3 4 5 6 
#
# 1 163.2698 26.1689 70.2785 -28.1761 -5.6343 4.8580
# 2 26.1689 69.4338 39.1315 -17.6475 6.7461 -7.4132
# 3 70.2785 39.1315 230.9296 -36.4427 11.0902 -15.0711
# 4 -28.1761 -17.6475 -36.4427 46.8969 -5.1522 2.9257
# 5 -5.6343 6.7461 11.0902 -5.1522 88.8812 -15.1625
# 6 4.8580 -7.4132 -15.0711 2.9257 -15.1625 30.4641
#
#
#
# Elastic Compliance Matrix: (Units=1/GPa)
#
#
# Indices 1 2 3 4 5 6 
#
# 1 0.007746 -0.001469 -0.001843 0.002888 0.000574 -0.002496
# 2 -0.001469 0.017280 -0.001610 0.004131 -0.000449 0.003022
# 3 -0.001843 -0.001610 0.005736 0.002577 -0.000148 0.002418
# 4 0.002888 0.004131 0.002577 0.026745 0.001061 -0.000221
# 5 0.000574 -0.000449 -0.000148 0.001061 0.012389 0.005790
# 6 -0.002496 0.003022 0.002418 -0.000221 0.005790 0.038059
#
#
# Mechanical properties :
#
#
# Convention : Reuss Voigt Hill
#
# Bulk Modulus (GPa) = 47.80990 81.64345 64.72667
# Shear Modulus (GPa) = 40.07324 55.11872 47.59598
#
# Velocity S-wave (km/s) = 3.77722 4.42990 4.11651
# Velocity P-wave (km/s) = 6.00375 7.43189 6.75567
#
# Compressibility (1/GPa) = 0.02091617
#
# Stress axis : x y z
#
# Youngs Moduli (GPa) = 129.09735 57.87195 174.34672
#
# Poissons Ratio (x) = 0.08501 0.32136
# Poissons Ratio (y) = 0.18964 0.28076
# Poissons Ratio (z) = 0.23796 0.09320
#
# Static dielectric constant tensor:
#      x y z
#    x 2.232380 0.028680 0.038740 
#    y 0.028680 2.243490 0.052630 
#    z 0.038740 0.052630 2.201550 
# 
# From -- ./inp_files/3550.got.cif
#   From: 2010.05.17/outbox.cif.g08.bks.cpg/sg2_2_cif.got.tgz:3550.got - 2010.06.03 11:33:40.
