data_PCOD9016868
_publ_section_title
;
Structure prediction by ZEFSAII (Michael W. Deem and Ramdas Pophale) SiO2 
 PCOD9016868
Probable space group: P -1
;
_chemical_formula_sum "Si O2"
_cell_formula_units_Z 14
_cell_length_a 15.475924
_cell_length_b 18.663326
_cell_length_c 9.485700
_cell_angle_alpha 136.994562
_cell_angle_beta 138.896840
_cell_angle_gamma 20.719097
_cell_volume 633.083290
_symmetry_space_group_name_H-M "P -1"
_symmetry_group_IT_number 2
_symmetry_cell_setting 'triclinic'
loop_
_space_group_symop_operation_xyz
x,y,z
-x,-y,-z
loop_
_atom_site_type_symbol
_atom_site_label
_atom_site_fract_x
_atom_site_fract_y
_atom_site_fract_z
Si Si1 0.013230 0.506774 0.193603
Si Si2 0.550673 0.089998 0.831543
Si Si3 0.118734 0.036200 0.702939
Si Si4 0.569692 0.461105 0.692562
Si Si5 0.457221 0.738383 0.459296
Si Si6 0.470286 0.709903 0.117989
Si Si7 0.030238 0.364885 0.272511
O O1 0.739142 0.739081 0.239385
O O2 0.262151 0.403279 0.390694
O O3 0.035764 0.385915 0.142211
O O4 0.000000 0.500000 0.000000
O O5 0.564889 0.153700 0.803088
O O6 0.724102 0.868612 0.717971
O O7 0.668189 0.083588 0.090900
O O8 0.874432 0.271998 0.783673
O O9 0.259856 0.949478 0.602314
O O10 0.000000 0.000000 0.500000
O O11 0.500000 0.500000 0.500000
O O12 0.532327 0.378337 0.611437
O O13 0.405328 0.662351 0.859924
O O14 0.366052 0.779772 0.247624
O O15 0.774467 0.483936 0.181117
O O16 0.000000 0.500000 0.500000
#
# Coordination Sequence:
#
# PCOD9016868 Si02
#       7
#     2   2   2   2   2   2   2
#     4  11  24  42  68 105 140 177 233 284 345 412
#     4  11  24  44  74  97 143 189 227 283 356 416
#     4  10  21  42  69  97 134 183 232 280 344 413
#     4  11  24  45  72  98 142 185 231 291 349 412
#     4  11  23  45  66 105 143 176 238 291 336 417
#     4  11  23  44  71 104 138 181 231 289 352 405
#     4  11  24  46  66  99 142 181 230 284 343 414
#
# _framework density 22.113994999999999
#
# number of rings (size 3 to 8) (size 9 to 14) (size 15 to 20)
#    0.000    1.143    4.286    2.143    2.000    2.857 
#    5.143    3.571    0.000    0.000    0.000    0.000 
#    0.000    0.000    0.000    0.000    0.000    0.000 
#
# Total GULP energy -78186.770923 kJ/mol
# GULP energy per Si atom -5584.769352 kJ/mol
# Density = 2.206366 g / cm^3
# Si number density = 22.113995 Si / 1000 Ang^3
#
#
#
# Elastic Constant Matrix: (Units=GPa)
#
#
# Indices 1 2 3 4 5 6 
#
# 1 106.5430 23.3347 32.2964 12.5491 -27.2038 -0.8020
# 2 23.3347 100.2148 3.5958 13.9800 0.4371 -0.0121
# 3 32.2964 3.5958 110.8007 13.9687 -24.5386 0.7902
# 4 12.5491 13.9800 13.9687 31.8175 1.8730 10.8778
# 5 -27.2038 0.4371 -24.5386 1.8730 48.8223 -9.7378
# 6 -0.8020 -0.0121 0.7902 10.8778 -9.7378 27.1185
#
#
#
# Elastic Compliance Matrix: (Units=1/GPa)
#
#
# Indices 1 2 3 4 5 6 
#
# 1 0.013054 -0.002179 -0.001221 -0.006100 0.008063 0.005763
# 2 -0.002179 0.011154 0.000810 -0.004987 -0.000359 0.001788
# 3 -0.001221 0.000810 0.011602 -0.006945 0.006346 0.004691
# 4 -0.006100 -0.004987 -0.006945 0.048121 -0.013504 -0.024132
# 5 0.008063 -0.000359 0.006346 -0.013504 0.032074 0.016988
# 6 0.005763 0.001788 0.004691 -0.024132 0.016988 0.052689
#
#
# Mechanical properties :
#
#
# Convention : Reuss Voigt Hill
#
# Bulk Modulus (GPa) = 32.64755 48.44581 40.54668
# Shear Modulus (GPa) = 27.16132 38.77378 32.96755
#
# Velocity S-wave (km/s) = 3.50843 4.19186 3.86528
# Velocity P-wave (km/s) = 5.58636 6.73675 6.18834
#
# Compressibility (1/GPa) = 0.03063017
#
# Stress axis : x y z
#
# Youngs Moduli (GPa) = 76.60620 89.65026 86.18958
#
# Poissons Ratio (x) = 0.19537 0.10520
# Poissons Ratio (y) = 0.16695 -0.06979
# Poissons Ratio (z) = 0.09351 -0.07259
#
# Static dielectric constant tensor:
#      x y z
#    x 1.790960 -0.005720 0.009260 
#    y -0.005720 1.839550 -0.043040 
#    z 0.009260 -0.043040 1.993340 
# 
# From -- ./inp_files/318104.got.cif
#   From: 2010.05.17/outbox.cif.g08.bks.cpg/sg2_160_cif.got.tgz:318104.got - 2010.06.03 11:33:40.
