data_PCOD9016946
_publ_section_title
;
Structure prediction by ZEFSAII (Michael W. Deem and Ramdas Pophale) SiO2 
 PCOD9016946
Probable space group: P -1
;
_chemical_formula_sum "Si O2"
_cell_formula_units_Z 16
_cell_length_a 8.067884
_cell_length_b 11.969665
_cell_length_c 9.485142
_cell_angle_alpha 88.386807
_cell_angle_beta 51.241084
_cell_angle_gamma 104.776225
_cell_volume 668.876424
_symmetry_space_group_name_H-M "P -1"
_symmetry_group_IT_number 2
_symmetry_cell_setting 'triclinic'
loop_
_space_group_symop_operation_xyz
x,y,z
-x,-y,-z
loop_
_atom_site_type_symbol
_atom_site_label
_atom_site_fract_x
_atom_site_fract_y
_atom_site_fract_z
Si Si1 0.195152 0.338008 0.720581
Si Si2 0.872107 0.999086 0.211574
Si Si3 0.510939 0.005070 0.756169
Si Si4 0.710350 0.181582 0.883135
Si Si5 0.157676 0.113618 0.494363
Si Si6 0.958532 0.722484 0.881219
Si Si7 0.382566 0.312410 0.164971
Si Si8 0.641464 0.386671 0.303768
O O1 0.411711 0.326601 0.521535
O O2 0.249798 0.479200 0.703230
O O3 0.954602 0.281417 0.771469
O O4 0.829687 0.323818 0.216830
O O5 0.949244 0.136835 0.215142
O O6 0.613572 0.952030 0.301071
O O7 0.917655 0.913211 0.304822
O O8 0.000000 0.000000 0.000000
O O9 0.676217 0.115514 0.753032
O O10 0.607910 0.911821 0.636950
O O11 0.344492 0.922225 0.965748
O O12 0.515144 0.239137 0.011437
O O13 0.196014 0.227046 0.374719
O O14 0.000000 0.000000 0.500000
O O15 0.766339 0.650042 0.872961
O O16 0.844839 0.712709 0.096920
O O17 0.562812 0.390469 0.181950
#
# Coordination Sequence:
#
# PCOD9016946 Si02
#       8
#     2   2   2   2   2   2   2   2
#     4  11  25  50  77 104 145 192 240 314 363 423
#     4  12  25  42  66 104 144 190 237 285 357 440
#     4  10  22  39  64  99 135 190 233 280 362 429
#     4  10  21  42  70 102 143 185 237 299 360 426
#     4  11  24  41  63  96 143 183 232 292 346 426
#     4  12  24  48  76 108 146 193 243 300 365 433
#     4  11  24  45  71 105 144 189 239 298 367 430
#     4  11  27  50  75 108 143 189 251 303 369 426
#
# _framework density 23.920712999999999
#
# number of rings (size 3 to 8) (size 9 to 14) (size 15 to 20)
#    0.000    1.000    3.750    2.250    7.000    0.500 
#    4.500    1.250    0.000    0.000    0.000    0.000 
#    0.000    0.000    0.000    0.000    0.000    0.000 
#
# Total GULP energy -89460.286561 kJ/mol
# GULP energy per Si atom -5591.267910 kJ/mol
# Density = 2.386627 g / cm^3
# Si number density = 23.920713 Si / 1000 Ang^3
#
#
#
# Elastic Constant Matrix: (Units=GPa)
#
#
# Indices 1 2 3 4 5 6 
#
# 1 144.4368 35.2802 50.1569 10.3935 4.5847 26.1413
# 2 35.2802 96.0996 26.3388 0.8643 -6.7934 14.6367
# 3 50.1569 26.3388 132.4649 19.2371 -0.6893 3.4670
# 4 10.3935 0.8643 19.2371 45.2405 1.1075 -2.5134
# 5 4.5847 -6.7934 -0.6893 1.1075 33.3333 4.8200
# 6 26.1413 14.6367 3.4670 -2.5134 4.8200 34.1872
#
#
#
# Elastic Compliance Matrix: (Units=1/GPa)
#
#
# Indices 1 2 3 4 5 6 
#
# 1 0.009643 -0.001823 -0.002946 -0.001256 -0.000810 -0.006273
# 2 -0.001823 0.012417 -0.001741 0.000609 0.003328 -0.004170
# 3 -0.002946 -0.001741 0.009429 -0.003202 0.000093 0.001793
# 4 -0.001256 0.000609 -0.003202 0.023929 -0.000987 0.002923
# 5 -0.000810 0.003328 0.000093 -0.000987 0.031597 -0.005342
# 6 -0.006273 -0.004170 0.001793 0.002923 -0.005342 0.036619
#
#
# Mechanical properties :
#
#
# Convention : Reuss Voigt Hill
#
# Bulk Modulus (GPa) = 54.14348 66.28367 60.21358
# Shear Modulus (GPa) = 35.01107 39.96721 37.48914
#
# Velocity S-wave (km/s) = 3.82989 4.09200 3.96311
# Velocity P-wave (km/s) = 6.49932 7.07784 6.79474
#
# Compressibility (1/GPa) = 0.01846945
#
# Stress axis : x y z
#
# Youngs Moduli (GPa) = 103.69820 80.53321 106.05071
#
# Poissons Ratio (x) = 0.14684 0.31247
# Poissons Ratio (y) = 0.18908 0.18458
# Poissons Ratio (z) = 0.30554 0.14017
#
# Static dielectric constant tensor:
#      x y z
#    x 1.945390 0.032530 -0.075440 
#    y 0.032530 1.993870 0.047530 
#    z -0.075440 0.047530 2.023540 
# 
# From -- ./inp_files/207282.got.cif
#   From: 2010.05.17/outbox.cif.g08.bks.cpg/sg2_104_cif.got.tgz:207282.got - 2010.06.03 11:33:40.
