data_PCOD9016762
_publ_section_title
;
Structure prediction by ZEFSAII (Michael W. Deem and Ramdas Pophale) SiO2 
 PCOD9016762
Probable space group: P -1
;
_chemical_formula_sum "Si O2"
_cell_formula_units_Z 14
_cell_length_a 16.235629
_cell_length_b 14.351994
_cell_length_c 11.227101
_cell_angle_alpha 153.298225
_cell_angle_beta 48.389085
_cell_angle_gamma 146.735506
_cell_volume 607.202889
_symmetry_space_group_name_H-M "P -1"
_symmetry_group_IT_number 2
_symmetry_cell_setting 'triclinic'
loop_
_space_group_symop_operation_xyz
x,y,z
-x,-y,-z
loop_
_atom_site_type_symbol
_atom_site_label
_atom_site_fract_x
_atom_site_fract_y
_atom_site_fract_z
Si Si1 0.293044 0.574891 0.023518
Si Si2 0.476115 0.814550 0.620844
Si Si3 0.184621 0.660711 0.672084
Si Si4 0.638077 0.739452 0.548042
Si Si5 0.978796 0.357482 0.984485
Si Si6 0.135011 0.249723 0.044623
Si Si7 0.785112 0.876823 0.968650
O O1 0.248873 0.468336 0.079507
O O2 0.418375 0.931230 0.290757
O O3 0.353206 0.444010 0.758301
O O4 0.131216 0.424623 0.941168
O O5 0.336671 0.791414 0.751789
O O6 0.592033 0.890850 0.698999
O O7 0.372712 0.470426 0.297718
O O8 0.149115 0.440629 0.354162
O O9 0.046475 0.523715 0.742664
O O10 0.225932 0.918000 0.847986
O O11 0.500000 0.500000 0.500000
O O12 0.813376 0.005085 0.738126
O O13 0.000000 0.500000 0.000000
O O14 0.184688 0.105561 0.898507
O O15 0.950287 0.004907 0.902424
#
# Coordination Sequence:
#
# PCOD9016762 Si02
#       7
#     2   2   2   2   2   2   2
#     4  12  26  47  71 106 143 180 237 292 347 410
#     4  11  25  45  69 102 142 187 230 283 352 413
#     4  11  24  46  76 102 144 183 233 284 355 421
#     4  12  28  47  70 100 143 193 233 284 347 418
#     4  12  26  46  73 107 139 184 236 293 344 408
#     4  10  24  43  76 105 139 181 233 291 349 415
#     4  10  21  42  69 107 136 186 225 281 352 418
#
# _framework density 23.056542
#
# number of rings (size 3 to 8) (size 9 to 14) (size 15 to 20)
#    0.000    0.857    2.857    3.429    2.000    8.000 
#    0.000    4.286    0.000    0.000    0.000    0.000 
#    0.000    0.000    0.000    0.000    0.000    0.000 
#
# Total GULP energy -78268.779750 kJ/mol
# GULP energy per Si atom -5590.627125 kJ/mol
# Density = 2.300406 g / cm^3
# Si number density = 23.056542 Si / 1000 Ang^3
#
#
#
# Elastic Constant Matrix: (Units=GPa)
#
#
# Indices 1 2 3 4 5 6 
#
# 1 142.0514 41.9074 24.5103 -9.8294 -27.4480 2.5672
# 2 41.9074 159.2307 60.5802 4.1806 -10.3449 -25.0684
# 3 24.5103 60.5802 96.0579 1.6017 1.7203 -9.2589
# 4 -9.8294 4.1806 1.6017 34.7440 1.6648 5.5307
# 5 -27.4480 -10.3449 1.7203 1.6648 36.4489 10.6175
# 6 2.5672 -25.0684 -9.2589 5.5307 10.6175 51.7657
#
#
#
# Elastic Compliance Matrix: (Units=1/GPa)
#
#
# Indices 1 2 3 4 5 6 
#
# 1 0.009752 -0.002079 -0.001733 0.003313 0.007776 -0.003749
# 2 -0.002079 0.009427 -0.005005 -0.002133 0.000295 0.003941
# 3 -0.001733 -0.005005 0.014180 -0.000526 -0.003664 0.001006
# 4 0.003313 -0.002133 -0.000526 0.030698 0.001961 -0.004974
# 5 0.007776 0.000295 -0.003664 0.001961 0.035928 -0.008476
# 6 -0.003749 0.003941 0.001006 -0.004974 -0.008476 0.023862
#
#
# Mechanical properties :
#
#
# Convention : Reuss Voigt Hill
#
# Bulk Modulus (GPa) = 63.59159 72.37067 67.98113
# Shear Modulus (GPa) = 34.07802 42.61451 38.34626
#
# Velocity S-wave (km/s) = 3.84867 4.30380 4.08259
# Velocity P-wave (km/s) = 6.88406 7.49356 7.19527
#
# Compressibility (1/GPa) = 0.01572535
#
# Stress axis : x y z
#
# Youngs Moduli (GPa) = 102.54642 106.07742 70.52104
#
# Poissons Ratio (x) = 0.22057 0.12220
# Poissons Ratio (y) = 0.21323 0.35293
# Poissons Ratio (z) = 0.17769 0.53088
#
# Static dielectric constant tensor:
#      x y z
#    x 1.905970 0.019760 0.026580 
#    y 0.019760 1.830320 0.005940 
#    z 0.026580 0.005940 1.920900 
# 
# From -- ./inp_files/465963.got.cif
#   From: 2010.05.17/outbox.cif.g08.bks.cpg/sg2_233_cif.got.tgz:465963.got - 2010.06.03 11:33:40.
