data_PCOD9016190
_publ_section_title
;
Structure prediction by ZEFSAII (Michael W. Deem and Ramdas Pophale) SiO2 
 PCOD9016190
Probable space group: P -1
;
_chemical_formula_sum "Si O2"
_cell_formula_units_Z 14
_cell_length_a 11.994988
_cell_length_b 7.263105
_cell_length_c 15.960723
_cell_angle_alpha 108.941753
_cell_angle_beta 153.690505
_cell_angle_gamma 84.499444
_cell_volume 515.934768
_symmetry_space_group_name_H-M "P -1"
_symmetry_group_IT_number 2
_symmetry_cell_setting 'triclinic'
loop_
_space_group_symop_operation_xyz
x,y,z
-x,-y,-z
loop_
_atom_site_type_symbol
_atom_site_label
_atom_site_fract_x
_atom_site_fract_y
_atom_site_fract_z
Si Si1 0.681939 0.408479 0.563211
Si Si2 0.240221 0.503032 0.060718
Si Si3 0.001467 0.439881 0.364488
Si Si4 0.512044 0.950134 0.401829
Si Si5 0.541188 0.823267 0.848631
Si Si6 0.900455 0.979719 0.274872
Si Si7 0.486361 0.255491 0.878721
O O1 0.500000 0.500000 0.500000
O O2 0.811373 0.550902 0.589227
O O3 0.483835 0.152097 0.370342
O O4 0.946161 0.434458 0.803241
O O5 0.279028 0.294549 0.086940
O O6 0.481323 0.617253 0.166789
O O7 0.302979 0.699180 0.197827
O O8 0.213541 0.655885 0.587197
O O9 0.933182 0.221891 0.335690
O O10 0.720785 0.417153 0.126675
O O11 0.500000 0.000000 0.500000
O O12 0.818425 0.999417 0.577286
O O13 0.578227 0.065149 0.888090
O O14 0.647910 0.851911 0.020252
O O15 0.802900 0.864372 0.281437
#
# Coordination Sequence:
#
# PCOD9016190 Si02
#       7
#     2   2   2   2   2   2   2
#     4  11  25  45  69  98 133 181 232 285 341 402
#     4  11  25  47  71 104 135 184 228 278 354 403
#     4  10  21  42  66  98 139 175 226 273 340 400
#     4  12  26  46  69  99 137 174 236 292 331 409
#     4  11  21  42  70 100 139 184 222 272 347 404
#     4  11  23  43  66 104 138 181 226 278 340 404
#     4  10  25  43  67 104 148 173 227 283 332 420
#
# _framework density 27.135216
#
# number of rings (size 3 to 8) (size 9 to 14) (size 15 to 20)
#    0.000    1.143    2.857    3.429    0.000    5.714 
#    2.571    0.000    0.000    0.000    0.000    0.000 
#    0.000    0.000    0.000    0.000    0.000    0.000 
#
# Total GULP energy -78432.085645 kJ/mol
# GULP energy per Si atom -5602.291832 kJ/mol
# Density = 2.707346 g / cm^3
# Si number density = 27.135216 Si / 1000 Ang^3
#
#
#
# Elastic Constant Matrix: (Units=GPa)
#
#
# Indices 1 2 3 4 5 6 
#
# 1 117.4100 14.6226 20.2536 -7.9722 22.1818 -6.7619
# 2 14.6226 161.0168 37.8881 18.3853 0.7462 -19.2278
# 3 20.2536 37.8881 170.1258 11.9325 -32.6294 -12.5249
# 4 -7.9722 18.3853 11.9325 47.0102 1.1860 6.2877
# 5 22.1818 0.7462 -32.6294 1.1860 33.8311 -1.5239
# 6 -6.7619 -19.2278 -12.5249 6.2877 -1.5239 30.9919
#
#
#
# Elastic Compliance Matrix: (Units=1/GPa)
#
#
# Indices 1 2 3 4 5 6 
#
# 1 0.011565 -0.000600 -0.003698 0.003501 -0.011286 -0.000609
# 2 -0.000600 0.007475 -0.001108 -0.003362 -0.000510 0.004716
# 3 -0.003698 -0.001108 0.009299 -0.003319 0.011692 0.003512
# 4 0.003501 -0.003362 -0.003319 0.025277 -0.006674 -0.008120
# 5 -0.011286 -0.000510 0.011692 -0.006674 0.048738 0.005697
# 6 -0.000609 0.004716 0.003512 -0.008120 0.005697 0.038406
#
#
# Mechanical properties :
#
#
# Convention : Reuss Voigt Hill
#
# Bulk Modulus (GPa) = 57.05822 66.00901 61.53361
# Shear Modulus (GPa) = 31.76324 47.41918 39.59121
#
# Velocity S-wave (km/s) = 3.42505 4.18486 3.82387
# Velocity P-wave (km/s) = 6.05923 6.90866 6.49784
#
# Compressibility (1/GPa) = 0.01752596
#
# Stress axis : x y z
#
# Youngs Moduli (GPa) = 86.46940 133.77643 107.53931
#
# Poissons Ratio (x) = 0.08029 0.39770
# Poissons Ratio (y) = 0.05190 0.11916
# Poissons Ratio (z) = 0.31978 0.14824
#
# Static dielectric constant tensor:
#      x y z
#    x 2.189810 -0.019790 0.019500 
#    y -0.019790 2.098130 0.005470 
#    z 0.019500 0.005470 2.128410 
# 
# From -- ./inp_files/567012.got.cif
#   From: 2010.05.17/outbox.cif.g08.bks.cpg/sg2_284_cif.got.tgz:567012.got - 2010.06.03 11:33:40.
