data_PCOD9016637
_publ_section_title
;
Structure prediction by ZEFSAII (Michael W. Deem and Ramdas Pophale) SiO2 
 PCOD9016637
Probable space group: P -1
;
_chemical_formula_sum "Si O2"
_cell_formula_units_Z 16
_cell_length_a 10.099555
_cell_length_b 17.527754
_cell_length_c 9.223937
_cell_angle_alpha 124.741028
_cell_angle_beta 117.399239
_cell_angle_gamma 26.290092
_cell_volume 588.488233
_symmetry_space_group_name_H-M "P -1"
_symmetry_group_IT_number 2
_symmetry_cell_setting 'triclinic'
loop_
_space_group_symop_operation_xyz
x,y,z
-x,-y,-z
loop_
_atom_site_type_symbol
_atom_site_label
_atom_site_fract_x
_atom_site_fract_y
_atom_site_fract_z
Si Si1 0.431035 0.769427 0.858170
Si Si2 0.138827 0.193748 0.459311
Si Si3 0.413327 0.481841 0.120116
Si Si4 0.922690 0.876058 0.041987
Si Si5 0.546328 0.584743 0.438297
Si Si6 0.137578 0.507007 0.782240
Si Si7 0.367020 0.215995 0.779279
Si Si8 0.585741 0.875667 0.746891
O O1 0.141343 0.991315 0.926069
O O2 0.465893 0.700582 0.646465
O O3 0.476946 0.657998 0.867105
O O4 0.640499 0.732475 0.010117
O O5 0.157825 0.239167 0.669317
O O6 0.345390 0.150199 0.414501
O O7 0.817414 0.377060 0.421589
O O8 0.296540 0.008257 0.324851
O O9 0.168025 0.571644 0.986253
O O10 0.327963 0.621935 0.313080
O O11 0.723788 0.332074 0.022721
O O12 0.749392 0.970938 0.211201
O O13 0.721346 0.902578 0.896527
O O14 0.653469 0.580860 0.344935
O O15 0.253262 0.355224 0.761192
O O16 0.808818 0.684046 0.735154
#
# Coordination Sequence:
#
# PCOD9016637 Si02
#       8
#     2   2   2   2   2   2   2   2
#     4  11  24  41  68 102 134 181 233 277 333 413
#     4  10  21  42  68  96 144 179 222 279 346 409
#     4  11  22  46  71  95 139 184 227 280 339 401
#     4  11  22  41  71  97 137 180 230 267 349 400
#     4  11  23  41  70 100 135 179 229 280 343 402
#     4  10  23  42  74 101 135 178 228 287 336 403
#     4  10  22  41  66 101 137 179 224 279 339 398
#     4  10  22  41  71 103 134 181 220 286 336 409
#
# _framework density 27.188309
#
# number of rings (size 3 to 8) (size 9 to 14) (size 15 to 20)
#    0.000    1.500    3.750    1.125    3.500    2.500 
#    2.250    0.625    8.250    0.000    0.000    0.000 
#    0.000    0.000    0.000    0.000    0.000    0.000 
#
# Total GULP energy -89487.142861 kJ/mol
# GULP energy per Si atom -5592.946429 kJ/mol
# Density = 2.712643 g / cm^3
# Si number density = 27.188309 Si / 1000 Ang^3
#
#
#
# Elastic Constant Matrix: (Units=GPa)
#
#
# Indices 1 2 3 4 5 6 
#
# 1 82.6289 22.7731 53.8731 -0.9669 13.6199 6.0081
# 2 22.7731 150.9713 44.7535 8.2030 11.9757 31.5498
# 3 53.8731 44.7535 192.5189 -7.6612 17.9832 3.0777
# 4 -0.9669 8.2030 -7.6612 30.5188 9.5581 11.4373
# 5 13.6199 11.9757 17.9832 9.5581 34.2215 -0.2229
# 6 6.0081 31.5498 3.0777 11.4373 -0.2229 35.5199
#
#
#
# Elastic Compliance Matrix: (Units=1/GPa)
#
#
# Indices 1 2 3 4 5 6 
#
# 1 0.015639 -0.000449 -0.003700 0.002168 -0.004746 -0.002654
# 2 -0.000449 0.008993 -0.001564 0.000991 -0.002476 -0.008111
# 3 -0.003700 -0.001564 0.006901 0.002541 -0.002312 0.000585
# 4 0.002168 0.000991 0.002541 0.043721 -0.014858 -0.015638
# 5 -0.004746 -0.002476 -0.002312 -0.014858 0.037395 0.008221
# 6 -0.002654 -0.008111 0.000585 -0.015638 0.008221 0.040843
#
#
# Mechanical properties :
#
#
# Convention : Reuss Voigt Hill
#
# Bulk Modulus (GPa) = 49.73650 74.32429 62.03039
# Shear Modulus (GPa) = 29.13414 40.36665 34.75039
#
# Velocity S-wave (km/s) = 3.27703 3.85737 3.57898
# Velocity P-wave (km/s) = 5.71416 6.87279 6.32008
#
# Compressibility (1/GPa) = 0.02010596
#
# Stress axis : x y z
#
# Youngs Moduli (GPa) = 63.94303 111.20003 144.90492
#
# Poissons Ratio (x) = 0.04993 0.53613
# Poissons Ratio (y) = 0.02871 0.22670
# Poissons Ratio (z) = 0.23658 0.17397
#
# Static dielectric constant tensor:
#      x y z
#    x 2.186370 -0.030770 -0.074810 
#    y -0.030770 2.120340 0.012430 
#    z -0.074810 0.012430 2.228040 
# 
# From -- ./inp_files/279956.got.cif
#   From: 2010.05.17/outbox.cif.g08.bks.cpg/sg2_140_cif.got.tgz:279956.got - 2010.06.03 11:33:40.
