data_PCOD9016626
_publ_section_title
;
Structure prediction by ZEFSAII (Michael W. Deem and Ramdas Pophale) SiO2 
 PCOD9016626
Probable space group: P -1
;
_chemical_formula_sum "Si O2"
_cell_formula_units_Z 13
_cell_length_a 8.134278
_cell_length_b 4.936919
_cell_length_c 14.973636
_cell_angle_alpha 67.741291
_cell_angle_beta 111.018417
_cell_angle_gamma 99.766415
_cell_volume 519.082901
_symmetry_space_group_name_H-M "P -1"
_symmetry_group_IT_number 2
_symmetry_cell_setting 'triclinic'
loop_
_space_group_symop_operation_xyz
x,y,z
-x,-y,-z
loop_
_atom_site_type_symbol
_atom_site_label
_atom_site_fract_x
_atom_site_fract_y
_atom_site_fract_z
Si Si1 0.834889 0.813003 0.951375
Si Si2 0.666760 0.303081 0.545984
Si Si3 0.042947 0.606220 0.847739
Si Si4 0.713555 0.283325 0.753898
Si Si5 0.000000 0.500000 0.500000
Si Si6 0.603215 0.289076 0.339431
Si Si7 0.812824 0.894249 0.309826
O O1 0.909566 0.667695 0.895081
O O2 0.697894 0.039491 0.859354
O O3 0.802414 0.575909 0.052572
O O4 0.000000 0.000000 0.000000
O O5 0.500000 0.500000 0.500000
O O6 0.687459 0.154498 0.664860
O O7 0.835580 0.516191 0.535096
O O8 0.637413 0.158694 0.460721
O O9 0.914360 0.419419 0.780216
O O10 0.120813 0.900986 0.782657
O O11 0.574785 0.533107 0.714964
O O12 0.969415 0.841564 0.415516
O O13 0.754857 0.553031 0.323767
O O14 0.651424 0.053935 0.304740
#
# Coordination Sequence:
#
# PCOD9016626 Si02
#       7
#     2   2   2   2   1   2   2
#     4   9  20  39  67  97 130 164 234 284 337 404
#     4   9  20  40  62  97 133 179 224 271 329 406
#     4  10  22  39  71  98 125 176 233 283 334 408
#     4  10  21  42  68  96 133 182 225 279 340 400
#     4  10  22  42  64  92 136 180 226 272 338 392
#     4  10  25  45  63  99 145 178 220 279 337 411
#     4  11  25  44  67  97 137 178 226 278 342 406
#
# _framework density 25.044167999999999
#
# number of rings (size 3 to 8) (size 9 to 14) (size 15 to 20)
#    0.000    2.154    0.000    0.923   10.769    2.462 
#   13.846    8.462    0.000    0.000    0.000    0.000 
#    0.000    0.000    0.000    0.000    0.000    0.000 
#
# Total GULP energy -72398.620203 kJ/mol
# GULP energy per Si atom -5569.124631 kJ/mol
# Density = 2.498717 g / cm^3
# Si number density = 25.044168 Si / 1000 Ang^3
#
#
#
# Elastic Constant Matrix: (Units=GPa)
#
#
# Indices 1 2 3 4 5 6 
#
# 1 99.6805 16.2498 37.3329 -10.2180 -3.0035 -14.2693
# 2 16.2498 80.5118 34.4131 -16.0966 8.1183 -6.9694
# 3 37.3329 34.4131 174.1316 -30.0133 14.0662 -2.8049
# 4 -10.2180 -16.0966 -30.0133 42.5899 11.7751 -2.0160
# 5 -3.0035 8.1183 14.0662 11.7751 37.2609 -10.8579
# 6 -14.2693 -6.9694 -2.8049 -2.0160 -10.8579 27.3971
#
#
#
# Elastic Compliance Matrix: (Units=1/GPa)
#
#
# Indices 1 2 3 4 5 6 
#
# 1 0.012470 -0.001209 -0.002741 -0.000318 0.004656 0.007728
# 2 -0.001209 0.014939 -0.001369 0.005605 -0.004074 0.001828
# 3 -0.002741 -0.001369 0.008029 0.005907 -0.005621 -0.002747
# 4 -0.000318 0.005605 0.005907 0.033631 -0.014517 -0.001414
# 5 0.004656 -0.004074 -0.005621 -0.014517 0.039271 0.015309
# 6 0.007728 0.001828 -0.002747 -0.001414 0.015309 0.046672
#
#
# Mechanical properties :
#
#
# Convention : Reuss Voigt Hill
#
# Bulk Modulus (GPa) = 40.32264 58.92396 49.62330
# Shear Modulus (GPa) = 28.74944 39.20479 33.97711
#
# Velocity S-wave (km/s) = 3.39182 3.96084 3.68732
# Velocity P-wave (km/s) = 5.61024 6.67059 6.16326
#
# Compressibility (1/GPa) = 0.02479996
#
# Stress axis : x y z
#
# Youngs Moduli (GPa) = 80.19441 66.93825 124.55096
#
# Poissons Ratio (x) = 0.08095 0.34139
# Poissons Ratio (y) = 0.09699 0.17045
# Poissons Ratio (z) = 0.21981 0.09161
#
# Static dielectric constant tensor:
#      x y z
#    x 1.918570 -0.055510 -0.095560 
#    y -0.055510 2.062940 -0.072060 
#    z -0.095560 -0.072060 1.926680 
# 
# From -- ./inp_files/486821.got.cif
#   From: 2010.05.17/outbox.cif.g08.bks.cpg/sg2_244_cif.got.tgz:486821.got - 2010.06.03 11:33:40.
