data_PCOD9016527
_publ_section_title
;
Structure prediction by ZEFSAII (Michael W. Deem and Ramdas Pophale) SiO2 
 PCOD9016527
Probable space group: P -1
;
_chemical_formula_sum "Si O2"
_cell_formula_units_Z 16
_cell_length_a 13.407867
_cell_length_b 11.868077
_cell_length_c 10.945999
_cell_angle_alpha 135.101772
_cell_angle_beta 32.170526
_cell_angle_gamma 124.166374
_cell_volume 651.248624
_symmetry_space_group_name_H-M "P -1"
_symmetry_group_IT_number 2
_symmetry_cell_setting 'triclinic'
loop_
_space_group_symop_operation_xyz
x,y,z
-x,-y,-z
loop_
_atom_site_type_symbol
_atom_site_label
_atom_site_fract_x
_atom_site_fract_y
_atom_site_fract_z
Si Si1 0.585146 0.747198 0.426973
Si Si2 0.527728 0.692897 0.182034
Si Si3 0.822003 0.441245 0.567993
Si Si4 0.417998 0.762479 0.873741
Si Si5 0.729524 0.971585 0.097726
Si Si6 0.748146 0.874617 0.742486
Si Si7 0.934177 0.334126 0.896112
Si Si8 0.025748 0.767090 0.961816
O O1 0.538870 0.641785 0.274939
O O2 0.532763 0.704452 0.587381
O O3 0.447587 0.908899 0.671412
O O4 0.803452 0.775726 0.216638
O O5 0.309203 0.704183 0.375712
O O6 0.638502 0.850778 0.187859
O O7 0.655362 0.580816 0.870957
O O8 0.904632 0.387042 0.309710
O O9 0.000000 0.500000 0.500000
O O10 0.564906 0.779891 0.841937
O O11 0.253649 0.649356 0.977009
O O12 0.313281 0.944132 0.102654
O O13 0.889262 0.077209 0.060227
O O14 0.808392 0.880469 0.824447
O O15 0.909040 0.781508 0.423245
O O16 0.884412 0.251891 0.011707
O O17 0.000000 0.500000 0.000000
#
# Coordination Sequence:
#
# PCOD9016527 Si02
#       8
#     2   2   2   2   2   2   2   2
#     4  11  21  41  69  92 123 169 214 266 316 376
#     4  11  24  43  67  95 132 172 214 261 324 377
#     4  11  24  44  65  94 131 173 210 264 319 385
#     4  10  21  42  68  89 124 167 216 261 320 379
#     4  11  25  42  67  96 132 166 220 271 310 384
#     4  10  22  41  65  93 122 169 212 264 320 372
#     4  12  25  41  64  95 131 168 211 267 323 391
#     4  12  24  43  67  94 127 172 219 262 328 378
#
# _framework density 24.568190000000001
#
# number of rings (size 3 to 8) (size 9 to 14) (size 15 to 20)
#    0.000    1.000    6.250    0.750    1.750    2.000 
#    2.250    0.000    0.000    0.000    0.000    0.000 
#    0.000    0.000    0.000    0.000    0.000    0.000 
#
# Total GULP energy -89372.273020 kJ/mol
# GULP energy per Si atom -5585.767064 kJ/mol
# Density = 2.451227 g / cm^3
# Si number density = 24.568190 Si / 1000 Ang^3
#
#
#
# Elastic Constant Matrix: (Units=GPa)
#
#
# Indices 1 2 3 4 5 6 
#
# 1 74.5032 21.3079 30.6751 3.1018 9.3650 33.7857
# 2 21.3079 100.8360 34.9563 -16.2941 -5.5133 37.6792
# 3 30.6751 34.9563 183.5958 2.6029 16.5570 23.5789
# 4 3.1018 -16.2941 2.6029 28.5087 23.5589 -7.8519
# 5 9.3650 -5.5133 16.5570 23.5589 41.7262 -6.2818
# 6 33.7857 37.6792 23.5789 -7.8519 -6.2818 48.2271
#
#
#
# Elastic Compliance Matrix: (Units=1/GPa)
#
#
# Indices 1 2 3 4 5 6 
#
# 1 0.022039 0.001691 -0.001218 -0.000753 -0.006391 -0.017120
# 2 0.001691 0.015836 -0.001449 0.009959 -0.005126 -0.011895
# 3 -0.001218 -0.001449 0.006382 0.001006 -0.003228 -0.001391
# 4 -0.000753 0.009959 0.001006 0.074452 -0.041097 -0.000976
# 5 -0.006391 -0.005126 -0.003228 -0.041097 0.050709 0.009974
# 6 -0.017120 -0.011895 -0.001391 -0.000976 0.009974 0.043843
#
#
# Mechanical properties :
#
#
# Convention : Reuss Voigt Hill
#
# Bulk Modulus (GPa) = 23.63844 59.20150 41.41997
# Shear Modulus (GPa) = 21.80430 41.82547 31.81488
#
# Velocity S-wave (km/s) = 2.98233 4.13052 3.60246
# Velocity P-wave (km/s) = 4.63697 6.84817 5.84803
#
# Compressibility (1/GPa) = 0.04230398
#
# Stress axis : x y z
#
# Youngs Moduli (GPa) = 45.37503 63.14818 156.69888
#
# Poissons Ratio (x) = -0.10681 0.19093
# Poissons Ratio (y) = -0.07675 0.22705
# Poissons Ratio (z) = 0.05529 0.09150
#
# Static dielectric constant tensor:
#      x y z
#    x 1.956600 -0.020530 0.002220 
#    y -0.020530 2.108380 0.024290 
#    z 0.002220 0.024290 1.908260 
# 
# From -- ./inp_files/455028.got.cif
#   From: 2010.05.17/outbox.cif.g08.bks.cpg/sg2_228_cif.got.tgz:455028.got - 2010.06.03 11:33:40.
