data_PCOD9016148
_publ_section_title
;
Structure prediction by ZEFSAII (Michael W. Deem and Ramdas Pophale) SiO2 
 PCOD9016148
Probable space group: P -1
;
_chemical_formula_sum "Si O2"
_cell_formula_units_Z 16
_cell_length_a 13.033620
_cell_length_b 24.032581
_cell_length_c 9.005314
_cell_angle_alpha 38.885175
_cell_angle_beta 131.311972
_cell_angle_gamma 152.986885
_cell_volume 798.756048
_symmetry_space_group_name_H-M "P -1"
_symmetry_group_IT_number 2
_symmetry_cell_setting 'triclinic'
loop_
_space_group_symop_operation_xyz
x,y,z
-x,-y,-z
loop_
_atom_site_type_symbol
_atom_site_label
_atom_site_fract_x
_atom_site_fract_y
_atom_site_fract_z
Si Si1 0.441539 0.245208 0.547717
Si Si2 0.692620 0.654882 0.948558
Si Si3 0.468511 0.894399 0.599678
Si Si4 0.730637 0.865546 0.050327
Si Si5 0.093884 0.412197 0.641221
Si Si6 0.046623 0.421779 0.233210
Si Si7 0.492635 0.586061 0.221708
Si Si8 0.557280 0.128893 0.727755
O O1 0.286675 0.241061 0.331665
O O2 0.345075 0.181091 0.753904
O O3 0.701404 0.422098 0.436158
O O4 0.440253 0.150961 0.655108
O O5 0.500000 0.500000 0.000000
O O6 0.884422 0.679611 0.098650
O O7 0.607749 0.632842 0.077328
O O8 0.199952 0.744676 0.672931
O O9 0.507495 0.909234 0.429117
O O10 0.500000 0.000000 0.500000
O O11 0.619153 0.896562 0.814160
O O12 0.618185 0.726520 0.142577
O O13 0.000000 0.000000 0.000000
O O14 0.132738 0.444615 0.434067
O O15 0.827474 0.293406 0.658842
O O16 0.232091 0.481209 0.173986
O O17 0.000000 0.500000 0.000000
O O18 0.500000 0.500000 0.500000
O O19 0.500000 0.000000 0.000000
#
# Coordination Sequence:
#
# PCOD9016148 Si02
#       8
#     2   2   2   2   2   2   2   2
#     4  11  22  45  65  97 132 168 223 274 328 396
#     4  10  22  40  63  99 133 163 218 270 329 385
#     4  11  25  46  64  96 133 176 223 267 333 393
#     4  12  27  45  68  98 132 174 222 275 334 397
#     4  10  21  42  66  97 129 173 215 271 321 390
#     4  11  21  40  70  95 129 170 227 273 312 387
#     4  12  22  42  69  98 130 177 224 268 326 390
#     4  11  25  42  67  96 135 173 216 270 337 391
#
# _framework density 20.031147000000001
#
# number of rings (size 3 to 8) (size 9 to 14) (size 15 to 20)
#    0.000    1.000    3.750    2.625    3.500    2.000 
#    9.000    1.875    0.000    0.000    0.000    0.000 
#    0.000    0.000    0.000    0.000    0.000    0.000 
#
# Total GULP energy -89303.295576 kJ/mol
# GULP energy per Si atom -5581.455974 kJ/mol
# Density = 1.998556 g / cm^3
# Si number density = 20.031147 Si / 1000 Ang^3
#
#
#
# Elastic Constant Matrix: (Units=GPa)
#
#
# Indices 1 2 3 4 5 6 
#
# 1 138.6476 50.1831 69.7216 3.3338 11.8863 -26.5949
# 2 50.1831 72.8652 54.3795 1.4308 3.8589 -20.1380
# 3 69.7216 54.3795 164.0966 14.7599 17.1533 -21.5583
# 4 3.3338 1.4308 14.7599 36.7584 1.1095 10.0975
# 5 11.8863 3.8589 17.1533 1.1095 40.7765 -5.2294
# 6 -26.5949 -20.1380 -21.5583 10.0975 -5.2294 32.3899
#
#
#
# Elastic Compliance Matrix: (Units=1/GPa)
#
#
# Indices 1 2 3 4 5 6 
#
# 1 0.011078 -0.004405 -0.002364 -0.001217 -0.001146 0.004978
# 2 -0.004405 0.022260 -0.004643 -0.000789 0.002143 0.007724
# 3 -0.002364 -0.004643 0.009575 -0.004035 -0.002482 0.002402
# 4 -0.001217 -0.000789 -0.004035 0.032985 -0.000638 -0.014561
# 5 -0.001146 0.002143 -0.002482 -0.000638 0.026121 0.003156
# 6 0.004978 0.007724 0.002402 -0.014561 0.003156 0.046412
#
#
# Mechanical properties :
#
#
# Convention : Reuss Voigt Hill
#
# Bulk Modulus (GPa) = 49.77914 80.46421 65.12168
# Shear Modulus (GPa) = 28.09759 35.40664 31.75211
#
# Velocity S-wave (km/s) = 3.74932 4.20882 3.98570
# Velocity P-wave (km/s) = 6.60666 7.99222 7.33225
#
# Compressibility (1/GPa) = 0.02008874
#
# Stress axis : x y z
#
# Youngs Moduli (GPa) = 90.26868 44.92401 104.43975
#
# Poissons Ratio (x) = 0.19789 0.24687
# Poissons Ratio (y) = 0.39764 0.48494
# Poissons Ratio (z) = 0.21337 0.20859
#
# Static dielectric constant tensor:
#      x y z
#    x 1.673130 0.005350 -0.008750 
#    y 0.005350 1.761270 0.004960 
#    z -0.008750 0.004960 1.688550 
# 
# From -- ./inp_files/205918.got.cif
#   From: 2010.05.17/outbox.cif.g08.bks.cpg/sg2_103_cif.got.tgz:205918.got - 2010.06.03 11:33:40.
