data_PCOD9016372
_publ_section_title
;
Structure prediction by ZEFSAII (Michael W. Deem and Ramdas Pophale) SiO2 
 PCOD9016372
Probable space group: P -1
;
_chemical_formula_sum "Si O2"
_cell_formula_units_Z 14
_cell_length_a 9.390708
_cell_length_b 9.041174
_cell_length_c 11.268037
_cell_angle_alpha 43.647139
_cell_angle_beta 86.724109
_cell_angle_gamma 74.917016
_cell_volume 625.106225
_symmetry_space_group_name_H-M "P -1"
_symmetry_group_IT_number 2
_symmetry_cell_setting 'triclinic'
loop_
_space_group_symop_operation_xyz
x,y,z
-x,-y,-z
loop_
_atom_site_type_symbol
_atom_site_label
_atom_site_fract_x
_atom_site_fract_y
_atom_site_fract_z
Si Si1 0.893027 0.806001 0.613728
Si Si2 0.181377 0.722299 0.546725
Si Si3 0.848893 0.466614 0.969650
Si Si4 0.594413 0.389011 0.194918
Si Si5 0.656332 0.450077 0.592138
Si Si6 0.291034 0.786889 0.027341
Si Si7 0.319006 0.067986 0.658613
O O1 0.795889 0.675644 0.760197
O O2 0.826206 0.903069 0.433696
O O3 0.057862 0.640253 0.669283
O O4 0.889670 0.008025 0.585978
O O5 0.336187 0.657369 0.650108
O O6 0.214009 0.637941 0.461869
O O7 0.852723 0.259560 0.000956
O O8 0.725781 0.452113 0.079960
O O9 0.000000 0.500000 0.000000
O O10 0.440910 0.591177 0.088539
O O11 0.573493 0.161722 0.272988
O O12 0.500000 0.500000 0.500000
O O13 0.694293 0.263558 0.803916
O O14 0.650138 0.697371 0.494076
O O15 0.300808 0.011950 0.830446
#
# Coordination Sequence:
#
# PCOD9016372 Si02
#       7
#     2   2   2   2   2   2   2
#     4  10  21  42  68  92 130 169 222 272 324 381
#     4  10  22  40  64  97 128 170 218 271 323 388
#     4  11  20  37  68 100 124 164 223 272 316 378
#     4  10  21  42  67  95 133 167 220 275 316 384
#     4  12  25  43  65  95 135 175 215 264 333 392
#     4  11  24  44  64 100 135 170 218 269 324 396
#     4  10  23  42  66  92 130 174 212 271 327 376
#
# _framework density 22.396191999999999
#
# number of rings (size 3 to 8) (size 9 to 14) (size 15 to 20)
#    0.000    1.429    4.286    1.714    2.000    4.000 
#    2.571    0.714    0.000    0.000    0.000    0.000 
#    0.000    0.000    0.000    0.000    0.000    0.000 
#
# Total GULP energy -77984.369085 kJ/mol
# GULP energy per Si atom -5570.312078 kJ/mol
# Density = 2.234522 g / cm^3
# Si number density = 22.396192 Si / 1000 Ang^3
#
#
#
# Elastic Constant Matrix: (Units=GPa)
#
#
# Indices 1 2 3 4 5 6 
#
# 1 77.8161 26.8919 7.9324 9.0398 5.3451 2.3461
# 2 26.8919 60.5922 25.2802 21.4500 -3.2973 -8.4582
# 3 7.9324 25.2802 114.8862 28.0502 -1.9289 -4.5250
# 4 9.0398 21.4500 28.0502 32.7463 3.7720 -1.3902
# 5 5.3451 -3.2973 -1.9289 3.7720 33.9537 7.2268
# 6 2.3461 -8.4582 -4.5250 -1.3902 7.2268 26.0051
#
#
#
# Elastic Compliance Matrix: (Units=1/GPa)
#
#
# Indices 1 2 3 4 5 6 
#
# 1 0.015769 -0.007997 0.000307 0.000792 -0.002650 -0.003191
# 2 -0.007997 0.026992 -0.001547 -0.014271 0.003800 0.007413
# 3 0.000307 -0.001547 0.011218 -0.008804 0.001291 0.000592
# 4 0.000792 -0.014271 -0.008804 0.047937 -0.006964 -0.001747
# 5 -0.002650 0.003800 0.001291 -0.006964 0.032739 -0.007771
# 6 -0.003191 0.007413 0.000592 -0.001747 -0.007771 0.043322
#
#
# Mechanical properties :
#
#
# Convention : Reuss Voigt Hill
#
# Bulk Modulus (GPa) = 28.16431 41.50038 34.83235
# Shear Modulus (GPa) = 24.00547 31.42036 27.71292
#
# Velocity S-wave (km/s) = 3.27747 3.74964 3.52148
# Velocity P-wave (km/s) = 5.18895 6.10874 5.66754
#
# Compressibility (1/GPa) = 0.03550593
#
# Stress axis : x y z
#
# Youngs Moduli (GPa) = 63.41399 37.04808 89.14171
#
# Poissons Ratio (x) = 0.29627 -0.02741
# Poissons Ratio (y) = 0.50712 0.13793
# Poissons Ratio (z) = -0.01950 0.05732
#
# Static dielectric constant tensor:
#      x y z
#    x 1.940500 0.047930 -0.004580 
#    y 0.047930 1.867910 0.020210 
#    z -0.004580 0.020210 1.934850 
# 
# From -- ./inp_files/377690.got.cif
#   From: 2010.05.17/outbox.cif.g08.bks.cpg/sg2_189_cif.got.tgz:377690.got - 2010.06.03 11:33:40.
