data_PCOD9016630
_publ_section_title
;
Structure prediction by ZEFSAII (Michael W. Deem and Ramdas Pophale) SiO2 
 PCOD9016630
Probable space group: P -1
;
_chemical_formula_sum "Si O2"
_cell_formula_units_Z 16
_cell_length_a 21.838502
_cell_length_b 8.858975
_cell_length_c 19.498504
_cell_angle_alpha 137.000533
_cell_angle_beta 157.682894
_cell_angle_gamma 31.459606
_cell_volume 715.151224
_symmetry_space_group_name_H-M "P -1"
_symmetry_group_IT_number 2
_symmetry_cell_setting 'triclinic'
loop_
_space_group_symop_operation_xyz
x,y,z
-x,-y,-z
loop_
_atom_site_type_symbol
_atom_site_label
_atom_site_fract_x
_atom_site_fract_y
_atom_site_fract_z
Si Si1 0.074036 0.302642 0.579805
Si Si2 0.731307 0.549992 0.075229
Si Si3 0.139899 0.747551 0.412934
Si Si4 0.444651 0.734817 0.234735
Si Si5 0.763889 0.758193 0.033073
Si Si6 0.973621 0.336724 0.977292
Si Si7 0.609108 0.864116 0.327838
Si Si8 0.184135 0.869729 0.348544
O O1 0.268123 0.247687 0.803327
O O2 0.000000 0.500000 0.500000
O O3 0.848410 0.524433 0.463799
O O4 0.131572 0.002525 0.518563
O O5 0.758508 0.623405 0.052016
O O6 0.556970 0.514488 0.879205
O O7 0.950326 0.213702 0.214395
O O8 0.345089 0.431916 0.554722
O O9 0.179277 0.734353 0.368262
O O10 0.912222 0.836915 0.222322
O O11 0.462975 0.884282 0.240221
O O12 0.215011 0.999475 0.122774
O O13 0.883267 0.515618 0.014023
O O14 0.519869 0.037556 0.844742
O O15 0.812079 0.299683 0.767322
O O16 0.000000 0.500000 0.000000
O O17 0.646135 0.088100 0.455933
#
# Coordination Sequence:
#
# PCOD9016630 Si02
#       8
#     2   2   2   2   2   2   2   2
#     4  11  24  45  72  95 134 181 221 273 345 392
#     4  10  23  44  66 100 136 170 226 282 324 401
#     4  12  23  43  68  99 135 176 222 282 326 396
#     4  11  25  43  70 100 139 174 227 275 332 399
#     4  12  25  43  71  99 140 173 226 280 331 396
#     4  11  22  47  70  98 134 185 217 273 342 392
#     4  11  23  43  67 103 133 177 225 277 333 397
#     4  10  21  42  68  96 138 170 224 278 324 400
#
# _framework density 22.372890000000002
#
# number of rings (size 3 to 8) (size 9 to 14) (size 15 to 20)
#    0.000    1.000    5.000    3.000    0.000    6.000 
#    0.000    0.000    0.000    0.000    0.000    0.000 
#    0.000    0.000    0.000    0.000    0.000    0.000 
#
# Total GULP energy -89514.397004 kJ/mol
# GULP energy per Si atom -5594.649813 kJ/mol
# Density = 2.232197 g / cm^3
# Si number density = 22.372890 Si / 1000 Ang^3
#
#
#
# Elastic Constant Matrix: (Units=GPa)
#
#
# Indices 1 2 3 4 5 6 
#
# 1 96.6488 0.2945 20.7579 6.4230 -10.9679 17.8185
# 2 0.2945 45.2479 19.7216 3.8589 -5.6583 0.1467
# 3 20.7579 19.7216 126.2935 10.0944 -9.5508 18.8347
# 4 6.4230 3.8589 10.0944 40.8328 6.3969 8.6491
# 5 -10.9679 -5.6583 -9.5508 6.3969 34.9518 -3.7785
# 6 17.8185 0.1467 18.8347 8.6491 -3.7785 39.7084
#
#
#
# Elastic Compliance Matrix: (Units=1/GPa)
#
#
# Indices 1 2 3 4 5 6 
#
# 1 0.011820 0.000951 -0.001110 -0.001315 0.003349 -0.004176
# 2 0.000951 0.024459 -0.003802 -0.002610 0.003938 0.002229
# 3 -0.001110 -0.003802 0.009436 -0.001277 0.001465 -0.003546
# 4 -0.001315 -0.002610 -0.001277 0.027474 -0.006799 -0.005426
# 5 0.003349 0.003938 0.001465 -0.006799 0.032196 0.002332
# 6 -0.004176 0.002229 -0.003546 -0.005426 0.002332 0.030135
#
#
# Mechanical properties :
#
#
# Convention : Reuss Voigt Hill
#
# Bulk Modulus (GPa) = 26.45965 38.85979 32.65972
# Shear Modulus (GPa) = 32.04340 38.25967 35.15154
#
# Velocity S-wave (km/s) = 3.78860 4.13981 3.96809
# Velocity P-wave (km/s) = 5.56690 6.34488 5.96858
#
# Compressibility (1/GPa) = 0.03779339
#
# Stress axis : x y z
#
# Youngs Moduli (GPa) = 84.60560 40.88444 105.97824
#
# Poissons Ratio (x) = -0.03890 0.11765
# Poissons Ratio (y) = -0.08049 0.40291
# Poissons Ratio (z) = 0.09393 0.15544
#
# Static dielectric constant tensor:
#      x y z
#    x 1.799750 -0.049540 0.019320 
#    y -0.049540 1.852380 -0.018210 
#    z 0.019320 -0.018210 1.874540 
# 
# From -- ./inp_files/178723.got.cif
#   From: 2010.05.17/outbox.cif.g08.bks.cpg/sg2_90_cif.got.tgz:178723.got - 2010.06.03 11:33:40.
