data_PCOD9016617
_publ_section_title
;
Structure prediction by ZEFSAII (Michael W. Deem and Ramdas Pophale) SiO2 
 PCOD9016617
Probable space group: P -1
;
_chemical_formula_sum "Si O2"
_cell_formula_units_Z 16
_cell_length_a 12.149973
_cell_length_b 12.351747
_cell_length_c 12.600915
_cell_angle_alpha 100.991043
_cell_angle_beta 65.521187
_cell_angle_gamma 43.501215
_cell_volume 735.344023
_symmetry_space_group_name_H-M "P -1"
_symmetry_group_IT_number 2
_symmetry_cell_setting 'triclinic'
loop_
_space_group_symop_operation_xyz
x,y,z
-x,-y,-z
loop_
_atom_site_type_symbol
_atom_site_label
_atom_site_fract_x
_atom_site_fract_y
_atom_site_fract_z
Si Si1 0.049545 0.782224 0.031280
Si Si2 0.629787 0.306120 0.993716
Si Si3 0.286596 0.369512 0.139015
Si Si4 0.872415 0.232774 0.234483
Si Si5 0.500405 0.671380 0.603837
Si Si6 0.742462 0.633927 0.093451
Si Si7 0.315839 0.283043 0.330348
Si Si8 0.630862 0.921185 0.545620
O O1 0.274201 0.691989 0.950226
O O2 0.972598 0.862347 0.953622
O O3 0.166270 0.567153 0.967549
O O4 0.776360 0.031546 0.256740
O O5 0.406403 0.393684 0.108651
O O6 0.500000 0.500000 0.000000
O O7 0.915774 0.998653 0.810224
O O8 0.412024 0.196138 0.154084
O O9 0.333269 0.288533 0.985969
O O10 0.958251 0.646816 0.344040
O O11 0.722179 0.462637 0.385549
O O12 0.636646 0.335483 0.319453
O O13 0.651462 0.617766 0.624486
O O14 0.488892 0.868542 0.317649
O O15 0.000000 0.500000 0.000000
O O16 0.000000 0.500000 0.500000
O O17 0.456094 0.093957 0.329813
O O18 0.500000 0.000000 0.500000
#
# Coordination Sequence:
#
# PCOD9016617 Si02
#       8
#     2   2   2   2   2   2   2   2
#     4  11  23  42  67  95 133 177 225 279 329 403
#     4  11  22  43  67 100 142 174 218 281 350 395
#     4  11  24  45  67  96 141 178 221 288 338 408
#     4  10  23  39  71  96 126 181 225 271 330 413
#     4  10  21  42  68  96 129 172 232 270 331 398
#     4  12  25  41  69 101 129 180 232 276 343 398
#     4  10  23  41  66  95 135 179 214 283 337 392
#     4  11  25  44  68 100 137 179 231 277 336 408
#
# _framework density 21.758523
#
# number of rings (size 3 to 8) (size 9 to 14) (size 15 to 20)
#    0.000    1.250    2.500    3.750    1.750    2.500 
#    2.250    1.875    0.000    0.000    0.000    0.000 
#    0.000    0.000    0.000    0.000    0.000    0.000 
#
# Total GULP energy -89239.260412 kJ/mol
# GULP energy per Si atom -5577.453776 kJ/mol
# Density = 2.170900 g / cm^3
# Si number density = 21.758523 Si / 1000 Ang^3
#
#
#
# Elastic Constant Matrix: (Units=GPa)
#
#
# Indices 1 2 3 4 5 6 
#
# 1 118.0368 33.6934 31.0528 -8.9501 6.3564 -19.0870
# 2 33.6934 125.2830 48.4196 -14.7341 16.9782 -14.0074
# 3 31.0528 48.4196 93.9037 5.4868 26.7960 -8.7284
# 4 -8.9501 -14.7341 5.4868 22.1501 2.5625 1.4742
# 5 6.3564 16.9782 26.7960 2.5625 41.6396 5.5917
# 6 -19.0870 -14.0074 -8.7284 1.4742 5.5917 30.7980
#
#
#
# Elastic Compliance Matrix: (Units=1/GPa)
#
#
# Indices 1 2 3 4 5 6 
#
# 1 0.010605 -0.000586 -0.002787 0.004292 -0.000577 0.005415
# 2 -0.000586 0.012092 -0.005604 0.009224 -0.002275 0.003520
# 3 -0.002787 -0.005604 0.017614 -0.008414 -0.008463 0.002655
# 4 0.004292 0.009224 -0.008414 0.055260 -0.002713 0.002317
# 5 -0.000577 -0.002275 -0.008463 -0.002713 0.031914 -0.009456
# 6 0.005415 0.003520 0.002655 0.002317 -0.009456 0.039785
#
#
# Mechanical properties :
#
#
# Convention : Reuss Voigt Hill
#
# Bulk Modulus (GPa) = 44.73055 62.61721 53.67388
# Shear Modulus (GPa) = 25.95032 33.85475 29.90254
#
# Velocity S-wave (km/s) = 3.45722 3.94881 3.71116
# Velocity P-wave (km/s) = 6.04474 7.04496 6.56393
#
# Compressibility (1/GPa) = 0.02235609
#
# Stress axis : x y z
#
# Youngs Moduli (GPa) = 94.29787 82.69995 56.77366
#
# Poissons Ratio (x) = 0.04850 0.15824
# Poissons Ratio (y) = 0.05530 0.31814
# Poissons Ratio (z) = 0.26282 0.46342
#
# Static dielectric constant tensor:
#      x y z
#    x 1.800590 -0.015230 -0.000980 
#    y -0.015230 1.878360 0.010900 
#    z -0.000980 0.010900 1.803660 
# 
# From -- ./inp_files/428379.got.cif
#   From: 2010.05.17/outbox.cif.g08.bks.cpg/sg2_215_cif.got.tgz:428379.got - 2010.06.03 11:33:40.
