data_PCOD9016217
_publ_section_title
;
Structure prediction by ZEFSAII (Michael W. Deem and Ramdas Pophale) SiO2 
 PCOD9016217
Probable space group: P -1
;
_chemical_formula_sum "Si O2"
_cell_formula_units_Z 14
_cell_length_a 11.733267
_cell_length_b 9.602703
_cell_length_c 13.911567
_cell_angle_alpha 115.694452
_cell_angle_beta 124.379339
_cell_angle_gamma 111.579337
_cell_volume 660.941702
_symmetry_space_group_name_H-M "P -1"
_symmetry_group_IT_number 2
_symmetry_cell_setting 'triclinic'
loop_
_space_group_symop_operation_xyz
x,y,z
-x,-y,-z
loop_
_atom_site_type_symbol
_atom_site_label
_atom_site_fract_x
_atom_site_fract_y
_atom_site_fract_z
Si Si1 0.983399 0.068411 0.409408
Si Si2 0.372574 0.758104 0.581595
Si Si3 0.485859 0.681856 0.793243
Si Si4 0.176016 0.738245 0.887154
Si Si5 0.137778 0.776186 0.107131
Si Si6 0.174793 0.269848 0.945212
Si Si7 0.506909 0.208536 0.874833
O O1 0.215380 0.394421 0.613564
O O2 0.979717 0.949127 0.280931
O O3 0.721730 0.910665 0.229004
O O4 0.000000 0.000000 0.500000
O O5 0.447408 0.683789 0.662739
O O6 0.088668 0.485769 0.347853
O O7 0.572822 0.948078 0.648882
O O8 0.405998 0.955853 0.707360
O O9 0.664400 0.707986 0.915341
O O10 0.625995 0.966459 0.978171
O O11 0.137402 0.754211 0.985164
O O12 0.281563 0.661989 0.916198
O O13 0.999354 0.797257 0.086506
O O14 0.000000 0.500000 0.000000
O O15 0.361063 0.562009 0.071405
#
# Coordination Sequence:
#
# PCOD9016217 Si02
#       7
#     2   2   2   2   2   2   2
#     4  12  26  41  68  98 129 173 221 269 330 379
#     4  10  23  44  68  99 132 173 215 263 325 392
#     4  10  24  44  64  98 134 171 219 262 328 389
#     4  10  23  43  68  96 137 169 215 268 320 389
#     4  10  21  42  67 101 129 168 216 266 327 386
#     4  12  23  43  67  97 135 166 212 281 323 381
#     4  10  23  41  66  97 129 168 219 267 321 381
#
# _framework density 21.181898
#
# number of rings (size 3 to 8) (size 9 to 14) (size 15 to 20)
#    0.000    1.714    4.286    1.286    2.000    6.286 
#    0.000    8.571    0.000    0.000    0.000    0.000 
#    0.000    0.000    0.000    0.000    0.000    0.000 
#
# Total GULP energy -78105.778249 kJ/mol
# GULP energy per Si atom -5578.984161 kJ/mol
# Density = 2.113369 g / cm^3
# Si number density = 21.181898 Si / 1000 Ang^3
#
#
#
# Elastic Constant Matrix: (Units=GPa)
#
#
# Indices 1 2 3 4 5 6 
#
# 1 96.6039 27.7459 20.0379 -10.4211 5.8798 -1.9857
# 2 27.7459 141.6394 51.7317 5.7570 12.5784 -8.4114
# 3 20.0379 51.7317 126.9973 1.5077 17.9682 1.2658
# 4 -10.4211 5.7570 1.5077 42.0227 -0.2355 14.9298
# 5 5.8798 12.5784 17.9682 -0.2355 35.6577 -3.2398
# 6 -1.9857 -8.4114 1.2658 14.9298 -3.2398 27.8935
#
#
#
# Elastic Compliance Matrix: (Units=1/GPa)
#
#
# Indices 1 2 3 4 5 6 
#
# 1 0.011580 -0.002155 -0.000852 0.003893 -0.000873 -0.001972
# 2 -0.002155 0.009144 -0.003270 -0.003232 -0.000845 0.004384
# 3 -0.000852 -0.003270 0.009908 0.000682 -0.003904 -0.002315
# 4 0.003893 -0.003232 0.000682 0.031468 -0.001247 -0.017716
# 5 -0.000873 -0.000845 -0.003904 -0.001247 0.030819 0.004107
# 6 -0.001972 0.004384 -0.002315 -0.017716 0.004107 0.047097
#
#
# Mechanical properties :
#
#
# Convention : Reuss Voigt Hill
#
# Bulk Modulus (GPa) = 55.32032 62.69686 59.00859
# Shear Modulus (GPa) = 31.52674 38.82979 35.17827
#
# Velocity S-wave (km/s) = 3.86214 4.28619 4.07968
# Velocity P-wave (km/s) = 6.78687 7.35926 7.07885
#
# Compressibility (1/GPa) = 0.01807654
#
# Stress axis : x y z
#
# Youngs Moduli (GPa) = 86.35692 109.36722 100.92641
#
# Poissons Ratio (x) = 0.23567 0.08602
# Poissons Ratio (y) = 0.18609 0.33006
# Poissons Ratio (z) = 0.07360 0.35766
#
# Static dielectric constant tensor:
#      x y z
#    x 1.762000 0.014500 -0.010800 
#    y 0.014500 1.781330 -0.018350 
#    z -0.010800 -0.018350 1.851700 
# 
# From -- ./inp_files/514531.got.cif
#   From: 2010.05.17/outbox.cif.g08.bks.cpg/sg2_258_cif.got.tgz:514531.got - 2010.06.03 11:33:40.
