data_PCOD9016455
_publ_section_title
;
Structure prediction by ZEFSAII (Michael W. Deem and Ramdas Pophale) SiO2 
 PCOD9016455
Probable space group: P -1
;
_chemical_formula_sum "Si O2"
_cell_formula_units_Z 16
_cell_length_a 6.903500
_cell_length_b 23.490614
_cell_length_c 10.963811
_cell_angle_alpha 144.154978
_cell_angle_beta 97.380884
_cell_angle_gamma 108.913446
_cell_volume 697.373277
_symmetry_space_group_name_H-M "P -1"
_symmetry_group_IT_number 2
_symmetry_cell_setting 'triclinic'
loop_
_space_group_symop_operation_xyz
x,y,z
-x,-y,-z
loop_
_atom_site_type_symbol
_atom_site_label
_atom_site_fract_x
_atom_site_fract_y
_atom_site_fract_z
Si Si1 0.137627 0.203162 0.528328
Si Si2 0.253062 0.709411 0.634552
Si Si3 0.339032 0.649065 0.787413
Si Si4 0.657665 0.876963 0.736646
Si Si5 0.514483 0.002554 0.197969
Si Si6 0.695523 0.591020 0.295452
Si Si7 0.314731 0.385234 0.100568
Si Si8 0.655126 0.152707 0.718634
O O1 0.362787 0.200933 0.516428
O O2 0.124924 0.256816 0.491494
O O3 0.241966 0.299312 0.821881
O O4 0.813749 0.057167 0.287899
O O5 0.373211 0.688885 0.718033
O O6 0.455491 0.765038 0.632408
O O7 0.921360 0.588883 0.349965
O O8 0.287202 0.833215 0.902066
O O9 0.000000 0.500000 0.500000
O O10 0.503049 0.615484 0.794815
O O11 0.425526 0.776337 0.096160
O O12 0.559308 0.948870 0.827756
O O13 0.000000 0.000000 0.000000
O O14 0.559764 0.092891 0.470070
O O15 0.500000 0.500000 0.000000
O O16 0.507215 0.538737 0.313045
O O17 0.007063 0.290341 0.976225
O O18 0.500000 0.000000 0.500000
#
# Coordination Sequence:
#
# PCOD9016455 Si02
#       8
#     2   2   2   2   2   2   2   2
#     4  10  21  42  67  99 134 173 228 284 343 407
#     4  12  23  42  67  98 142 180 225 289 342 404
#     4  12  26  47  68 102 146 180 233 283 336 419
#     4  12  23  36  64 104 132 172 220 282 357 401
#     4  11  22  43  67  98 140 174 231 290 337 409
#     4  10  21  43  67  94 136 183 222 284 344 403
#     4  10  24  45  69  96 136 182 232 281 341 409
#     4  11  25  46  72 100 133 187 232 283 349 399
#
# _framework density 22.943238000000001
#
# number of rings (size 3 to 8) (size 9 to 14) (size 15 to 20)
#    0.000    1.000    5.000    1.875    0.000    3.000 
#    2.250    1.250    0.000    0.000    0.000    0.000 
#    0.000    0.000    0.000    0.000    0.000    0.000 
#
# Total GULP energy -89119.023108 kJ/mol
# GULP energy per Si atom -5569.938944 kJ/mol
# Density = 2.289102 g / cm^3
# Si number density = 22.943238 Si / 1000 Ang^3
#
#
#
# Elastic Constant Matrix: (Units=GPa)
#
#
# Indices 1 2 3 4 5 6 
#
# 1 65.7711 37.4559 4.2062 -13.6612 0.6577 8.2358
# 2 37.4559 131.2236 17.4479 0.2061 20.3063 -14.3339
# 3 4.2062 17.4479 65.1785 -2.3447 4.1387 7.2631
# 4 -13.6612 0.2061 -2.3447 34.0763 1.8207 3.7390
# 5 0.6577 20.3063 4.1387 1.8207 32.8710 -3.3785
# 6 8.2358 -14.3339 7.2631 3.7390 -3.3785 34.5965
#
#
#
# Elastic Compliance Matrix: (Units=1/GPa)
#
#
# Indices 1 2 3 4 5 6 
#
# 1 0.023430 -0.008579 0.002145 0.010583 0.002901 -0.010443
# 2 -0.008579 0.012291 -0.003372 -0.004274 -0.005966 0.007722
# 3 0.002145 -0.003372 0.016908 0.002729 -0.000839 -0.005834
# 4 0.010583 -0.004274 0.002729 0.034796 -0.000736 -0.008695
# 5 0.002901 -0.005966 -0.000839 -0.000736 0.034241 0.000437
# 6 -0.010443 0.007722 -0.005834 -0.008695 0.000437 0.036797
#
#
# Mechanical properties :
#
#
# Convention : Reuss Voigt Hill
#
# Bulk Modulus (GPa) = 30.28806 42.26592 36.27699
# Shear Modulus (GPa) = 26.44362 33.84630 30.14496
#
# Velocity S-wave (km/s) = 3.39863 3.84502 3.62870
# Velocity P-wave (km/s) = 5.35078 6.17853 5.77949
#
# Compressibility (1/GPa) = 0.03301631
#
# Stress axis : x y z
#
# Youngs Moduli (GPa) = 42.68090 81.35898 59.14243
#
# Poissons Ratio (x) = 0.69799 -0.12684
# Poissons Ratio (y) = 0.36617 0.19943
# Poissons Ratio (z) = -0.09154 0.27435
#
# Static dielectric constant tensor:
#      x y z
#    x 1.925370 -0.041180 -0.090110 
#    y -0.041180 1.965000 0.031520 
#    z -0.090110 0.031520 2.074800 
# 
# From -- ./inp_files/371064.got.cif
#   From: 2010.05.17/outbox.cif.g08.bks.cpg/sg2_186_cif.got.tgz:371064.got - 2010.06.03 11:33:40.
