data_PCOD9016515
_publ_section_title
;
Structure prediction by ZEFSAII (Michael W. Deem and Ramdas Pophale) SiO2 
 PCOD9016515
Probable space group: P -1
;
_chemical_formula_sum "Si O2"
_cell_formula_units_Z 14
_cell_length_a 14.300786
_cell_length_b 11.394446
_cell_length_c 11.274515
_cell_angle_alpha 66.699136
_cell_angle_beta 154.958429
_cell_angle_gamma 127.807672
_cell_volume 539.673542
_symmetry_space_group_name_H-M "P -1"
_symmetry_group_IT_number 2
_symmetry_cell_setting 'triclinic'
loop_
_space_group_symop_operation_xyz
x,y,z
-x,-y,-z
loop_
_atom_site_type_symbol
_atom_site_label
_atom_site_fract_x
_atom_site_fract_y
_atom_site_fract_z
Si Si1 0.560947 0.431405 0.709086
Si Si2 0.859396 0.082351 0.269117
Si Si3 0.788103 0.251025 0.313748
Si Si4 0.653915 0.032160 0.814817
Si Si5 0.297484 0.134101 0.365890
Si Si6 0.634469 0.495486 0.031746
Si Si7 0.238660 0.713396 0.343320
O O1 0.500000 0.500000 0.500000
O O2 0.370390 0.237208 0.528644
O O3 0.495361 0.458231 0.756209
O O4 0.918026 0.542603 0.073886
O O5 0.921358 0.231747 0.357591
O O6 0.892100 0.118404 0.154281
O O7 0.000000 0.000000 0.500000
O O8 0.514005 0.931124 0.940197
O O9 0.698510 0.366626 0.162832
O O10 0.039597 0.323617 0.669414
O O11 0.396615 0.030169 0.553574
O O12 0.791816 0.157747 0.808543
O O13 0.487466 0.836263 0.678716
O O14 0.563282 0.285124 0.525570
O O15 0.000000 0.000000 0.000000
O O16 0.500000 0.500000 0.000000
#
# Coordination Sequence:
#
# PCOD9016515 Si02
#       7
#     2   2   2   2   2   2   2
#     4  12  25  42  70 109 144 188 250 304 376 450
#     4  11  22  42  69 108 142 195 248 305 368 448
#     4  10  24  45  69  98 146 191 256 306 367 445
#     4   9  20  40  66  96 148 183 240 295 369 435
#     4  10  21  42  68 107 148 193 235 301 387 452
#     4  11  25  50  72 101 146 204 251 313 375 441
#     4   9  21  42  65 103 146 185 234 303 376 443
#
# _framework density 25.941607999999999
#
# number of rings (size 3 to 8) (size 9 to 14) (size 15 to 20)
#    0.857    0.857    0.000    3.857    0.000    2.286 
#   18.000    0.000    0.000    0.000    0.000    0.000 
#    0.000    0.000    0.000    0.000    0.000    0.000 
#
# Total GULP energy -77953.726736 kJ/mol
# GULP energy per Si atom -5568.123338 kJ/mol
# Density = 2.588256 g / cm^3
# Si number density = 25.941608 Si / 1000 Ang^3
#
#
#
# Elastic Constant Matrix: (Units=GPa)
#
#
# Indices 1 2 3 4 5 6 
#
# 1 175.4095 53.7927 85.8262 12.7159 -12.5853 -36.1378
# 2 53.7927 77.6990 34.4401 0.5788 -14.1675 -33.6782
# 3 85.8262 34.4401 179.9543 26.0104 -16.7577 -12.6129
# 4 12.7159 0.5788 26.0104 50.8018 8.1979 -4.9178
# 5 -12.5853 -14.1675 -16.7577 8.1979 58.0746 12.1840
# 6 -36.1378 -33.6782 -12.6129 -4.9178 12.1840 38.3598
#
#
#
# Elastic Compliance Matrix: (Units=1/GPa)
#
#
# Indices 1 2 3 4 5 6 
#
# 1 0.009392 -0.002545 -0.003715 0.000278 -0.000895 0.005712
# 2 -0.002545 0.023425 -0.002483 0.003311 0.000268 0.017692
# 3 -0.003715 -0.002483 0.008331 -0.004117 0.002466 -0.004252
# 4 0.000278 0.003311 -0.004117 0.023090 -0.004908 0.006334
# 5 -0.000895 0.000268 0.002466 -0.004908 0.019911 -0.006751
# 6 0.005712 0.017692 -0.004252 0.006334 -0.006751 0.048541
#
#
# Mechanical properties :
#
#
# Convention : Reuss Voigt Hill
#
# Bulk Modulus (GPa) = 42.26334 86.79788 64.53061
# Shear Modulus (GPa) = 31.63292 46.71416 39.17354
#
# Velocity S-wave (km/s) = 3.49576 4.24812 3.89017
# Velocity P-wave (km/s) = 5.71147 7.58905 6.71619
#
# Compressibility (1/GPa) = 0.02366117
#
# Stress axis : x y z
#
# Youngs Moduli (GPa) = 106.47832 42.68911 120.03636
#
# Poissons Ratio (x) = 0.10863 0.44597
# Poissons Ratio (y) = 0.27096 0.29806
# Poissons Ratio (z) = 0.39560 0.10600
#
# Static dielectric constant tensor:
#      x y z
#    x 2.308250 -0.080970 -0.058790 
#    y -0.080970 2.156890 0.039440 
#    z -0.058790 0.039440 2.047440 
# 
# From -- ./inp_files/450237.got.cif
#   From: 2010.05.17/outbox.cif.g08.bks.cpg/sg2_226_cif.got.tgz:450237.got - 2010.06.03 11:33:40.
