data_PCOD9016601
_publ_section_title
;
Structure prediction by ZEFSAII (Michael W. Deem and Ramdas Pophale) SiO2 
 PCOD9016601
Probable space group: P -1
;
_chemical_formula_sum "Si O2"
_cell_formula_units_Z 16
_cell_length_a 9.386079
_cell_length_b 9.670706
_cell_length_c 14.221793
_cell_angle_alpha 111.661749
_cell_angle_beta 107.011113
_cell_angle_gamma 129.216211
_cell_volume 634.866461
_symmetry_space_group_name_H-M "P -1"
_symmetry_group_IT_number 2
_symmetry_cell_setting 'triclinic'
loop_
_space_group_symop_operation_xyz
x,y,z
-x,-y,-z
loop_
_atom_site_type_symbol
_atom_site_label
_atom_site_fract_x
_atom_site_fract_y
_atom_site_fract_z
Si Si1 0.594079 0.019956 0.775818
Si Si2 0.953716 0.131177 0.311610
Si Si3 0.938233 0.151797 0.532040
Si Si4 0.338097 0.255777 0.336432
Si Si5 0.955005 0.473541 0.110044
Si Si6 0.535847 0.570167 0.271610
Si Si7 0.055774 0.574022 0.686941
Si Si8 0.616794 0.454323 0.958997
O O1 0.606432 0.871444 0.689030
O O2 0.302289 0.773375 0.709256
O O3 0.725812 0.247150 0.783212
O O4 0.803581 0.226424 0.953924
O O5 0.075391 0.375772 0.345531
O O6 0.021582 0.196364 0.450444
O O7 0.042314 0.051524 0.262281
O O8 0.633859 0.869376 0.175628
O O9 0.202205 0.312356 0.678898
O O10 0.888593 0.284255 0.567196
O O11 0.681772 0.833289 0.414825
O O12 0.500000 0.500000 0.500000
O O13 0.376578 0.346284 0.261378
O O14 0.878429 0.377200 0.177978
O O15 0.840313 0.540843 0.074406
O O16 0.354046 0.468146 0.123775
O O17 0.500000 0.500000 0.000000
#
# Coordination Sequence:
#
# PCOD9016601 Si02
#       8
#     2   2   2   2   2   2   2   2
#     4  11  25  45  70  98 139 181 226 283 337 405
#     4  11  24  41  66 101 134 171 227 276 341 408
#     4  10  21  42  68  95 133 176 221 282 341 406
#     4  12  24  43  68 103 136 176 227 284 342 407
#     4  11  26  45  70 100 139 181 232 276 341 405
#     4  10  22  39  66  96 134 170 223 274 343 395
#     4  12  23  45  74  96 134 184 224 277 349 401
#     4  11  23  41  65  98 134 174 227 277 330 405
#
# _framework density 25.202148000000001
#
# number of rings (size 3 to 8) (size 9 to 14) (size 15 to 20)
#    0.000    1.000    3.750    2.250    1.750    2.000 
#    0.000    2.500    0.000    0.000    0.000    0.000 
#    0.000    0.000    0.000    0.000    0.000    0.000 
#
# Total GULP energy -89435.562889 kJ/mol
# GULP energy per Si atom -5589.722681 kJ/mol
# Density = 2.514479 g / cm^3
# Si number density = 25.202148 Si / 1000 Ang^3
#
#
#
# Elastic Constant Matrix: (Units=GPa)
#
#
# Indices 1 2 3 4 5 6 
#
# 1 89.2641 7.8232 28.8381 -7.8274 -10.6937 -7.3201
# 2 7.8232 63.4322 22.0225 -5.0425 5.5701 -15.3421
# 3 28.8381 22.0225 65.7259 4.1820 -8.3009 -7.3435
# 4 -7.8274 -5.0425 4.1820 39.8866 -6.7613 0.7406
# 5 -10.6937 5.5701 -8.3009 -6.7613 40.3117 8.3468
# 6 -7.3201 -15.3421 -7.3435 0.7406 8.3468 38.9784
#
#
#
# Elastic Compliance Matrix: (Units=1/GPa)
#
#
# Indices 1 2 3 4 5 6 
#
# 1 0.013874 0.000743 -0.006117 0.003904 0.002749 0.001083
# 2 0.000743 0.020815 -0.007240 0.002466 -0.005430 0.008084
# 3 -0.006117 -0.007240 0.020891 -0.003753 0.003190 -0.000674
# 4 0.003904 0.002466 -0.003753 0.027334 0.004612 -0.000510
# 5 0.002749 -0.005430 0.003190 0.004612 0.029243 -0.007370
# 6 0.001083 0.008084 -0.000674 -0.000510 -0.007370 0.030501
#
#
# Mechanical properties :
#
#
# Convention : Reuss Voigt Hill
#
# Bulk Modulus (GPa) = 32.94563 37.30997 35.12780
# Shear Modulus (GPa) = 28.08961 34.48457 31.28709
#
# Velocity S-wave (km/s) = 3.34214 3.70309 3.52724
# Velocity P-wave (km/s) = 5.29095 5.75502 5.52786
#
# Compressibility (1/GPa) = 0.03035304
#
# Stress axis : x y z
#
# Youngs Moduli (GPa) = 72.07680 48.04236 47.86828
#
# Poissons Ratio (x) = -0.03571 0.29280
# Poissons Ratio (y) = -0.05358 0.34657
# Poissons Ratio (z) = 0.44088 0.34783
#
# Static dielectric constant tensor:
#      x y z
#    x 2.153760 0.054680 0.128100 
#    y 0.054680 1.953240 0.042450 
#    z 0.128100 0.042450 2.074160 
# 
# From -- ./inp_files/495626.got.cif
#   From: 2010.05.17/outbox.cif.g08.bks.cpg/sg2_248_cif.got.tgz:495626.got - 2010.06.03 11:33:40.
