data_PCOD9016566
_publ_section_title
;
Structure prediction by ZEFSAII (Michael W. Deem and Ramdas Pophale) SiO2 
 PCOD9016566
Probable space group: P -1
;
_chemical_formula_sum "Si O2"
_cell_formula_units_Z 14
_cell_length_a 7.463910
_cell_length_b 16.450495
_cell_length_c 8.102808
_cell_angle_alpha 107.920902
_cell_angle_beta 52.492919
_cell_angle_gamma 71.024242
_cell_volume 551.283209
_symmetry_space_group_name_H-M "P -1"
_symmetry_group_IT_number 2
_symmetry_cell_setting 'triclinic'
loop_
_space_group_symop_operation_xyz
x,y,z
-x,-y,-z
loop_
_atom_site_type_symbol
_atom_site_label
_atom_site_fract_x
_atom_site_fract_y
_atom_site_fract_z
Si Si1 0.011736 0.083965 0.648351
Si Si2 0.675665 0.632559 0.075485
Si Si3 0.285190 0.297522 0.246557
Si Si4 0.755273 0.455899 0.098278
Si Si5 0.573594 0.346763 0.321697
Si Si6 0.913007 0.924320 0.038127
Si Si7 0.955435 0.826239 0.627126
O O1 0.129980 0.124575 0.480013
O O2 0.652366 0.186647 0.959000
O O3 0.200983 0.036210 0.682669
O O4 0.000000 0.000000 0.500000
O O5 0.685067 0.527181 0.017886
O O6 0.322846 0.750488 0.374339
O O7 0.800525 0.640023 0.840856
O O8 0.898043 0.613839 0.079469
O O9 0.284225 0.367249 0.433912
O O10 0.112350 0.255499 0.357231
O O11 0.689331 0.373762 0.117520
O O12 0.532642 0.563279 0.418646
O O13 0.832286 0.216360 0.162730
O O14 0.792185 0.920729 0.925870
O O15 0.000000 0.000000 0.000000
#
# Coordination Sequence:
#
# PCOD9016566 Si02
#       7
#     2   2   2   2   2   2   2
#     4  10  22  43  65  97 134 178 232 276 330 396
#     4  10  22  41  65  96 126 179 218 275 337 393
#     4  10  24  42  64  97 139 174 220 278 335 409
#     4  10  21  42  68  93 133 174 225 282 324 408
#     4  10  22  42  65  96 135 175 221 278 339 390
#     4  11  21  41  72  94 131 181 220 273 336 396
#     4  11  22  45  67  96 145 172 222 281 332 407
#
# _framework density 25.395295000000001
#
# number of rings (size 3 to 8) (size 9 to 14) (size 15 to 20)
#    0.000    1.714    2.857    0.857    2.000    1.714 
#   18.000    0.714    0.000    0.000    0.000    0.000 
#    0.000    0.000    0.000    0.000    0.000    0.000 
#
# Total GULP energy -78209.872731 kJ/mol
# GULP energy per Si atom -5586.419481 kJ/mol
# Density = 2.533749 g / cm^3
# Si number density = 25.395295 Si / 1000 Ang^3
#
#
#
# Elastic Constant Matrix: (Units=GPa)
#
#
# Indices 1 2 3 4 5 6 
#
# 1 64.5338 28.6217 13.1956 -19.2423 8.2555 20.1776
# 2 28.6217 175.1243 34.0303 -46.9193 13.4056 25.2330
# 3 13.1956 34.0303 68.7899 -4.6342 -2.7399 -0.1495
# 4 -19.2423 -46.9193 -4.6342 52.4335 -13.8119 10.2450
# 5 8.2555 13.4056 -2.7399 -13.8119 44.5711 -4.7694
# 6 20.1776 25.2330 -0.1495 10.2450 -4.7694 42.5275
#
#
#
# Elastic Compliance Matrix: (Units=1/GPa)
#
#
# Indices 1 2 3 4 5 6 
#
# 1 0.025837 0.004034 -0.006111 0.015254 -0.003655 -0.018759
# 2 0.004034 0.011627 -0.005727 0.013299 -0.001784 -0.012237
# 3 -0.006111 -0.005727 0.018225 -0.006635 0.002804 0.008274
# 4 0.015254 0.013299 -0.006635 0.041631 0.003009 -0.024843
# 5 -0.003655 -0.001784 0.002804 0.003009 0.025280 0.004913
# 6 -0.018759 -0.012237 0.008274 -0.024843 0.004913 0.046240
#
#
# Mechanical properties :
#
#
# Convention : Reuss Voigt Hill
#
# Bulk Modulus (GPa) = 24.94912 51.12702 38.03807
# Shear Modulus (GPa) = 25.27709 43.41311 34.34510
#
# Velocity S-wave (km/s) = 3.15833 4.13909 3.68152
# Velocity P-wave (km/s) = 4.81100 6.55888 5.75172
#
# Compressibility (1/GPa) = 0.04008157
#
# Stress axis : x y z
#
# Youngs Moduli (GPa) = 38.70395 86.00936 54.86916
#
# Poissons Ratio (x) = -0.34698 0.33529
# Poissons Ratio (y) = -0.15614 0.31425
# Poissons Ratio (z) = 0.23651 0.49260
#
# Static dielectric constant tensor:
#      x y z
#    x 2.069120 -0.037330 0.080970 
#    y -0.037330 2.027070 -0.010700 
#    z 0.080970 -0.010700 2.103960 
# 
# From -- ./inp_files/202398.got.cif
#   From: 2010.05.17/outbox.cif.g08.bks.cpg/sg2_102_cif.got.tgz:202398.got - 2010.06.03 11:33:40.
