data_PCOD9016259
_publ_section_title
;
Structure prediction by ZEFSAII (Michael W. Deem and Ramdas Pophale) SiO2 
 PCOD9016259
Probable space group: P -1
;
_chemical_formula_sum "Si O2"
_cell_formula_units_Z 14
_cell_length_a 19.019989
_cell_length_b 5.123141
_cell_length_c 8.984639
_cell_angle_alpha 56.754884
_cell_angle_beta 55.996366
_cell_angle_gamma 69.696296
_cell_volume 605.959007
_symmetry_space_group_name_H-M "P -1"
_symmetry_group_IT_number 2
_symmetry_cell_setting 'triclinic'
loop_
_space_group_symop_operation_xyz
x,y,z
-x,-y,-z
loop_
_atom_site_type_symbol
_atom_site_label
_atom_site_fract_x
_atom_site_fract_y
_atom_site_fract_z
Si Si1 0.373883 0.553646 0.824943
Si Si2 0.531109 0.053927 0.167460
Si Si3 0.083078 0.567347 0.783287
Si Si4 0.616808 0.500909 0.712892
Si Si5 0.076747 0.303755 0.543278
Si Si6 0.269564 0.657453 0.629898
Si Si7 0.742758 0.677724 0.724849
O O1 0.413862 0.803044 0.808420
O O2 0.308219 0.686745 0.738313
O O3 0.448528 0.314057 0.750691
O O4 0.317630 0.331208 0.060969
O O5 0.435403 0.178880 0.278824
O O6 0.557392 0.234222 0.928093
O O7 0.084226 0.372173 0.689576
O O8 0.176328 0.517062 0.768710
O O9 0.072187 0.934612 0.641328
O O10 0.000000 0.500000 0.000000
O O11 0.653573 0.513897 0.501348
O O12 0.701754 0.452017 0.725745
O O13 0.160828 0.416740 0.328750
O O14 0.000000 0.500000 0.500000
O O15 0.257801 0.992131 0.459820
#
# Coordination Sequence:
#
# PCOD9016259 Si02
#       7
#     2   2   2   2   2   2   2
#     4  11  25  41  64  99 129 171 224 265 322 381
#     4  10  24  41  65  96 129 175 218 271 319 387
#     4  11  25  46  67 101 135 172 217 272 338 395
#     4  10  21  42  67  88 137 172 216 268 332 376
#     4  11  24  44  71  99 130 176 217 273 334 396
#     4  11  24  42  69  94 133 175 214 272 328 388
#     4  10  23  44  65  95 134 171 220 266 329 391
#
# _framework density 23.103873
#
# number of rings (size 3 to 8) (size 9 to 14) (size 15 to 20)
#    0.000    1.429    2.857    0.857    6.000    2.857 
#    5.143    0.000    0.000    0.000    0.000    0.000 
#    0.000    0.000    0.000    0.000    0.000    0.000 
#
# Total GULP energy -78291.469905 kJ/mol
# GULP energy per Si atom -5592.247850 kJ/mol
# Density = 2.305129 g / cm^3
# Si number density = 23.103873 Si / 1000 Ang^3
#
#
#
# Elastic Constant Matrix: (Units=GPa)
#
#
# Indices 1 2 3 4 5 6 
#
# 1 126.4635 8.5291 35.6051 -0.0901 -9.5223 -21.8927
# 2 8.5291 58.5392 5.1850 9.8316 1.5297 -1.5597
# 3 35.6051 5.1850 75.1090 9.7187 -13.1966 1.8072
# 4 -0.0901 9.8316 9.7187 26.4265 -5.0366 -0.7191
# 5 -9.5223 1.5297 -13.1966 -5.0366 40.6264 1.2541
# 6 -21.8927 -1.5597 1.8072 -0.7191 1.2541 36.4378
#
#
#
# Elastic Compliance Matrix: (Units=1/GPa)
#
#
# Indices 1 2 3 4 5 6 
#
# 1 0.010746 -0.001427 -0.005360 0.002908 0.000986 0.006685
# 2 -0.001427 0.018560 0.000002 -0.007282 -0.001931 -0.000140
# 3 -0.005360 0.000002 0.017378 -0.005803 0.003803 -0.004327
# 4 0.002908 -0.007282 -0.005803 0.043599 0.004401 0.002432
# 5 0.000986 -0.001931 0.003803 0.004401 0.026715 -0.000512
# 6 0.006685 -0.000140 -0.004327 0.002432 -0.000512 0.031735
#
#
# Mechanical properties :
#
#
# Convention : Reuss Voigt Hill
#
# Bulk Modulus (GPa) = 30.19900 39.86113 35.03006
# Shear Modulus (GPa) = 28.84494 34.75098 31.79796
#
# Velocity S-wave (km/s) = 3.53723 3.88250 3.71388
# Velocity P-wave (km/s) = 5.45729 6.11465 5.79530
#
# Compressibility (1/GPa) = 0.03311368
#
# Stress axis : x y z
#
# Youngs Moduli (GPa) = 93.05639 53.87891 57.54516
#
# Poissons Ratio (x) = 0.07689 0.30842
# Poissons Ratio (y) = 0.13280 -0.00009
# Poissons Ratio (z) = 0.49875 -0.00009
#
# Static dielectric constant tensor:
#      x y z
#    x 1.888930 0.023520 -0.009150 
#    y 0.023520 1.916120 0.029110 
#    z -0.009150 0.029110 1.894420 
# 
# From -- ./inp_files/35634.got.cif
#   From: 2010.05.17/outbox.cif.g08.bks.cpg/sg2_18_cif.got.tgz:35634.got - 2010.06.03 11:33:40.
