data_PCOD9016661
_publ_section_title
;
Structure prediction by ZEFSAII (Michael W. Deem and Ramdas Pophale) SiO2 
 PCOD9016661
Probable space group: P -1
;
_chemical_formula_sum "Si O2"
_cell_formula_units_Z 12
_cell_length_a 8.276908
_cell_length_b 10.238398
_cell_length_c 13.583343
_cell_angle_alpha 147.860137
_cell_angle_beta 69.408172
_cell_angle_gamma 106.982655
_cell_volume 573.200453
_symmetry_space_group_name_H-M "P -1"
_symmetry_group_IT_number 2
_symmetry_cell_setting 'triclinic'
loop_
_space_group_symop_operation_xyz
x,y,z
-x,-y,-z
loop_
_atom_site_type_symbol
_atom_site_label
_atom_site_fract_x
_atom_site_fract_y
_atom_site_fract_z
Si Si1 0.438185 0.258479 0.635726
Si Si2 0.828019 0.367342 0.988855
Si Si3 0.769639 0.137293 0.063953
Si Si4 0.858514 0.914144 0.553804
Si Si5 0.884143 0.487002 0.419601
Si Si6 0.383491 0.361101 0.279479
O O1 0.329738 0.436994 0.846054
O O2 0.593940 0.412022 0.654347
O O3 0.500000 0.000000 0.500000
O O4 0.301864 0.200025 0.541706
O O5 0.848847 0.250041 0.018684
O O6 0.796619 0.142613 0.778758
O O7 0.000000 0.500000 0.000000
O O8 0.868911 0.236796 0.201390
O O9 0.574796 0.249531 0.180876
O O10 0.737831 0.849012 0.874098
O O11 0.935672 0.702357 0.471739
O O12 0.000000 0.000000 0.500000
O O13 0.696118 0.555711 0.547376
O O14 0.000000 0.500000 0.500000
#
# Coordination Sequence:
#
# PCOD9016661 Si02
#       6
#     2   2   2   2   2   2
#     4  11  26  44  69 103 138 181 235 287 347 409
#     4  11  21  42  72  98 134 185 228 279 349 409
#     4  10  21  42  68  98 129 177 229 284 342 407
#     4  12  24  45  71  98 141 184 229 287 351 415
#     4  12  25  40  69 104 136 180 227 286 347 411
#     4  10  22  41  68  94 134 170 232 276 348 398
#
# _framework density 20.935085000000001
#
# number of rings (size 3 to 8) (size 9 to 14) (size 15 to 20)
#    0.000    1.000    6.667    0.500    2.333    1.333 
#    0.000    0.000    0.000    0.000    0.000    0.000 
#    0.000    0.000    0.000    0.000    0.000    0.000 
#
# Total GULP energy -67090.278191 kJ/mol
# GULP energy per Si atom -5590.856516 kJ/mol
# Density = 2.088744 g / cm^3
# Si number density = 20.935085 Si / 1000 Ang^3
#
#
#
# Elastic Constant Matrix: (Units=GPa)
#
#
# Indices 1 2 3 4 5 6 
#
# 1 71.5851 47.6290 34.7180 -0.8903 24.4214 -3.9044
# 2 47.6290 171.0373 52.2000 10.2795 13.4619 14.1256
# 3 34.7180 52.2000 178.8946 2.2447 31.5938 3.0084
# 4 -0.8903 10.2795 2.2447 43.6765 5.2049 -3.7963
# 5 24.4214 13.4619 31.5938 5.2049 26.7500 -4.2002
# 6 -3.9044 14.1256 3.0084 -3.7963 -4.2002 38.3186
#
#
#
# Elastic Compliance Matrix: (Units=1/GPa)
#
#
# Indices 1 2 3 4 5 6 
#
# 1 0.025069 -0.005999 0.000462 0.004637 -0.020860 0.002902
# 2 -0.005999 0.008224 -0.001742 -0.002667 0.003380 -0.003400
# 3 0.000462 -0.001742 0.007562 0.001012 -0.008794 -0.000768
# 4 0.004637 -0.002667 0.001012 0.024827 -0.008461 0.002908
# 5 -0.020860 0.003380 -0.008794 -0.008461 0.067366 0.003865
# 6 0.002902 -0.003400 -0.000768 0.002908 0.003865 0.028418
#
#
# Mechanical properties :
#
#
# Convention : Reuss Voigt Hill
#
# Bulk Modulus (GPa) = 38.02543 76.73456 57.38000
# Shear Modulus (GPa) = 27.05811 40.88035 33.96923
#
# Velocity S-wave (km/s) = 3.59900 4.42375 4.03252
# Velocity P-wave (km/s) = 5.95595 7.92628 7.01068
#
# Compressibility (1/GPa) = 0.02629819
#
# Stress axis : x y z
#
# Youngs Moduli (GPa) = 39.89012 121.59987 132.24574
#
# Poissons Ratio (x) = 0.72943 -0.06114
# Poissons Ratio (y) = 0.23928 0.23034
# Poissons Ratio (z) = -0.01844 0.21180
#
# Static dielectric constant tensor:
#      x y z
#    x 1.768610 -0.003490 -0.022580 
#    y -0.003490 1.742360 0.020650 
#    z -0.022580 0.020650 1.764590 
# 
# From -- ./inp_files/173706.got.cif
#   From: 2010.05.17/outbox.cif.g08.bks.cpg/sg2_87_cif.got.tgz:173706.got - 2010.06.03 11:33:40.
