data_PCOD9016726
_publ_section_title
;
Structure prediction by ZEFSAII (Michael W. Deem and Ramdas Pophale) SiO2 
 PCOD9016726
Probable space group: P -1
;
_chemical_formula_sum "Si O2"
_cell_formula_units_Z 12
_cell_length_a 15.796087
_cell_length_b 6.571960
_cell_length_c 5.218637
_cell_angle_alpha 71.169785
_cell_angle_beta 121.466785
_cell_angle_gamma 93.364224
_cell_volume 433.289197
_symmetry_space_group_name_H-M "P -1"
_symmetry_group_IT_number 2
_symmetry_cell_setting 'triclinic'
loop_
_space_group_symop_operation_xyz
x,y,z
-x,-y,-z
loop_
_atom_site_type_symbol
_atom_site_label
_atom_site_fract_x
_atom_site_fract_y
_atom_site_fract_z
Si Si1 0.182206 0.023826 0.151676
Si Si2 0.655684 0.228255 0.794011
Si Si3 0.010248 0.243444 0.486501
Si Si4 0.685671 0.691714 0.422066
Si Si5 0.468759 0.754376 0.899318
Si Si6 0.850310 0.441792 0.486802
O O1 0.250308 0.150615 0.390011
O O2 0.245863 0.943921 0.029391
O O3 0.155714 0.793757 0.306276
O O4 0.082803 0.186322 0.869808
O O5 0.674342 0.474225 0.656396
O O6 0.579716 0.163363 0.479953
O O7 0.610155 0.233532 0.999929
O O8 0.072429 0.397137 0.357795
O O9 0.901739 0.369749 0.327162
O O10 0.000000 0.000000 0.500000
O O11 0.744329 0.586377 0.306529
O O12 0.575579 0.814736 0.134603
O O13 0.500000 0.500000 0.000000
#
# Coordination Sequence:
#
# PCOD9016726 Si02
#       6
#     2   2   2   2   2   2
#     4  11  25  42  67 102 137 183 236 292 357 425
#     4  10  24  43  69 104 144 188 239 293 350 421
#     4  11  25  43  68  98 134 182 235 293 361 428
#     4  10  22  40  66  97 138 184 234 292 353 419
#     4  10  21  42  69 101 143 190 236 292 352 415
#     4  10  24  43  65  96 132 176 231 292 353 424
#
# _framework density 27.695125999999998
#
# number of rings (size 3 to 8) (size 9 to 14) (size 15 to 20)
#    0.000    1.667    0.000    3.500    0.000   18.667 
#    0.000    0.000    0.000    0.000    0.000    0.000 
#    0.000    0.000    0.000    0.000    0.000    0.000 
#
# Total GULP energy -67201.978888 kJ/mol
# GULP energy per Si atom -5600.164907 kJ/mol
# Density = 2.763209 g / cm^3
# Si number density = 27.695126 Si / 1000 Ang^3
#
#
#
# Elastic Constant Matrix: (Units=GPa)
#
#
# Indices 1 2 3 4 5 6 
#
# 1 165.3424 70.4005 14.0810 8.9087 -8.4055 -14.4989
# 2 70.4005 230.1366 54.3208 -9.4817 -12.1474 33.8329
# 3 14.0810 54.3208 89.4998 15.5191 5.1870 18.6416
# 4 8.9087 -9.4817 15.5191 58.9284 0.8971 4.2589
# 5 -8.4055 -12.1474 5.1870 0.8971 31.2964 5.1668
# 6 -14.4989 33.8329 18.6416 4.2589 5.1668 57.3915
#
#
#
# Elastic Compliance Matrix: (Units=1/GPa)
#
#
# Indices 1 2 3 4 5 6 
#
# 1 0.007793 -0.003050 0.000153 -0.001991 0.000307 0.003837
# 2 -0.003050 0.007022 -0.003563 0.002788 0.003117 -0.004240
# 3 0.000153 -0.003563 0.014661 -0.004262 -0.003318 -0.002008
# 4 -0.001991 0.002788 -0.004262 0.018989 0.001084 -0.002269
# 5 0.000307 0.003117 -0.003318 0.001084 0.034401 -0.003860
# 6 0.003837 -0.004240 -0.002008 -0.002269 -0.003860 0.022061
#
#
# Mechanical properties :
#
#
# Convention : Reuss Voigt Hill
#
# Bulk Modulus (GPa) = 60.39793 84.73149 72.56471
# Shear Modulus (GPa) = 40.52966 52.60170 46.56568
#
# Velocity S-wave (km/s) = 3.82962 4.36284 4.10490
# Velocity P-wave (km/s) = 6.43507 7.48598 6.98033
#
# Compressibility (1/GPa) = 0.01655686
#
# Stress axis : x y z
#
# Youngs Moduli (GPa) = 128.31918 142.40790 68.20742
#
# Poissons Ratio (x) = 0.43436 -0.01046
# Poissons Ratio (y) = 0.39138 0.24302
# Poissons Ratio (z) = -0.01968 0.50740
#
# Static dielectric constant tensor:
#      x y z
#    x 2.175360 0.084980 0.006040 
#    y 0.084980 2.201440 0.087910 
#    z 0.006040 0.087910 2.170530 
# 
# From -- ./inp_files/102745.got.cif
#   From: 2010.05.17/outbox.cif.g08.bks.cpg/sg2_52_cif.got.tgz:102745.got - 2010.06.03 11:33:40.
