data_PCOD9016808
_publ_section_title
;
Structure prediction by ZEFSAII (Michael W. Deem and Ramdas Pophale) SiO2 
 PCOD9016808
Probable space group: P -1
;
_chemical_formula_sum "Si O2"
_cell_formula_units_Z 14
_cell_length_a 9.550666
_cell_length_b 19.184255
_cell_length_c 7.950606
_cell_angle_alpha 83.782419
_cell_angle_beta 114.813498
_cell_angle_gamma 40.779004
_cell_volume 600.468505
_symmetry_space_group_name_H-M "P -1"
_symmetry_group_IT_number 2
_symmetry_cell_setting 'triclinic'
loop_
_space_group_symop_operation_xyz
x,y,z
-x,-y,-z
loop_
_atom_site_type_symbol
_atom_site_label
_atom_site_fract_x
_atom_site_fract_y
_atom_site_fract_z
Si Si1 0.728593 0.772119 0.363890
Si Si2 0.254889 0.837424 0.607903
Si Si3 0.859279 0.810388 0.928851
Si Si4 0.732811 0.623886 0.477684
Si Si5 0.075649 0.362924 0.875018
Si Si6 0.914482 0.843114 0.571155
Si Si7 0.044471 0.874835 0.127141
O O1 0.808277 0.673706 0.549553
O O2 0.797161 0.718576 0.221894
O O3 0.924264 0.764619 0.501770
O O4 0.333234 0.948242 0.149333
O O5 0.165580 0.860736 0.363261
O O6 0.187434 0.790475 0.676036
O O7 0.622305 0.718228 0.862208
O O8 0.000000 0.000000 0.500000
O O9 0.918190 0.821457 0.774480
O O10 0.452432 0.973688 0.703889
O O11 0.010657 0.672364 0.058379
O O12 0.013505 0.803401 0.139018
O O13 0.345688 0.775213 0.180173
O O14 0.000000 0.500000 0.500000
O O15 0.789390 0.536907 0.656372
#
# Coordination Sequence:
#
# PCOD9016808 Si02
#       7
#     2   2   2   2   2   2   2
#     4  10  21  42  69  94 128 174 220 268 320 385
#     4  12  23  39  69 103 131 167 219 271 322 389
#     4  10  22  39  65  97 132 171 215 272 322 384
#     4  10  25  42  65  97 134 173 216 272 329 388
#     4  11  23  43  66  95 140 170 212 269 330 384
#     4  10  22  39  63 101 131 164 222 273 319 377
#     4  11  23  40  71  94 129 171 227 260 330 379
#
# _framework density 23.315131999999998
#
# number of rings (size 3 to 8) (size 9 to 14) (size 15 to 20)
#    0.000    1.429    2.857    1.286    6.000    4.571 
#    0.000    0.714    0.000    0.000    0.000    0.000 
#    0.000    0.000    0.000    0.000    0.000    0.000 
#
# Total GULP energy -78294.838501 kJ/mol
# GULP energy per Si atom -5592.488464 kJ/mol
# Density = 2.326207 g / cm^3
# Si number density = 23.315132 Si / 1000 Ang^3
#
#
#
# Elastic Constant Matrix: (Units=GPa)
#
#
# Indices 1 2 3 4 5 6 
#
# 1 107.4383 47.5714 14.5525 -6.7871 -2.4959 44.5552
# 2 47.5714 96.9683 40.4692 9.7467 6.6076 29.6017
# 3 14.5525 40.4692 49.1167 12.3864 3.6145 20.7904
# 4 -6.7871 9.7467 12.3864 34.4153 11.8173 0.5767
# 5 -2.4959 6.6076 3.6145 11.8173 29.8563 -6.4029
# 6 44.5552 29.6017 20.7904 0.5767 -6.4029 53.5189
#
#
#
# Elastic Compliance Matrix: (Units=1/GPa)
#
#
# Indices 1 2 3 4 5 6 
#
# 1 0.017243 -0.006985 0.005073 0.004504 -0.002148 -0.012768
# 2 -0.006985 0.019814 -0.013710 -0.001046 -0.002929 -0.000157
# 3 0.005073 -0.013710 0.036815 -0.008149 -0.000103 -0.010866
# 4 0.004504 -0.001046 -0.008149 0.037976 -0.013881 -0.002075
# 5 -0.002148 -0.002929 -0.000103 -0.013881 0.041300 0.008539
# 6 -0.012768 -0.000157 -0.010866 -0.002075 0.008539 0.034666
#
#
# Mechanical properties :
#
#
# Convention : Reuss Voigt Hill
#
# Bulk Modulus (GPa) = 23.45893 50.96770 37.21331
# Shear Modulus (GPa) = 21.43459 33.62014 27.52736
#
# Velocity S-wave (km/s) = 3.03536 3.80147 3.43981
# Velocity P-wave (km/s) = 4.72949 6.41686 5.63667
#
# Compressibility (1/GPa) = 0.04262770
#
# Stress axis : x y z
#
# Youngs Moduli (GPa) = 57.99518 50.46928 27.16276
#
# Poissons Ratio (x) = 0.35253 -0.13780
# Poissons Ratio (y) = 0.40510 0.37240
# Poissons Ratio (z) = -0.29421 0.69193
#
# Static dielectric constant tensor:
#      x y z
#    x 1.924580 -0.043800 -0.040010 
#    y -0.043800 1.906580 0.006380 
#    z -0.040010 0.006380 1.876160 
# 
# From -- ./inp_files/156601.got.cif
#   From: 2010.05.17/outbox.cif.g08.bks.cpg/sg2_79_cif.got.tgz:156601.got - 2010.06.03 11:33:40.
