data_PCOD9016166
_publ_section_title
;
Structure prediction by ZEFSAII (Michael W. Deem and Ramdas Pophale) SiO2 
 PCOD9016166
Probable space group: P -1
;
_chemical_formula_sum "Si O2"
_cell_formula_units_Z 16
_cell_length_a 9.249290
_cell_length_b 12.718402
_cell_length_c 14.668976
_cell_angle_alpha 50.352049
_cell_angle_beta 143.241301
_cell_angle_gamma 130.661918
_cell_volume 757.335488
_symmetry_space_group_name_H-M "P -1"
_symmetry_group_IT_number 2
_symmetry_cell_setting 'triclinic'
loop_
_space_group_symop_operation_xyz
x,y,z
-x,-y,-z
loop_
_atom_site_type_symbol
_atom_site_label
_atom_site_fract_x
_atom_site_fract_y
_atom_site_fract_z
Si Si1 0.320258 0.560545 0.671411
Si Si2 0.830534 0.735751 0.331777
Si Si3 0.384294 0.850253 0.075063
Si Si4 0.083287 0.393273 0.033002
Si Si5 0.776739 0.475024 0.154053
Si Si6 0.038899 0.794437 0.609115
Si Si7 0.417579 0.112352 0.641240
Si Si8 0.685555 0.132968 0.575773
O O1 0.205958 0.428481 0.619657
O O2 0.619113 0.579790 0.820855
O O3 0.175797 0.511898 0.721375
O O4 0.320498 0.717009 0.553957
O O5 0.553533 0.752643 0.180805
O O6 0.957284 0.779064 0.470345
O O7 0.017007 0.848875 0.295027
O O8 0.436744 0.862574 0.203124
O O9 0.094229 0.767903 0.950113
O O10 0.500000 0.000000 0.000000
O O11 0.053137 0.424108 0.892887
O O12 0.000000 0.500000 0.000000
O O13 0.816943 0.322107 0.233188
O O14 0.500000 0.500000 0.000000
O O15 0.768977 0.788121 0.522334
O O16 0.230513 0.950162 0.638763
O O17 0.598236 0.126754 0.638576
O O18 0.500000 0.000000 0.500000
#
# Coordination Sequence:
#
# PCOD9016166 Si02
#       8
#     2   2   2   2   2   2   2   2
#     4  11  24  42  69  95 141 177 216 287 333 392
#     4  11  23  43  67 100 135 175 222 279 337 398
#     4  11  27  46  68  98 135 179 228 278 338 403
#     4  11  25  44  66  95 130 179 230 271 334 402
#     4  10  23  41  65  95 134 177 222 270 339 396
#     4  10  21  42  66  97 139 174 222 281 335 395
#     4  10  24  40  68 100 131 179 225 282 335 396
#     4  12  24  42  69 103 134 175 228 273 343 405
#
# _framework density 21.126701000000001
#
# number of rings (size 3 to 8) (size 9 to 14) (size 15 to 20)
#    0.000    1.250    3.750    0.375    7.000    0.000 
#    0.000    3.125    0.000    0.000    0.000    0.000 
#    0.000    0.000    0.000    0.000    0.000    0.000 
#
# Total GULP energy -89272.404505 kJ/mol
# GULP energy per Si atom -5579.525282 kJ/mol
# Density = 2.107862 g / cm^3
# Si number density = 21.126701 Si / 1000 Ang^3
#
#
#
# Elastic Constant Matrix: (Units=GPa)
#
#
# Indices 1 2 3 4 5 6 
#
# 1 130.2683 32.0400 15.8079 12.8835 -9.6195 6.3747
# 2 32.0400 124.6392 23.9140 13.1355 -0.4321 0.5473
# 3 15.8079 23.9140 57.1877 2.3873 -0.1061 -2.5910
# 4 12.8835 13.1355 2.3873 35.2370 0.5160 6.1960
# 5 -9.6195 -0.4321 -0.1061 0.5160 23.4379 -4.9247
# 6 6.3747 0.5473 -2.5910 6.1960 -4.9247 33.3787
#
#
#
# Elastic Compliance Matrix: (Units=1/GPa)
#
#
# Indices 1 2 3 4 5 6 
#
# 1 0.008825 -0.001681 -0.001668 -0.002391 0.003461 -0.000833
# 2 -0.001681 0.009377 -0.003328 -0.002712 -0.000398 0.000354
# 3 -0.001668 -0.003328 0.019410 0.000224 -0.000286 0.001796
# 4 -0.002391 -0.002712 0.000224 0.031298 -0.002922 -0.005722
# 5 0.003461 -0.000398 -0.000286 -0.002922 0.045525 0.006583
# 6 -0.000833 0.000354 0.001796 -0.005722 0.006583 0.032285
#
#
# Mechanical properties :
#
#
# Convention : Reuss Voigt Hill
#
# Bulk Modulus (GPa) = 41.22246 50.62431 45.92339
# Shear Modulus (GPa) = 29.73343 34.43295 32.08319
#
# Velocity S-wave (km/s) = 3.75558 4.04150 3.90116
# Velocity P-wave (km/s) = 6.19357 6.76702 6.48663
#
# Compressibility (1/GPa) = 0.02425862
#
# Stress axis : x y z
#
# Youngs Moduli (GPa) = 113.31263 106.64848 51.51855
#
# Poissons Ratio (x) = 0.17927 0.08594
# Poissons Ratio (y) = 0.19047 0.17145
# Poissons Ratio (z) = 0.18901 0.35491
#
# Static dielectric constant tensor:
#      x y z
#    x 1.807660 -0.010100 0.042770 
#    y -0.010100 1.725870 -0.011420 
#    z 0.042770 -0.011420 1.823810 
# 
# From -- ./inp_files/206924.got.cif
#   From: 2010.05.17/outbox.cif.g08.bks.cpg/sg2_104_cif.got.tgz:206924.got - 2010.06.03 11:33:40.
