data_PCOD9016609
_publ_section_title
;
Structure prediction by ZEFSAII (Michael W. Deem and Ramdas Pophale) SiO2 
 PCOD9016609
Probable space group: P -1
;
_chemical_formula_sum "Si O2"
_cell_formula_units_Z 14
_cell_length_a 5.161429
_cell_length_b 21.102675
_cell_length_c 6.774363
_cell_angle_alpha 123.553683
_cell_angle_beta 104.790614
_cell_angle_gamma 99.398254
_cell_volume 550.479100
_symmetry_space_group_name_H-M "P -1"
_symmetry_group_IT_number 2
_symmetry_cell_setting 'triclinic'
loop_
_space_group_symop_operation_xyz
x,y,z
-x,-y,-z
loop_
_atom_site_type_symbol
_atom_site_label
_atom_site_fract_x
_atom_site_fract_y
_atom_site_fract_z
Si Si1 0.997750 0.727912 0.302423
Si Si2 0.577737 0.256259 0.943150
Si Si3 0.405272 0.971177 0.654369
Si Si4 0.300716 0.457821 0.071180
Si Si5 0.273124 0.567426 0.568388
Si Si6 0.123900 0.089957 0.274920
Si Si7 0.497043 0.848833 0.875425
O O1 0.207523 0.788038 0.607946
O O2 0.701911 0.744252 0.237429
O O3 0.920267 0.632744 0.182213
O O4 0.169664 0.740154 0.150875
O O5 0.701181 0.340608 0.238145
O O6 0.486528 0.184948 0.963559
O O7 0.916575 0.078284 0.404930
O O8 0.500000 0.000000 0.500000
O O9 0.563387 0.907615 0.597657
O O10 0.508702 0.059449 0.942152
O O11 0.234216 0.532929 0.280347
O O12 0.460926 0.435781 0.253408
O O13 0.500000 0.500000 0.000000
O O14 0.000000 0.500000 0.500000
O O15 0.224282 0.146670 0.195173
O O16 0.000000 0.000000 0.000000
#
# Coordination Sequence:
#
# PCOD9016609 Si02
#       7
#     2   2   2   2   2   2   2
#     4  11  27  47  70 110 149 190 250 299 370 438
#     4  11  27  47  72 109 148 195 244 302 373 426
#     4  11  25  48  78 109 140 192 242 292 365 437
#     4  10  23  41  70 100 136 192 247 301 353 430
#     4  10  21  42  68  95 141 184 247 300 346 432
#     4  10  23  47  73 106 141 180 243 289 352 440
#     4  11  27  49  78 105 155 193 235 313 368 431
#
# _framework density 25.432390000000002
#
# number of rings (size 3 to 8) (size 9 to 14) (size 15 to 20)
#    0.000    1.429    1.429    2.143    4.000   10.857 
#    0.000    0.000    0.000    0.000    0.000    0.000 
#    0.000    0.000    0.000    0.000    0.000    0.000 
#
# Total GULP energy -78205.893927 kJ/mol
# GULP energy per Si atom -5586.135280 kJ/mol
# Density = 2.537450 g / cm^3
# Si number density = 25.432390 Si / 1000 Ang^3
#
#
#
# Elastic Constant Matrix: (Units=GPa)
#
#
# Indices 1 2 3 4 5 6 
#
# 1 158.6436 31.7903 31.0497 -13.3345 -34.1671 31.5371
# 2 31.7903 137.5157 39.9135 4.9524 -11.3351 23.4718
# 3 31.0497 39.9135 137.4610 24.8728 -22.5109 26.3677
# 4 -13.3345 4.9524 24.8728 51.5092 17.5903 -0.9835
# 5 -34.1671 -11.3351 -22.5109 17.5903 51.2405 -10.5126
# 6 31.5371 23.4718 26.3677 -0.9835 -10.5126 50.3603
#
#
#
# Elastic Compliance Matrix: (Units=1/GPa)
#
#
# Indices 1 2 3 4 5 6 
#
# 1 0.008239 -0.000857 -0.000423 0.000973 0.004030 -0.003678
# 2 -0.000857 0.008406 -0.001694 -0.000308 0.000143 -0.002470
# 3 -0.000423 -0.001694 0.010803 -0.007228 0.005848 -0.003522
# 4 0.000973 -0.000308 -0.007228 0.027186 -0.011636 0.001420
# 5 0.004030 0.000143 0.005848 -0.011636 0.028826 0.000138
# 6 -0.003678 -0.002470 -0.003522 0.001420 0.000138 0.025213
#
#
# Mechanical properties :
#
#
# Convention : Reuss Voigt Hill
#
# Bulk Modulus (GPa) = 46.51077 71.01415 58.76246
# Shear Modulus (GPa) = 41.05471 52.67979 46.86725
#
# Velocity S-wave (km/s) = 4.02216 4.55616 4.29746
# Velocity P-wave (km/s) = 6.31649 7.46066 6.91229
#
# Compressibility (1/GPa) = 0.02150040
#
# Stress axis : x y z
#
# Youngs Moduli (GPa) = 121.37712 118.95848 92.56356
#
# Poissons Ratio (x) = 0.10194 0.03913
# Poissons Ratio (y) = 0.10401 0.15684
# Poissons Ratio (z) = 0.05131 0.20156
#
# Static dielectric constant tensor:
#      x y z
#    x 2.132540 -0.048200 0.057360 
#    y -0.048200 2.182120 0.109970 
#    z 0.057360 0.109970 2.127260 
# 
# From -- ./inp_files/11578.got.cif
#   From: 2010.05.17/outbox.cif.g08.bks.cpg/sg2_6_cif.got.tgz:11578.got - 2010.06.03 11:33:40.
