data_PCOD9016461
_publ_section_title
;
Structure prediction by ZEFSAII (Michael W. Deem and Ramdas Pophale) SiO2 
 PCOD9016461
Probable space group: P -1
;
_chemical_formula_sum "Si O2"
_cell_formula_units_Z 15
_cell_length_a 5.664828
_cell_length_b 8.399556
_cell_length_c 16.621126
_cell_angle_alpha 112.333965
_cell_angle_beta 100.725509
_cell_angle_gamma 120.759470
_cell_volume 551.942582
_symmetry_space_group_name_H-M "P -1"
_symmetry_group_IT_number 2
_symmetry_cell_setting 'triclinic'
loop_
_space_group_symop_operation_xyz
x,y,z
-x,-y,-z
loop_
_atom_site_type_symbol
_atom_site_label
_atom_site_fract_x
_atom_site_fract_y
_atom_site_fract_z
Si Si1 0.871246 0.103413 0.241180
Si Si2 0.000000 0.500000 0.500000
Si Si3 0.525851 0.216529 0.551092
Si Si4 0.610458 0.509853 0.349049
Si Si5 0.641364 0.235417 0.743830
Si Si6 0.374565 0.019910 0.078346
Si Si7 0.892121 0.735595 0.113171
Si Si8 0.424998 0.426939 0.143646
O O1 0.656758 0.136523 0.183493
O O2 0.237541 0.314989 0.306334
O O3 0.709784 0.986489 0.294720
O O4 0.822831 0.904400 0.150414
O O5 0.321457 0.654389 0.497622
O O6 0.192425 0.543713 0.604526
O O7 0.277689 0.257262 0.560007
O O8 0.682591 0.291214 0.664165
O O9 0.500000 0.000000 0.500000
O O10 0.637883 0.532085 0.258773
O O11 0.856869 0.188641 0.785649
O O12 0.726743 0.454464 0.835707
O O13 0.272859 0.172066 0.094881
O O14 0.080544 0.785459 0.053673
O O15 0.500000 0.000000 0.000000
O O16 0.599559 0.497220 0.082752
#
# Coordination Sequence:
#
# PCOD9016461 Si02
#       8
#     2   1   2   2   2   2   2   2
#     4  10  23  43  75  96 130 182 225 269 331 402
#     4  12  28  46  66  98 138 172 224 284 336 378
#     4  11  27  44  66 100 134 174 225 284 335 387
#     4  11  25  47  69  98 133 181 227 272 332 399
#     4   9  22  44  68  96 132 175 233 266 331 404
#     4  11  25  43  69 105 137 170 220 278 333 391
#     4  10  21  42  68 100 129 179 220 269 328 397
#     4  10  22  42  71  95 132 183 223 265 334 402
#
# _framework density 27.176742000000001
#
# number of rings (size 3 to 8) (size 9 to 14) (size 15 to 20)
#    0.000    1.600    1.333    1.200    9.333    1.600 
#    0.000    6.000    0.000    0.000    0.000    0.000 
#    0.000    0.000    0.000    0.000    0.000    0.000 
#
# Total GULP energy -83639.893408 kJ/mol
# GULP energy per Si atom -5575.992894 kJ/mol
# Density = 2.711489 g / cm^3
# Si number density = 27.176742 Si / 1000 Ang^3
#
#
#
# Elastic Constant Matrix: (Units=GPa)
#
#
# Indices 1 2 3 4 5 6 
#
# 1 54.2023 25.7859 18.8943 7.1675 4.9775 0.5842
# 2 25.7859 120.0954 48.4999 -24.5948 -14.7790 6.8323
# 3 18.8943 48.4999 120.7021 -28.9309 -24.1428 2.7654
# 4 7.1675 -24.5948 -28.9309 59.9166 9.1329 -13.3643
# 5 4.9775 -14.7790 -24.1428 9.1329 48.6984 -2.6444
# 6 0.5842 6.8323 2.7654 -13.3643 -2.6444 41.3064
#
#
#
# Elastic Compliance Matrix: (Units=1/GPa)
#
#
# Indices 1 2 3 4 5 6 
#
# 1 0.023757 -0.005306 -0.004123 -0.006626 -0.004929 -0.001642
# 2 -0.005306 0.011510 -0.002463 0.003784 0.002088 -0.000306
# 3 -0.004123 -0.002463 0.012019 0.004901 0.004798 0.001554
# 4 -0.006626 0.003784 0.004901 0.022810 0.000332 0.006541
# 5 -0.004929 0.002088 0.004798 0.000332 0.024045 0.001050
# 6 -0.001642 -0.000306 0.001554 0.006541 0.001050 0.026363
#
#
# Mechanical properties :
#
#
# Convention : Reuss Voigt Hill
#
# Bulk Modulus (GPa) = 42.54972 53.48445 48.01708
# Shear Modulus (GPa) = 32.86841 43.43895 38.15368
#
# Velocity S-wave (km/s) = 3.48146 4.00232 3.75094
# Velocity P-wave (km/s) = 5.64371 6.40945 6.03873
#
# Compressibility (1/GPa) = 0.02350192
#
# Stress axis : x y z
#
# Youngs Moduli (GPa) = 42.09200 86.88307 83.20472
#
# Poissons Ratio (x) = 0.46100 0.34308
# Poissons Ratio (y) = 0.22334 0.20490
# Poissons Ratio (z) = 0.17356 0.21396
#
# Static dielectric constant tensor:
#      x y z
#    x 2.179520 0.024030 0.000470 
#    y 0.024030 2.130920 0.088750 
#    z 0.000470 0.088750 2.137030 
# 
# From -- ./inp_files/480762.got.cif
#   From: 2010.05.17/outbox.cif.g08.bks.cpg/sg2_241_cif.got.tgz:480762.got - 2010.06.03 11:33:40.
