data_PCOD9016541
_publ_section_title
;
Structure prediction by ZEFSAII (Michael W. Deem and Ramdas Pophale) SiO2 
 PCOD9016541
Probable space group: P -1
;
_chemical_formula_sum "Si O2"
_cell_formula_units_Z 14
_cell_length_a 7.344370
_cell_length_b 5.160364
_cell_length_c 22.982087
_cell_angle_alpha 130.092591
_cell_angle_beta 56.156640
_cell_angle_gamma 101.608718
_cell_volume 536.167789
_symmetry_space_group_name_H-M "P -1"
_symmetry_group_IT_number 2
_symmetry_cell_setting 'triclinic'
loop_
_space_group_symop_operation_xyz
x,y,z
-x,-y,-z
loop_
_atom_site_type_symbol
_atom_site_label
_atom_site_fract_x
_atom_site_fract_y
_atom_site_fract_z
Si Si1 0.978192 0.129822 0.296010
Si Si2 0.415266 0.470586 0.773337
Si Si3 0.210559 0.255909 0.889659
Si Si4 0.498928 0.595928 0.447144
Si Si5 0.205641 0.661700 0.404538
Si Si6 0.565012 0.587295 0.937606
Si Si7 0.850363 0.537308 0.780090
O O1 0.733727 0.341630 0.350190
O O2 0.105878 0.381521 0.346055
O O3 0.101258 0.127066 0.210128
O O4 0.967325 0.835860 0.304166
O O5 0.250842 0.313216 0.821815
O O6 0.570180 0.292504 0.664812
O O7 0.621034 0.511323 0.784808
O O8 0.259659 0.844789 0.834722
O O9 0.420518 0.375134 0.896891
O O10 0.000000 0.500000 0.000000
O O11 0.500000 0.500000 0.500000
O O12 0.300940 0.531192 0.432095
O O13 0.500000 0.000000 0.500000
O O14 0.000000 0.000000 0.500000
O O15 0.806982 0.523864 0.854748
O O16 0.500000 0.500000 0.000000
O O17 0.500000 0.000000 0.000000
#
# Coordination Sequence:
#
# PCOD9016541 Si02
#       7
#     2   2   2   2   2   2   2
#     4  11  23  44  69  95 134 184 229 281 350 401
#     4  10  22  42  69 102 131 181 243 275 344 436
#     4  11  23  45  69  98 141 180 226 299 351 407
#     4  12  27  45  66 104 139 175 238 289 343 423
#     4  11  24  46  75 101 142 191 234 286 356 419
#     4  11  21  38  64  96 128 170 223 269 346 427
#     4  10  21  42  68  91 133 178 222 282 341 410
#
# _framework density 26.111229999999999
#
# number of rings (size 3 to 8) (size 9 to 14) (size 15 to 20)
#    0.000    1.143    1.429    7.286    2.000    4.000 
#    7.714    0.000    0.000    0.000    0.000    0.000 
#    0.000    0.000    0.000    0.000    0.000    0.000 
#
# Total GULP energy -78083.314513 kJ/mol
# GULP energy per Si atom -5577.379608 kJ/mol
# Density = 2.605180 g / cm^3
# Si number density = 26.111230 Si / 1000 Ang^3
#
#
#
# Elastic Constant Matrix: (Units=GPa)
#
#
# Indices 1 2 3 4 5 6 
#
# 1 113.5927 37.8268 15.4838 -2.9311 -12.6320 -22.3276
# 2 37.8268 233.8602 64.4362 -6.7979 8.7333 -41.0910
# 3 15.4838 64.4362 107.7931 -40.0276 -10.7265 -17.7495
# 4 -2.9311 -6.7979 -40.0276 37.2575 -10.6309 2.4713
# 5 -12.6320 8.7333 -10.7265 -10.6309 34.7651 5.0322
# 6 -22.3276 -41.0910 -17.7495 2.4713 5.0322 42.6400
#
#
#
# Elastic Compliance Matrix: (Units=1/GPa)
#
#
# Indices 1 2 3 4 5 6 
#
# 1 0.010609 -0.001814 0.002518 0.004648 0.005946 0.003884
# 2 -0.001814 0.007802 -0.008618 -0.010946 -0.009308 0.004714
# 3 0.002518 -0.008618 0.031114 0.038985 0.024483 0.000816
# 4 0.004648 -0.010946 0.038985 0.078803 0.040747 -0.001263
# 5 0.005946 -0.009308 0.024483 0.040747 0.053913 -0.004389
# 6 0.003884 0.004714 0.000816 -0.001263 -0.004389 0.030959
#
#
# Mechanical properties :
#
#
# Convention : Reuss Voigt Hill
#
# Bulk Modulus (GPa) = 29.67715 76.74883 53.21299
# Shear Modulus (GPa) = 20.81075 45.43246 33.12160
#
# Velocity S-wave (km/s) = 2.82619 4.17581 3.56544
# Velocity P-wave (km/s) = 4.69469 7.25994 6.11338
#
# Compressibility (1/GPa) = 0.03369596
#
# Stress axis : x y z
#
# Youngs Moduli (GPa) = 94.26037 128.17767 32.13958
#
# Poissons Ratio (x) = 0.23255 -0.08092
# Poissons Ratio (y) = 0.17101 0.27697
# Poissons Ratio (z) = -0.23732 1.10462
#
# Static dielectric constant tensor:
#      x y z
#    x 2.195480 0.105230 0.362460 
#    y 0.105230 2.025340 -0.177290 
#    z 0.362460 -0.177290 2.763080 
# 
# From -- ./inp_files/616142.got.cif
#   From: 2010.05.17/outbox.cif.g08.bks.cpg/sg2_309_cif.got.tgz:616142.got - 2010.06.03 11:33:40.
