data_PCOD9016110
_publ_section_title
;
Structure prediction by ZEFSAII (Michael W. Deem and Ramdas Pophale) SiO2 
 PCOD9016110
Probable space group: P -1
;
_chemical_formula_sum "Si O2"
_cell_formula_units_Z 16
_cell_length_a 25.094608
_cell_length_b 12.257357
_cell_length_c 9.200783
_cell_angle_alpha 138.554784
_cell_angle_beta 149.294631
_cell_angle_gamma 30.371234
_cell_volume 730.320188
_symmetry_space_group_name_H-M "P -1"
_symmetry_group_IT_number 2
_symmetry_cell_setting 'triclinic'
loop_
_space_group_symop_operation_xyz
x,y,z
-x,-y,-z
loop_
_atom_site_type_symbol
_atom_site_label
_atom_site_fract_x
_atom_site_fract_y
_atom_site_fract_z
Si Si1 0.895530 0.007997 0.161207
Si Si2 0.407550 0.747392 0.208205
Si Si3 0.483973 0.039923 0.173650
Si Si4 0.174034 0.377429 0.712413
Si Si5 0.530652 0.266365 0.995547
Si Si6 0.999476 0.552968 0.885888
Si Si7 0.165450 0.152539 0.700091
Si Si8 0.068190 0.830194 0.860596
O O1 0.852009 0.152199 0.057950
O O2 0.757318 0.097715 0.011975
O O3 0.000000 0.000000 0.500000
O O4 0.979442 0.767575 0.055267
O O5 0.452099 0.853074 0.520188
O O6 0.467964 0.732599 0.175888
O O7 0.467591 0.503369 0.137917
O O8 0.533019 0.832213 0.176607
O O9 0.320321 0.210410 0.966470
O O10 0.500000 0.000000 0.000000
O O11 0.128936 0.387071 0.449712
O O12 0.106436 0.288833 0.547624
O O13 0.151100 0.595208 0.888104
O O14 0.692046 0.082170 0.221505
O O15 0.138111 0.335841 0.924917
O O16 0.000000 0.500000 0.000000
O O17 0.058601 0.125791 0.475951
O O18 0.000000 0.000000 0.000000
#
# Coordination Sequence:
#
# PCOD9016110 Si02
#       8
#     2   2   2   2   2   2   2   2
#     4  12  25  43  65 102 133 172 227 288 349 407
#     4  11  25  48  70 101 144 185 238 293 350 420
#     4  11  25  43  71 102 139 187 235 287 357 420
#     4  10  22  41  62  97 131 174 227 268 342 415
#     4  10  24  47  72  99 139 190 238 290 347 426
#     4  11  21  40  66  92 132 175 218 285 336 402
#     4  10  21  42  66  95 132 175 228 275 345 411
#     4  11  22  36  64  95 132 172 213 283 339 407
#
# _framework density 21.908197999999999
#
# number of rings (size 3 to 8) (size 9 to 14) (size 15 to 20)
#    0.000    1.250    0.000    7.125    3.500    1.500 
#   13.500    0.000    0.000    0.000    0.000    0.000 
#    0.000    0.000    0.000    0.000    0.000    0.000 
#
# Total GULP energy -89138.251268 kJ/mol
# GULP energy per Si atom -5571.140704 kJ/mol
# Density = 2.185833 g / cm^3
# Si number density = 21.908198 Si / 1000 Ang^3
#
#
#
# Elastic Constant Matrix: (Units=GPa)
#
#
# Indices 1 2 3 4 5 6 
#
# 1 106.4751 32.7833 31.0615 15.3906 -15.5543 14.8950
# 2 32.7833 111.7481 42.0146 27.1930 -15.6129 24.2517
# 3 31.0615 42.0146 106.3742 25.4425 -10.5216 7.4577
# 4 15.3906 27.1930 25.4425 37.8888 -2.0538 -3.3387
# 5 -15.5543 -15.6129 -10.5216 -2.0538 28.4220 -0.3167
# 6 14.8950 24.2517 7.4577 -3.3387 -0.3167 25.3863
#
#
#
# Elastic Compliance Matrix: (Units=1/GPa)
#
#
# Indices 1 2 3 4 5 6 
#
# 1 0.012351 0.000775 -0.001563 -0.004903 0.006162 -0.008096
# 2 0.000775 0.017787 -0.002060 -0.012872 0.008297 -0.018431
# 3 -0.001563 -0.002060 0.012505 -0.006306 0.002169 -0.001591
# 4 -0.004903 -0.012872 -0.006306 0.043380 -0.008702 0.022623
# 5 0.006162 0.008297 0.002169 -0.008702 0.043146 -0.012785
# 6 -0.008096 -0.018431 -0.001591 0.022623 -0.012785 0.065032
#
#
# Mechanical properties :
#
#
# Convention : Reuss Voigt Hill
#
# Bulk Modulus (GPa) = 27.06512 59.59068 43.32790
# Shear Modulus (GPa) = 23.56134 32.92196 28.24165
#
# Velocity S-wave (km/s) = 3.28297 3.88070 3.59429
# Velocity P-wave (km/s) = 5.17216 6.88034 6.08647
#
# Compressibility (1/GPa) = 0.03694792
#
# Stress axis : x y z
#
# Youngs Moduli (GPa) = 80.96829 56.21967 79.96606
#
# Poissons Ratio (x) = -0.04360 0.12497
# Poissons Ratio (y) = -0.06279 0.16476
# Poissons Ratio (z) = 0.12654 0.11583
#
# Static dielectric constant tensor:
#      x y z
#    x 1.865990 0.007210 -0.005280 
#    y 0.007210 1.892530 0.037930 
#    z -0.005280 0.037930 1.815940 
# 
# From -- ./inp_files/357111.got.cif
#   From: 2010.05.17/outbox.cif.g08.bks.cpg/sg2_179_cif.got.tgz:357111.got - 2010.06.03 11:33:40.
