data_PCOD9016887
_publ_section_title
;
Structure prediction by ZEFSAII (Michael W. Deem and Ramdas Pophale) SiO2 
 PCOD9016887
Probable space group: P -1
;
_chemical_formula_sum "Si O2"
_cell_formula_units_Z 16
_cell_length_a 18.445626
_cell_length_b 8.142003
_cell_length_c 11.356066
_cell_angle_alpha 104.052423
_cell_angle_beta 39.306570
_cell_angle_gamma 131.828252
_cell_volume 656.482694
_symmetry_space_group_name_H-M "P -1"
_symmetry_group_IT_number 2
_symmetry_cell_setting 'triclinic'
loop_
_space_group_symop_operation_xyz
x,y,z
-x,-y,-z
loop_
_atom_site_type_symbol
_atom_site_label
_atom_site_fract_x
_atom_site_fract_y
_atom_site_fract_z
Si Si1 0.147921 0.736855 0.013511
Si Si2 0.244662 0.810459 0.632596
Si Si3 0.294752 0.486972 0.552991
Si Si4 0.586299 0.434848 0.822493
Si Si5 0.915124 0.678536 0.598673
Si Si6 0.918026 0.938568 0.853191
Si Si7 0.742601 0.167696 0.861456
Si Si8 0.422784 0.585846 0.663067
O O1 0.265923 0.803438 0.983357
O O2 0.959990 0.410864 0.199336
O O3 0.123719 0.911234 0.092070
O O4 0.223373 0.811647 0.800084
O O5 0.280928 0.655460 0.541227
O O6 0.408889 0.118732 0.439028
O O7 0.417083 0.536309 0.309658
O O8 0.358718 0.596422 0.623264
O O9 0.102486 0.166191 0.738934
O O10 0.785860 0.612722 0.650217
O O11 0.500000 0.500000 0.000000
O O12 0.451511 0.130529 0.977748
O O13 0.949560 0.861196 0.685235
O O14 0.801827 0.397209 0.753658
O O15 0.101193 0.797943 0.346382
O O16 0.748918 0.657476 0.083542
O O17 0.500000 0.500000 0.500000
#
# Coordination Sequence:
#
# PCOD9016887 Si02
#       8
#     2   2   2   2   2   2   2   2
#     4  10  21  42  69  98 136 184 227 282 348 414
#     4  10  22  41  66  98 135 183 228 279 345 417
#     4  11  26  44  68  98 134 184 227 278 351 419
#     4  12  26  46  75 102 139 185 242 287 348 421
#     4  11  26  46  69 106 140 184 233 298 350 409
#     4  11  24  44  68  98 141 179 226 289 347 414
#     4  11  25  46  72 102 142 185 236 291 352 415
#     4  12  25  41  65 103 138 173 227 287 342 415
#
# _framework density 24.372308
#
# number of rings (size 3 to 8) (size 9 to 14) (size 15 to 20)
#    0.000    1.000    1.250    4.875    5.250    2.500 
#    4.500    0.000    0.000    0.000    0.000    0.000 
#    0.000    0.000    0.000    0.000    0.000    0.000 
#
# Total GULP energy -89559.408497 kJ/mol
# GULP energy per Si atom -5597.463031 kJ/mol
# Density = 2.431684 g / cm^3
# Si number density = 24.372308 Si / 1000 Ang^3
#
#
#
# Elastic Constant Matrix: (Units=GPa)
#
#
# Indices 1 2 3 4 5 6 
#
# 1 48.8798 13.7521 13.4407 1.1262 -8.7363 0.0247
# 2 13.7521 142.2756 60.4994 -20.5720 -4.5078 -2.3899
# 3 13.4407 60.4994 111.7055 -30.7187 -5.4985 -9.2468
# 4 1.1262 -20.5720 -30.7187 60.0445 8.9237 2.4928
# 5 -8.7363 -4.5078 -5.4985 8.9237 21.5837 -4.3976
# 6 0.0247 -2.3899 -9.2468 2.4928 -4.3976 24.9966
#
#
#
# Elastic Compliance Matrix: (Units=1/GPa)
#
#
# Indices 1 2 3 4 5 6 
#
# 1 0.023482 -0.001406 -0.002503 -0.003790 0.010368 0.001118
# 2 -0.001406 0.009265 -0.004707 0.000896 -0.000410 -0.001015
# 3 -0.002503 -0.004707 0.013574 0.005187 0.000149 0.004083
# 4 -0.003790 0.000896 0.005187 0.021109 -0.009099 -0.001698
# 5 0.010368 -0.000410 0.000149 -0.009099 0.056451 0.010844
# 6 0.001118 -0.001015 0.004083 -0.001698 0.010844 0.043495
#
#
# Mechanical properties :
#
#
# Convention : Reuss Voigt Hill
#
# Bulk Modulus (GPa) = 34.37653 53.13835 43.75744
# Shear Modulus (GPa) = 25.73262 35.66955 30.70109
#
# Velocity S-wave (km/s) = 3.25285 3.82976 3.55303
# Velocity P-wave (km/s) = 5.31446 6.43476 5.90125
#
# Compressibility (1/GPa) = 0.02908962
#
# Stress axis : x y z
#
# Youngs Moduli (GPa) = 42.58560 107.92740 73.66844
#
# Poissons Ratio (x) = 0.15175 0.18441
# Poissons Ratio (y) = 0.05988 0.34675
# Poissons Ratio (z) = 0.10660 0.50800
#
# Static dielectric constant tensor:
#      x y z
#    x 2.288290 0.052210 -0.167270 
#    y 0.052210 1.920730 0.002170 
#    z -0.167270 0.002170 2.009850 
# 
# From -- ./inp_files/470052.got.cif
#   From: 2010.05.17/outbox.cif.g08.bks.cpg/sg2_236_cif.got.tgz:470052.got - 2010.06.03 11:33:40.
