data_PCOD9016286
_publ_section_title
;
Structure prediction by ZEFSAII (Michael W. Deem and Ramdas Pophale) SiO2 
 PCOD9016286
Probable space group: P -1
;
_chemical_formula_sum "Si O2"
_cell_formula_units_Z 14
_cell_length_a 12.261806
_cell_length_b 7.710456
_cell_length_c 9.728089
_cell_angle_alpha 115.979731
_cell_angle_beta 55.101867
_cell_angle_gamma 125.950232
_cell_volume 603.383754
_symmetry_space_group_name_H-M "P -1"
_symmetry_group_IT_number 2
_symmetry_cell_setting 'triclinic'
loop_
_space_group_symop_operation_xyz
x,y,z
-x,-y,-z
loop_
_atom_site_type_symbol
_atom_site_label
_atom_site_fract_x
_atom_site_fract_y
_atom_site_fract_z
Si Si1 0.266985 0.519283 0.724946
Si Si2 0.598969 0.294712 0.874964
Si Si3 0.006436 0.071326 0.676449
Si Si4 0.284814 0.897936 0.037447
Si Si5 0.368788 0.759986 0.486246
Si Si6 0.769120 0.697908 0.051875
Si Si7 0.093424 0.841485 0.776463
O O1 0.379225 0.610678 0.548573
O O2 0.117093 0.324652 0.706649
O O3 0.254087 0.718432 0.878694
O O4 0.305233 0.407649 0.786353
O O5 0.694532 0.208465 0.871653
O O6 0.622876 0.297334 0.696516
O O7 0.655429 0.541313 0.968555
O O8 0.433972 0.113767 0.968776
O O9 0.846241 0.039258 0.825897
O O10 0.058025 0.935980 0.694946
O O11 0.000000 0.000000 0.500000
O O12 0.500000 0.000000 0.500000
O O13 0.204676 0.743793 0.625683
O O14 0.815277 0.950103 0.119530
O O15 0.931411 0.700148 0.913625
#
# Coordination Sequence:
#
# PCOD9016286 Si02
#       7
#     2   2   2   2   2   2   2
#     4  10  23  40  66  92 123 171 210 252 312 377
#     4  10  22  40  65  95 125 167 213 259 307 374
#     4  11  24  42  65  99 128 162 210 266 314 368
#     4  10  21  42  67  91 126 169 213 254 310 379
#     4  12  25  41  64  96 129 161 212 265 312 370
#     4   9  22  43  65  91 125 169 213 253 317 376
#     4  10  24  42  64  91 129 166 208 264 314 373
#
# _framework density 23.202479
#
# number of rings (size 3 to 8) (size 9 to 14) (size 15 to 20)
#    0.000    1.714    1.429    1.286   12.000    0.571 
#    2.571    2.857    0.000    0.000    0.000    0.000 
#    0.000    0.000    0.000    0.000    0.000    0.000 
#
# Total GULP energy -78333.362927 kJ/mol
# GULP energy per Si atom -5595.240209 kJ/mol
# Density = 2.314967 g / cm^3
# Si number density = 23.202479 Si / 1000 Ang^3
#
#
#
# Elastic Constant Matrix: (Units=GPa)
#
#
# Indices 1 2 3 4 5 6 
#
# 1 70.4005 35.9689 44.5703 2.9770 25.4575 2.5770
# 2 35.9689 128.1395 61.0122 -1.5729 22.5463 21.8095
# 3 44.5703 61.0122 157.3453 -2.8597 54.1765 14.7338
# 4 2.9770 -1.5729 -2.8597 46.6504 3.2966 18.2433
# 5 25.4575 22.5463 54.1765 3.2966 49.3349 0.0259
# 6 2.5770 21.8095 14.7338 18.2433 0.0259 33.1154
#
#
#
# Elastic Compliance Matrix: (Units=1/GPa)
#
#
# Indices 1 2 3 4 5 6 
#
# 1 0.019834 -0.004059 -0.002604 -0.002652 -0.005345 0.003753
# 2 -0.004059 0.011664 -0.002069 0.003993 -0.001227 -0.008644
# 3 -0.002604 -0.002069 0.012665 0.004208 -0.011897 -0.006379
# 4 -0.002652 0.003993 0.004208 0.030818 -0.007125 -0.021268
# 5 -0.005345 -0.001227 -0.011897 -0.007125 0.037124 0.010414
# 6 0.003753 -0.008644 -0.006379 -0.021268 0.010414 0.050145
#
#
# Mechanical properties :
#
#
# Convention : Reuss Voigt Hill
#
# Bulk Modulus (GPa) = 37.45091 70.99867 54.22479
# Shear Modulus (GPa) = 26.50912 40.10905 33.30909
#
# Velocity S-wave (km/s) = 3.38377 4.16222 3.79302
# Velocity P-wave (km/s) = 5.60736 7.33245 6.52715
#
# Compressibility (1/GPa) = 0.02670162
#
# Stress axis : x y z
#
# Youngs Moduli (GPa) = 50.41805 85.73033 78.95504
#
# Poissons Ratio (x) = 0.34794 0.20557
# Poissons Ratio (y) = 0.20463 0.16336
# Poissons Ratio (z) = 0.13127 0.17737
#
# Static dielectric constant tensor:
#      x y z
#    x 1.943120 -0.058130 0.015470 
#    y -0.058130 1.877450 -0.010000 
#    z 0.015470 -0.010000 1.831000 
# 
# From -- ./inp_files/244932.got.cif
#   From: 2010.05.17/outbox.cif.g08.bks.cpg/sg2_123_cif.got.tgz:244932.got - 2010.06.03 11:33:40.
