data_PCOD9016822
_publ_section_title
;
Structure prediction by ZEFSAII (Michael W. Deem and Ramdas Pophale) SiO2 
 PCOD9016822
Probable space group: P -1
;
_chemical_formula_sum "Si O2"
_cell_formula_units_Z 16
_cell_length_a 11.822825
_cell_length_b 13.109696
_cell_length_c 12.882733
_cell_angle_alpha 41.681247
_cell_angle_beta 33.177728
_cell_angle_gamma 36.434048
_cell_volume 632.146484
_symmetry_space_group_name_H-M "P -1"
_symmetry_group_IT_number 2
_symmetry_cell_setting 'triclinic'
loop_
_space_group_symop_operation_xyz
x,y,z
-x,-y,-z
loop_
_atom_site_type_symbol
_atom_site_label
_atom_site_fract_x
_atom_site_fract_y
_atom_site_fract_z
Si Si1 0.382819 0.921428 0.298232
Si Si2 0.510348 0.643601 0.698789
Si Si3 0.238616 0.168124 0.584929
Si Si4 0.079808 0.838653 0.425945
Si Si5 0.266776 0.404574 0.224264
Si Si6 0.371837 0.879587 0.996396
Si Si7 0.628744 0.538651 0.466036
Si Si8 0.969122 0.206441 0.944668
O O1 0.228173 0.893673 0.349894
O O2 0.591017 0.728178 0.317601
O O3 0.468704 0.062023 0.101295
O O4 0.193840 0.012796 0.468243
O O5 0.687306 0.718948 0.481260
O O6 0.629805 0.544854 0.790617
O O7 0.499517 0.561823 0.659977
O O8 0.253566 0.787700 0.829114
O O9 0.163340 0.289073 0.447805
O O10 0.032698 0.154887 0.813363
O O11 0.500000 0.000000 0.500000
O O12 0.125930 0.645131 0.570951
O O13 0.206720 0.830093 0.227730
O O14 0.465669 0.269832 0.096197
O O15 0.109515 0.586239 0.148198
O O16 0.202905 0.059876 0.930114
O O17 0.500000 0.500000 0.500000
#
# Coordination Sequence:
#
# PCOD9016822 Si02
#       8
#     2   2   2   2   2   2   2   2
#     4  10  23  44  67  95 129 167 217 264 322 389
#     4  10  23  40  64  91 126 171 212 258 319 381
#     4  10  22  41  60  91 127 165 218 258 308 385
#     4  10  23  44  68  95 128 171 212 267 325 377
#     4  10  25  42  60  95 132 165 220 258 314 395
#     4  12  24  40  66  99 130 166 216 268 320 385
#     4  10  21  42  69  95 127 165 215 269 320 380
#     4  12  22  42  64  90 131 171 209 266 319 371
#
# _framework density 25.310590000000001
#
# number of rings (size 3 to 8) (size 9 to 14) (size 15 to 20)
#    0.750    0.750    1.250    3.375    0.000    4.000 
#    2.250    0.000    0.000   11.250    0.000    0.000 
#    0.000    0.000    0.000    0.000    0.000    0.000 
#
# Total GULP energy -89293.725618 kJ/mol
# GULP energy per Si atom -5580.857851 kJ/mol
# Density = 2.525298 g / cm^3
# Si number density = 25.310590 Si / 1000 Ang^3
#
#
#
# Elastic Constant Matrix: (Units=GPa)
#
#
# Indices 1 2 3 4 5 6 
#
# 1 94.8457 32.9784 12.7806 0.6757 12.8791 15.6575
# 2 32.9784 160.3398 26.2482 6.3446 -5.2785 -5.2216
# 3 12.7806 26.2482 106.5177 12.5108 6.3282 21.8413
# 4 0.6757 6.3446 12.5108 42.1695 6.9513 4.1279
# 5 12.8791 -5.2785 6.3282 6.9513 33.8538 1.9924
# 6 15.6575 -5.2216 21.8413 4.1279 1.9924 35.7248
#
#
#
# Elastic Compliance Matrix: (Units=1/GPa)
#
#
# Indices 1 2 3 4 5 6 
#
# 1 0.013496 -0.003371 0.000736 0.001679 -0.005746 -0.006731
# 2 -0.003371 0.007584 -0.002304 -0.001275 0.002923 0.003979
# 3 0.000736 -0.002304 0.011769 -0.002098 -0.001967 -0.007503
# 4 0.001679 -0.001275 -0.002098 0.025645 -0.005576 -0.002291
# 5 -0.005746 0.002923 -0.001967 -0.005576 0.033521 0.002923
# 6 -0.006731 0.003979 -0.007503 -0.002291 0.002923 0.036212
#
#
# Mechanical properties :
#
#
# Convention : Reuss Voigt Hill
#
# Bulk Modulus (GPa) = 43.53494 56.19083 49.86289
# Shear Modulus (GPa) = 34.30250 41.66267 37.98259
#
# Velocity S-wave (km/s) = 3.68538 4.06156 3.87804
# Velocity P-wave (km/s) = 5.94534 6.65160 6.30836
#
# Compressibility (1/GPa) = 0.02297006
#
# Stress axis : x y z
#
# Youngs Moduli (GPa) = 74.09647 131.86461 84.96707
#
# Poissons Ratio (x) = 0.44452 -0.06252
# Poissons Ratio (y) = 0.24978 0.19577
# Poissons Ratio (z) = -0.05452 0.30382
#
# Static dielectric constant tensor:
#      x y z
#    x 2.068020 0.043250 -0.045580 
#    y 0.043250 2.013100 -0.061330 
#    z -0.045580 -0.061330 2.005180 
# 
# From -- ./inp_files/534238.got.cif
#   From: 2010.05.17/outbox.cif.g08.bks.cpg/sg2_268_cif.got.tgz:534238.got - 2010.06.03 11:33:40.
