data_PCOD9016403
_publ_section_title
;
Structure prediction by ZEFSAII (Michael W. Deem and Ramdas Pophale) SiO2 
 PCOD9016403
Probable space group: P -1
;
_chemical_formula_sum "Si O2"
_cell_formula_units_Z 16
_cell_length_a 8.972089
_cell_length_b 8.836624
_cell_length_c 23.796468
_cell_angle_alpha 51.044640
_cell_angle_beta 41.363851
_cell_angle_gamma 79.700284
_cell_volume 796.414922
_symmetry_space_group_name_H-M "P -1"
_symmetry_group_IT_number 2
_symmetry_cell_setting 'triclinic'
loop_
_space_group_symop_operation_xyz
x,y,z
-x,-y,-z
loop_
_atom_site_type_symbol
_atom_site_label
_atom_site_fract_x
_atom_site_fract_y
_atom_site_fract_z
Si Si1 0.304026 0.091237 0.542486
Si Si2 0.775191 0.365274 0.144476
Si Si3 0.161498 0.157367 0.362154
Si Si4 0.008353 0.228512 0.927753
Si Si5 0.760740 0.379025 0.801420
Si Si6 0.097513 0.976153 0.753811
Si Si7 0.252756 0.387196 0.698072
Si Si8 0.502639 0.150924 0.042300
O O1 0.464165 0.372402 0.422702
O O2 0.500000 0.000000 0.500000
O O3 0.222117 0.049528 0.640113
O O4 0.047922 0.958157 0.603920
O O5 0.452289 0.193006 0.260327
O O6 0.796783 0.558493 0.135449
O O7 0.862180 0.217016 0.188114
O O8 0.000000 0.500000 0.000000
O O9 0.241050 0.425660 0.278785
O O10 0.000000 0.000000 0.500000
O O11 0.098946 0.273079 0.826741
O O12 0.724195 0.212492 0.012943
O O13 0.000000 0.000000 0.000000
O O14 0.072117 0.458947 0.699767
O O15 0.586468 0.111693 0.889801
O O16 0.646151 0.340069 0.906579
O O17 0.778936 0.877605 0.860024
O O18 0.240729 0.194758 0.706340
#
# Coordination Sequence:
#
# PCOD9016403 Si02
#       8
#     2   2   2   2   2   2   2   2
#     4  12  24  43  68  96 128 176 230 273 335 412
#     4  12  27  43  64 100 146 179 220 287 339 399
#     4  12  25  42  67  98 137 179 227 279 348 402
#     4  11  22  40  70  96 136 175 224 273 342 397
#     4   9  18  38  66  95 129 165 223 274 332 397
#     4  11  24  42  67  96 135 172 227 276 338 397
#     4  10  21  42  67  97 126 173 221 282 325 404
#     4   9  20  37  67  98 125 173 225 275 328 400
#
# _framework density 20.090029999999999
#
# number of rings (size 3 to 8) (size 9 to 14) (size 15 to 20)
#    0.000    1.250    1.250    5.625    3.500    0.500 
#    0.000    0.625    0.000    0.000    0.000    0.000 
#    0.000    0.000    0.000    0.000    0.000    0.000 
#
# Total GULP energy -89336.555572 kJ/mol
# GULP energy per Si atom -5583.534723 kJ/mol
# Density = 2.004430 g / cm^3
# Si number density = 20.090030 Si / 1000 Ang^3
#
#
#
# Elastic Constant Matrix: (Units=GPa)
#
#
# Indices 1 2 3 4 5 6 
#
# 1 114.3889 47.5887 54.9962 -6.1728 -7.9535 -10.1300
# 2 47.5887 106.2058 47.1057 -0.6706 4.6939 -3.2452
# 3 54.9962 47.1057 104.4957 -1.5982 0.3507 -13.8104
# 4 -6.1728 -0.6706 -1.5982 28.2791 1.1841 5.5576
# 5 -7.9535 4.6939 0.3507 1.1841 47.1252 -10.5239
# 6 -10.1300 -3.2452 -13.8104 5.5576 -10.5239 39.0151
#
#
#
# Elastic Compliance Matrix: (Units=1/GPa)
#
#
# Indices 1 2 3 4 5 6 
#
# 1 0.013182 -0.003764 -0.004973 0.002013 0.003004 0.001873
# 2 -0.003764 0.012971 -0.004120 -0.000267 -0.002324 -0.001946
# 3 -0.004973 -0.004120 0.014522 -0.001114 0.000329 0.003754
# 4 0.002013 -0.000267 -0.001114 0.036917 -0.001813 -0.005641
# 5 0.003004 -0.002324 0.000329 -0.001813 0.023641 0.007338
# 6 0.001873 -0.001946 0.003754 -0.005641 0.007338 0.030068
#
#
# Mechanical properties :
#
#
# Convention : Reuss Voigt Hill
#
# Bulk Modulus (GPa) = 66.83378 69.38575 68.10976
# Shear Modulus (GPa) = 30.86411 34.57719 32.72065
#
# Velocity S-wave (km/s) = 3.92381 4.15313 4.04010
# Velocity P-wave (km/s) = 7.33946 7.59015 7.46586
#
# Compressibility (1/GPa) = 0.01496249
#
# Stress axis : x y z
#
# Youngs Moduli (GPa) = 75.85947 77.09489 68.86050
#
# Poissons Ratio (x) = 0.29018 0.34243
# Poissons Ratio (y) = 0.28553 0.28368
# Poissons Ratio (z) = 0.37724 0.31761
#
# Static dielectric constant tensor:
#      x y z
#    x 1.707580 0.002140 -0.051540 
#    y 0.002140 1.708390 -0.025050 
#    z -0.051540 -0.025050 1.728380 
# 
# From -- ./inp_files/277983.got.cif
#   From: 2010.05.17/outbox.cif.g08.bks.cpg/sg2_139_cif.got.tgz:277983.got - 2010.06.03 11:33:40.
