data_PCOD9016316
_publ_section_title
;
Structure prediction by ZEFSAII (Michael W. Deem and Ramdas Pophale) SiO2 
 PCOD9016316
Probable space group: P -1
;
_chemical_formula_sum "Si O2"
_cell_formula_units_Z 14
_cell_length_a 11.558508
_cell_length_b 12.312518
_cell_length_c 12.259605
_cell_angle_alpha 35.079821
_cell_angle_beta 143.839599
_cell_angle_gamma 138.650521
_cell_volume 570.443016
_symmetry_space_group_name_H-M "P -1"
_symmetry_group_IT_number 2
_symmetry_cell_setting 'triclinic'
loop_
_space_group_symop_operation_xyz
x,y,z
-x,-y,-z
loop_
_atom_site_type_symbol
_atom_site_label
_atom_site_fract_x
_atom_site_fract_y
_atom_site_fract_z
Si Si1 0.562295 0.817708 0.246975
Si Si2 0.743380 0.499569 0.083846
Si Si3 0.287654 0.055210 0.313043
Si Si4 0.541720 0.518324 0.299197
Si Si5 0.905995 0.372842 0.925567
Si Si6 0.813273 0.856033 0.608653
Si Si7 0.797585 0.334279 0.488816
O O1 0.631956 0.683887 0.319321
O O2 0.745620 0.905496 0.398641
O O3 0.338483 0.680985 0.231374
O O4 0.500000 0.000000 0.000000
O O5 0.709757 0.378061 0.268793
O O6 0.560612 0.394165 0.950529
O O7 0.957522 0.528977 0.156231
O O8 0.727565 0.725699 0.902357
O O9 0.149213 0.873148 0.291952
O O10 0.500000 0.000000 0.500000
O O11 0.243208 0.023510 0.434023
O O12 0.345876 0.360146 0.327120
O O13 0.673613 0.388191 0.450741
O O14 0.971729 0.174666 0.167208
O O15 0.000000 0.500000 0.000000
O O16 0.000000 0.500000 0.500000
#
# Coordination Sequence:
#
# PCOD9016316 Si02
#       7
#     2   2   2   2   2   2   2
#     4  12  26  40  69 103 132 174 224 280 334 399
#     4  10  23  41  70  94 135 174 224 277 320 417
#     4  10  21  42  67  93 130 184 215 264 349 385
#     4  10  22  44  62  96 126 178 220 262 340 392
#     4  10  21  42  67  93 130 184 215 264 349 385
#     4  10  23  41  70  94 135 174 224 277 320 417
#     4  12  26  40  69 103 132 174 224 280 334 399
#
# _framework density 24.542327
#
# number of rings (size 3 to 8) (size 9 to 14) (size 15 to 20)
#    0.000    1.714    5.714    0.857    4.000    3.429 
#    0.000    0.000    0.000    0.000    0.000    0.000 
#    0.000    0.000    0.000    0.000    0.000    0.000 
#
# Total GULP energy -78070.652067 kJ/mol
# GULP energy per Si atom -5576.475148 kJ/mol
# Density = 2.448647 g / cm^3
# Si number density = 24.542327 Si / 1000 Ang^3
#
#
#
# Elastic Constant Matrix: (Units=GPa)
#
#
# Indices 1 2 3 4 5 6 
#
# 1 118.3787 34.4305 23.2339 -13.6246 10.4401 -27.1421
# 2 34.4305 54.4951 17.8890 -18.7115 23.5446 -14.3728
# 3 23.2339 17.8890 84.7970 -0.0633 -5.1355 -23.6495
# 4 -13.6246 -18.7115 -0.0633 44.2013 3.7446 8.9818
# 5 10.4401 23.5446 -5.1355 3.7446 29.5078 -7.1885
# 6 -27.1421 -14.3728 -23.6495 8.9818 -7.1885 41.7884
#
#
#
# Elastic Compliance Matrix: (Units=1/GPa)
#
#
# Indices 1 2 3 4 5 6 
#
# 1 0.011578 -0.008211 0.000490 -0.001484 0.004194 0.006013
# 2 -0.008211 0.059178 -0.016049 0.028904 -0.053065 -0.009403
# 3 0.000490 -0.016049 0.019497 -0.010685 0.020209 0.011605
# 4 -0.001484 0.028904 -0.010685 0.039349 -0.032081 -0.011046
# 5 0.004194 -0.053065 0.020209 -0.032081 0.086649 0.017711
# 6 0.006013 -0.009403 0.011605 -0.011046 0.017711 0.036590
#
#
# Mechanical properties :
#
#
# Convention : Reuss Voigt Hill
#
# Bulk Modulus (GPa) = 23.41286 45.41976 34.41631
# Shear Modulus (GPa) = 15.89223 35.24066 25.56644
#
# Velocity S-wave (km/s) = 2.54745 3.79346 3.23108
# Velocity P-wave (km/s) = 4.26769 6.14280 5.28900
#
# Compressibility (1/GPa) = 0.04271157
#
# Stress axis : x y z
#
# Youngs Moduli (GPa) = 86.37341 16.89821 51.29019
#
# Poissons Ratio (x) = 0.13876 -0.02514
# Poissons Ratio (y) = 0.70925 0.82316
# Poissons Ratio (z) = -0.04233 0.27120
#
# Static dielectric constant tensor:
#      x y z
#    x 2.154500 -0.140520 -0.252700 
#    y -0.140520 2.383090 0.517260 
#    z -0.252700 0.517260 2.576070 
# 
# From -- ./inp_files/245550.got.cif
#   From: 2010.05.17/outbox.cif.g08.bks.cpg/sg2_123_cif.got.tgz:245550.got - 2010.06.03 11:33:40.
