data_PCOD9016136
_publ_section_title
;
Structure prediction by ZEFSAII (Michael W. Deem and Ramdas Pophale) SiO2 
 PCOD9016136
Probable space group: P -1
;
_chemical_formula_sum "Si O2"
_cell_formula_units_Z 14
_cell_length_a 8.733404
_cell_length_b 13.158357
_cell_length_c 19.433464
_cell_angle_alpha 27.649238
_cell_angle_beta 122.337568
_cell_angle_gamma 140.243382
_cell_volume 576.936738
_symmetry_space_group_name_H-M "P -1"
_symmetry_group_IT_number 2
_symmetry_cell_setting 'triclinic'
loop_
_space_group_symop_operation_xyz
x,y,z
-x,-y,-z
loop_
_atom_site_type_symbol
_atom_site_label
_atom_site_fract_x
_atom_site_fract_y
_atom_site_fract_z
Si Si1 0.581028 0.279417 0.464353
Si Si2 0.699681 0.452002 0.000896
Si Si3 0.760099 0.277975 0.986368
Si Si4 0.833825 0.628323 0.172239
Si Si5 0.498353 0.564705 0.381234
Si Si6 0.357942 0.139364 0.238674
Si Si7 0.945894 0.601818 0.693976
O O1 0.660374 0.435018 0.315246
O O2 0.631112 0.499345 0.404280
O O3 0.732511 0.184495 0.568535
O O4 0.255313 0.936077 0.590652
O O5 0.820320 0.807369 0.822400
O O6 0.919038 0.475161 0.066684
O O7 0.640093 0.337313 0.977285
O O8 0.447168 0.213358 0.136125
O O9 0.625166 0.919110 0.182792
O O10 0.763526 0.378713 0.850766
O O11 0.629145 0.439491 0.170621
O O12 0.029547 0.597207 0.225440
O O13 0.000000 0.000000 0.000000
O O14 0.500000 0.500000 0.500000
O O15 0.184932 0.319332 0.427253
#
# Coordination Sequence:
#
# PCOD9016136 Si02
#       7
#     2   2   2   2   2   2   2
#     4  11  24  46  68  98 134 181 222 275 341 413
#     4  10  22  39  72  97 137 175 227 273 340 399
#     4  11  23  43  70 102 135 180 227 276 337 405
#     4  11  24  42  69  98 132 174 230 275 336 406
#     4  12  28  43  67 102 141 172 231 284 338 390
#     4  10  21  42  66  96 135 178 223 272 338 399
#     4  11  24  47  68  97 137 184 226 274 341 407
#
# _framework density 24.266090999999999
#
# number of rings (size 3 to 8) (size 9 to 14) (size 15 to 20)
#    0.000    1.143    2.857    4.286    6.000    2.286 
#    0.000    1.429    0.000    0.000    0.000    0.000 
#    0.000    0.000    0.000    0.000    0.000    0.000 
#
# Total GULP energy -78405.251571 kJ/mol
# GULP energy per Si atom -5600.375112 kJ/mol
# Density = 2.421086 g / cm^3
# Si number density = 24.266091 Si / 1000 Ang^3
#
#
#
# Elastic Constant Matrix: (Units=GPa)
#
#
# Indices 1 2 3 4 5 6 
#
# 1 111.6308 52.2949 43.3116 12.7957 19.1881 -46.1343
# 2 52.2949 92.9291 54.4502 25.9609 -7.9207 -25.4313
# 3 43.3116 54.4502 137.6106 19.5447 -3.9259 -34.2340
# 4 12.7957 25.9609 19.5447 49.9163 -9.2005 3.9973
# 5 19.1881 -7.9207 -3.9259 -9.2005 39.8872 6.4062
# 6 -46.1343 -25.4313 -34.2340 3.9973 6.4062 51.1231
#
#
#
# Elastic Compliance Matrix: (Units=1/GPa)
#
#
# Indices 1 2 3 4 5 6 
#
# 1 0.027087 -0.008869 0.001722 -0.008754 -0.020567 0.024446
# 2 -0.008869 0.019967 -0.004629 -0.004892 0.006914 -0.001655
# 3 0.001722 -0.004629 0.010681 -0.003248 -0.002567 0.006980
# 4 -0.008754 -0.004892 -0.003248 0.029691 0.012400 -0.016383
# 5 -0.020567 0.006914 -0.002567 0.012400 0.042664 -0.023156
# 6 0.024446 -0.001655 0.006980 -0.016383 -0.023156 0.049655
#
#
# Mechanical properties :
#
#
# Convention : Reuss Voigt Hill
#
# Bulk Modulus (GPa) = 29.25425 71.36489 50.30957
# Shear Modulus (GPa) = 23.28932 40.99292 32.14112
#
# Velocity S-wave (km/s) = 3.10134 4.11458 3.64335
# Velocity P-wave (km/s) = 4.99061 7.21430 6.20292
#
# Compressibility (1/GPa) = 0.03418306
#
# Stress axis : x y z
#
# Youngs Moduli (GPa) = 36.91860 50.08181 93.62645
#
# Poissons Ratio (x) = 0.44420 -0.16126
# Poissons Ratio (y) = 0.32745 0.43337
# Poissons Ratio (z) = -0.06359 0.23181
#
# Static dielectric constant tensor:
#      x y z
#    x 1.957890 0.067400 0.013620 
#    y 0.067400 1.973210 -0.049350 
#    z 0.013620 -0.049350 1.907650 
# 
# From -- ./inp_files/327508.got.cif
#   From: 2010.05.17/outbox.cif.g08.bks.cpg/sg2_164_cif.got.tgz:327508.got - 2010.06.03 11:33:40.
