data_PCOD9016715
_publ_section_title
;
Structure prediction by ZEFSAII (Michael W. Deem and Ramdas Pophale) SiO2 
 PCOD9016715
Probable space group: P -1
;
_chemical_formula_sum "Si O2"
_cell_formula_units_Z 15
_cell_length_a 6.930778
_cell_length_b 8.553817
_cell_length_c 12.586726
_cell_angle_alpha 114.973911
_cell_angle_beta 92.167917
_cell_angle_gamma 57.395462
_cell_volume 551.974282
_symmetry_space_group_name_H-M "P -1"
_symmetry_group_IT_number 2
_symmetry_cell_setting 'triclinic'
loop_
_space_group_symop_operation_xyz
x,y,z
-x,-y,-z
loop_
_atom_site_type_symbol
_atom_site_label
_atom_site_fract_x
_atom_site_fract_y
_atom_site_fract_z
Si Si1 0.571186 0.410440 0.094947
Si Si2 0.328228 0.742420 0.428921
Si Si3 0.611647 0.778050 0.191830
Si Si4 0.278339 0.245117 0.049641
Si Si5 0.000000 0.500000 0.500000
Si Si6 0.869260 0.961830 0.873286
Si Si7 0.754288 0.287669 0.348034
Si Si8 0.178364 0.160956 0.582595
O O1 0.900779 0.113094 0.212348
O O2 0.500000 0.500000 0.000000
O O3 0.363721 0.391096 0.127842
O O4 0.781369 0.164324 0.004395
O O5 0.526300 0.494743 0.351906
O O6 0.327924 0.768628 0.565527
O O7 0.081068 0.793992 0.397379
O O8 0.331249 0.941300 0.455348
O O9 0.763005 0.718808 0.067506
O O10 0.605937 0.587299 0.185506
O O11 0.722516 0.840028 0.300890
O O12 0.347471 0.952376 0.191508
O O13 0.100533 0.236041 0.120311
O O14 0.500000 0.000000 0.000000
O O15 0.922006 0.346940 0.417537
O O16 0.863726 0.650456 0.435825
#
# Coordination Sequence:
#
# PCOD9016715 Si02
#       8
#     2   2   2   2   1   2   2   2
#     4   7  13  29  55  95 149 183 228 284 341 427
#     4   9  22  44  69  96 140 191 245 298 355 432
#     4   9  17  33  66 105 144 191 237 290 357 429
#     4   7  13  29  55  97 148 181 226 286 348 430
#     4  10  24  42  66 102 140 168 236 306 358 422
#     4   9  17  33  64 108 147 187 230 291 372 420
#     4  10  21  42  69 100 142 187 231 300 365 435
#     4  10  21  44  69  99 137 192 240 297 365 425
#
# _framework density 27.175177000000001
#
# number of rings (size 3 to 8) (size 9 to 14) (size 15 to 20)
#    0.000    3.733    0.000    0.000    1.867    0.533 
#    4.800   16.000    0.000    6.400    0.000    0.000 
#    0.000    0.000    0.000    0.000    0.000    0.000 
#
# Total GULP energy -83607.645101 kJ/mol
# GULP energy per Si atom -5573.843007 kJ/mol
# Density = 2.711333 g / cm^3
# Si number density = 27.175177 Si / 1000 Ang^3
#
#
#
# Elastic Constant Matrix: (Units=GPa)
#
#
# Indices 1 2 3 4 5 6 
#
# 1 64.2765 52.6916 35.7899 -7.9729 9.8246 -0.6740
# 2 52.6916 113.5639 36.9248 -11.4603 9.9266 33.0816
# 3 35.7899 36.9248 146.7384 -18.2317 25.2764 3.7268
# 4 -7.9729 -11.4603 -18.2317 37.2763 12.6399 -3.2967
# 5 9.8246 9.9266 25.2764 12.6399 50.1067 -3.2918
# 6 -0.6740 33.0816 3.7268 -3.2967 -3.2918 61.2715
#
#
#
# Elastic Compliance Matrix: (Units=1/GPa)
#
#
# Indices 1 2 3 4 5 6 
#
# 1 0.030511 -0.015416 -0.003493 0.001161 -0.000875 0.008887
# 2 -0.015416 0.019571 -0.000256 0.002332 -0.002017 -0.010704
# 3 -0.003493 -0.000256 0.009367 0.005552 -0.005420 -0.000462
# 4 0.001161 0.002332 0.005552 0.034628 -0.012251 -0.000379
# 5 -0.000875 -0.002017 -0.005420 -0.012251 0.026496 0.002173
# 6 0.008887 -0.010704 -0.000462 -0.000379 0.002173 0.022322
#
#
# Mechanical properties :
#
#
# Convention : Reuss Voigt Hill
#
# Bulk Modulus (GPa) = 47.35129 63.93239 55.64184
# Shear Modulus (GPa) = 26.55821 43.00907 34.78364
#
# Velocity S-wave (km/s) = 3.12957 3.98258 3.58156
# Velocity P-wave (km/s) = 5.52460 6.68768 6.13377
#
# Compressibility (1/GPa) = 0.02111875
#
# Stress axis : x y z
#
# Youngs Moduli (GPa) = 32.77464 51.09526 106.76285
#
# Poissons Ratio (x) = 0.78769 0.37296
# Poissons Ratio (y) = 0.50526 0.02731
# Poissons Ratio (z) = 0.11449 0.01307
#
# Static dielectric constant tensor:
#      x y z
#    x 2.320720 -0.066420 -0.061390 
#    y -0.066420 2.146580 0.009770 
#    z -0.061390 0.009770 2.200660 
# 
# From -- ./inp_files/491060.got.cif
#   From: 2010.05.17/outbox.cif.g08.bks.cpg/sg2_246_cif.got.tgz:491060.got - 2010.06.03 11:33:40.
