data_PCOD9016885
_publ_section_title
;
Structure prediction by ZEFSAII (Michael W. Deem and Ramdas Pophale) SiO2 
 PCOD9016885
Probable space group: P -1
;
_chemical_formula_sum "Si O2"
_cell_formula_units_Z 16
_cell_length_a 20.852092
_cell_length_b 5.201195
_cell_length_c 11.770810
_cell_angle_alpha 58.374716
_cell_angle_beta 35.836576
_cell_angle_gamma 62.881445
_cell_volume 635.218339
_symmetry_space_group_name_H-M "P -1"
_symmetry_group_IT_number 2
_symmetry_cell_setting 'triclinic'
loop_
_space_group_symop_operation_xyz
x,y,z
-x,-y,-z
loop_
_atom_site_type_symbol
_atom_site_label
_atom_site_fract_x
_atom_site_fract_y
_atom_site_fract_z
Si Si1 0.902182 0.300103 0.824702
Si Si2 0.910721 0.280820 0.560434
Si Si3 0.445005 0.364861 0.219929
Si Si4 0.203041 0.695067 0.513704
Si Si5 0.417176 0.783962 0.730655
Si Si6 0.903527 0.842732 0.106465
Si Si7 0.290432 0.379173 0.833933
Si Si8 0.298122 0.872232 0.541338
O O1 0.864129 0.321007 0.744485
O O2 0.022738 0.423485 0.626871
O O3 0.825537 0.519724 0.964443
O O4 0.910807 0.959843 0.940266
O O5 0.832793 0.227175 0.579259
O O6 0.000000 0.000000 0.500000
O O7 0.324311 0.527014 0.370897
O O8 0.522521 0.385169 0.212065
O O9 0.414080 0.015483 0.335687
O O10 0.500000 0.500000 0.000000
O O11 0.111364 0.500415 0.753846
O O12 0.231057 0.949136 0.504604
O O13 0.373002 0.552194 0.756833
O O14 0.500000 0.000000 0.500000
O O15 0.324044 0.026990 0.856087
O O16 0.783318 0.985265 0.280168
O O17 0.000000 0.000000 0.000000
O O18 0.302185 0.526205 0.657395
#
# Coordination Sequence:
#
# PCOD9016885 Si02
#       8
#     2   2   2   2   2   2   2   2
#     4  10  25  45  67 105 143 186 249 296 371 442
#     4  11  26  44  70 101 146 195 238 300 371 449
#     4  11  27  46  68 100 143 192 243 300 374 436
#     4  11  25  45  70 102 143 186 245 305 364 437
#     4  12  25  48  77 108 146 193 249 306 374 434
#     4  10  21  42  69  98 135 183 236 298 359 436
#     4  11  26  45  80 111 146 191 250 315 364 444
#     4  10  24  43  69 105 140 185 242 308 362 436
#
# _framework density 25.188188
#
# number of rings (size 3 to 8) (size 9 to 14) (size 15 to 20)
#    0.000    1.250    2.500    1.125   10.500    3.000 
#    0.000    0.000    0.000    0.000    0.000    0.000 
#    0.000    0.000    0.000    0.000    0.000    0.000 
#
# Total GULP energy -89565.378153 kJ/mol
# GULP energy per Si atom -5597.836135 kJ/mol
# Density = 2.513086 g / cm^3
# Si number density = 25.188188 Si / 1000 Ang^3
#
#
#
# Elastic Constant Matrix: (Units=GPa)
#
#
# Indices 1 2 3 4 5 6 
#
# 1 188.9605 17.0251 42.7078 1.8385 29.5346 -4.3776
# 2 17.0251 85.8646 19.6663 16.3163 7.0285 -11.4126
# 3 42.7078 19.6663 152.7903 6.6934 10.9973 -0.3277
# 4 1.8385 16.3163 6.6934 13.8058 4.1735 -2.8266
# 5 29.5346 7.0285 10.9973 4.1735 48.2604 -4.0993
# 6 -4.3776 -11.4126 -0.3277 -2.8266 -4.0993 42.8779
#
#
#
# Elastic Compliance Matrix: (Units=1/GPa)
#
#
# Indices 1 2 3 4 5 6 
#
# 1 0.006244 -0.001005 -0.001457 0.002159 -0.003516 0.000165
# 2 -0.001005 0.015769 -0.000998 -0.017506 0.000311 0.002963
# 3 -0.001457 -0.000998 0.007205 -0.002088 -0.000470 -0.000542
# 4 0.002159 -0.017506 -0.002088 0.096069 -0.006497 0.001257
# 5 -0.003516 0.000311 -0.000470 -0.006497 0.023628 0.001551
# 6 0.000165 0.002963 -0.000542 0.001257 0.001551 0.024354
#
#
# Mechanical properties :
#
#
# Convention : Reuss Voigt Hill
#
# Bulk Modulus (GPa) = 44.84720 65.15710 55.00215
# Shear Modulus (GPa) = 26.64921 44.20323 35.42622
#
# Velocity S-wave (km/s) = 3.25623 4.19372 3.75435
# Velocity P-wave (km/s) = 5.65516 7.02666 6.37789
#
# Compressibility (1/GPa) = 0.02229793
#
# Stress axis : x y z
#
# Youngs Moduli (GPa) = 160.14499 63.41559 138.79519
#
# Poissons Ratio (x) = 0.06373 0.20226
# Poissons Ratio (y) = 0.16094 0.13851
# Poissons Ratio (z) = 0.23337 0.06328
#
# Static dielectric constant tensor:
#      x y z
#    x 2.016440 0.055880 -0.012630 
#    y 0.055880 2.163160 -0.009620 
#    z -0.012630 -0.009620 1.979250 
# 
# From -- ./inp_files/468248.got.cif
#   From: 2010.05.17/outbox.cif.g08.bks.cpg/sg2_235_cif.got.tgz:468248.got - 2010.06.03 11:33:40.
