data_PCOD9016304
_publ_section_title
;
Structure prediction by ZEFSAII (Michael W. Deem and Ramdas Pophale) SiO2 
 PCOD9016304
Probable space group: P -1
;
_chemical_formula_sum "Si O2"
_cell_formula_units_Z 14
_cell_length_a 7.881736
_cell_length_b 6.654052
_cell_length_c 11.537680
_cell_angle_alpha 99.577278
_cell_angle_beta 90.930592
_cell_angle_gamma 89.363799
_cell_volume 596.565007
_symmetry_space_group_name_H-M "P -1"
_symmetry_group_IT_number 2
_symmetry_cell_setting 'triclinic'
loop_
_space_group_symop_operation_xyz
x,y,z
-x,-y,-z
loop_
_atom_site_type_symbol
_atom_site_label
_atom_site_fract_x
_atom_site_fract_y
_atom_site_fract_z
Si Si1 0.133194 0.905686 0.795970
Si Si2 0.967706 0.681032 0.106035
Si Si3 0.488300 0.114240 0.167101
Si Si4 0.621203 0.665917 0.576729
Si Si5 0.054123 0.503111 0.313741
Si Si6 0.153708 0.123545 0.571811
Si Si7 0.590847 0.704932 0.052069
O O1 0.310812 0.848550 0.852775
O O2 0.025517 0.709381 0.746769
O O3 0.026301 0.074594 0.882646
O O4 0.182783 0.010931 0.683394
O O5 0.088611 0.627603 0.209260
O O6 0.763613 0.662404 0.118974
O O7 0.000000 0.500000 0.000000
O O8 0.448543 0.223331 0.297654
O O9 0.378754 0.196011 0.065558
O O10 0.480947 0.868942 0.138905
O O11 0.500000 0.500000 0.500000
O O12 0.784827 0.540383 0.611388
O O13 0.685863 0.840392 0.505427
O O14 0.916614 0.647895 0.386759
O O15 0.000000 0.000000 0.500000
O O16 0.500000 0.500000 0.000000
#
# Coordination Sequence:
#
# PCOD9016304 Si02
#       7
#     2   2   2   2   2   2   2
#     4  10  22  42  66  92 131 179 221 268 333 398
#     4  10  22  39  65  98 127 170 227 274 326 399
#     4  10  23  41  63  99 133 169 222 271 334 393
#     4  12  26  42  67 102 138 174 224 283 330 395
#     4  11  23  43  66  91 133 176 222 271 333 398
#     4  11  24  44  67  91 130 181 223 265 330 396
#     4  10  21  42  67  92 133 174 212 274 340 391
#
# _framework density 23.467686
#
# number of rings (size 3 to 8) (size 9 to 14) (size 15 to 20)
#    0.000    1.429    1.429    3.000    2.000    4.571 
#    2.571    0.000    0.000    0.000    0.000    0.000 
#    0.000    0.000    0.000    0.000    0.000    0.000 
#
# Total GULP energy -78212.533250 kJ/mol
# GULP energy per Si atom -5586.609518 kJ/mol
# Density = 2.341427 g / cm^3
# Si number density = 23.467686 Si / 1000 Ang^3
#
#
#
# Elastic Constant Matrix: (Units=GPa)
#
#
# Indices 1 2 3 4 5 6 
#
# 1 45.9537 24.5843 11.8062 -6.0226 19.7068 8.7540
# 2 24.5843 109.3379 29.8895 25.1633 -5.6745 10.5539
# 3 11.8062 29.8895 119.4204 16.4660 -4.2775 5.5020
# 4 -6.0226 25.1633 16.4660 51.0562 -4.4506 11.1734
# 5 19.7068 -5.6745 -4.2775 -4.4506 44.2190 12.2514
# 6 8.7540 10.5539 5.5020 11.1734 12.2514 39.1375
#
#
#
# Elastic Compliance Matrix: (Units=1/GPa)
#
#
# Indices 1 2 3 4 5 6 
#
# 1 0.036672 -0.010233 -0.002826 0.009447 -0.016243 -0.002658
# 2 -0.010233 0.013769 -0.001230 -0.006842 0.005831 -0.001123
# 3 -0.002826 -0.001230 0.009387 -0.002555 0.001805 -0.000191
# 4 0.009447 -0.006842 -0.002555 0.026424 -0.000669 -0.007243
# 5 -0.016243 0.005831 0.001805 -0.000669 0.033019 -0.008338
# 6 -0.002658 -0.001123 -0.000191 -0.007243 -0.008338 0.031153
#
#
# Mechanical properties :
#
#
# Convention : Reuss Voigt Hill
#
# Bulk Modulus (GPa) = 32.00229 45.25244 38.62736
# Shear Modulus (GPa) = 26.39646 40.77801 33.58724
#
# Velocity S-wave (km/s) = 3.35744 4.17300 3.78724
# Velocity P-wave (km/s) = 5.35689 6.52253 5.96823
#
# Compressibility (1/GPa) = 0.03124777
#
# Stress axis : x y z
#
# Youngs Moduli (GPa) = 27.26907 72.62680 106.53131
#
# Poissons Ratio (x) = 0.74322 0.30105
# Poissons Ratio (y) = 0.27906 0.13109
# Poissons Ratio (z) = 0.07706 0.08937
#
# Static dielectric constant tensor:
#      x y z
#    x 1.859250 0.007790 -0.052160 
#    y 0.007790 1.903350 -0.013800 
#    z -0.052160 -0.013800 1.945900 
# 
# From -- ./inp_files/373170.got.cif
#   From: 2010.05.17/outbox.cif.g08.bks.cpg/sg2_187_cif.got.tgz:373170.got - 2010.06.03 11:33:40.
