data_PCOD9016226
_publ_section_title
;
Structure prediction by ZEFSAII (Michael W. Deem and Ramdas Pophale) SiO2 
 PCOD9016226
Probable space group: P -1
;
_chemical_formula_sum "Si O2"
_cell_formula_units_Z 14
_cell_length_a 6.956420
_cell_length_b 18.239122
_cell_length_c 10.551639
_cell_angle_alpha 35.748284
_cell_angle_beta 119.156633
_cell_angle_gamma 95.798188
_cell_volume 557.875670
_symmetry_space_group_name_H-M "P -1"
_symmetry_group_IT_number 2
_symmetry_cell_setting 'triclinic'
loop_
_space_group_symop_operation_xyz
x,y,z
-x,-y,-z
loop_
_atom_site_type_symbol
_atom_site_label
_atom_site_fract_x
_atom_site_fract_y
_atom_site_fract_z
Si Si1 0.696098 0.457011 0.949560
Si Si2 0.836209 0.515113 0.302715
Si Si3 0.574981 0.955263 0.731828
Si Si4 0.627873 0.771667 0.226747
Si Si5 0.745010 0.699449 0.783695
Si Si6 0.985422 0.168833 0.628424
Si Si7 0.143569 0.845203 0.106034
O O1 0.307965 0.404516 0.178193
O O2 0.787610 0.325603 0.270259
O O3 0.946534 0.367239 0.058413
O O4 0.410579 0.501678 0.740542
O O5 0.000000 0.500000 0.500000
O O6 0.079052 0.382990 0.481558
O O7 0.722494 0.664573 0.971287
O O8 0.899625 0.838742 0.995156
O O9 0.500000 0.000000 0.500000
O O10 0.453771 0.115016 0.547168
O O11 0.501026 0.859931 0.929152
O O12 0.728197 0.857580 0.219919
O O13 0.431274 0.743769 0.275731
O O14 0.866016 0.168789 0.726521
O O15 0.045151 0.017543 0.793884
#
# Coordination Sequence:
#
# PCOD9016226 Si02
#       7
#     2   2   2   2   2   2   2
#     4  11  25  46  74 103 142 182 238 291 351 417
#     4  12  27  46  69 102 144 185 231 288 351 421
#     4  11  25  44  68 101 138 185 235 284 345 419
#     4  11  24  42  65 101 135 177 230 281 345 406
#     4  11  25  46  74 103 138 187 238 287 351 416
#     4  10  21  42  67 102 130 177 227 288 340 406
#     4  10  23  40  69  99 141 176 223 289 346 403
#
# _framework density 25.095199000000001
#
# number of rings (size 3 to 8) (size 9 to 14) (size 15 to 20)
#    0.000    1.143    1.429    3.429    2.000    8.000 
#    0.000    0.000    0.000    0.000    0.000    0.000 
#    0.000    0.000    0.000    0.000    0.000    0.000 
#
# Total GULP energy -78316.159148 kJ/mol
# GULP energy per Si atom -5594.011368 kJ/mol
# Density = 2.503808 g / cm^3
# Si number density = 25.095199 Si / 1000 Ang^3
#
#
#
# Elastic Constant Matrix: (Units=GPa)
#
#
# Indices 1 2 3 4 5 6 
#
# 1 204.7099 38.3589 49.6202 12.6273 27.8548 -7.9096
# 2 38.3589 65.2042 24.9740 13.6831 12.1646 3.9494
# 3 49.6202 24.9740 116.6758 4.9550 3.5145 3.9572
# 4 12.6273 13.6831 4.9550 49.6748 -1.4584 -6.0175
# 5 27.8548 12.1646 3.5145 -1.4584 61.5984 -2.4141
# 6 -7.9096 3.9494 3.9572 -6.0175 -2.4141 12.7734
#
#
#
# Elastic Compliance Matrix: (Units=1/GPa)
#
#
# Indices 1 2 3 4 5 6 
#
# 1 0.006440 -0.002853 -0.002240 -0.000063 -0.002021 0.005152
# 2 -0.002853 0.020475 -0.002449 -0.006072 -0.003181 -0.010800
# 3 -0.002240 -0.002449 0.010159 -0.000198 0.000766 -0.003725
# 4 -0.000063 -0.006072 -0.000198 0.023534 0.002322 0.013425
# 5 -0.002021 -0.003181 0.000766 0.002322 0.017943 0.003980
# 6 0.005152 -0.010800 -0.003725 0.013425 0.003980 0.093048
#
#
# Mechanical properties :
#
#
# Convention : Reuss Voigt Hill
#
# Bulk Modulus (GPa) = 45.47367 68.05513 56.76440
# Shear Modulus (GPa) = 25.77147 43.05175 34.41161
#
# Velocity S-wave (km/s) = 3.20808 4.14640 3.70705
# Velocity P-wave (km/s) = 5.64643 7.07822 6.40247
#
# Compressibility (1/GPa) = 0.02199075
#
# Stress axis : x y z
#
# Youngs Moduli (GPa) = 155.27236 48.84109 98.43355
#
# Poissons Ratio (x) = 0.13934 0.22044
# Poissons Ratio (y) = 0.44297 0.24109
# Poissons Ratio (z) = 0.34773 0.11963
#
# Static dielectric constant tensor:
#      x y z
#    x 2.023040 0.031750 -0.028720 
#    y 0.031750 2.105120 -0.040990 
#    z -0.028720 -0.040990 2.048280 
# 
# From -- ./inp_files/371001.got.cif
#   From: 2010.05.17/outbox.cif.g08.bks.cpg/sg2_186_cif.got.tgz:371001.got - 2010.06.03 11:33:40.
