data_PCOD9016322
_publ_section_title
;
Structure prediction by ZEFSAII (Michael W. Deem and Ramdas Pophale) SiO2 
 PCOD9016322
Probable space group: P -1
;
_chemical_formula_sum "Si O2"
_cell_formula_units_Z 14
_cell_length_a 9.164168
_cell_length_b 8.533808
_cell_length_c 16.966615
_cell_angle_alpha 108.435521
_cell_angle_beta 103.802855
_cell_angle_gamma 135.850274
_cell_volume 622.308689
_symmetry_space_group_name_H-M "P -1"
_symmetry_group_IT_number 2
_symmetry_cell_setting 'triclinic'
loop_
_space_group_symop_operation_xyz
x,y,z
-x,-y,-z
loop_
_atom_site_type_symbol
_atom_site_label
_atom_site_fract_x
_atom_site_fract_y
_atom_site_fract_z
Si Si1 0.899550 0.745844 0.129184
Si Si2 0.452278 0.586749 0.122332
Si Si3 0.390466 0.770617 0.574653
Si Si4 0.057778 0.353532 0.722051
Si Si5 0.557037 0.309639 0.694907
Si Si6 0.591442 0.496487 0.335893
Si Si7 0.947789 0.324323 0.303244
O O1 0.648738 0.623887 0.118038
O O2 0.906297 0.606940 0.172752
O O3 0.794281 0.609771 0.005946
O O4 0.233463 0.131754 0.231079
O O5 0.338482 0.489351 0.181792
O O6 0.692434 0.955062 0.220155
O O7 0.321616 0.559892 0.595839
O O8 0.141562 0.535759 0.439054
O O9 0.433533 0.004536 0.643640
O O10 0.703168 0.016190 0.613585
O O11 0.229243 0.374221 0.700522
O O12 0.181551 0.630529 0.739791
O O13 0.362916 0.261336 0.613181
O O14 0.836006 0.539077 0.713567
#
# Coordination Sequence:
#
# PCOD9016322 Si02
#       7
#     2   2   2   2   2   2   2
#     4  10  23  42  63  98 130 161 220 275 309 388
#     4  11  23  41  67  93 129 170 217 266 321 382
#     4  10  25  45  63  98 138 163 217 272 310 394
#     4  10  21  42  67  93 133 166 211 270 326 378
#     4  11  22  41  68  97 124 175 216 255 329 387
#     4  11  22  42  70  97 129 172 216 265 326 380
#     4  11  24  45  64  93 135 173 209 269 326 377
#
# _framework density 22.496876
#
# number of rings (size 3 to 8) (size 9 to 14) (size 15 to 20)
#    0.000    1.429    2.857    2.571    0.000    6.286 
#    2.571   13.571    0.000    0.000    0.000    0.000 
#    0.000    0.000    0.000    0.000    0.000    0.000 
#
# Total GULP energy -78036.461376 kJ/mol
# GULP energy per Si atom -5574.032955 kJ/mol
# Density = 2.244567 g / cm^3
# Si number density = 22.496876 Si / 1000 Ang^3
#
#
#
# Elastic Constant Matrix: (Units=GPa)
#
#
# Indices 1 2 3 4 5 6 
#
# 1 313.5997 406.9968 -124.7634 24.9930 -129.1107 -103.3248
# 2 406.9968 821.8745 -230.5672 48.3781 -219.6394 -198.9242
# 3 -124.7634 -230.5672 205.4284 -41.2385 83.1198 51.8723
# 4 24.9930 48.3781 -41.2385 43.0057 -8.1029 -11.3634
# 5 -129.1107 -219.6394 83.1198 -8.1029 96.9797 50.3963
# 6 -103.3248 -198.9242 51.8723 -11.3634 50.3963 99.1490
#
#
#
# Elastic Compliance Matrix: (Units=1/GPa)
#
#
# Indices 1 2 3 4 5 6 
#
# 1 0.009999 -0.003141 -0.000321 -0.001178 0.005732 0.001238
# 2 -0.003141 0.005692 0.000755 -0.001559 0.005431 0.004812
# 3 -0.000321 0.000755 0.009510 0.007328 -0.006413 0.000306
# 4 -0.001178 -0.001559 0.007328 0.031024 -0.008669 -0.000226
# 5 0.005732 0.005431 -0.006413 -0.008669 0.034003 0.001949
# 6 0.001238 0.004812 0.000306 -0.000226 0.001949 0.019855
#
#
# Mechanical properties :
#
#
# Convention : Reuss Voigt Hill
#
# Bulk Modulus (GPa) = 50.53426 160.47054 105.50240
# Shear Modulus (GPa) = 40.95314 133.77598 87.36456
#
# Velocity S-wave (km/s) = 4.27123 7.71967 6.23846
# Velocity P-wave (km/s) = 6.84369 12.28588 9.94432
#
# Compressibility (1/GPa) = 0.01978855
#
# Stress axis : x y z
#
# Youngs Moduli (GPa) = 100.01190 175.68777 105.15511
#
# Poissons Ratio (x) = 0.55178 0.03372
# Poissons Ratio (y) = 0.31410 -0.07943
# Poissons Ratio (z) = 0.03207 -0.13271
#
# Static dielectric constant tensor:
#      x y z
#    x 1.923820 -0.018040 0.009740 
#    y -0.018040 1.922320 -0.051000 
#    z 0.009740 -0.051000 1.815140 
# 
# From -- ./inp_files/199269.got.cif
#   From: 2010.05.17/outbox.cif.g08.bks.cpg/sg2_100_cif.got.tgz:199269.got - 2010.06.03 11:33:40.
