data_PCOD9016365
_publ_section_title
;
Structure prediction by ZEFSAII (Michael W. Deem and Ramdas Pophale) SiO2 
 PCOD9016365
Probable space group: P -1
;
_chemical_formula_sum "Si O2"
_cell_formula_units_Z 14
_cell_length_a 9.284054
_cell_length_b 18.108662
_cell_length_c 7.760682
_cell_angle_alpha 125.943114
_cell_angle_beta 93.716682
_cell_angle_gamma 125.912636
_cell_volume 668.571956
_symmetry_space_group_name_H-M "P -1"
_symmetry_group_IT_number 2
_symmetry_cell_setting 'triclinic'
loop_
_space_group_symop_operation_xyz
x,y,z
-x,-y,-z
loop_
_atom_site_type_symbol
_atom_site_label
_atom_site_fract_x
_atom_site_fract_y
_atom_site_fract_z
Si Si1 0.237834 0.840861 0.734030
Si Si2 0.622527 0.698786 0.698262
Si Si3 0.961279 0.749365 0.253088
Si Si4 0.118054 0.894933 0.106033
Si Si5 0.455508 0.530590 0.801696
Si Si6 0.170044 0.499212 0.996728
Si Si7 0.479232 0.785562 0.573358
O O1 0.107115 0.828172 0.549344
O O2 0.755751 0.527777 0.194977
O O3 0.125850 0.810163 0.865672
O O4 0.500000 0.000000 0.000000
O O5 0.487638 0.600216 0.721458
O O6 0.587094 0.596674 0.422595
O O7 0.556207 0.765859 0.718106
O O8 0.885727 0.830811 0.950193
O O9 0.923855 0.622693 0.045987
O O10 0.100155 0.859585 0.255795
O O11 0.698404 0.655908 0.094081
O O12 0.327919 0.060764 0.294121
O O13 0.726052 0.246344 0.435967
O O14 0.401302 0.665841 0.281801
O O15 0.000000 0.500000 0.000000
#
# Coordination Sequence:
#
# PCOD9016365 Si02
#       7
#     2   2   2   2   2   2   2
#     4  10  23  42  64  94 134 175 212 265 331 387
#     4  10  21  42  67  95 130 169 225 266 322 392
#     4  11  22  44  68  95 127 174 222 262 331 388
#     4  10  24  43  67  93 133 178 213 270 326 390
#     4  10  23  41  68  96 127 176 216 271 330 382
#     4  12  24  41  65  98 131 167 219 274 325 388
#     4  11  23  41  61  98 132 167 218 269 325 385
#
# _framework density 20.940154
#
# number of rings (size 3 to 8) (size 9 to 14) (size 15 to 20)
#    0.000    1.429    2.857    1.714    2.000    3.429 
#    5.143    2.857    0.000    0.000    0.000    0.000 
#    0.000    0.000    0.000    0.000    0.000    0.000 
#
# Total GULP energy -78013.799956 kJ/mol
# GULP energy per Si atom -5572.414283 kJ/mol
# Density = 2.089249 g / cm^3
# Si number density = 20.940154 Si / 1000 Ang^3
#
#
#
# Elastic Constant Matrix: (Units=GPa)
#
#
# Indices 1 2 3 4 5 6 
#
# 1 99.0577 53.7684 14.2949 -14.8236 22.9305 -3.4010
# 2 53.7684 117.5395 34.7270 -0.8211 16.7687 -5.0273
# 3 14.2949 34.7270 85.3080 -5.0404 1.4342 4.1361
# 4 -14.8236 -0.8211 -5.0404 27.7821 -5.0840 -9.2324
# 5 22.9305 16.7687 1.4342 -5.0840 31.7985 5.7750
# 6 -3.4010 -5.0273 4.1361 -9.2324 5.7750 25.0693
#
#
#
# Elastic Compliance Matrix: (Units=1/GPa)
#
#
# Indices 1 2 3 4 5 6 
#
# 1 0.017182 -0.006284 0.000072 0.009590 -0.008746 0.006605
# 2 -0.006284 0.013255 -0.004603 -0.003742 -0.003198 0.001924
# 3 0.000072 -0.004603 0.013800 0.001851 0.002614 -0.003111
# 4 0.009590 -0.003742 0.001851 0.047106 -0.000719 0.017759
# 5 -0.008746 -0.003198 0.002614 -0.000719 0.041399 -0.012061
# 6 0.006605 0.001924 -0.003111 0.017759 -0.012061 0.051003
#
#
# Mechanical properties :
#
#
# Convention : Reuss Voigt Hill
#
# Bulk Modulus (GPa) = 44.23397 56.38732 50.31065
# Shear Modulus (GPa) = 23.48390 30.20429 26.84410
#
# Velocity S-wave (km/s) = 3.35248 3.80203 3.58431
# Velocity P-wave (km/s) = 6.01293 6.80148 6.41933
#
# Compressibility (1/GPa) = 0.02260706
#
# Stress axis : x y z
#
# Youngs Moduli (GPa) = 58.20006 75.44376 72.46228
#
# Poissons Ratio (x) = 0.47409 -0.00524
# Poissons Ratio (y) = 0.36573 0.33357
# Poissons Ratio (z) = -0.00421 0.34730
#
# Static dielectric constant tensor:
#      x y z
#    x 1.740550 0.006820 0.005840 
#    y 0.006820 1.746190 -0.008600 
#    z 0.005840 -0.008600 1.892950 
# 
# From -- ./inp_files/266393.got.cif
#   From: 2010.05.17/outbox.cif.g08.bks.cpg/sg2_134_cif.got.tgz:266393.got - 2010.06.03 11:33:40.
