data_PCOD9016829
_publ_section_title
;
Structure prediction by ZEFSAII (Michael W. Deem and Ramdas Pophale) SiO2 
 PCOD9016829
Probable space group: P -1
;
_chemical_formula_sum "Si O2"
_cell_formula_units_Z 16
_cell_length_a 8.788709
_cell_length_b 18.060305
_cell_length_c 7.905053
_cell_angle_alpha 62.891263
_cell_angle_beta 70.740768
_cell_angle_gamma 38.980003
_cell_volume 701.919238
_symmetry_space_group_name_H-M "P -1"
_symmetry_group_IT_number 2
_symmetry_cell_setting 'triclinic'
loop_
_space_group_symop_operation_xyz
x,y,z
-x,-y,-z
loop_
_atom_site_type_symbol
_atom_site_label
_atom_site_fract_x
_atom_site_fract_y
_atom_site_fract_z
Si Si1 0.760779 0.970880 0.082660
Si Si2 0.078805 0.377107 0.313594
Si Si3 0.268846 0.574604 0.392543
Si Si4 0.784922 0.144030 0.772910
Si Si5 0.780553 0.813101 0.977685
Si Si6 0.299474 0.646229 0.964505
Si Si7 0.710744 0.668319 0.077502
Si Si8 0.536084 0.666320 0.605377
O O1 0.965451 0.907603 0.214230
O O2 0.479472 0.080251 0.130923
O O3 0.774809 0.882382 0.058188
O O4 0.806870 0.034875 0.879746
O O5 0.269400 0.340118 0.413508
O O6 0.955356 0.346351 0.480009
O O7 0.863496 0.527209 0.204918
O O8 0.209890 0.324529 0.139291
O O9 0.500000 0.500000 0.500000
O O10 0.256998 0.649037 0.175562
O O11 0.321278 0.467096 0.388945
O O12 0.572295 0.239514 0.891016
O O13 0.667011 0.224456 0.562590
O O14 0.783756 0.714604 0.131325
O O15 0.040852 0.729104 0.884620
O O16 0.500000 0.500000 0.000000
O O17 0.412394 0.685339 0.806254
#
# Coordination Sequence:
#
# PCOD9016829 Si02
#       8
#     2   2   2   2   2   2   2   2
#     4   9  22  41  72  96 125 179 234 283 331 389
#     4  11  24  39  63 104 137 183 216 265 343 419
#     4  11  25  39  62 100 139 179 222 268 334 413
#     4  10  21  43  68  97 128 176 234 279 334 392
#     4  10  21  42  69  95 133 178 219 283 343 385
#     4  10  24  40  66  99 141 168 212 275 340 405
#     4  10  22  38  69  95 139 173 223 274 334 413
#     4  11  24  40  64  96 139 181 219 271 336 410
#
# _framework density 22.794646
#
# number of rings (size 3 to 8) (size 9 to 14) (size 15 to 20)
#    0.000    1.750    1.250    1.875   14.000    0.000 
#    0.000    1.250    0.000    0.000    0.000    0.000 
#    0.000    0.000    0.000    0.000    0.000    0.000 
#
# Total GULP energy -89350.454290 kJ/mol
# GULP energy per Si atom -5584.403393 kJ/mol
# Density = 2.274276 g / cm^3
# Si number density = 22.794646 Si / 1000 Ang^3
#
#
#
# Elastic Constant Matrix: (Units=GPa)
#
#
# Indices 1 2 3 4 5 6 
#
# 1 117.9235 37.5028 21.9224 16.7950 1.7817 -27.8363
# 2 37.5028 96.4302 19.5599 5.4210 4.9817 -23.4745
# 3 21.9224 19.5599 140.5136 31.8174 8.3511 -10.3642
# 4 16.7950 5.4210 31.8174 25.8421 -11.6404 -9.2268
# 5 1.7817 4.9817 8.3511 -11.6404 25.2556 -2.6680
# 6 -27.8363 -23.4745 -10.3642 -9.2268 -2.6680 54.3909
#
#
#
# Elastic Compliance Matrix: (Units=1/GPa)
#
#
# Indices 1 2 3 4 5 6 
#
# 1 0.011331 -0.003210 0.001261 -0.009275 -0.004556 0.002857
# 2 -0.003210 0.012773 -0.001618 0.002830 -0.000027 0.004040
# 3 0.001261 -0.001618 0.013776 -0.025805 -0.016495 -0.002615
# 4 -0.009275 0.002830 -0.025805 0.107152 0.059351 0.012646
# 5 -0.004556 -0.000027 -0.016495 0.059351 0.073597 0.008192
# 6 0.002857 0.004040 -0.002615 0.012646 0.008192 0.023640
#
#
# Mechanical properties :
#
#
# Convention : Reuss Voigt Hill
#
# Bulk Modulus (GPa) = 32.52668 56.98195 44.75431
# Shear Modulus (GPa) = 19.25660 39.48986 29.37323
#
# Velocity S-wave (km/s) = 2.90967 4.16675 3.59360
# Velocity P-wave (km/s) = 5.05853 6.94271 6.07412
#
# Compressibility (1/GPa) = 0.03074399
#
# Stress axis : x y z
#
# Youngs Moduli (GPa) = 88.25502 78.29189 72.59067
#
# Poissons Ratio (x) = 0.25133 -0.09153
# Poissons Ratio (y) = 0.28331 0.11748
# Poissons Ratio (z) = -0.11128 0.12671
#
# Static dielectric constant tensor:
#      x y z
#    x 1.911720 -0.039570 -0.013880 
#    y -0.039570 2.018960 0.039570 
#    z -0.013880 0.039570 1.863520 
# 
# From -- ./inp_files/221799.got.cif
#   From: 2010.05.17/outbox.cif.g08.bks.cpg/sg2_111_cif.got.tgz:221799.got - 2010.06.03 11:33:40.
