data_PCOD9016108
_publ_section_title
;
Structure prediction by ZEFSAII (Michael W. Deem and Ramdas Pophale) SiO2 
 PCOD9016108
Probable space group: P -1
;
_chemical_formula_sum "Si O2"
_cell_formula_units_Z 16
_cell_length_a 17.236546
_cell_length_b 9.136903
_cell_length_c 14.426407
_cell_angle_alpha 41.960418
_cell_angle_beta 35.903061
_cell_angle_gamma 29.734427
_cell_volume 654.454033
_symmetry_space_group_name_H-M "P -1"
_symmetry_group_IT_number 2
_symmetry_cell_setting 'triclinic'
loop_
_space_group_symop_operation_xyz
x,y,z
-x,-y,-z
loop_
_atom_site_type_symbol
_atom_site_label
_atom_site_fract_x
_atom_site_fract_y
_atom_site_fract_z
Si Si1 0.613519 0.727012 0.250022
Si Si2 0.649638 0.861807 0.539153
Si Si3 0.127053 0.256011 0.130736
Si Si4 0.077516 0.835952 0.404129
Si Si5 0.172766 0.947207 0.607930
Si Si6 0.649282 0.920404 0.821369
Si Si7 0.823172 0.880824 0.195465
Si Si8 0.871201 0.267759 0.891857
O O1 0.693901 0.407138 0.356959
O O2 0.531650 0.944148 0.316408
O O3 0.462598 0.834350 0.266743
O O4 0.754475 0.721446 0.060567
O O5 0.755850 0.515933 0.588708
O O6 0.669842 0.953775 0.375584
O O7 0.758203 0.914611 0.472828
O O8 0.210365 0.151053 0.203997
O O9 0.925411 0.581673 0.178001
O O10 0.123797 0.006754 0.224377
O O11 0.000000 0.000000 0.500000
O O12 0.915722 0.898996 0.476630
O O13 0.010349 0.048843 0.782135
O O14 0.740214 0.609884 0.829940
O O15 0.500000 0.000000 0.000000
O O16 0.997550 0.778681 0.133574
O O17 0.761966 0.174522 0.069688
#
# Coordination Sequence:
#
# PCOD9016108 Si02
#       8
#     2   2   2   2   2   2   2   2
#     4  11  23  43  66 102 135 166 224 273 338 386
#     4  11  24  41  68 100 134 173 219 276 330 387
#     4  10  21  42  66  95 131 177 218 270 325 397
#     4  12  26  44  68  95 135 180 224 267 329 397
#     4  11  24  42  71  99 129 175 225 279 319 391
#     4   9  20  35  65  98 131 168 213 277 326 381
#     4   9  17  35  64  94 128 166 218 274 308 385
#     4   9  17  35  64  94 125 166 228 260 314 386
#
# _framework density 24.447859999999999
#
# number of rings (size 3 to 8) (size 9 to 14) (size 15 to 20)
#    0.000    1.750    2.500    1.500    7.000    1.000 
#    0.000    0.625    0.000    0.000    0.000    0.000 
#    0.000    0.000    0.000    0.000    0.000    0.000 
#
# Total GULP energy -89419.237986 kJ/mol
# GULP energy per Si atom -5588.702374 kJ/mol
# Density = 2.439222 g / cm^3
# Si number density = 24.447860 Si / 1000 Ang^3
#
#
#
# Elastic Constant Matrix: (Units=GPa)
#
#
# Indices 1 2 3 4 5 6 
#
# 1 40.0557 14.0436 11.9165 -0.4292 2.0877 5.3995
# 2 14.0436 142.4231 40.4508 -2.7635 6.7459 19.3833
# 3 11.9165 40.4508 132.3607 8.3832 -2.0442 12.8385
# 4 -0.4292 -2.7635 8.3832 38.8831 6.8020 -2.8750
# 5 2.0877 6.7459 -2.0442 6.8020 30.6194 0.5369
# 6 5.3995 19.3833 12.8385 -2.8750 0.5369 33.0351
#
#
#
# Elastic Compliance Matrix: (Units=1/GPa)
#
#
# Indices 1 2 3 4 5 6 
#
# 1 0.026502 -0.001691 -0.001682 0.000629 -0.001641 -0.002604
# 2 -0.001691 0.008427 -0.002169 0.001138 -0.002074 -0.003692
# 3 -0.001682 -0.002169 0.008761 -0.002528 0.001776 -0.002106
# 4 0.000629 0.001138 -0.002528 0.027719 -0.006668 0.002733
# 5 -0.001641 -0.002074 0.001776 -0.006668 0.034834 -0.000351
# 6 -0.002604 -0.003692 -0.002106 0.002733 -0.000351 0.033925
#
#
# Mechanical properties :
#
#
# Convention : Reuss Voigt Hill
#
# Bulk Modulus (GPa) = 30.66909 49.74016 40.20462
# Shear Modulus (GPa) = 30.84112 37.06942 33.95527
#
# Velocity S-wave (km/s) = 3.55562 3.89815 3.73082
# Velocity P-wave (km/s) = 5.42481 6.37576 5.91941
#
# Compressibility (1/GPa) = 0.03260612
#
# Stress axis : x y z
#
# Youngs Moduli (GPa) = 37.73323 118.66641 114.13909
#
# Poissons Ratio (x) = 0.20069 0.19195
# Poissons Ratio (y) = 0.06381 0.24757
# Poissons Ratio (z) = 0.06346 0.25739
#
# Static dielectric constant tensor:
#      x y z
#    x 2.032900 -0.011950 -0.006630 
#    y -0.011950 1.904540 0.025990 
#    z -0.006630 0.025990 1.962370 
# 
# From -- ./inp_files/537581.got.cif
#   From: 2010.05.17/outbox.cif.g08.bks.cpg/sg2_269_cif.got.tgz:537581.got - 2010.06.03 11:33:40.
