data_PCOD9016045
_publ_section_title
;
Structure prediction by ZEFSAII (Michael W. Deem and Ramdas Pophale) SiO2 
 PCOD9016045
Probable space group: P -1
;
_chemical_formula_sum "Si O2"
_cell_formula_units_Z 16
_cell_length_a 9.062652
_cell_length_b 11.924181
_cell_length_c 13.310172
_cell_angle_alpha 100.901402
_cell_angle_beta 50.622061
_cell_angle_gamma 131.245599
_cell_volume 768.244999
_symmetry_space_group_name_H-M "P -1"
_symmetry_group_IT_number 2
_symmetry_cell_setting 'triclinic'
loop_
_space_group_symop_operation_xyz
x,y,z
-x,-y,-z
loop_
_atom_site_type_symbol
_atom_site_label
_atom_site_fract_x
_atom_site_fract_y
_atom_site_fract_z
Si Si1 0.304399 0.116891 0.432525
Si Si2 0.624811 0.076575 0.715974
Si Si3 0.667266 0.359239 0.132662
Si Si4 0.893950 0.437252 0.647613
Si Si5 0.537794 0.394208 0.519852
Si Si6 0.316524 0.020145 0.128868
Si Si7 0.056555 0.907506 0.016068
Si Si8 0.483851 0.444190 0.784756
O O1 0.538266 0.259829 0.277415
O O2 0.346606 0.213785 0.527708
O O3 0.345683 0.997514 0.402299
O O4 0.000000 0.000000 0.500000
O O5 0.727364 0.248333 0.687666
O O6 0.777546 0.076498 0.742050
O O7 0.317217 0.957435 0.864795
O O8 0.517727 0.210830 0.094670
O O9 0.535838 0.428264 0.186293
O O10 0.000000 0.500000 0.000000
O O11 0.714187 0.473126 0.751595
O O12 0.000000 0.500000 0.500000
O O13 0.157684 0.524515 0.614708
O O14 0.500000 0.500000 0.500000
O O15 0.504962 0.408538 0.654286
O O16 0.103706 0.953012 0.121633
O O17 0.500000 0.000000 0.000000
O O18 0.803072 0.719162 0.079482
O O19 0.000000 0.000000 0.000000
#
# Coordination Sequence:
#
# PCOD9016045 Si02
#       8
#     2   2   2   2   2   2   2   2
#     4  11  24  40  66 103 129 166 224 280 322 381
#     4  10  21  42  66  92 136 166 221 272 321 393
#     4  11  23  43  67 101 136 167 224 279 324 395
#     4  10  23  41  62  93 133 175 213 265 331 389
#     4  11  23  42  69  96 126 175 222 269 326 395
#     4   9  21  38  67  96 121 172 215 266 321 387
#     4  11  22  42  65  97 131 172 214 265 337 397
#     4  11  23  42  66  97 135 171 216 273 335 394
#
# _framework density 20.826689999999999
#
# number of rings (size 3 to 8) (size 9 to 14) (size 15 to 20)
#    0.000    1.500    2.500    3.000    7.000    2.000 
#    2.250    3.125    0.000    0.000    0.000    0.000 
#    0.000    0.000    0.000    0.000    0.000    0.000 
#
# Total GULP energy -89222.346637 kJ/mol
# GULP energy per Si atom -5576.396665 kJ/mol
# Density = 2.077929 g / cm^3
# Si number density = 20.826690 Si / 1000 Ang^3
#
#
#
# Elastic Constant Matrix: (Units=GPa)
#
#
# Indices 1 2 3 4 5 6 
#
# 1 110.8769 30.1383 23.3184 6.4354 -27.0794 -14.4243
# 2 30.1383 108.6005 20.6382 24.2943 -21.5969 -20.4674
# 3 23.3184 20.6382 81.9086 -1.2991 -26.4307 -4.3088
# 4 6.4354 24.2943 -1.2991 40.9621 -3.4444 -3.3431
# 5 -27.0794 -21.5969 -26.4307 -3.4444 35.1484 -1.9105
# 6 -14.4243 -20.4674 -4.3088 -3.3431 -1.9105 31.5197
#
#
#
# Elastic Compliance Matrix: (Units=1/GPa)
#
#
# Indices 1 2 3 4 5 6 
#
# 1 0.012220 -0.000270 -0.000043 -0.000479 0.009492 0.005936
# 2 -0.000270 0.014168 -0.000623 -0.007011 0.007816 0.008721
# 3 -0.000043 -0.000623 0.016564 0.002175 0.012406 0.002822
# 4 -0.000479 -0.007011 0.002175 0.028569 -0.000321 -0.001464
# 5 0.009492 0.007816 0.012406 -0.000321 0.050633 0.014150
# 6 0.005936 0.008721 0.002822 -0.001464 0.014150 0.041194
#
#
# Mechanical properties :
#
#
# Convention : Reuss Voigt Hill
#
# Bulk Modulus (GPa) = 24.34321 49.95288 37.14804
# Shear Modulus (GPa) = 27.94653 36.67879 32.31266
#
# Velocity S-wave (km/s) = 3.66712 4.20115 3.94318
# Velocity P-wave (km/s) = 5.44465 6.89710 6.21346
#
# Compressibility (1/GPa) = 0.04107922
#
# Stress axis : x y z
#
# Youngs Moduli (GPa) = 81.83616 70.58279 60.37042
#
# Poissons Ratio (x) = 0.01902 0.00262
# Poissons Ratio (y) = 0.02206 0.03763
# Poissons Ratio (z) = 0.00355 0.04400
#
# Static dielectric constant tensor:
#      x y z
#    x 1.281310 0.510870 0.014540 
#    y 0.510870 1.289570 0.002900 
#    z 0.014540 0.002900 1.804700 
# 
# From -- ./inp_files/223412.got.cif
#   From: 2010.05.17/outbox.cif.g08.bks.cpg/sg2_112_cif.got.tgz:223412.got - 2010.06.03 11:33:40.
