data_PCOD9016875
_publ_section_title
;
Structure prediction by ZEFSAII (Michael W. Deem and Ramdas Pophale) SiO2 
 PCOD9016875
Probable space group: P -1
;
_chemical_formula_sum "Si O2"
_cell_formula_units_Z 16
_cell_length_a 5.149841
_cell_length_b 8.980913
_cell_length_c 15.459661
_cell_angle_alpha 91.324757
_cell_angle_beta 71.859135
_cell_angle_gamma 105.039604
_cell_volume 654.901838
_symmetry_space_group_name_H-M "P -1"
_symmetry_group_IT_number 2
_symmetry_cell_setting 'triclinic'
loop_
_space_group_symop_operation_xyz
x,y,z
-x,-y,-z
loop_
_atom_site_type_symbol
_atom_site_label
_atom_site_fract_x
_atom_site_fract_y
_atom_site_fract_z
Si Si1 0.620855 0.496247 0.232277
Si Si2 0.814948 0.398225 0.371831
Si Si3 0.485523 0.162911 0.542259
Si Si4 0.081372 0.749445 0.358749
Si Si5 0.852423 0.757594 0.802142
Si Si6 0.398685 0.255856 0.884990
Si Si7 0.869141 0.107645 0.834426
Si Si8 0.153137 0.485560 0.073344
O O1 0.590525 0.453417 0.334674
O O2 0.456577 0.342840 0.196708
O O3 0.516781 0.639679 0.210026
O O4 0.945439 0.533459 0.167099
O O5 0.683149 0.297618 0.465106
O O6 0.017557 0.565054 0.375653
O O7 0.950128 0.294256 0.291296
O O8 0.174219 0.190238 0.572138
O O9 0.624267 0.172502 0.623151
O O10 0.500000 0.000000 0.500000
O O11 0.061400 0.799102 0.262019
O O12 0.883834 0.687973 0.892166
O O13 0.884382 0.936527 0.808475
O O14 0.074291 0.173827 0.894999
O O15 0.538890 0.393074 0.940535
O O16 0.557240 0.125778 0.885329
O O17 0.000000 0.500000 0.000000
#
# Coordination Sequence:
#
# PCOD9016875 Si02
#       8
#     2   2   2   2   2   2   2   2
#     4  10  21  42  69  98 126 182 219 276 320 403
#     4  11  24  43  66  96 133 171 236 268 331 402
#     4  12  28  43  62  97 136 175 222 281 345 386
#     4  12  25  43  67  93 130 183 220 279 334 389
#     4  10  25  39  70 101 134 176 221 277 335 392
#     4  11  22  43  68  99 132 178 222 271 329 398
#     4  12  24  43  69  99 139 172 231 274 336 398
#     4  10  22  45  72 102 136 176 223 271 329 402
#
# _framework density 24.431141
#
# number of rings (size 3 to 8) (size 9 to 14) (size 15 to 20)
#    0.000    1.000    2.500    4.125    8.750    2.000 
#    0.000    1.250    0.000    0.000    0.000    0.000 
#    0.000    0.000    0.000    0.000    0.000    0.000 
#
# Total GULP energy -89418.745667 kJ/mol
# GULP energy per Si atom -5588.671604 kJ/mol
# Density = 2.437553 g / cm^3
# Si number density = 24.431141 Si / 1000 Ang^3
#
#
#
# Elastic Constant Matrix: (Units=GPa)
#
#
# Indices 1 2 3 4 5 6 
#
# 1 107.8981 22.9260 6.0210 0.9483 28.7207 -5.0782
# 2 22.9260 132.2135 8.7765 15.4981 16.3042 -26.3398
# 3 6.0210 8.7765 75.7270 -1.3721 25.1888 -4.0381
# 4 0.9483 15.4981 -1.3721 30.6794 10.5670 2.6778
# 5 28.7207 16.3042 25.1888 10.5670 37.3387 11.5078
# 6 -5.0782 -26.3398 -4.0381 2.6778 11.5078 36.1394
#
#
#
# Elastic Compliance Matrix: (Units=1/GPa)
#
#
# Indices 1 2 3 4 5 6 
#
# 1 0.014424 0.000712 0.005925 0.005469 -0.019752 0.009092
# 2 0.000712 0.011272 0.002536 -0.003216 -0.009972 0.012012
# 3 0.005925 0.002536 0.022217 0.007635 -0.026867 0.013153
# 4 0.005469 -0.003216 0.007635 0.041199 -0.020457 0.002739
# 5 -0.019752 -0.009972 -0.026867 -0.020457 0.081827 -0.037586
# 6 0.009092 0.012012 0.013153 0.002739 -0.037586 0.050938
#
#
# Mechanical properties :
#
#
# Convention : Reuss Voigt Hill
#
# Bulk Modulus (GPa) = 15.09268 43.47618 29.28443
# Shear Modulus (GPa) = 22.16141 39.37248 30.76695
#
# Velocity S-wave (km/s) = 3.01507 4.01879 3.55256
# Velocity P-wave (km/s) = 4.27924 6.27441 5.37030
#
# Compressibility (1/GPa) = 0.06625727
#
# Stress axis : x y z
#
# Youngs Moduli (GPa) = 69.33018 88.71806 45.01143
#
# Poissons Ratio (x) = -0.06313 -0.26668
# Poissons Ratio (y) = -0.04933 -0.11417
# Poissons Ratio (z) = -0.41076 -0.22502
#
# Static dielectric constant tensor:
#      x y z
#    x 2.038180 -0.020550 -0.064590 
#    y -0.020550 1.925670 0.043570 
#    z -0.064590 0.043570 2.004140 
# 
# From -- ./inp_files/340554.got.cif
#   From: 2010.05.17/outbox.cif.g08.bks.cpg/sg2_171_cif.got.tgz:340554.got - 2010.06.03 11:33:40.
