data_PCOD9016705
_publ_section_title
;
Structure prediction by ZEFSAII (Michael W. Deem and Ramdas Pophale) SiO2 
 PCOD9016705
Probable space group: P -1
;
_chemical_formula_sum "Si O2"
_cell_formula_units_Z 16
_cell_length_a 15.858566
_cell_length_b 5.460469
_cell_length_c 8.755315
_cell_angle_alpha 96.057138
_cell_angle_beta 74.683004
_cell_angle_gamma 101.573926
_cell_volume 715.261425
_symmetry_space_group_name_H-M "P -1"
_symmetry_group_IT_number 2
_symmetry_cell_setting 'triclinic'
loop_
_space_group_symop_operation_xyz
x,y,z
-x,-y,-z
loop_
_atom_site_type_symbol
_atom_site_label
_atom_site_fract_x
_atom_site_fract_y
_atom_site_fract_z
Si Si1 0.971797 0.470042 0.333249
Si Si2 0.310703 0.009482 0.128314
Si Si3 0.727513 0.732706 0.119123
Si Si4 0.137690 0.093087 0.674482
Si Si5 0.568014 0.708201 0.393985
Si Si6 0.168130 0.569958 0.179279
Si Si7 0.600109 0.153184 0.644076
Si Si8 0.262747 0.380532 0.392751
O O1 0.922889 0.693677 0.312270
O O2 0.000000 0.500000 0.500000
O O3 0.064129 0.496931 0.196863
O O4 0.914173 0.190997 0.328446
O O5 0.321356 0.263289 0.235380
O O6 0.208718 0.863773 0.181971
O O7 0.370784 0.862155 0.193254
O O8 0.317030 0.080170 0.953962
O O9 0.809253 0.870127 0.189763
O O10 0.647878 0.616218 0.261598
O O11 0.770454 0.545928 0.978364
O O12 0.213348 0.170314 0.514797
O O13 0.500000 0.500000 0.500000
O O14 0.501333 0.812819 0.316947
O O15 0.604209 0.917239 0.517025
O O16 0.188408 0.473343 0.330982
O O17 0.672379 0.380874 0.555730
#
# Coordination Sequence:
#
# PCOD9016705 Si02
#       8
#     2   2   2   2   2   2   2   2
#     4  12  26  45  73 108 140 187 247 301 347 420
#     4  10  22  43  67  95 140 184 232 280 356 425
#     4  11  27  43  66 100 140 187 225 289 360 425
#     4  12  27  42  74 104 144 186 244 296 358 409
#     4  11  24  44  70 102 139 169 240 290 354 418
#     4  10  24  43  68  96 141 185 231 285 357 419
#     4  10  22  41  72 100 130 184 223 302 342 423
#     4  10  21  42  69 100 135 181 235 290 350 418
#
# _framework density 22.369444000000001
#
# number of rings (size 3 to 8) (size 9 to 14) (size 15 to 20)
#    0.000    1.250    1.250    3.375    8.750    3.500 
#    0.000    8.750    0.000    0.000    0.000    0.000 
#    0.000    0.000    0.000    0.000    0.000    0.000 
#
# Total GULP energy -89308.409698 kJ/mol
# GULP energy per Si atom -5581.775606 kJ/mol
# Density = 2.231853 g / cm^3
# Si number density = 22.369444 Si / 1000 Ang^3
#
#
#
# Elastic Constant Matrix: (Units=GPa)
#
#
# Indices 1 2 3 4 5 6 
#
# 1 154.7223 48.4311 61.1609 1.4092 -0.1325 8.4829
# 2 48.4311 147.0853 43.3327 3.0208 0.5234 29.0386
# 3 61.1609 43.3327 102.7907 -3.2555 10.7856 9.2225
# 4 1.4092 3.0208 -3.2555 25.2514 -4.0005 7.3817
# 5 -0.1325 0.5234 10.7856 -4.0005 44.9113 -1.4237
# 6 8.4829 29.0386 9.2225 7.3817 -1.4237 35.0932
#
#
#
# Elastic Compliance Matrix: (Units=1/GPa)
#
#
# Indices 1 2 3 4 5 6 
#
# 1 0.008833 -0.001624 -0.004783 -0.000944 0.001132 0.000710
# 2 -0.001624 0.009377 -0.002378 0.000722 0.000303 -0.006881
# 3 -0.004783 -0.002378 0.014089 0.002202 -0.003211 -0.001172
# 4 -0.000944 0.000722 0.002202 0.043226 0.002996 -0.009919
# 5 0.001132 0.000303 -0.003211 0.002996 0.023324 0.000635
# 6 0.000710 -0.006881 -0.001172 -0.009919 0.000635 0.036438
#
#
# Mechanical properties :
#
#
# Convention : Reuss Voigt Hill
#
# Bulk Modulus (GPa) = 67.90047 78.93866 73.41956
# Shear Modulus (GPa) = 31.69225 37.82942 34.76083
#
# Velocity S-wave (km/s) = 3.76808 4.11678 3.94628
# Velocity P-wave (km/s) = 7.02504 7.61331 7.32508
#
# Compressibility (1/GPa) = 0.01472744
#
# Stress axis : x y z
#
# Youngs Moduli (GPa) = 113.21092 106.64680 70.97734
#
# Poissons Ratio (x) = 0.17321 0.33952
# Poissons Ratio (y) = 0.18387 0.16879
# Poissons Ratio (z) = 0.54154 0.25362
#
# Static dielectric constant tensor:
#      x y z
#    x 1.868920 -0.059760 0.028370 
#    y -0.059760 1.842600 -0.012230 
#    z 0.028370 -0.012230 1.858150 
# 
# From -- ./inp_files/288830.got.cif
#   From: 2010.05.17/outbox.cif.g08.bks.cpg/sg2_145_cif.got.tgz:288830.got - 2010.06.03 11:33:40.
