data_PCOD9016548
_publ_section_title
;
Structure prediction by ZEFSAII (Michael W. Deem and Ramdas Pophale) SiO2 
 PCOD9016548
Probable space group: P -1
;
_chemical_formula_sum "Si O2"
_cell_formula_units_Z 12
_cell_length_a 14.483186
_cell_length_b 6.169996
_cell_length_c 7.824001
_cell_angle_alpha 115.743997
_cell_angle_beta 54.557945
_cell_angle_gamma 100.833779
_cell_volume 511.122298
_symmetry_space_group_name_H-M "P -1"
_symmetry_group_IT_number 2
_symmetry_cell_setting 'triclinic'
loop_
_space_group_symop_operation_xyz
x,y,z
-x,-y,-z
loop_
_atom_site_type_symbol
_atom_site_label
_atom_site_fract_x
_atom_site_fract_y
_atom_site_fract_z
Si Si1 0.487158 0.696588 0.732485
Si Si2 0.297588 0.008044 0.917727
Si Si3 0.664971 0.555216 0.779777
Si Si4 0.333536 0.972374 0.483099
Si Si5 0.058595 0.864847 0.055575
Si Si6 0.150157 0.331259 0.651764
O O1 0.500000 0.500000 0.500000
O O2 0.550455 0.600425 0.803521
O O3 0.359169 0.819316 0.921099
O O4 0.557717 0.917432 0.671925
O O5 0.342378 0.914414 0.653208
O O6 0.337496 0.273926 0.995622
O O7 0.162297 0.003490 0.060902
O O8 0.690708 0.270532 0.670546
O O9 0.769101 0.651856 0.592009
O O10 0.231630 0.181815 0.647407
O O11 0.963055 0.809521 0.277384
O O12 0.113770 0.602679 0.844288
O O13 0.000000 0.000000 0.000000
#
# Coordination Sequence:
#
# PCOD9016548 Si02
#       6
#     2   2   2   2   2   2
#     4  11  23  44  68  91 132 172 208 262 319 378
#     4  12  23  41  67  95 128 171 213 261 320 373
#     4  11  24  42  64  98 131 163 215 263 316 381
#     4  11  22  45  64  93 134 166 208 266 318 378
#     4  11  21  42  71  91 126 173 216 257 320 378
#     4  10  21  42  68  92 130 169 211 266 314 376
#
# _framework density 23.477747000000001
#
# number of rings (size 3 to 8) (size 9 to 14) (size 15 to 20)
#    0.000    1.000    5.000    2.000    0.000    1.333 
#   12.000    3.333    0.000    0.000    0.000    0.000 
#    0.000    0.000    0.000    0.000    0.000    0.000 
#
# Total GULP energy -67163.060698 kJ/mol
# GULP energy per Si atom -5596.921725 kJ/mol
# Density = 2.342431 g / cm^3
# Si number density = 23.477747 Si / 1000 Ang^3
#
#
#
# Elastic Constant Matrix: (Units=GPa)
#
#
# Indices 1 2 3 4 5 6 
#
# 1 131.7409 52.6265 40.7789 18.8581 -19.3742 12.5227
# 2 52.6265 113.2425 27.9543 20.3256 -1.7803 5.7921
# 3 40.7789 27.9543 61.9974 16.5757 -3.4065 -3.3530
# 4 18.8581 20.3256 16.5757 51.3468 2.1209 -2.0976
# 5 -19.3742 -1.7803 -3.4065 2.1209 40.8142 12.3910
# 6 12.5227 5.7921 -3.3530 -2.0976 12.3910 39.3014
#
#
#
# Elastic Compliance Matrix: (Units=1/GPa)
#
#
# Indices 1 2 3 4 5 6 
#
# 1 0.013062 -0.003704 -0.006365 -0.001864 0.007628 -0.006664
# 2 -0.003704 0.011544 -0.002198 -0.002471 -0.001166 -0.000473
# 3 -0.006365 -0.002198 0.022428 -0.003730 -0.002528 0.004863
# 4 -0.001864 -0.002471 -0.003730 0.022600 -0.003360 0.002905
# 5 0.007628 -0.001166 -0.002528 -0.003360 0.031893 -0.012709
# 6 -0.006664 -0.000473 0.004863 0.002905 -0.012709 0.032214
#
#
# Mechanical properties :
#
#
# Convention : Reuss Voigt Hill
#
# Bulk Modulus (GPa) = 44.44103 61.07781 52.75942
# Shear Modulus (GPa) = 30.16142 38.66722 34.41432
#
# Velocity S-wave (km/s) = 3.58813 4.06269 3.83277
# Velocity P-wave (km/s) = 6.01135 6.93390 6.48904
#
# Compressibility (1/GPa) = 0.02250173
#
# Stress axis : x y z
#
# Youngs Moduli (GPa) = 76.55592 86.62655 44.58649
#
# Poissons Ratio (x) = 0.32086 0.28378
# Poissons Ratio (y) = 0.28356 0.09799
# Poissons Ratio (z) = 0.48725 0.19038
#
# Static dielectric constant tensor:
#      x y z
#    x 1.888950 0.009320 -0.016920 
#    y 0.009320 1.861640 -0.036760 
#    z -0.016920 -0.036760 1.909210 
# 
# From -- ./inp_files/21256.got.cif
#   From: 2010.05.17/outbox.cif.g08.bks.cpg/sg2_11_cif.got.tgz:21256.got - 2010.06.03 11:33:40.
