data_PCOD9016386
_publ_section_title
;
Structure prediction by ZEFSAII (Michael W. Deem and Ramdas Pophale) SiO2 
 PCOD9016386
Probable space group: P -1
;
_chemical_formula_sum "Si O2"
_cell_formula_units_Z 14
_cell_length_a 6.672691
_cell_length_b 14.831178
_cell_length_c 15.412761
_cell_angle_alpha 26.868075
_cell_angle_beta 69.528475
_cell_angle_gamma 72.000125
_cell_volume 645.792906
_symmetry_space_group_name_H-M "P -1"
_symmetry_group_IT_number 2
_symmetry_cell_setting 'triclinic'
loop_
_space_group_symop_operation_xyz
x,y,z
-x,-y,-z
loop_
_atom_site_type_symbol
_atom_site_label
_atom_site_fract_x
_atom_site_fract_y
_atom_site_fract_z
Si Si1 0.091051 0.316283 0.884696
Si Si2 0.893917 0.444166 0.155478
Si Si3 0.198390 0.401253 0.431752
Si Si4 0.205587 0.122970 0.393333
Si Si5 0.496959 0.134595 0.500922
Si Si6 0.537684 0.330602 0.711846
Si Si7 0.063938 0.920653 0.154264
O O1 0.145766 0.384268 0.915543
O O2 0.304234 0.284981 0.822761
O O3 0.952476 0.486579 0.711263
O O4 0.992818 0.095012 0.081867
O O5 0.682365 0.300601 0.303430
O O6 0.101583 0.329355 0.257841
O O7 0.000000 0.500000 0.000000
O O8 0.364411 0.243865 0.500797
O O9 0.331358 0.571489 0.313365
O O10 0.062850 0.278979 0.628071
O O11 0.328423 0.072422 0.505668
O O12 0.369858 0.072073 0.333832
O O13 0.000000 0.000000 0.500000
O O14 0.500000 0.500000 0.500000
O O15 0.688751 0.149910 0.813918
O O16 0.000000 0.000000 0.000000
#
# Coordination Sequence:
#
# PCOD9016386 Si02
#       7
#     2   2   2   2   2   2   2
#     4  12  25  46  71 102 145 191 242 294 362 432
#     4  11  24  44  65  99 143 183 240 300 351 423
#     4  12  24  46  73  99 146 186 236 294 365 431
#     4   9  20  39  67  91 131 173 231 281 347 414
#     4  10  21  42  67  96 130 187 231 283 354 424
#     4  12  24  47  74 100 144 192 233 296 364 428
#     4  12  26  45  72 108 144 183 243 301 359 433
#
# _framework density 21.678775999999999
#
# number of rings (size 3 to 8) (size 9 to 14) (size 15 to 20)
#    0.000    0.857    5.714    1.714    0.000    4.000 
#    7.714    0.000    0.000    0.000    0.000    0.000 
#    0.000    0.000    0.000    0.000    0.000    0.000 
#
# Total GULP energy -77940.907146 kJ/mol
# GULP energy per Si atom -5567.207653 kJ/mol
# Density = 2.162943 g / cm^3
# Si number density = 21.678776 Si / 1000 Ang^3
#
#
#
# Elastic Constant Matrix: (Units=GPa)
#
#
# Indices 1 2 3 4 5 6 
#
# 1 86.8525 19.6505 21.4453 5.1539 12.9443 -9.3304
# 2 19.6505 118.6214 15.4169 -18.3203 10.4022 -9.4537
# 3 21.4453 15.4169 50.3878 -1.2995 5.9804 -2.3138
# 4 5.1539 -18.3203 -1.2995 31.2279 -2.2138 -1.5506
# 5 12.9443 10.4022 5.9804 -2.2138 27.5144 -5.6398
# 6 -9.3304 -9.4537 -2.3138 -1.5506 -5.6398 53.8643
#
#
#
# Elastic Compliance Matrix: (Units=1/GPa)
#
#
# Indices 1 2 3 4 5 6 
#
# 1 0.014260 -0.001774 -0.004973 -0.003891 -0.005002 0.001309
# 2 -0.001774 0.010191 -0.001925 0.006131 -0.001823 0.001384
# 3 -0.004973 -0.001925 0.022774 0.000482 -0.001928 -0.000409
# 4 -0.003891 0.006131 0.000482 0.036561 0.002710 0.001759
# 5 -0.005002 -0.001823 -0.001928 0.002710 0.040652 0.003065
# 6 0.001309 0.001384 -0.000409 0.001759 0.003065 0.019389
#
#
# Mechanical properties :
#
#
# Convention : Reuss Voigt Hill
#
# Bulk Modulus (GPa) = 33.46557 40.98745 37.22651
# Shear Modulus (GPa) = 29.21718 35.81127 32.51422
#
# Velocity S-wave (km/s) = 3.67513 4.06877 3.87695
# Velocity P-wave (km/s) = 5.78613 6.40476 6.10329
#
# Compressibility (1/GPa) = 0.02988146
#
# Stress axis : x y z
#
# Youngs Moduli (GPa) = 70.12612 98.12270 43.90959
#
# Poissons Ratio (x) = 0.17406 0.21836
# Poissons Ratio (y) = 0.12439 0.08453
# Poissons Ratio (z) = 0.34873 0.18890
#
# Static dielectric constant tensor:
#      x y z
#    x 1.700090 -0.078850 -0.093370 
#    y -0.078850 1.865730 -0.085400 
#    z -0.093370 -0.085400 1.796900 
# 
# From -- ./inp_files/122803.got.cif
#   From: 2010.05.17/outbox.cif.g08.bks.cpg/sg2_62_cif.got.tgz:122803.got - 2010.06.03 11:33:40.
