data_PCOD9016841
_publ_section_title
;
Structure prediction by ZEFSAII (Michael W. Deem and Ramdas Pophale) SiO2 
 PCOD9016841
Probable space group: P -1
;
_chemical_formula_sum "Si O2"
_cell_formula_units_Z 14
_cell_length_a 11.674364
_cell_length_b 10.649578
_cell_length_c 13.504794
_cell_angle_alpha 151.332837
_cell_angle_beta 134.647351
_cell_angle_gamma 61.064802
_cell_volume 527.893123
_symmetry_space_group_name_H-M "P -1"
_symmetry_group_IT_number 2
_symmetry_cell_setting 'triclinic'
loop_
_space_group_symop_operation_xyz
x,y,z
-x,-y,-z
loop_
_atom_site_type_symbol
_atom_site_label
_atom_site_fract_x
_atom_site_fract_y
_atom_site_fract_z
Si Si1 0.172489 0.652204 0.998672
Si Si2 0.692893 0.132190 0.974128
Si Si3 0.242437 0.576293 0.199226
Si Si4 0.014455 0.945192 0.608467
Si Si5 0.601152 0.538180 0.426395
Si Si6 0.053447 0.144015 0.270205
Si Si7 0.355094 0.897572 0.699016
O O1 0.305278 0.767236 0.067811
O O2 0.246207 0.743691 0.216057
O O3 0.105903 0.307597 0.712682
O O4 0.039384 0.817317 0.014342
O O5 0.890418 0.219968 0.191518
O O6 0.637076 0.794606 0.703632
O O7 0.535181 0.156738 0.957257
O O8 0.416056 0.508169 0.250085
O O9 0.269205 0.740914 0.434325
O O10 0.068117 0.284407 0.886415
O O11 0.200453 0.943389 0.692927
O O12 0.939429 0.824520 0.586255
O O13 0.769807 0.658942 0.540838
O O14 0.591325 0.280742 0.310323
#
# Coordination Sequence:
#
# PCOD9016841 Si02
#       7
#     2   2   2   2   2   2   2
#     4  11  25  44  65  93 130 169 211 261 316 375
#     4  10  21  42  69  96 126 166 212 261 316 376
#     4  11  25  44  65  93 130 169 211 261 316 375
#     4  12  25  42  66  94 127 170 214 258 315 378
#     4  10  21  42  69  96 126 166 212 261 316 376
#     4  11  24  43  68  95 128 166 211 264 315 372
#     4  11  24  43  68  95 128 166 211 264 315 372
#
# _framework density 26.520520999999999
#
# number of rings (size 3 to 8) (size 9 to 14) (size 15 to 20)
#    0.000    1.143    0.000    8.143    0.000   14.286 
#    0.000    1.429    0.000    0.000    0.000    0.000 
#    0.000    0.000    0.000    0.000    0.000    0.000 
#
# Total GULP energy -78270.516347 kJ/mol
# GULP energy per Si atom -5590.751168 kJ/mol
# Density = 2.646016 g / cm^3
# Si number density = 26.520521 Si / 1000 Ang^3
#
#
#
# Elastic Constant Matrix: (Units=GPa)
#
#
# Indices 1 2 3 4 5 6 
#
# 1 193.9960 46.1948 14.0758 -13.3911 6.5304 1.6081
# 2 46.1948 104.0774 24.5456 -6.3990 -1.5847 16.5508
# 3 14.0758 24.5456 114.3687 4.2264 -6.7646 4.0183
# 4 -13.3911 -6.3990 4.2264 33.2215 -3.9696 -9.1051
# 5 6.5304 -1.5847 -6.7646 -3.9696 30.6954 4.5293
# 6 1.6081 16.5508 4.0183 -9.1051 4.5293 40.0994
#
#
#
# Elastic Compliance Matrix: (Units=1/GPa)
#
#
# Indices 1 2 3 4 5 6 
#
# 1 0.006018 -0.002720 -0.000380 0.002211 -0.001453 0.001586
# 2 -0.002720 0.012095 -0.002018 0.000363 0.001509 -0.004769
# 3 -0.000380 -0.002018 0.009426 -0.001702 0.001937 -0.000702
# 4 0.002211 0.000363 -0.001702 0.033565 0.002440 0.007278
# 5 -0.001453 0.001509 0.001937 0.002440 0.034310 -0.004080
# 6 0.001586 -0.004769 -0.000702 0.007278 -0.004080 0.029026
#
#
# Mechanical properties :
#
#
# Convention : Reuss Voigt Hill
#
# Bulk Modulus (GPa) = 57.79257 64.67495 61.23376
# Shear Modulus (GPa) = 35.60146 42.64498 39.12322
#
# Velocity S-wave (km/s) = 3.66787 4.01434 3.84501
# Velocity P-wave (km/s) = 6.30687 6.77689 6.54610
#
# Compressibility (1/GPa) = 0.01730326
#
# Stress axis : x y z
#
# Youngs Moduli (GPa) = 166.15688 82.67901 106.09373
#
# Poissons Ratio (x) = 0.22488 0.04035
# Poissons Ratio (y) = 0.45193 0.21406
# Poissons Ratio (z) = 0.06319 0.16682
#
# Static dielectric constant tensor:
#      x y z
#    x 2.060640 -0.065690 -0.070520 
#    y -0.065690 2.054340 0.054970 
#    z -0.070520 0.054970 2.247710 
# 
# From -- ./inp_files/595786.got.cif
#   From: 2010.05.17/outbox.cif.g08.bks.cpg/sg2_298_cif.got.tgz:595786.got - 2010.06.03 11:33:40.
