data_PCOD9016411
_publ_section_title
;
Structure prediction by ZEFSAII (Michael W. Deem and Ramdas Pophale) SiO2 
 PCOD9016411
Probable space group: P -1
;
_chemical_formula_sum "Si O2"
_cell_formula_units_Z 16
_cell_length_a 16.376119
_cell_length_b 11.954416
_cell_length_c 9.053624
_cell_angle_alpha 126.234924
_cell_angle_beta 116.349756
_cell_angle_gamma 26.418820
_cell_volume 617.756545
_symmetry_space_group_name_H-M "P -1"
_symmetry_group_IT_number 2
_symmetry_cell_setting 'triclinic'
loop_
_space_group_symop_operation_xyz
x,y,z
-x,-y,-z
loop_
_atom_site_type_symbol
_atom_site_label
_atom_site_fract_x
_atom_site_fract_y
_atom_site_fract_z
Si Si1 0.859544 0.924446 0.961861
Si Si2 0.169607 0.771987 0.646870
Si Si3 0.718328 0.383225 0.713553
Si Si4 0.273518 0.337869 0.975858
Si Si5 0.623392 0.275135 0.784647
Si Si6 0.605160 0.991083 0.429372
Si Si7 0.801832 0.565857 0.489232
Si Si8 0.134683 0.367260 0.139970
O O1 0.074524 0.630859 0.961644
O O2 0.773205 0.167561 0.172012
O O3 0.775502 0.890434 0.921943
O O4 0.824345 0.990238 0.811741
O O5 0.293913 0.598141 0.460720
O O6 0.171548 0.634023 0.644338
O O7 0.946995 0.083817 0.676795
O O8 0.636206 0.630345 0.919756
O O9 0.646702 0.347548 0.721808
O O10 0.254648 0.323302 0.119762
O O11 0.344392 0.102939 0.772835
O O12 0.573397 0.187449 0.618285
O O13 0.500000 0.500000 0.000000
O O14 0.778406 0.691950 0.426524
O O15 0.420776 0.138209 0.408795
O O16 0.936656 0.455276 0.634166
O O17 0.000000 0.500000 0.000000
#
# Coordination Sequence:
#
# PCOD9016411 Si02
#       8
#     2   2   2   2   2   2   2   2
#     4  10  23  41  67  98 138 177 223 293 337 399
#     4  10  22  44  69 100 132 179 228 281 349 395
#     4  10  24  41  71  98 135 176 229 288 336 410
#     4  10  23  42  66 103 129 176 235 277 350 401
#     4  12  27  46  64  99 140 183 229 279 342 411
#     4  11  27  42  66 100 135 186 226 276 343 416
#     4  11  23  45  67  94 139 181 224 284 337 415
#     4  10  21  42  67  97 133 170 225 288 337 395
#
# _framework density 25.900168000000001
#
# number of rings (size 3 to 8) (size 9 to 14) (size 15 to 20)
#    0.000    1.500    2.500    0.750   10.500    3.000 
#    2.250    1.250    0.000    0.000    0.000    0.000 
#    0.000    0.000    0.000    0.000    0.000    0.000 
#
# Total GULP energy -89294.400232 kJ/mol
# GULP energy per Si atom -5580.900015 kJ/mol
# Density = 2.584122 g / cm^3
# Si number density = 25.900168 Si / 1000 Ang^3
#
#
#
# Elastic Constant Matrix: (Units=GPa)
#
#
# Indices 1 2 3 4 5 6 
#
# 1 137.5070 17.7165 66.5005 -6.7251 15.2464 30.1899
# 2 17.7165 69.3155 35.1647 -10.5022 6.9607 11.8281
# 3 66.5005 35.1647 166.0660 5.3293 21.9897 14.1548
# 4 -6.7251 -10.5022 5.3293 40.8205 7.2426 9.5272
# 5 15.2464 6.9607 21.9897 7.2426 45.2813 7.6009
# 6 30.1899 11.8281 14.1548 9.5272 7.6009 40.0168
#
#
#
# Elastic Compliance Matrix: (Units=1/GPa)
#
#
# Indices 1 2 3 4 5 6 
#
# 1 0.011328 0.001543 -0.004112 0.005033 -0.001437 -0.008473
# 2 0.001543 0.018461 -0.003999 0.007345 -0.001470 -0.006676
# 3 -0.004112 -0.003999 0.008696 -0.003007 -0.002134 0.002330
# 4 0.005033 0.007345 -0.003007 0.031066 -0.004408 -0.011463
# 5 -0.001437 -0.001470 -0.002134 -0.004408 0.024767 -0.001381
# 6 -0.008473 -0.006676 0.002330 -0.011463 -0.001381 0.035523
#
#
# Mechanical properties :
#
#
# Convention : Reuss Voigt Hill
#
# Bulk Modulus (GPa) = 39.44979 67.96133 53.70556
# Shear Modulus (GPa) = 33.01951 42.12416 37.57184
#
# Velocity S-wave (km/s) = 3.57441 4.03725 3.81286
# Velocity P-wave (km/s) = 5.68329 6.93031 6.33755
#
# Compressibility (1/GPa) = 0.02534868
#
# Stress axis : x y z
#
# Youngs Moduli (GPa) = 88.27765 54.16888 115.00006
#
# Poissons Ratio (x) = -0.08361 0.47288
# Poissons Ratio (y) = -0.13625 0.45991
# Poissons Ratio (z) = 0.36300 0.21664
#
# Static dielectric constant tensor:
#      x y z
#    x 2.034230 -0.105570 -0.072170 
#    y -0.105570 2.184720 0.028170 
#    z -0.072170 0.028170 2.019790 
# 
# From -- ./inp_files/333796.got.cif
#   From: 2010.05.17/outbox.cif.g08.bks.cpg/sg2_167_cif.got.tgz:333796.got - 2010.06.03 11:33:40.
