data_PCOD9016484
_publ_section_title
;
Structure prediction by ZEFSAII (Michael W. Deem and Ramdas Pophale) SiO2 
 PCOD9016484
Probable space group: P -1
;
_chemical_formula_sum "Si O2"
_cell_formula_units_Z 16
_cell_length_a 12.081169
_cell_length_b 18.806344
_cell_length_c 11.000320
_cell_angle_alpha 30.683363
_cell_angle_beta 33.933187
_cell_angle_gamma 44.058623
_cell_volume 711.834189
_symmetry_space_group_name_H-M "P -1"
_symmetry_group_IT_number 2
_symmetry_cell_setting 'triclinic'
loop_
_space_group_symop_operation_xyz
x,y,z
-x,-y,-z
loop_
_atom_site_type_symbol
_atom_site_label
_atom_site_fract_x
_atom_site_fract_y
_atom_site_fract_z
Si Si1 0.710315 0.577086 0.345509
Si Si2 0.456269 0.483569 0.924110
Si Si3 0.282391 0.964206 0.906237
Si Si4 0.855898 0.333054 0.174373
Si Si5 0.617105 0.176384 0.235455
Si Si6 0.953942 0.058080 0.246163
Si Si7 0.729334 0.011450 0.739994
Si Si8 0.647826 0.326709 0.622043
O O1 0.590682 0.580970 0.573926
O O2 0.730576 0.414695 0.529225
O O3 0.573276 0.633342 0.278064
O O4 0.911146 0.654893 0.061352
O O5 0.239606 0.544677 0.000909
O O6 0.500000 0.500000 0.000000
O O7 0.514821 0.323668 0.077917
O O8 0.302373 0.905203 0.837448
O O9 0.439287 0.088005 0.586561
O O10 0.349003 0.835102 0.117900
O O11 0.068020 0.003053 0.102118
O O12 0.780766 0.176887 0.449086
O O13 0.786366 0.364462 0.328068
O O14 0.805380 0.179489 0.151541
O O15 0.804029 0.967204 0.601218
O O16 0.136968 0.065691 0.164732
O O17 0.500000 0.000000 0.000000
#
# Coordination Sequence:
#
# PCOD9016484 Si02
#       8
#     2   2   2   2   2   2   2   2
#     4  10  23  42  69 100 137 178 227 281 337 412
#     4  11  25  45  67  96 141 182 229 281 334 407
#     4  11  23  43  69 100 141 179 226 290 340 409
#     4  11  24  43  72 101 129 183 226 279 351 407
#     4  11  25  44  67 102 139 184 229 281 345 406
#     4  11  24  41  68  99 134 180 222 276 342 413
#     4  11  25  44  69 102 137 173 230 291 342 403
#     4  10  21  42  68 101 138 171 226 290 341 393
#
# _framework density 22.477145
#
# number of rings (size 3 to 8) (size 9 to 14) (size 15 to 20)
#    0.000    1.250    2.500    2.250    1.750    5.500 
#    4.500    0.000    0.000    0.000    0.000    0.000 
#    0.000    0.000    0.000    0.000    0.000    0.000 
#
# Total GULP energy -89276.078948 kJ/mol
# GULP energy per Si atom -5579.754934 kJ/mol
# Density = 2.242599 g / cm^3
# Si number density = 22.477145 Si / 1000 Ang^3
#
#
#
# Elastic Constant Matrix: (Units=GPa)
#
#
# Indices 1 2 3 4 5 6 
#
# 1 75.6940 24.1639 34.1440 3.9114 0.7855 -11.1882
# 2 24.1639 102.3880 49.4881 -0.7647 -15.2287 -9.3532
# 3 34.1440 49.4881 106.2025 8.7878 -21.6756 -10.6068
# 4 3.9114 -0.7647 8.7878 42.8338 -3.0222 14.1435
# 5 0.7855 -15.2287 -21.6756 -3.0222 30.6844 11.3650
# 6 -11.1882 -9.3532 -10.6068 14.1435 11.3650 47.2534
#
#
#
# Elastic Compliance Matrix: (Units=1/GPa)
#
#
# Indices 1 2 3 4 5 6 
#
# 1 0.017271 -0.002162 -0.005330 -0.002718 -0.007423 0.005064
# 2 -0.002162 0.013142 -0.004918 0.001807 0.003422 -0.000378
# 3 -0.005330 -0.004918 0.015280 -0.002083 0.008355 -0.000192
# 4 -0.002718 0.001807 -0.002083 0.027998 0.006187 -0.010621
# 5 -0.007423 0.003422 0.008355 0.006187 0.045428 -0.011982
# 6 0.005064 -0.000378 -0.000192 -0.010621 -0.011982 0.028305
#
#
# Mechanical properties :
#
#
# Convention : Reuss Voigt Hill
#
# Bulk Modulus (GPa) = 47.90638 55.54182 51.72410
# Shear Modulus (GPa) = 27.90192 35.92021 31.91106
#
# Velocity S-wave (km/s) = 3.52710 4.00193 3.77199
# Velocity P-wave (km/s) = 6.16010 6.79102 6.48324
#
# Compressibility (1/GPa) = 0.02087405
#
# Stress axis : x y z
#
# Youngs Moduli (GPa) = 57.89934 76.09319 65.44700
#
# Poissons Ratio (x) = 0.16450 0.34882
# Poissons Ratio (y) = 0.12517 0.32185
# Poissons Ratio (z) = 0.30859 0.37420
#
# Static dielectric constant tensor:
#      x y z
#    x 1.901900 0.046440 0.041750 
#    y 0.046440 1.948650 0.013710 
#    z 0.041750 0.013710 1.826030 
# 
# From -- ./inp_files/438563.got.cif
#   From: 2010.05.17/outbox.cif.g08.bks.cpg/sg2_220_cif.got.tgz:438563.got - 2010.06.03 11:33:40.
