data_PCOD9016890
_publ_section_title
;
Structure prediction by ZEFSAII (Michael W. Deem and Ramdas Pophale) SiO2 
 PCOD9016890
Probable space group: P -1
;
_chemical_formula_sum "Si O2"
_cell_formula_units_Z 15
_cell_length_a 15.108380
_cell_length_b 13.682220
_cell_length_c 12.081574
_cell_angle_alpha 133.979581
_cell_angle_beta 29.686815
_cell_angle_gamma 146.317492
_cell_volume 682.262701
_symmetry_space_group_name_H-M "P -1"
_symmetry_group_IT_number 2
_symmetry_cell_setting 'triclinic'
loop_
_space_group_symop_operation_xyz
x,y,z
-x,-y,-z
loop_
_atom_site_type_symbol
_atom_site_label
_atom_site_fract_x
_atom_site_fract_y
_atom_site_fract_z
Si Si1 0.001628 0.248684 0.558922
Si Si2 0.799359 0.509026 0.249418
Si Si3 0.640829 0.786041 0.373327
Si Si4 0.204251 0.631242 0.293055
Si Si5 0.502818 0.485097 0.116858
Si Si6 0.487574 0.998409 0.643408
Si Si7 0.010183 0.827417 0.134022
Si Si8 0.000000 0.000000 0.500000
O O1 0.107488 0.371593 0.648756
O O2 0.238727 0.312977 0.294560
O O3 0.880219 0.304548 0.659773
O O4 0.876892 0.054702 0.590759
O O5 0.547330 0.330564 0.415380
O O6 0.812723 0.622183 0.223969
O O7 0.000000 0.500000 0.000000
O O8 0.561126 0.652611 0.251428
O O9 0.894184 0.864446 0.197401
O O10 0.635500 0.941737 0.476790
O O11 0.404910 0.809422 0.279850
O O12 0.000000 0.500000 0.500000
O O13 0.315392 0.542741 0.064641
O O14 0.500000 0.500000 0.000000
O O15 0.500000 0.000000 0.500000
O O16 0.231872 0.862017 0.867173
O O17 0.067877 0.939053 0.270054
#
# Coordination Sequence:
#
# PCOD9016890 Si02
#       8
#     2   2   2   2   2   2   2   1
#     4  10  23  42  67  97 138 176 234 284 350 424
#     4  10  21  42  69  98 137 178 223 291 340 425
#     4  11  25  43  73 105 138 188 239 286 366 425
#     4  12  26  44  72 102 138 196 241 285 364 435
#     4  11  23  42  69 101 141 184 233 293 349 429
#     4  12  28  45  69 106 146 185 239 304 357 418
#     4  11  24  45  70  99 146 181 237 295 359 422
#     4  10  22  46  66  98 140 184 228 302 354 420
#
# _framework density 21.985665999999998
#
# number of rings (size 3 to 8) (size 9 to 14) (size 15 to 20)
#    0.000    1.067    2.667    2.800    5.600    0.533 
#    2.400    4.000    0.000    0.000    0.000    0.000 
#    0.000    0.000    0.000    0.000    0.000    0.000 
#
# Total GULP energy -83506.172197 kJ/mol
# GULP energy per Si atom -5567.078146 kJ/mol
# Density = 2.193563 g / cm^3
# Si number density = 21.985666 Si / 1000 Ang^3
#
#
#
# Elastic Constant Matrix: (Units=GPa)
#
#
# Indices 1 2 3 4 5 6 
#
# 1 84.3729 -3.5770 15.3393 -2.9363 -4.9732 -30.9079
# 2 -3.5770 41.5287 -0.8042 4.2030 10.7404 -15.9205
# 3 15.3393 -0.8042 83.6832 13.1442 -0.9815 -15.7504
# 4 -2.9363 4.2030 13.1442 24.6311 -9.1704 -9.2188
# 5 -4.9732 10.7404 -0.9815 -9.1704 39.1061 10.5747
# 6 -30.9079 -15.9205 -15.7504 -9.2188 10.5747 38.8104
#
#
#
# Elastic Compliance Matrix: (Units=1/GPa)
#
#
# Indices 1 2 3 4 5 6 
#
# 1 0.021888 0.012450 -0.000381 0.008255 -0.005713 0.025901
# 2 0.012450 0.044373 0.005021 -0.003388 -0.020736 0.035000
# 3 -0.000381 0.005021 0.014580 -0.007808 -0.004821 0.007132
# 4 0.008255 -0.003388 -0.007808 0.055078 0.011462 0.011976
# 5 -0.005713 -0.020736 -0.004821 0.011462 0.039328 -0.023006
# 6 0.025901 0.035000 0.007132 0.011976 -0.023006 0.072758
#
#
# Mechanical properties :
#
#
# Convention : Reuss Voigt Hill
#
# Bulk Modulus (GPa) = 8.69420 25.72231 17.20826
# Shear Modulus (GPa) = 19.82816 33.75130 26.78973
#
# Velocity S-wave (km/s) = 3.00637 3.92235 3.49450
# Velocity P-wave (km/s) = 4.00176 5.67786 4.91183
#
# Compressibility (1/GPa) = 0.11501921
#
# Stress axis : x y z
#
# Youngs Moduli (GPa) = 45.68700 22.53641 68.58599
#
# Poissons Ratio (x) = -0.28057 0.02614
# Poissons Ratio (y) = -0.56878 -0.34435
# Poissons Ratio (z) = 0.01742 -0.11315
#
# Static dielectric constant tensor:
#      x y z
#    x 1.803260 -0.058600 0.019900 
#    y -0.058600 1.943240 -0.047670 
#    z 0.019900 -0.047670 1.711870 
# 
# From -- ./inp_files/272857.got.cif
#   From: 2010.05.17/outbox.cif.g08.bks.cpg/sg2_137_cif.got.tgz:272857.got - 2010.06.03 11:33:40.
