data_PCOD9016211
_publ_section_title
;
Structure prediction by ZEFSAII (Michael W. Deem and Ramdas Pophale) SiO2 
 PCOD9016211
Probable space group: P -1
;
_chemical_formula_sum "Si O2"
_cell_formula_units_Z 16
_cell_length_a 8.520506
_cell_length_b 12.656518
_cell_length_c 10.116242
_cell_angle_alpha 50.788261
_cell_angle_beta 98.670695
_cell_angle_gamma 81.301471
_cell_volume 791.143537
_symmetry_space_group_name_H-M "P -1"
_symmetry_group_IT_number 2
_symmetry_cell_setting 'triclinic'
loop_
_space_group_symop_operation_xyz
x,y,z
-x,-y,-z
loop_
_atom_site_type_symbol
_atom_site_label
_atom_site_fract_x
_atom_site_fract_y
_atom_site_fract_z
Si Si1 0.647442 0.864323 0.796141
Si Si2 0.299905 0.105262 0.526135
Si Si3 0.661875 0.589979 0.679267
Si Si4 0.987450 0.044776 0.614169
Si Si5 0.324335 0.465122 0.987367
Si Si6 0.104516 0.591524 0.372776
Si Si7 0.730605 0.335099 0.406591
Si Si8 0.059077 0.105479 0.025241
O O1 0.721383 0.887780 0.642389
O O2 0.654920 0.696673 0.932193
O O3 0.749979 0.912449 0.887642
O O4 0.454035 0.963211 0.690511
O O5 0.346292 0.245545 0.456132
O O6 0.137538 0.112567 0.585104
O O7 0.746692 0.524113 0.881698
O O8 0.761899 0.504577 0.637055
O O9 0.468367 0.600624 0.653313
O O10 0.809056 0.166025 0.520594
O O11 0.020577 0.919787 0.825176
O O12 0.000000 0.000000 0.500000
O O13 0.500000 0.500000 0.000000
O O14 0.221363 0.579383 0.776834
O O15 0.193324 0.640735 0.466006
O O16 0.000000 0.500000 0.500000
O O17 0.001593 0.735765 0.168563
O O18 0.000000 0.000000 0.000000
#
# Coordination Sequence:
#
# PCOD9016211 Si02
#       8
#     2   2   2   2   2   2   2   2
#     4  10  21  42  67 100 140 182 222 294 345 417
#     4  10  22  39  68 100 134 171 236 283 355 405
#     4  10  23  41  69  99 131 185 232 290 351 413
#     4  12  25  41  71 102 135 179 230 294 351 409
#     4   9  21  38  69 101 134 175 239 290 350 410
#     4  12  26  45  69  95 144 186 235 285 348 422
#     4  11  23  44  65  96 141 180 229 284 351 421
#     4  12  26  46  69 101 146 186 231 288 353 421
#
# _framework density 20.223890000000001
#
# number of rings (size 3 to 8) (size 9 to 14) (size 15 to 20)
#    0.000    1.250    2.500    2.625    7.000    1.000 
#    0.000    5.000    0.000    0.000    0.000    0.000 
#    0.000    0.000    0.000    0.000    0.000    0.000 
#
# Total GULP energy -89265.759986 kJ/mol
# GULP energy per Si atom -5579.109999 kJ/mol
# Density = 2.017786 g / cm^3
# Si number density = 20.223890 Si / 1000 Ang^3
#
#
#
# Elastic Constant Matrix: (Units=GPa)
#
#
# Indices 1 2 3 4 5 6 
#
# 1 54.2603 18.1405 33.7984 0.7476 -3.0157 -8.3066
# 2 18.1405 119.1157 47.7115 8.6475 4.8807 -4.6815
# 3 33.7984 47.7115 158.7314 -4.7371 -0.8453 -3.8086
# 4 0.7476 8.6475 -4.7371 35.2215 7.0277 -2.9472
# 5 -3.0157 4.8807 -0.8453 7.0277 31.8804 3.2996
# 6 -8.3066 -4.6815 -3.8086 -2.9472 3.2996 32.6982
#
#
#
# Elastic Compliance Matrix: (Units=1/GPa)
#
#
# Indices 1 2 3 4 5 6 
#
# 1 0.022407 -0.001579 -0.004192 -0.000635 0.001901 0.004729
# 2 -0.001579 0.009986 -0.002731 -0.002481 -0.001267 0.000615
# 3 -0.004192 -0.002731 0.008060 0.001842 -0.000136 -0.000337
# 4 -0.000635 -0.002481 0.001842 0.030877 -0.006765 0.003164
# 5 0.001901 -0.001267 -0.000136 -0.006765 0.033613 -0.003716
# 6 0.004729 0.000615 -0.000337 0.003164 -0.003716 0.032493
#
#
# Mechanical properties :
#
#
# Convention : Reuss Voigt Hill
#
# Bulk Modulus (GPa) = 42.64799 59.04535 50.84667
# Shear Modulus (GPa) = 30.81538 35.45714 33.13626
#
# Velocity S-wave (km/s) = 3.90771 4.19170 4.05219
# Velocity P-wave (km/s) = 6.44158 7.25854 6.86223
#
# Compressibility (1/GPa) = 0.02344776
#
# Stress axis : x y z
#
# Youngs Moduli (GPa) = 44.62881 100.14049 124.07493
#
# Poissons Ratio (x) = 0.15816 0.52009
# Poissons Ratio (y) = 0.07049 0.33889
# Poissons Ratio (z) = 0.18707 0.27352
#
# Static dielectric constant tensor:
#      x y z
#    x 1.801710 0.021050 0.029240 
#    y 0.021050 1.742210 -0.029140 
#    z 0.029240 -0.029140 1.767700 
# 
# From -- ./inp_files/184336.got.cif
#   From: 2010.05.17/outbox.cif.g08.bks.cpg/sg2_93_cif.got.tgz:184336.got - 2010.06.03 11:33:40.
