data_PCOD9016654
_publ_section_title
;
Structure prediction by ZEFSAII (Michael W. Deem and Ramdas Pophale) SiO2 
 PCOD9016654
Probable space group: P -1
;
_chemical_formula_sum "Si O2"
_cell_formula_units_Z 12
_cell_length_a 11.722238
_cell_length_b 9.705428
_cell_length_c 9.540448
_cell_angle_alpha 86.559855
_cell_angle_beta 115.131495
_cell_angle_gamma 144.783140
_cell_volume 473.397210
_symmetry_space_group_name_H-M "P -1"
_symmetry_group_IT_number 2
_symmetry_cell_setting 'triclinic'
loop_
_space_group_symop_operation_xyz
x,y,z
-x,-y,-z
loop_
_atom_site_type_symbol
_atom_site_label
_atom_site_fract_x
_atom_site_fract_y
_atom_site_fract_z
Si Si1 0.255967 0.337142 0.078561
Si Si2 0.768597 0.267081 0.274748
Si Si3 0.984602 0.768401 0.608903
Si Si4 0.075812 0.442034 0.947195
Si Si5 0.783334 0.724998 0.257216
Si Si6 0.481222 0.111822 0.379964
O O1 0.529904 0.520047 0.233551
O O2 0.286842 0.394774 0.924101
O O3 0.222034 0.461245 0.107643
O O4 0.000000 0.000000 0.000000
O O5 0.537731 0.108733 0.253463
O O6 0.000000 0.500000 0.500000
O O7 0.787678 0.123938 0.258102
O O8 0.798272 0.374677 0.138658
O O9 0.953389 0.780093 0.428855
O O10 0.708609 0.434667 0.522394
O O11 0.056321 0.980895 0.703025
O O12 0.811101 0.115660 0.769849
O O13 0.000000 0.500000 0.000000
O O14 0.500000 0.000000 0.500000
#
# Coordination Sequence:
#
# PCOD9016654 Si02
#       6
#     2   2   2   2   2   2
#     4  11  25  45  68  96 141 182 221 279 347 412
#     4  10  21  42  68  97 136 176 221 288 343 393
#     4  10  21  44  70  96 128 177 232 282 337 396
#     4  12  27  43  68 107 140 181 231 283 351 415
#     4  10  24  45  68  96 134 180 230 277 339 415
#     4  11  22  41  69 101 135 176 227 290 341 403
#
# _framework density 25.348692
#
# number of rings (size 3 to 8) (size 9 to 14) (size 15 to 20)
#    0.000    1.333    3.333    3.000    4.667    2.000 
#    0.000    2.500    0.000    0.000    0.000    0.000 
#    0.000    0.000    0.000    0.000    0.000    0.000 
#
# Total GULP energy -67110.684240 kJ/mol
# GULP energy per Si atom -5592.557020 kJ/mol
# Density = 2.529100 g / cm^3
# Si number density = 25.348692 Si / 1000 Ang^3
#
#
#
# Elastic Constant Matrix: (Units=GPa)
#
#
# Indices 1 2 3 4 5 6 
#
# 1 100.7537 52.9564 22.5429 -20.6360 11.6412 -3.7455
# 2 52.9564 161.2705 22.0253 -1.6488 8.8391 -7.4531
# 3 22.5429 22.0253 65.8388 -11.7430 -2.7321 3.2784
# 4 -20.6360 -1.6488 -11.7430 48.4431 4.6729 7.9097
# 5 11.6412 8.8391 -2.7321 4.6729 42.1257 -2.9476
# 6 -3.7455 -7.4531 3.2784 7.9097 -2.9476 46.9056
#
#
#
# Elastic Compliance Matrix: (Units=1/GPa)
#
#
# Indices 1 2 3 4 5 6 
#
# 1 0.014274 -0.004079 -0.002630 0.005773 -0.003938 -0.000545
# 2 -0.004079 0.007827 -0.001671 -0.002070 -0.000298 0.001365
# 3 -0.002630 -0.001671 0.017400 0.003224 0.001699 -0.002129
# 4 0.005773 -0.002070 0.003224 0.024946 -0.004038 -0.004554
# 5 -0.003938 -0.000298 0.001699 -0.004038 0.025574 0.001807
# 6 -0.000545 0.001365 -0.002129 -0.004554 0.001807 0.022523
#
#
# Mechanical properties :
#
#
# Convention : Reuss Voigt Hill
#
# Bulk Modulus (GPa) = 43.97209 58.10134 51.03671
# Shear Modulus (GPa) = 36.52739 42.85079 39.68909
#
# Velocity S-wave (km/s) = 3.80016 4.11597 3.96122
# Velocity P-wave (km/s) = 6.05306 6.74973 6.41087
#
# Compressibility (1/GPa) = 0.02274170
#
# Stress axis : x y z
#
# Youngs Moduli (GPa) = 70.05531 127.76994 57.47217
#
# Poissons Ratio (x) = 0.52111 0.15113
# Poissons Ratio (y) = 0.28572 0.09606
# Poissons Ratio (z) = 0.18422 0.21355
#
# Static dielectric constant tensor:
#      x y z
#    x 2.134740 0.003570 0.002690 
#    y 0.003570 2.030930 0.059700 
#    z 0.002690 0.059700 1.986400 
# 
# From -- ./inp_files/108740.got.cif
#   From: 2010.05.17/outbox.cif.g08.bks.cpg/sg2_55_cif.got.tgz:108740.got - 2010.06.03 11:33:40.
