data_PCOD9016021
_publ_section_title
;
Structure prediction by ZEFSAII (Michael W. Deem and Ramdas Pophale) SiO2 
 PCOD9016021
Probable space group: P -1
;
_chemical_formula_sum "Si O2"
_cell_formula_units_Z 15
_cell_length_a 11.694203
_cell_length_b 12.231832
_cell_length_c 14.302698
_cell_angle_alpha 29.534231
_cell_angle_beta 62.311682
_cell_angle_gamma 82.392359
_cell_volume 698.605392
_symmetry_space_group_name_H-M "P -1"
_symmetry_group_IT_number 2
_symmetry_cell_setting 'triclinic'
loop_
_space_group_symop_operation_xyz
x,y,z
-x,-y,-z
loop_
_atom_site_type_symbol
_atom_site_label
_atom_site_fract_x
_atom_site_fract_y
_atom_site_fract_z
Si Si1 0.975738 0.403256 0.313853
Si Si2 0.059836 0.369029 0.508889
Si Si3 0.500000 0.000000 0.500000
Si Si4 0.115158 0.433894 0.051088
Si Si5 0.629216 0.459726 0.624282
Si Si6 0.383385 0.930822 0.230520
Si Si7 0.129740 0.259067 0.987330
Si Si8 0.488474 0.189818 0.571235
O O1 0.783410 0.157912 0.594003
O O2 0.973180 0.653689 0.089020
O O3 0.072405 0.470996 0.322615
O O4 0.047064 0.330217 0.257929
O O5 0.225428 0.444027 0.431541
O O6 0.000000 0.500000 0.500000
O O7 0.923092 0.030638 0.816669
O O8 0.305110 0.714415 0.773657
O O9 0.544861 0.933648 0.428341
O O10 0.096513 0.222072 0.139040
O O11 0.000000 0.500000 0.000000
O O12 0.653116 0.334807 0.615932
O O13 0.617024 0.710193 0.431943
O O14 0.462169 0.189072 0.937133
O O15 0.512756 0.007626 0.205409
O O16 0.320658 0.525438 0.707070
#
# Coordination Sequence:
#
# PCOD9016021 Si02
#       8
#     2   2   1   2   2   2   2   2
#     4  10  21  42  66  91 124 167 211 262 325 377
#     4  12  25  40  60  94 134 166 213 266 312 385
#     4  10  22  40  68 100 128 160 218 268 316 396
#     4   9  20  40  68  94 126 167 209 270 322 379
#     4  11  24  39  63  93 128 170 211 268 315 379
#     4  10  22  43  63  92 126 168 217 265 316 378
#     4   9  22  42  65  91 123 169 209 264 327 377
#     4  10  22  42  68  92 123 168 211 264 324 377
#
# _framework density 21.471350000000001
#
# number of rings (size 3 to 8) (size 9 to 14) (size 15 to 20)
#    0.000    1.867    1.333    2.000    7.467    1.067 
#    0.000    0.667    0.000    0.000    0.000    0.000 
#    0.000    0.000    0.000    0.000    0.000    0.000 
#
# Total GULP energy -83532.363207 kJ/mol
# GULP energy per Si atom -5568.824214 kJ/mol
# Density = 2.142248 g / cm^3
# Si number density = 21.471350 Si / 1000 Ang^3
#
#
#
# Elastic Constant Matrix: (Units=GPa)
#
#
# Indices 1 2 3 4 5 6 
#
# 1 86.5605 8.8824 -0.8056 1.4657 -4.8388 7.6345
# 2 8.8824 52.6236 15.8432 -0.3442 2.8150 15.9799
# 3 -0.8056 15.8432 46.7176 -0.5190 -8.5943 2.8305
# 4 1.4657 -0.3442 -0.5190 43.3153 2.0411 -2.0218
# 5 -4.8388 2.8150 -8.5943 2.0411 29.3057 1.1864
# 6 7.6345 15.9799 2.8305 -2.0218 1.1864 31.9679
#
#
#
# Elastic Compliance Matrix: (Units=1/GPa)
#
#
# Indices 1 2 3 4 5 6 
#
# 1 0.012130 -0.001997 0.001521 -0.000640 0.002773 -0.002177
# 2 -0.001997 0.025791 -0.009004 -0.000135 -0.004975 -0.011442
# 3 0.001521 -0.009004 0.025990 -0.000151 0.008688 0.001504
# 4 -0.000640 -0.000135 -0.000151 0.023274 -0.001830 0.001774
# 5 0.002773 -0.004975 0.008688 -0.001830 0.037753 -0.000462
# 6 -0.002177 -0.011442 0.001504 0.001774 -0.000462 0.037517
#
#
# Mechanical properties :
#
#
# Convention : Reuss Voigt Hill
#
# Bulk Modulus (GPa) = 22.24651 25.97128 24.10889
# Shear Modulus (GPa) = 25.45855 31.71654 28.58754
#
# Velocity S-wave (km/s) = 3.44713 3.84755 3.65283
# Velocity P-wave (km/s) = 5.12124 5.64449 5.38922
#
# Compressibility (1/GPa) = 0.04495088
#
# Stress axis : x y z
#
# Youngs Moduli (GPa) = 82.44323 38.77394 38.47571
#
# Poissons Ratio (x) = 0.07743 -0.05854
# Poissons Ratio (y) = 0.16464 0.34644
# Poissons Ratio (z) = -0.12543 0.34913
#
# Static dielectric constant tensor:
#      x y z
#    x 1.797300 0.004800 0.021420 
#    y 0.004800 1.796060 0.014640 
#    z 0.021420 0.014640 1.813170 
# 
# From -- ./inp_files/253905.got.cif
#   From: 2010.05.17/outbox.cif.g08.bks.cpg/sg2_127_cif.got.tgz:253905.got - 2010.06.03 11:33:40.
