data_PCOD9016835
_publ_section_title
;
Structure prediction by ZEFSAII (Michael W. Deem and Ramdas Pophale) SiO2 
 PCOD9016835
Probable space group: P -1
;
_chemical_formula_sum "Si O2"
_cell_formula_units_Z 11
_cell_length_a 11.965818
_cell_length_b 7.027402
_cell_length_c 7.147184
_cell_angle_alpha 84.481704
_cell_angle_beta 121.280070
_cell_angle_gamma 128.034971
_cell_volume 381.553984
_symmetry_space_group_name_H-M "P -1"
_symmetry_group_IT_number 2
_symmetry_cell_setting 'triclinic'
loop_
_space_group_symop_operation_xyz
x,y,z
-x,-y,-z
loop_
_atom_site_type_symbol
_atom_site_label
_atom_site_fract_x
_atom_site_fract_y
_atom_site_fract_z
Si Si1 0.267421 0.768797 0.646374
Si Si2 0.870644 0.874983 0.219646
Si Si3 0.650560 0.700370 0.365000
Si Si4 0.722821 0.556809 0.796196
Si Si5 0.500000 0.000000 0.500000
Si Si6 0.921682 0.356484 0.146056
O O1 0.431059 0.850511 0.662093
O O2 0.229235 0.706471 0.837755
O O3 0.092850 0.533067 0.411148
O O4 0.291615 0.020930 0.610190
O O5 0.695121 0.659755 0.207064
O O6 0.866102 0.080675 0.106835
O O7 0.875205 0.733775 0.063712
O O8 0.000000 0.000000 0.500000
O O9 0.760351 0.703671 0.623101
O O10 0.448685 0.501268 0.266870
O O11 0.649636 0.278153 0.704992
O O12 0.000000 0.500000 0.000000
#
# Coordination Sequence:
#
# PCOD9016835 Si02
#       6
#     2   2   2   2   1   2
#     4   9  20  41  64  97 133 173 232 284 341 417
#     4  11  24  40  68 106 140 175 231 294 352 412
#     4   9  20  41  69  94 131 184 236 279 344 422
#     4  10  21  42  69  95 136 182 228 288 351 419
#     4  10  22  42  66 100 136 176 236 294 342 404
#     4  10  21  42  70  94 137 187 231 277 350 422
#
# _framework density 28.829473
#
# number of rings (size 3 to 8) (size 9 to 14) (size 15 to 20)
#    0.000    2.182    0.000    1.636    2.545    0.727 
#    9.818    1.818    0.000    0.000    0.000    0.000 
#    0.000    0.000    0.000    0.000    0.000    0.000 
#
# Total GULP energy -61295.012186 kJ/mol
# GULP energy per Si atom -5572.273835 kJ/mol
# Density = 2.876386 g / cm^3
# Si number density = 28.829473 Si / 1000 Ang^3
#
#
#
# Elastic Constant Matrix: (Units=GPa)
#
#
# Indices 1 2 3 4 5 6 
#
# 1 88.5022 28.0073 29.2175 -19.2768 -27.2915 40.6279
# 2 28.0073 197.4495 92.3259 -53.6583 -36.5933 11.7322
# 3 29.2175 92.3259 219.5073 5.5769 -40.3039 6.9993
# 4 -19.2768 -53.6583 5.5769 52.2966 7.1372 -14.3435
# 5 -27.2915 -36.5933 -40.3039 7.1372 43.3461 -5.2391
# 6 40.6279 11.7322 6.9993 -14.3435 -5.2391 54.9304
#
#
#
# Elastic Compliance Matrix: (Units=1/GPa)
#
#
# Indices 1 2 3 4 5 6 
#
# 1 0.022505 0.001643 -0.001131 0.004475 0.012010 -0.014538
# 2 0.001643 0.010758 -0.004267 0.011645 0.004289 0.000481
# 3 -0.001131 -0.004267 0.007304 -0.006171 0.003436 -0.000466
# 4 0.004475 0.011645 -0.006171 0.034262 0.001765 0.004104
# 5 0.012010 0.004289 0.003436 0.001765 0.036395 -0.006305
# 6 -0.014538 0.000481 -0.000466 0.004104 -0.006305 0.029384
#
#
# Mechanical properties :
#
#
# Convention : Reuss Voigt Hill
#
# Bulk Modulus (GPa) = 30.25295 89.39560 59.82428
# Shear Modulus (GPa) = 31.41926 53.84181 42.63053
#
# Velocity S-wave (km/s) = 3.30484 4.32626 3.84958
# Velocity P-wave (km/s) = 5.00791 7.48539 6.36829
#
# Compressibility (1/GPa) = 0.03305462
#
# Stress axis : x y z
#
# Youngs Moduli (GPa) = 44.43474 92.95604 136.92004
#
# Poissons Ratio (x) = -0.15268 0.15489
# Poissons Ratio (y) = -0.07299 0.58425
# Poissons Ratio (z) = 0.05027 0.39665
#
# Static dielectric constant tensor:
#      x y z
#    x 2.560160 -0.026710 0.187500 
#    y -0.026710 2.202570 -0.118950 
#    z 0.187500 -0.118950 2.326500 
# 
# From -- ./inp_files/64958.got.cif
#   From: 2010.05.17/outbox.cif.g08.bks.cpg/sg2_33_cif.got.tgz:64958.got - 2010.06.03 11:33:40.
