data_PCOD9016942
_publ_section_title
;
Structure prediction by ZEFSAII (Michael W. Deem and Ramdas Pophale) SiO2 
 PCOD9016942
Probable space group: P -1
;
_chemical_formula_sum "Si O2"
_cell_formula_units_Z 14
_cell_length_a 5.284560
_cell_length_b 15.169477
_cell_length_c 13.605897
_cell_angle_alpha 143.445367
_cell_angle_beta 75.379144
_cell_angle_gamma 104.750479
_cell_volume 626.026306
_symmetry_space_group_name_H-M "P -1"
_symmetry_group_IT_number 2
_symmetry_cell_setting 'triclinic'
loop_
_space_group_symop_operation_xyz
x,y,z
-x,-y,-z
loop_
_atom_site_type_symbol
_atom_site_label
_atom_site_fract_x
_atom_site_fract_y
_atom_site_fract_z
Si Si1 0.693711 0.405393 0.676088
Si Si2 0.437973 0.363543 0.236419
Si Si3 0.701212 0.975000 0.045469
Si Si4 0.276107 0.940010 0.387696
Si Si5 0.237723 0.589516 0.111085
Si Si6 0.169487 0.381557 0.481761
Si Si7 0.422648 0.141662 0.377436
O O1 0.579427 0.556736 0.795173
O O2 0.843309 0.409014 0.765092
O O3 0.491251 0.262186 0.564365
O O4 0.872576 0.384148 0.544941
O O5 0.222886 0.369931 0.351137
O O6 0.681355 0.463446 0.353144
O O7 0.404130 0.190845 0.061730
O O8 0.654642 0.083969 0.237570
O O9 0.500000 0.000000 0.000000
O O10 0.000000 0.000000 0.000000
O O11 0.274877 0.761042 0.228220
O O12 0.500000 0.000000 0.500000
O O13 0.311784 0.001863 0.327831
O O14 0.000000 0.000000 0.500000
O O15 0.500000 0.500000 0.000000
O O16 0.000000 0.500000 0.000000
O O17 0.268963 0.239038 0.401888
#
# Coordination Sequence:
#
# PCOD9016942 Si02
#       7
#     2   2   2   2   2   2   2
#     4  11  24  43  74  97 142 185 242 287 366 432
#     4  10  23  40  67 102 141 182 232 281 358 417
#     4  12  27  45  67 103 149 185 235 295 351 425
#     4  12  26  49  79 107 143 191 254 308 366 439
#     4  12  29  50  73 108 149 187 243 313 370 431
#     4  10  21  42  70 102 138 184 236 286 350 433
#     4  11  25  43  74 102 139 193 239 294 363 427
#
# _framework density 22.363278999999999
#
# number of rings (size 3 to 8) (size 9 to 14) (size 15 to 20)
#    0.000    0.857    2.857    3.000    8.000    0.000 
#    0.000    0.000    0.000    0.000    0.000    0.000 
#    0.000    0.000    0.000    0.000    0.000    0.000 
#
# Total GULP energy -78102.739686 kJ/mol
# GULP energy per Si atom -5578.767120 kJ/mol
# Density = 2.231238 g / cm^3
# Si number density = 22.363279 Si / 1000 Ang^3
#
#
#
# Elastic Constant Matrix: (Units=GPa)
#
#
# Indices 1 2 3 4 5 6 
#
# 1 101.1684 35.3724 43.0459 14.2396 -4.9899 -3.3967
# 2 35.3724 123.3152 57.3802 20.0735 7.9652 -14.6118
# 3 43.0459 57.3802 129.5065 44.4562 5.6825 -10.3251
# 4 14.2396 20.0735 44.4562 52.2758 2.7975 -0.5482
# 5 -4.9899 7.9652 5.6825 2.7975 33.8674 -10.6217
# 6 -3.3967 -14.6118 -10.3251 -0.5482 -10.6217 28.4315
#
#
#
# Elastic Compliance Matrix: (Units=1/GPa)
#
#
# Indices 1 2 3 4 5 6 
#
# 1 0.012149 -0.002159 -0.003227 0.000111 0.002912 0.000260
# 2 -0.002159 0.011012 -0.003681 -0.000412 -0.001115 0.003640
# 3 -0.003227 -0.003681 0.013888 -0.009471 -0.000393 0.002437
# 4 0.000111 -0.000412 -0.009471 0.027366 -0.001737 -0.003760
# 5 0.002912 -0.001115 -0.000393 -0.001737 0.034323 0.012422
# 6 0.000260 0.003640 0.002437 -0.003760 0.012422 0.042527
#
#
# Mechanical properties :
#
#
# Convention : Reuss Voigt Hill
#
# Bulk Modulus (GPa) = 52.86437 69.50966 61.18701
# Shear Modulus (GPa) = 30.17462 37.46104 33.81783
#
# Velocity S-wave (km/s) = 3.67726 4.09726 3.89292
# Velocity P-wave (km/s) = 6.45909 7.31662 6.90119
#
# Compressibility (1/GPa) = 0.01891633
#
# Stress axis : x y z
#
# Youngs Moduli (GPa) = 82.31165 90.81278 72.00598
#
# Poissons Ratio (x) = 0.19604 0.23234
# Poissons Ratio (y) = 0.17769 0.26503
# Poissons Ratio (z) = 0.26559 0.33425
#
# Static dielectric constant tensor:
#      x y z
#    x 1.776890 0.367370 -0.023360 
#    y 0.367370 0.071920 -0.019310 
#    z -0.023360 -0.019310 1.894980 
# 
# From -- ./inp_files/46630.got.cif
#   From: 2010.05.17/outbox.cif.g08.bks.cpg/sg2_24_cif.got.tgz:46630.got - 2010.06.03 11:33:40.
