data_PCOD9016109
_publ_section_title
;
Structure prediction by ZEFSAII (Michael W. Deem and Ramdas Pophale) SiO2 
 PCOD9016109
Probable space group: P -1
;
_chemical_formula_sum "Si O2"
_cell_formula_units_Z 16
_cell_length_a 12.210967
_cell_length_b 11.820563
_cell_length_c 8.588546
_cell_angle_alpha 63.118667
_cell_angle_beta 72.911461
_cell_angle_gamma 36.517661
_cell_volume 652.312857
_symmetry_space_group_name_H-M "P -1"
_symmetry_group_IT_number 2
_symmetry_cell_setting 'triclinic'
loop_
_space_group_symop_operation_xyz
x,y,z
-x,-y,-z
loop_
_atom_site_type_symbol
_atom_site_label
_atom_site_fract_x
_atom_site_fract_y
_atom_site_fract_z
Si Si1 0.866445 0.524893 0.937092
Si Si2 0.312563 0.781462 0.787706
Si Si3 0.526818 0.997826 0.810623
Si Si4 0.318048 0.838796 0.088032
Si Si5 0.851695 0.764106 0.256577
Si Si6 0.291307 0.547010 0.744631
Si Si7 0.082636 0.867122 0.390868
Si Si8 0.638216 0.998012 0.481489
O O1 0.846434 0.411752 0.112038
O O2 0.661200 0.761683 0.857883
O O3 0.000000 0.500000 0.000000
O O4 0.958937 0.430294 0.787884
O O5 0.334809 0.644033 0.749095
O O6 0.424038 0.810379 0.673648
O O7 0.345088 0.730241 0.987930
O O8 0.095470 0.008016 0.716330
O O9 0.642312 0.002063 0.663869
O O10 0.311255 0.196063 0.728835
O O11 0.500000 0.000000 0.000000
O O12 0.512958 0.694716 0.180200
O O13 0.196795 0.868423 0.243066
O O14 0.227189 0.044721 0.925874
O O15 0.826573 0.804765 0.426787
O O16 0.209631 0.645007 0.547114
O O17 0.000000 0.000000 0.500000
O O18 0.500000 0.000000 0.500000
#
# Coordination Sequence:
#
# PCOD9016109 Si02
#       8
#     2   2   2   2   2   2   2   2
#     4  12  25  41  68  98 137 181 232 281 344 412
#     4  10  22  42  70  96 133 177 224 284 339 408
#     4  11  22  41  67  96 133 179 226 278 343 407
#     4  11  21  42  68  94 136 181 224 278 348 409
#     4  10  21  42  66  95 131 180 223 286 337 407
#     4  11  24  42  64 103 134 175 232 280 344 408
#     4  10  22  38  60  94 132 172 220 279 331 401
#     4   9  22  42  68  98 134 176 225 280 343 404
#
# _framework density 24.528108
#
# number of rings (size 3 to 8) (size 9 to 14) (size 15 to 20)
#    0.000    1.500    2.500    2.625    1.750    3.500 
#    2.250    0.000    0.000    0.000    0.000    0.000 
#    0.000    0.000    0.000    0.000    0.000    0.000 
#
# Total GULP energy -89243.884200 kJ/mol
# GULP energy per Si atom -5577.742763 kJ/mol
# Density = 2.447228 g / cm^3
# Si number density = 24.528108 Si / 1000 Ang^3
#
#
#
# Elastic Constant Matrix: (Units=GPa)
#
#
# Indices 1 2 3 4 5 6 
#
# 1 78.9040 7.4351 22.6254 -2.3638 -21.1768 -7.5591
# 2 7.4351 105.4510 53.7865 15.2639 -4.2850 -9.3745
# 3 22.6254 53.7865 197.4152 28.4959 -17.7498 -9.4799
# 4 -2.3638 15.2639 28.4959 57.5123 -9.2187 7.2622
# 5 -21.1768 -4.2850 -17.7498 -9.2187 41.4814 -4.4311
# 6 -7.5591 -9.3745 -9.4799 7.2622 -4.4311 30.9091
#
#
#
# Elastic Compliance Matrix: (Units=1/GPa)
#
#
# Indices 1 2 3 4 5 6 
#
# 1 0.015734 -0.000127 -0.001103 0.002051 0.008452 0.004201
# 2 -0.000127 0.011425 -0.002655 -0.002139 -0.000165 0.003099
# 3 -0.001103 -0.002655 0.006506 -0.002532 0.001569 0.001740
# 4 0.002051 -0.002139 -0.002532 0.020554 0.003754 -0.005215
# 5 0.008452 -0.000165 0.001569 0.003754 0.030551 0.005996
# 6 0.004201 0.003099 0.001740 -0.005215 0.005996 0.036939
#
#
# Mechanical properties :
#
#
# Convention : Reuss Voigt Hill
#
# Bulk Modulus (GPa) = 38.61910 61.05159 49.83535
# Shear Modulus (GPa) = 36.20277 45.84210 41.02243
#
# Velocity S-wave (km/s) = 3.84600 4.32784 4.09402
# Velocity P-wave (km/s) = 5.95830 7.06527 6.53527
#
# Compressibility (1/GPa) = 0.02589392
#
# Stress axis : x y z
#
# Youngs Moduli (GPa) = 63.55579 87.52815 153.71506
#
# Poissons Ratio (x) = 0.01109 0.16958
# Poissons Ratio (y) = 0.00805 0.40819
# Poissons Ratio (z) = 0.07011 0.23243
#
# Static dielectric constant tensor:
#      x y z
#    x 2.059050 0.086770 0.059780 
#    y 0.086770 2.036270 -0.033230 
#    z 0.059780 -0.033230 2.028440 
# 
# From -- ./inp_files/312643.got.cif
#   From: 2010.05.17/outbox.cif.g08.bks.cpg/sg2_157_cif.got.tgz:312643.got - 2010.06.03 11:33:40.
