data_PCOD9016426
_publ_section_title
;
Structure prediction by ZEFSAII (Michael W. Deem and Ramdas Pophale) SiO2 
 PCOD9016426
Probable space group: P -1
;
_chemical_formula_sum "Si O2"
_cell_formula_units_Z 16
_cell_length_a 11.443050
_cell_length_b 16.050773
_cell_length_c 5.191382
_cell_angle_alpha 81.973894
_cell_angle_beta 61.008571
_cell_angle_gamma 51.837159
_cell_volume 637.793117
_symmetry_space_group_name_H-M "P -1"
_symmetry_group_IT_number 2
_symmetry_cell_setting 'triclinic'
loop_
_space_group_symop_operation_xyz
x,y,z
-x,-y,-z
loop_
_atom_site_type_symbol
_atom_site_label
_atom_site_fract_x
_atom_site_fract_y
_atom_site_fract_z
Si Si1 0.095226 0.021480 0.678630
Si Si2 0.302960 0.608653 0.611948
Si Si3 0.907730 0.361983 0.681761
Si Si4 0.219521 0.807370 0.350737
Si Si5 0.433234 0.266372 0.084680
Si Si6 0.536340 0.058964 0.732793
Si Si7 0.094363 0.409386 0.150922
Si Si8 0.765875 0.769394 0.319716
O O1 0.166964 0.921089 0.453055
O O2 0.271708 0.000951 0.559989
O O3 0.949823 0.142146 0.662712
O O4 0.000000 0.000000 0.000000
O O5 0.500000 0.500000 0.500000
O O6 0.216276 0.614244 0.431866
O O7 0.264693 0.724462 0.567265
O O8 0.200207 0.611352 0.958982
O O9 0.971935 0.429700 0.506697
O O10 0.098085 0.250618 0.610730
O O11 0.399397 0.745219 0.032666
O O12 0.281663 0.370657 0.040013
O O13 0.335010 0.269916 0.434700
O O14 0.490048 0.162988 0.899056
O O15 0.388752 0.110194 0.653172
O O16 0.500000 0.000000 0.000000
O O17 0.134340 0.304150 0.006022
O O18 0.000000 0.500000 0.000000
#
# Coordination Sequence:
#
# PCOD9016426 Si02
#       8
#     2   2   2   2   2   2   2   2
#     4  10  22  43  67 101 140 189 243 293 366 432
#     4  12  28  48  71 105 143 193 238 293 354 428
#     4  11  25  47  69 101 144 180 239 290 355 423
#     4  10  24  42  67  98 142 189 239 295 353 434
#     4   9  21  40  62  97 134 178 227 288 350 416
#     4  10  22  39  65 101 137 179 233 295 356 421
#     4  10  22  40  70  99 134 181 226 292 349 419
#     4  10  21  42  67  97 140 172 229 289 352 418
#
# _framework density 25.086501999999999
#
# number of rings (size 3 to 8) (size 9 to 14) (size 15 to 20)
#    0.000    1.750    1.250    1.125    5.250    3.500 
#    0.000    0.000    0.000    0.000    0.000    0.000 
#    0.000    0.000    0.000    0.000    0.000    0.000 
#
# Total GULP energy -89341.326410 kJ/mol
# GULP energy per Si atom -5583.832901 kJ/mol
# Density = 2.502940 g / cm^3
# Si number density = 25.086502 Si / 1000 Ang^3
#
#
#
# Elastic Constant Matrix: (Units=GPa)
#
#
# Indices 1 2 3 4 5 6 
#
# 1 147.3505 71.7535 53.6564 -1.3340 -23.9566 -51.0712
# 2 71.7535 182.3307 57.7112 -11.5838 -22.3045 -62.5503
# 3 53.6564 57.7112 171.1201 -8.4309 -25.4557 -43.2697
# 4 -1.3340 -11.5838 -8.4309 36.5719 -7.7618 3.8034
# 5 -23.9566 -22.3045 -25.4557 -7.7618 38.2816 3.8848
# 6 -51.0712 -62.5503 -43.2697 3.8034 3.8848 57.5801
#
#
#
# Elastic Compliance Matrix: (Units=1/GPa)
#
#
# Indices 1 2 3 4 5 6 
#
# 1 0.011055 -0.000633 -0.000238 0.000453 0.005618 0.008530
# 2 -0.000633 0.009838 0.000284 0.003244 0.005191 0.009775
# 3 -0.000238 0.000284 0.008198 0.002521 0.005398 0.005727
# 4 0.000453 0.003244 0.002521 0.030714 0.009759 0.003133
# 5 0.005618 0.005191 0.005398 0.009759 0.037060 0.011533
# 6 0.008530 0.009775 0.005727 0.003133 0.011533 0.038871
#
#
# Mechanical properties :
#
#
# Convention : Reuss Voigt Hill
#
# Bulk Modulus (GPa) = 35.81915 96.33818 66.07866
# Shear Modulus (GPa) = 34.19590 47.66540 40.93065
#
# Velocity S-wave (km/s) = 3.69605 4.36368 4.04367
# Velocity P-wave (km/s) = 5.70295 7.99216 6.94256
#
# Compressibility (1/GPa) = 0.02791803
#
# Stress axis : x y z
#
# Youngs Moduli (GPa) = 90.45292 101.64508 121.97900
#
# Poissons Ratio (x) = 0.06434 0.02904
# Poissons Ratio (y) = 0.05725 -0.03467
# Poissons Ratio (z) = 0.02154 -0.02889
#
# Static dielectric constant tensor:
#      x y z
#    x 2.054940 0.075330 0.075740 
#    y 0.075330 2.018870 0.051300 
#    z 0.075740 0.051300 2.005550 
# 
# From -- ./inp_files/81293.got.cif
#   From: 2010.05.17/outbox.cif.g08.bks.cpg/sg2_41_cif.got.tgz:81293.got - 2010.06.03 11:33:40.
