data_PCOD9016663
_publ_section_title
;
Structure prediction by ZEFSAII (Michael W. Deem and Ramdas Pophale) SiO2 
 PCOD9016663
Probable space group: P -1
;
_chemical_formula_sum "Si O2"
_cell_formula_units_Z 12
_cell_length_a 8.702257
_cell_length_b 5.607072
_cell_length_c 16.955380
_cell_angle_alpha 93.079540
_cell_angle_beta 52.399669
_cell_angle_gamma 122.072974
_cell_volume 508.438932
_symmetry_space_group_name_H-M "P -1"
_symmetry_group_IT_number 2
_symmetry_cell_setting 'triclinic'
loop_
_space_group_symop_operation_xyz
x,y,z
-x,-y,-z
loop_
_atom_site_type_symbol
_atom_site_label
_atom_site_fract_x
_atom_site_fract_y
_atom_site_fract_z
Si Si1 0.604017 0.182185 0.255969
Si Si2 0.102010 0.270842 0.148010
Si Si3 0.579050 0.212804 0.053998
Si Si4 0.393545 0.671808 0.565740
Si Si5 0.809539 0.301353 0.733397
Si Si6 0.023265 0.209333 0.926539
O O1 0.544252 0.258627 0.359341
O O2 0.850786 0.218505 0.200147
O O3 0.707648 0.459892 0.165717
O O4 0.375343 0.845238 0.287377
O O5 0.186990 0.457863 0.207024
O O6 0.027031 0.942852 0.146984
O O7 0.305748 0.469811 0.018381
O O8 0.334012 0.016258 0.179015
O O9 0.808088 0.230942 0.013723
O O10 0.500000 0.000000 0.000000
O O11 0.500000 0.500000 0.500000
O O12 0.096704 0.454124 0.636180
O O13 0.500000 0.000000 0.500000
O O14 0.000000 0.000000 0.000000
#
# Coordination Sequence:
#
# PCOD9016663 Si02
#       6
#     2   2   2   2   2   2
#     4  10  23  43  69 101 139 177 233 285 360 425
#     4   9  20  38  61  98 146 182 217 277 342 418
#     4   9  19  37  57  95 142 182 225 269 339 425
#     4  11  28  53  76  99 138 182 243 316 371 412
#     4  10  21  42  68  98 130 181 231 289 353 433
#     4  11  21  36  66 104 146 185 223 280 347 430
#
# _framework density 23.601655000000001
#
# number of rings (size 3 to 8) (size 9 to 14) (size 15 to 20)
#    0.000    2.000    0.000    3.000    4.667    6.667 
#    9.000    1.667    0.000    0.000    0.000    0.000 
#    0.000    0.000    0.000    0.000    0.000    0.000 
#
# Total GULP energy -66901.050190 kJ/mol
# GULP energy per Si atom -5575.087516 kJ/mol
# Density = 2.354794 g / cm^3
# Si number density = 23.601655 Si / 1000 Ang^3
#
#
#
# Elastic Constant Matrix: (Units=GPa)
#
#
# Indices 1 2 3 4 5 6 
#
# 1 130.3612 65.1052 48.7380 -3.8183 -8.2708 18.4867
# 2 65.1052 185.3499 73.6474 5.5771 -11.4217 41.0103
# 3 48.7380 73.6474 138.8405 -4.0865 -14.9477 1.5342
# 4 -3.8183 5.5771 -4.0865 42.0182 15.7646 -9.5086
# 5 -8.2708 -11.4217 -14.9477 15.7646 26.7434 4.7816
# 6 18.4867 41.0103 1.5342 -9.5086 4.7816 49.9997
#
#
#
# Elastic Compliance Matrix: (Units=1/GPa)
#
#
# Indices 1 2 3 4 5 6 
#
# 1 0.009902 -0.002076 -0.002214 0.000024 0.001284 -0.002009
# 2 -0.002076 0.010672 -0.004224 -0.007074 0.007498 -0.009919
# 3 -0.002214 -0.004224 0.010394 0.001720 0.001567 0.004141
# 4 0.000024 -0.007074 0.001720 0.038922 -0.027822 0.015803
# 5 0.001284 0.007498 0.001567 -0.027822 0.061458 -0.017841
# 6 -0.002009 -0.009919 0.004141 0.015803 -0.017841 0.033463
#
#
# Mechanical properties :
#
#
# Convention : Reuss Voigt Hill
#
# Bulk Modulus (GPa) = 71.72797 92.17030 81.94913
# Shear Modulus (GPa) = 26.81199 41.55632 34.18416
#
# Velocity S-wave (km/s) = 3.37415 4.20067 3.80989
# Velocity P-wave (km/s) = 6.75551 7.91610 7.35872
#
# Compressibility (1/GPa) = 0.01394156
#
# Stress axis : x y z
#
# Youngs Moduli (GPa) = 100.98546 93.70343 96.21290
#
# Poissons Ratio (x) = 0.19449 0.21301
# Poissons Ratio (y) = 0.20961 0.40637
# Poissons Ratio (z) = 0.22358 0.39577
#
# Static dielectric constant tensor:
#      x y z
#    x 2.081660 0.044230 0.128080 
#    y 0.044230 2.057960 -0.074380 
#    z 0.128080 -0.074380 2.056850 
# 
# From -- ./inp_files/117425.got.cif
#   From: 2010.05.17/outbox.cif.g08.bks.cpg/sg2_59_cif.got.tgz:117425.got - 2010.06.03 11:33:40.
