data_PCOD9016470
_publ_section_title
;
Structure prediction by ZEFSAII (Michael W. Deem and Ramdas Pophale) SiO2 
 PCOD9016470
Probable space group: P -1
;
_chemical_formula_sum "Si O2"
_cell_formula_units_Z 16
_cell_length_a 8.159847
_cell_length_b 4.949804
_cell_length_c 21.651686
_cell_angle_alpha 116.292209
_cell_angle_beta 52.236391
_cell_angle_gamma 91.137656
_cell_volume 579.508730
_symmetry_space_group_name_H-M "P -1"
_symmetry_group_IT_number 2
_symmetry_cell_setting 'triclinic'
loop_
_space_group_symop_operation_xyz
x,y,z
-x,-y,-z
loop_
_atom_site_type_symbol
_atom_site_label
_atom_site_fract_x
_atom_site_fract_y
_atom_site_fract_z
Si Si1 0.585817 0.031630 0.811085
Si Si2 0.352564 0.598803 0.793560
Si Si3 0.262525 0.488511 0.613664
Si Si4 0.266636 0.598244 0.480763
Si Si5 0.718890 0.193935 0.908959
Si Si6 0.207885 0.032116 0.358986
Si Si7 0.093533 0.247166 0.739053
Si Si8 0.819676 0.327223 0.028263
O O1 0.434127 0.890419 0.790502
O O2 0.803530 0.942542 0.710596
O O3 0.648850 0.937394 0.858379
O O4 0.426531 0.397876 0.889510
O O5 0.218040 0.456937 0.765601
O O6 0.196574 0.759827 0.905488
O O7 0.593159 0.307985 0.714004
O O8 0.257491 0.465351 0.538690
O O9 0.514434 0.311313 0.562137
O O10 0.098718 0.365837 0.679421
O O11 0.223320 0.864532 0.673851
O O12 0.269670 0.318559 0.404737
O O13 0.039211 0.897407 0.552686
O O14 0.878473 0.290795 0.834937
O O15 0.500000 0.500000 0.000000
O O16 0.826544 0.114626 0.943984
O O17 0.000000 0.500000 0.000000
#
# Coordination Sequence:
#
# PCOD9016470 Si02
#       8
#     2   2   2   2   2   2   2   2
#     4  10  23  43  66 101 146 186 246 296 373 435
#     4  11  23  41  74 104 147 195 243 302 372 444
#     4  11  26  48  74 109 146 196 249 307 376 434
#     4  10  22  45  74 103 146 189 254 307 359 449
#     4  10  23  48  69 105 145 190 247 299 365 436
#     4  10  21  46  67 103 145 190 243 301 374 428
#     4  12  25  49  77 107 153 196 245 306 375 444
#     4  10  21  42  68 100 141 183 247 299 363 435
#
# _framework density 27.609593
#
# number of rings (size 3 to 8) (size 9 to 14) (size 15 to 20)
#    0.000    1.500    2.500    1.500    1.750    3.000 
#   27.000    1.875    0.000    0.000    0.000    0.000 
#    0.000    0.000    0.000    0.000    0.000    0.000 
#
# Total GULP energy -89491.769967 kJ/mol
# GULP energy per Si atom -5593.235623 kJ/mol
# Density = 2.754675 g / cm^3
# Si number density = 27.609593 Si / 1000 Ang^3
#
#
#
# Elastic Constant Matrix: (Units=GPa)
#
#
# Indices 1 2 3 4 5 6 
#
# 1 116.3986 10.9019 54.8003 2.7909 24.0446 9.6273
# 2 10.9019 89.5825 40.4643 -7.5138 9.8677 9.2248
# 3 54.8003 40.4643 197.0317 -12.6507 8.5240 -1.2861
# 4 2.7909 -7.5138 -12.6507 42.2993 6.5122 4.8752
# 5 24.0446 9.8677 8.5240 6.5122 62.9850 4.6445
# 6 9.6273 9.2248 -1.2861 4.8752 4.6445 32.9319
#
#
#
# Elastic Compliance Matrix: (Units=1/GPa)
#
#
# Indices 1 2 3 4 5 6 
#
# 1 0.010989 0.000711 -0.003107 -0.000635 -0.003604 -0.002931
# 2 0.000711 0.013104 -0.002690 0.002234 -0.001893 -0.004048
# 3 -0.003107 -0.002690 0.006575 0.001435 0.000448 0.001643
# 4 -0.000635 0.002234 0.001435 0.025350 -0.002645 -0.003764
# 5 -0.003604 -0.001893 0.000448 -0.002645 0.017800 -0.000517
# 6 -0.002931 -0.004048 0.001643 -0.003764 -0.000517 0.033051
#
#
# Mechanical properties :
#
#
# Convention : Reuss Voigt Hill
#
# Bulk Modulus (GPa) = 48.78453 68.37177 58.57815
# Shear Modulus (GPa) = 40.36389 47.43301 43.89845
#
# Velocity S-wave (km/s) = 3.82770 4.14936 3.99177
# Velocity P-wave (km/s) = 6.10269 6.91186 6.51984
#
# Compressibility (1/GPa) = 0.02049830
#
# Stress axis : x y z
#
# Youngs Moduli (GPa) = 90.99770 76.31160 152.08401
#
# Poissons Ratio (x) = -0.05429 0.47245
# Poissons Ratio (y) = -0.06474 0.40913
# Poissons Ratio (z) = 0.28269 0.20529
#
# Static dielectric constant tensor:
#      x y z
#    x 2.362570 0.022570 0.017280 
#    y 0.022570 2.262530 -0.026590 
#    z 0.017280 -0.026590 2.135450 
# 
# From -- ./inp_files/605732.got.cif
#   From: 2010.05.17/outbox.cif.g08.bks.cpg/sg2_303_cif.got.tgz:605732.got - 2010.06.03 11:33:40.
