data_PCOD9016634
_publ_section_title
;
Structure prediction by ZEFSAII (Michael W. Deem and Ramdas Pophale) SiO2 
 PCOD9016634
Probable space group: P -1
;
_chemical_formula_sum "Si O2"
_cell_formula_units_Z 14
_cell_length_a 9.498670
_cell_length_b 10.095005
_cell_length_c 14.882424
_cell_angle_alpha 100.677405
_cell_angle_beta 36.404955
_cell_angle_gamma 120.803286
_cell_volume 651.448598
_symmetry_space_group_name_H-M "P -1"
_symmetry_group_IT_number 2
_symmetry_cell_setting 'triclinic'
loop_
_space_group_symop_operation_xyz
x,y,z
-x,-y,-z
loop_
_atom_site_type_symbol
_atom_site_label
_atom_site_fract_x
_atom_site_fract_y
_atom_site_fract_z
Si Si1 0.867698 0.490493 0.662494
Si Si2 0.910992 0.434957 0.137123
Si Si3 0.665679 0.004679 0.826020
Si Si4 0.972253 0.838812 0.687184
Si Si5 0.721941 0.669048 0.970801
Si Si6 0.670196 0.930345 0.624973
Si Si7 0.147052 0.399108 0.654557
O O1 0.000000 0.500000 0.500000
O O2 0.886211 0.658636 0.678543
O O3 0.072933 0.487636 0.630402
O O4 0.518531 0.330943 0.847061
O O5 0.557782 0.272075 0.299858
O O6 0.978439 0.583153 0.186197
O O7 0.090404 0.367836 0.070648
O O8 0.000000 0.500000 0.000000
O O9 0.972566 0.201942 0.693231
O O10 0.542348 0.969320 0.781948
O O11 0.731755 0.870089 0.790860
O O12 0.500000 0.000000 0.000000
O O13 0.951500 0.825946 0.804826
O O14 0.264788 0.977577 0.493340
O O15 0.500000 0.500000 0.000000
O O16 0.000000 0.000000 0.500000
O O17 0.500000 0.500000 0.500000
#
# Coordination Sequence:
#
# PCOD9016634 Si02
#       7
#     2   2   2   2   2   2   2
#     4  11  24  43  72 100 143 190 239 295 365 432
#     4  12  26  43  74 107 143 189 248 293 355 438
#     4  11  23  41  70  99 145 186 231 289 363 421
#     4  10  21  42  68  96 141 185 235 285 358 422
#     4  10  22  43  70 103 137 191 239 295 366 420
#     4  10  23  41  67 106 142 193 233 292 361 423
#     4  12  25  44  67 108 136 184 243 291 350 432
#
# _framework density 21.490566000000001
#
# number of rings (size 3 to 8) (size 9 to 14) (size 15 to 20)
#    0.000    1.143    2.857    4.286   12.000    0.571 
#    2.571    0.000    0.000    3.429    0.000    0.000 
#    0.000    0.000    0.000    0.000    0.000    0.000 
#
# Total GULP energy -78106.528168 kJ/mol
# GULP energy per Si atom -5579.037726 kJ/mol
# Density = 2.144165 g / cm^3
# Si number density = 21.490566 Si / 1000 Ang^3
#
#
#
# Elastic Constant Matrix: (Units=GPa)
#
#
# Indices 1 2 3 4 5 6 
#
# 1 116.0487 30.2148 53.3255 7.3331 21.2615 -16.8712
# 2 30.2148 93.8985 35.3838 3.6660 3.1530 -7.6254
# 3 53.3255 35.3838 135.6906 18.4322 40.6466 -7.1978
# 4 7.3331 3.6660 18.4322 46.2052 3.9296 2.0437
# 5 21.2615 3.1530 40.6466 3.9296 56.3356 -0.7096
# 6 -16.8712 -7.6254 -7.1978 2.0437 -0.7096 33.0542
#
#
#
# Elastic Compliance Matrix: (Units=1/GPa)
#
#
# Indices 1 2 3 4 5 6 
#
# 1 0.011691 -0.002103 -0.003149 -0.000480 -0.001929 0.004784
# 2 -0.002103 0.012504 -0.003117 0.000335 0.002334 0.001162
# 3 -0.003149 -0.003117 0.012027 -0.003465 -0.007068 0.000355
# 4 -0.000480 0.000335 -0.003465 0.023091 0.001023 -0.002328
# 5 -0.001929 0.002334 -0.007068 0.001023 0.023357 -0.001547
# 6 0.004784 0.001162 0.000355 -0.002328 -0.001547 0.033151
#
#
# Mechanical properties :
#
#
# Convention : Reuss Voigt Hill
#
# Bulk Modulus (GPa) = 51.32774 64.83179 58.07976
# Shear Modulus (GPa) = 35.95688 42.23324 39.09506
#
# Velocity S-wave (km/s) = 4.09485 4.43787 4.26980
# Velocity P-wave (km/s) = 6.80388 7.51615 7.16887
#
# Compressibility (1/GPa) = 0.01948264
#
# Stress axis : x y z
#
# Youngs Moduli (GPa) = 85.53547 79.97357 83.14460
#
# Poissons Ratio (x) = 0.16820 0.26186
# Poissons Ratio (y) = 0.17989 0.25919
# Poissons Ratio (z) = 0.26939 0.24931
#
# Static dielectric constant tensor:
#      x y z
#    x 1.765990 0.005820 0.028270 
#    y 0.005820 1.764700 0.006620 
#    z 0.028270 0.006620 1.893770 
# 
# From -- ./inp_files/355058.got.cif
#   From: 2010.05.17/outbox.cif.g08.bks.cpg/sg2_178_cif.got.tgz:355058.got - 2010.06.03 11:33:40.
