data_PCOD9016284
_publ_section_title
;
Structure prediction by ZEFSAII (Michael W. Deem and Ramdas Pophale) SiO2 
 PCOD9016284
Probable space group: P -1
;
_chemical_formula_sum "Si O2"
_cell_formula_units_Z 10
_cell_length_a 18.441773
_cell_length_b 7.305212
_cell_length_c 5.567595
_cell_angle_alpha 46.725450
_cell_angle_beta 47.520445
_cell_angle_gamma 53.483335
_cell_volume 390.384106
_symmetry_space_group_name_H-M "P -1"
_symmetry_group_IT_number 2
_symmetry_cell_setting 'triclinic'
loop_
_space_group_symop_operation_xyz
x,y,z
-x,-y,-z
loop_
_atom_site_type_symbol
_atom_site_label
_atom_site_fract_x
_atom_site_fract_y
_atom_site_fract_z
Si Si1 0.564488 0.948570 0.148033
Si Si2 0.941938 0.195732 0.257137
Si Si3 0.849575 0.946354 0.310584
Si Si4 0.383314 0.562848 0.288098
Si Si5 0.785686 0.479306 0.667172
O O1 0.379972 0.353225 0.687552
O O2 0.500000 0.000000 0.500000
O O3 0.635297 0.148482 0.826913
O O4 0.500000 0.000000 0.000000
O O5 0.876751 0.455090 0.288949
O O6 0.859491 0.061283 0.446042
O O7 0.000000 0.000000 0.500000
O O8 0.031818 0.209575 0.863024
O O9 0.786948 0.737875 0.576853
O O10 0.815214 0.209973 0.991897
O O11 0.314622 0.517674 0.262463
O O12 0.500000 0.500000 0.000000
#
# Coordination Sequence:
#
# PCOD9016284 Si02
#       5
#     2   2   2   2   2
#     4  10  21  42  67  91 125 173 225 272 332 388
#     4   9  21  40  64  91 126 162 208 261 326 392
#     4  10  22  39  64  93 124 165 205 267 325 385
#     4  10  22  42  63  92 130 172 217 273 322 387
#     4  11  22  41  62  92 129 162 219 257 322 388
#
# _framework density 25.615794999999999
#
# number of rings (size 3 to 8) (size 9 to 14) (size 15 to 20)
#    0.000    2.000    0.000    2.400    0.000   10.400 
#   21.600    0.000    0.000    0.000    0.000    0.000 
#    0.000    0.000    0.000    0.000    0.000    0.000 
#
# Total GULP energy -55940.152250 kJ/mol
# GULP energy per Si atom -5594.015225 kJ/mol
# Density = 2.555749 g / cm^3
# Si number density = 25.615795 Si / 1000 Ang^3
#
#
#
# Elastic Constant Matrix: (Units=GPa)
#
#
# Indices 1 2 3 4 5 6 
#
# 1 231.8772 64.9188 48.8307 -33.6072 -0.6189 34.0416
# 2 64.9188 168.5631 61.9734 -48.9787 -3.3145 26.5280
# 3 48.8307 61.9734 83.5596 -27.2186 0.8251 5.6912
# 4 -33.6072 -48.9787 -27.2186 62.9122 2.4268 -4.5932
# 5 -0.6189 -3.3145 0.8251 2.4268 40.6360 -5.3363
# 6 34.0416 26.5280 5.6912 -4.5932 -5.3363 49.6631
#
#
#
# Elastic Compliance Matrix: (Units=1/GPa)
#
#
# Indices 1 2 3 4 5 6 
#
# 1 0.005593 -0.000377 -0.002277 0.001486 -0.000419 -0.003279
# 2 -0.000377 0.010187 -0.005399 0.005091 0.000095 -0.004083
# 3 -0.002277 -0.005399 0.017971 0.002567 -0.000658 0.002552
# 4 0.001486 0.005091 0.002567 0.021652 -0.001191 -0.002157
# 5 -0.000419 0.000095 -0.000658 -0.001191 0.025075 0.002896
# 6 -0.003279 -0.004083 0.002552 -0.002157 0.002896 0.024383
#
#
# Mechanical properties :
#
#
# Convention : Reuss Voigt Hill
#
# Bulk Modulus (GPa) = 56.67631 92.82728 74.75180
# Shear Modulus (GPa) = 39.41663 51.19409 45.30536
#
# Velocity S-wave (km/s) = 3.92696 4.47535 4.21009
# Velocity P-wave (km/s) = 6.53720 7.93864 7.27176
#
# Compressibility (1/GPa) = 0.01764405
#
# Stress axis : x y z
#
# Youngs Moduli (GPa) = 178.77944 98.16864 55.64379
#
# Poissons Ratio (x) = 0.03705 0.12672
# Poissons Ratio (y) = 0.06748 0.30041
# Poissons Ratio (z) = 0.40715 0.53000
#
# Static dielectric constant tensor:
#      x y z
#    x 1.928710 0.320560 0.168550 
#    y 0.320560 -3.506360 -3.140560 
#    z 0.168550 -3.140560 0.327140 
# 
# From -- ./inp_files/12182.got.cif
#   From: 2010.05.17/outbox.cif.g08.bks.cpg/sg2_7_cif.got.tgz:12182.got - 2010.06.03 11:33:40.
