data_PCOD9016432
_publ_section_title
;
Structure prediction by ZEFSAII (Michael W. Deem and Ramdas Pophale) SiO2 
 PCOD9016432
Probable space group: P -1
;
_chemical_formula_sum "Si O2"
_cell_formula_units_Z 16
_cell_length_a 8.291338
_cell_length_b 9.477540
_cell_length_c 14.711003
_cell_angle_alpha 107.785392
_cell_angle_beta 116.375636
_cell_angle_gamma 112.775713
_cell_volume 779.264525
_symmetry_space_group_name_H-M "P -1"
_symmetry_group_IT_number 2
_symmetry_cell_setting 'triclinic'
loop_
_space_group_symop_operation_xyz
x,y,z
-x,-y,-z
loop_
_atom_site_type_symbol
_atom_site_label
_atom_site_fract_x
_atom_site_fract_y
_atom_site_fract_z
Si Si1 0.907046 0.889887 0.860265
Si Si2 0.668376 0.048014 0.783955
Si Si3 0.890053 0.874595 0.537521
Si Si4 0.754652 0.115299 0.626209
Si Si5 0.280932 0.844216 0.971370
Si Si6 0.158676 0.711620 0.620956
Si Si7 0.424902 0.503489 0.378129
Si Si8 0.979572 0.482673 0.268745
O O1 0.674948 0.681235 0.743392
O O2 0.097658 0.865038 0.885519
O O3 0.855741 0.012836 0.818495
O O4 0.000000 0.000000 0.000000
O O5 0.727006 0.167413 0.731577
O O6 0.411124 0.854968 0.671201
O O7 0.684364 0.120074 0.904416
O O8 0.644161 0.679875 0.419061
O O9 0.040556 0.813920 0.602176
O O10 0.835198 0.985662 0.611729
O O11 0.000000 0.000000 0.500000
O O12 0.942929 0.309415 0.660510
O O13 0.500000 0.000000 0.500000
O O14 0.169489 0.628984 0.879360
O O15 0.500000 0.000000 0.000000
O O16 0.000000 0.500000 0.500000
O O17 0.172409 0.663379 0.718228
O O18 0.500000 0.500000 0.500000
O O19 0.221164 0.518689 0.337772
#
# Coordination Sequence:
#
# PCOD9016432 Si02
#       8
#     2   2   2   2   2   2   2   2
#     4   9  21  38  62  96 125 170 218 269 329 393
#     4  11  23  40  67  92 136 173 215 279 333 394
#     4  12  25  41  63  97 140 173 215 280 340 394
#     4  12  25  42  62  97 140 175 215 270 343 399
#     4  10  21  42  67  98 126 172 229 277 322 391
#     4  12  24  39  66 101 128 172 225 273 335 395
#     4  11  20  37  65  95 123 172 220 269 328 397
#     4  11  23  40  65  94 130 171 225 271 324 405
#
# _framework density 20.532181999999999
#
# number of rings (size 3 to 8) (size 9 to 14) (size 15 to 20)
#    0.000    1.000    3.750    3.750    1.750    0.500 
#    0.000    0.000    0.000    1.500    0.000    0.000 
#    0.000    0.000    0.000    0.000    0.000    0.000 
#
# Total GULP energy -89137.093595 kJ/mol
# GULP energy per Si atom -5571.068350 kJ/mol
# Density = 2.048545 g / cm^3
# Si number density = 20.532182 Si / 1000 Ang^3
#
#
#
# Elastic Constant Matrix: (Units=GPa)
#
#
# Indices 1 2 3 4 5 6 
#
# 1 55.9508 20.2419 26.0992 -3.9303 1.3237 -2.5500
# 2 20.2419 91.4928 43.4372 4.6218 -5.9265 8.9784
# 3 26.0992 43.4372 130.0937 12.2270 -15.6211 2.0984
# 4 -3.9303 4.6218 12.2270 29.8945 4.0508 -3.4210
# 5 1.3237 -5.9265 -15.6211 4.0508 34.3616 0.4986
# 6 -2.5500 8.9784 2.0984 -3.4210 0.4986 44.7235
#
#
#
# Elastic Compliance Matrix: (Units=1/GPa)
#
#
# Indices 1 2 3 4 5 6 
#
# 1 0.021830 -0.003638 -0.004277 0.006054 -0.004166 0.002685
# 2 -0.003638 0.013875 -0.003560 -0.001663 0.001154 -0.002966
# 3 -0.004277 -0.003560 0.010842 -0.005194 0.005099 -0.000492
# 4 0.006054 -0.001663 -0.005194 0.038083 -0.007427 0.003919
# 5 -0.004166 0.001154 0.005099 -0.007427 0.032679 -0.001641
# 6 0.002685 -0.002966 -0.000492 0.003919 -0.001641 0.023449
#
#
# Mechanical properties :
#
#
# Convention : Reuss Voigt Hill
#
# Bulk Modulus (GPa) = 42.38025 50.78819 46.58422
# Shear Modulus (GPa) = 29.14178 34.31319 31.72749
#
# Velocity S-wave (km/s) = 3.77148 4.09245 3.93524
# Velocity P-wave (km/s) = 6.29691 6.86444 6.58679
#
# Compressibility (1/GPa) = 0.02359590
#
# Stress axis : x y z
#
# Youngs Moduli (GPa) = 45.80751 72.07347 92.23508
#
# Poissons Ratio (x) = 0.26222 0.39452
# Poissons Ratio (y) = 0.16666 0.32836
# Poissons Ratio (z) = 0.19593 0.25659
#
# Static dielectric constant tensor:
#      x y z
#    x 1.837870 -0.039890 -0.021530 
#    y -0.039890 1.749670 -0.055900 
#    z -0.021530 -0.055900 1.707560 
# 
# From -- ./inp_files/206278.got.cif
#   From: 2010.05.17/outbox.cif.g08.bks.cpg/sg2_104_cif.got.tgz:206278.got - 2010.06.03 11:33:40.
