data_PCOD9016587
_publ_section_title
;
Structure prediction by ZEFSAII (Michael W. Deem and Ramdas Pophale) SiO2 
 PCOD9016587
Probable space group: P -1
;
_chemical_formula_sum "Si O2"
_cell_formula_units_Z 13
_cell_length_a 8.569463
_cell_length_b 9.495351
_cell_length_c 16.610540
_cell_angle_alpha 53.102661
_cell_angle_beta 107.622985
_cell_angle_gamma 63.584886
_cell_volume 586.420921
_symmetry_space_group_name_H-M "P -1"
_symmetry_group_IT_number 2
_symmetry_cell_setting 'triclinic'
loop_
_space_group_symop_operation_xyz
x,y,z
-x,-y,-z
loop_
_atom_site_type_symbol
_atom_site_label
_atom_site_fract_x
_atom_site_fract_y
_atom_site_fract_z
Si Si1 0.807761 0.196524 0.982336
Si Si2 0.866787 0.773482 0.936361
Si Si3 0.794845 0.665864 0.530797
Si Si4 0.683408 0.242732 0.400290
Si Si5 0.817568 0.795807 0.111235
Si Si6 0.737933 0.521469 0.423870
Si Si7 0.500000 0.000000 0.500000
O O1 0.517921 0.528698 0.785289
O O2 0.960429 0.198710 0.063460
O O3 0.788407 0.014339 0.071046
O O4 0.000000 0.000000 0.000000
O O5 0.528467 0.107949 0.755219
O O6 0.891983 0.728026 0.052394
O O7 0.000000 0.500000 0.000000
O O8 0.808729 0.479027 0.543644
O O9 0.924723 0.530194 0.689028
O O10 0.989360 0.638318 0.526475
O O11 0.482080 0.994534 0.398120
O O12 0.644535 0.421049 0.404669
O O13 0.612530 0.111564 0.465466
O O14 0.000000 0.000000 0.500000
O O15 0.500000 0.000000 0.000000
#
# Coordination Sequence:
#
# PCOD9016587 Si02
#       7
#     2   2   2   2   2   2   1
#     4  10  21  42  68  94 137 183 230 282 357 418
#     4  11  24  42  70  99 135 187 236 285 356 424
#     4  11  25  42  68 106 139 186 242 296 353 437
#     4  12  24  46  71 107 144 189 237 302 361 425
#     4  11  21  44  70  94 132 183 233 280 355 422
#     4  11  24  47  67  99 151 190 227 308 371 407
#     4  12  26  40  72 106 136 188 248 276 354 444
#
# _framework density 22.168378000000001
#
# number of rings (size 3 to 8) (size 9 to 14) (size 15 to 20)
#    0.000    0.923    6.154    1.846    4.308    0.615 
#    0.000    0.769    0.000    0.000    0.000    0.000 
#    0.000    0.000    0.000    0.000    0.000    0.000 
#
# Total GULP energy -72371.457070 kJ/mol
# GULP energy per Si atom -5567.035159 kJ/mol
# Density = 2.211792 g / cm^3
# Si number density = 22.168378 Si / 1000 Ang^3
#
#
#
# Elastic Constant Matrix: (Units=GPa)
#
#
# Indices 1 2 3 4 5 6 
#
# 1 89.2812 45.2821 0.0080 -19.1566 -3.9953 9.3687
# 2 45.2821 144.9838 -0.6954 -11.3490 -22.3739 7.2634
# 3 0.0080 -0.6954 72.1432 -7.1473 -0.0070 -9.0707
# 4 -19.1566 -11.3490 -7.1473 36.3269 -0.6927 -6.0683
# 5 -3.9953 -22.3739 -0.0070 -0.6927 30.6880 -12.7111
# 6 9.3687 7.2634 -9.0707 -6.0683 -12.7111 40.4181
#
#
#
# Elastic Compliance Matrix: (Units=1/GPa)
#
#
# Indices 1 2 3 4 5 6 
#
# 1 0.014880 -0.004373 0.000266 0.006102 -0.002083 -0.002343
# 2 -0.004373 0.009347 0.000431 0.001135 0.007020 0.001809
# 3 0.000266 0.000431 0.014829 0.003991 0.002313 0.004515
# 4 0.006102 0.001135 0.003991 0.032929 0.004731 0.005709
# 5 -0.002083 0.007020 0.002313 0.004731 0.043377 0.014092
# 6 -0.002343 0.001809 0.004515 0.005709 0.014092 0.031262
#
#
# Mechanical properties :
#
#
# Convention : Reuss Voigt Hill
#
# Bulk Modulus (GPa) = 31.54125 43.95530 37.74828
# Shear Modulus (GPa) = 30.38714 38.94085 34.66399
#
# Velocity S-wave (km/s) = 3.70637 4.19572 3.95861
# Velocity P-wave (km/s) = 5.70747 6.58355 6.16110
#
# Compressibility (1/GPa) = 0.03170451
#
# Stress axis : x y z
#
# Youngs Moduli (GPa) = 67.20352 106.99036 67.43649
#
# Poissons Ratio (x) = 0.46783 -0.01794
# Poissons Ratio (y) = 0.29386 -0.02907
# Poissons Ratio (z) = -0.01788 -0.04613
#
# Static dielectric constant tensor:
#      x y z
#    x 1.560460 0.200350 -0.367490 
#    y 0.200350 1.705330 0.288010 
#    z -0.367490 0.288010 1.329300 
# 
# From -- ./inp_files/173221.got.cif
#   From: 2010.05.17/outbox.cif.g08.bks.cpg/sg2_87_cif.got.tgz:173221.got - 2010.06.03 11:33:40.
