data_PCOD9016111
_publ_section_title
;
Structure prediction by ZEFSAII (Michael W. Deem and Ramdas Pophale) SiO2 
 PCOD9016111
Probable space group: P -1
;
_chemical_formula_sum "Si O2"
_cell_formula_units_Z 14
_cell_length_a 14.712266
_cell_length_b 7.714609
_cell_length_c 7.710794
_cell_angle_alpha 70.315269
_cell_angle_beta 132.204276
_cell_angle_gamma 125.592026
_cell_volume 525.041340
_symmetry_space_group_name_H-M "P -1"
_symmetry_group_IT_number 2
_symmetry_cell_setting 'triclinic'
loop_
_space_group_symop_operation_xyz
x,y,z
-x,-y,-z
loop_
_atom_site_type_symbol
_atom_site_label
_atom_site_fract_x
_atom_site_fract_y
_atom_site_fract_z
Si Si1 0.191113 0.839066 0.349337
Si Si2 0.808842 0.655786 0.438719
Si Si3 0.228369 0.595888 0.196812
Si Si4 0.413504 0.492901 0.057741
Si Si5 0.165321 0.198069 0.029322
Si Si6 0.929889 0.130937 0.489162
Si Si7 0.501718 0.104865 0.780980
O O1 0.145193 0.013014 0.192578
O O2 0.361450 0.947776 0.548213
O O3 0.147594 0.685829 0.179200
O O4 0.132186 0.766938 0.493442
O O5 0.734389 0.517214 0.559907
O O6 0.719681 0.511018 0.210070
O O7 0.974509 0.724019 0.596979
O O8 0.814798 0.884307 0.380220
O O9 0.160298 0.396331 0.043950
O O10 0.354638 0.793291 0.184862
O O11 0.500000 0.500000 0.000000
O O12 0.324664 0.283366 0.129270
O O13 0.501612 0.685623 0.233825
O O14 0.052559 0.115620 0.758528
O O15 0.500000 0.000000 0.000000
#
# Coordination Sequence:
#
# PCOD9016111 Si02
#       7
#     2   2   2   2   2   2   2
#     4  12  24  42  72  93 130 183 209 265 334 382
#     4  10  21  42  66  95 133 168 213 276 313 379
#     4  11  25  42  67  96 132 167 221 272 318 385
#     4  10  22  37  67  95 126 173 214 263 328 387
#     4  10  24  43  63 101 135 164 222 267 317 390
#     4  10  22  44  68  96 136 171 213 269 322 389
#     4  11  26  45  62  97 137 163 220 280 318 385
#
# _framework density 26.664570999999999
#
# number of rings (size 3 to 8) (size 9 to 14) (size 15 to 20)
#    0.000    1.429    1.429    2.571    4.000    2.286 
#    0.000    0.000    0.000    0.000    0.000    0.000 
#    0.000    0.000    0.000    0.000    0.000    0.000 
#
# Total GULP energy -78182.572162 kJ/mol
# GULP energy per Si atom -5584.469440 kJ/mol
# Density = 2.660388 g / cm^3
# Si number density = 26.664571 Si / 1000 Ang^3
#
#
#
# Elastic Constant Matrix: (Units=GPa)
#
#
# Indices 1 2 3 4 5 6 
#
# 1 195.1473 53.6428 -6.3132 10.4201 -22.6580 2.2934
# 2 53.6428 96.6920 32.1572 10.1318 0.9807 6.1723
# 3 -6.3132 32.1572 75.6295 12.9462 -20.2732 -0.9766
# 4 10.4201 10.1318 12.9462 37.6484 -0.5203 -13.9725
# 5 -22.6580 0.9807 -20.2732 -0.5203 38.8041 2.0353
# 6 2.2934 6.1723 -0.9766 -13.9725 2.0353 52.1998
#
#
#
# Elastic Compliance Matrix: (Units=1/GPa)
#
#
# Indices 1 2 3 4 5 6 
#
# 1 0.008103 -0.006226 0.005914 -0.002691 0.007971 -0.000540
# 2 -0.006226 0.017505 -0.010505 -0.000120 -0.009481 -0.001655
# 3 0.005914 -0.010505 0.023698 -0.007151 0.016062 -0.001115
# 4 -0.002691 -0.000120 -0.007151 0.033088 -0.005336 0.009063
# 5 0.007971 -0.009481 0.016062 -0.005336 0.039083 -0.001881
# 6 -0.000540 -0.001655 -0.001115 0.009063 -0.001881 0.021855
#
#
# Mechanical properties :
#
#
# Convention : Reuss Voigt Hill
#
# Bulk Modulus (GPa) = 36.13915 58.49359 47.31637
# Shear Modulus (GPa) = 28.70441 44.92925 36.81683
#
# Velocity S-wave (km/s) = 3.28457 4.10930 3.71986
# Velocity P-wave (km/s) = 5.28840 6.67080 6.01942
#
# Compressibility (1/GPa) = 0.02767082
#
# Stress axis : x y z
#
# Youngs Moduli (GPa) = 123.41538 57.12806 42.19775
#
# Poissons Ratio (x) = 0.35571 -0.24956
# Poissons Ratio (y) = 0.76844 0.44328
# Poissons Ratio (z) = -0.72990 0.60012
#
# Static dielectric constant tensor:
#      x y z
#    x 2.217140 0.089130 0.021900 
#    y 0.089130 2.171950 -0.035560 
#    z 0.021900 -0.035560 2.055370 
# 
# From -- ./inp_files/290224.got.cif
#   From: 2010.05.17/outbox.cif.g08.bks.cpg/sg2_146_cif.got.tgz:290224.got - 2010.06.03 11:33:40.
