data_PCOD9016153
_publ_section_title
;
Structure prediction by ZEFSAII (Michael W. Deem and Ramdas Pophale) SiO2 
 PCOD9016153
Probable space group: P -1
;
_chemical_formula_sum "Si O2"
_cell_formula_units_Z 14
_cell_length_a 21.752623
_cell_length_b 9.542806
_cell_length_c 5.450439
_cell_angle_alpha 95.642273
_cell_angle_beta 100.153069
_cell_angle_gamma 30.669283
_cell_volume 564.862877
_symmetry_space_group_name_H-M "P -1"
_symmetry_group_IT_number 2
_symmetry_cell_setting 'triclinic'
loop_
_space_group_symop_operation_xyz
x,y,z
-x,-y,-z
loop_
_atom_site_type_symbol
_atom_site_label
_atom_site_fract_x
_atom_site_fract_y
_atom_site_fract_z
Si Si1 0.620360 0.588168 0.616469
Si Si2 0.442535 0.003411 0.155389
Si Si3 0.067680 0.823480 0.762403
Si Si4 0.801107 0.934416 0.346020
Si Si5 0.564371 0.248020 0.159058
Si Si6 0.987302 0.372430 0.194447
Si Si7 0.186002 0.852236 0.960361
O O1 0.628722 0.742989 0.690516
O O2 0.530493 0.660682 0.730210
O O3 0.749173 0.281761 0.753109
O O4 0.553702 0.717866 0.333680
O O5 0.500000 0.000000 0.000000
O O6 0.376475 0.994016 0.003194
O O7 0.071847 0.648891 0.721622
O O8 0.185989 0.693164 0.833774
O O9 0.000000 0.000000 0.500000
O O10 0.000000 0.000000 0.000000
O O11 0.902218 0.771772 0.595854
O O12 0.876686 0.695102 0.158747
O O13 0.676272 0.099388 0.364830
O O14 0.759593 0.152426 0.205701
O O15 0.500000 0.500000 0.000000
O O16 0.051382 0.180017 0.968440
#
# Coordination Sequence:
#
# PCOD9016153 Si02
#       7
#     2   2   2   2   2   2   2
#     4  10  22  42  66  97 129 172 223 276 345 400
#     4   9  22  43  63  91 131 169 221 276 334 402
#     4  10  21  42  66  97 132 176 235 286 339 409
#     4  11  23  42  62  93 136 174 220 277 340 415
#     4  11  23  39  64  97 132 173 217 277 336 410
#     4  10  24  41  63  93 130 177 225 278 341 402
#     4  11  22  39  69  93 130 176 222 283 339 416
#
# _framework density 24.784777999999999
#
# number of rings (size 3 to 8) (size 9 to 14) (size 15 to 20)
#    0.000    1.714    2.857    0.429    4.000    1.714 
#    0.000    2.857    0.000    0.000    0.000    0.000 
#    0.000    0.000    0.000    0.000    0.000    0.000 
#
# Total GULP energy -78032.411933 kJ/mol
# GULP energy per Si atom -5573.743710 kJ/mol
# Density = 2.472837 g / cm^3
# Si number density = 24.784778 Si / 1000 Ang^3
#
#
#
# Elastic Constant Matrix: (Units=GPa)
#
#
# Indices 1 2 3 4 5 6 
#
# 1 148.8805 41.5349 26.5414 -13.1880 12.5440 45.4525
# 2 41.5349 76.2019 -0.9619 -14.6843 4.2889 6.8479
# 3 26.5414 -0.9619 96.2841 -18.8434 -2.9562 9.2262
# 4 -13.1880 -14.6843 -18.8434 28.3591 9.0691 -2.1756
# 5 12.5440 4.2889 -2.9562 9.0691 42.2832 -6.2129
# 6 45.4525 6.8479 9.2262 -2.1756 -6.2129 29.2787
#
#
#
# Elastic Compliance Matrix: (Units=1/GPa)
#
#
# Indices 1 2 3 4 5 6 
#
# 1 0.019242 -0.006098 -0.001702 0.005841 -0.010837 -0.029774
# 2 -0.006098 0.017906 0.003185 0.009259 -0.001075 0.004735
# 3 -0.001702 0.003185 0.012912 0.009706 -0.001249 -0.001716
# 4 0.005841 0.009259 0.009706 0.053097 -0.015382 -0.013611
# 5 -0.010837 -0.001075 -0.001249 -0.015382 0.033633 0.023462
# 6 -0.029774 0.004735 -0.001716 -0.013611 0.023462 0.083777
#
#
# Mechanical properties :
#
#
# Convention : Reuss Voigt Hill
#
# Bulk Modulus (GPa) = 24.49090 50.62171 37.55630
# Shear Modulus (GPa) = 20.54175 36.93433 28.73804
#
# Velocity S-wave (km/s) = 2.88202 3.86450 3.40884
# Velocity P-wave (km/s) = 4.58013 6.35463 5.53891
#
# Compressibility (1/GPa) = 0.04083150
#
# Stress axis : x y z
#
# Youngs Moduli (GPa) = 51.97024 55.84573 77.44514
#
# Poissons Ratio (x) = 0.34056 0.13178
# Poissons Ratio (y) = 0.31693 -0.24669
# Poissons Ratio (z) = 0.08843 -0.17789
#
# Static dielectric constant tensor:
#      x y z
#    x 2.033330 -0.004380 0.027420 
#    y -0.004380 2.077330 0.129520 
#    z 0.027420 0.129520 1.995360 
# 
# From -- ./inp_files/37495.got.cif
#   From: 2010.05.17/outbox.cif.g08.bks.cpg/sg2_19_cif.got.tgz:37495.got - 2010.06.03 11:33:40.
