data_PCOD9016690
_publ_section_title
;
Structure prediction by ZEFSAII (Michael W. Deem and Ramdas Pophale) SiO2 
 PCOD9016690
Probable space group: P -1
;
_chemical_formula_sum "Si O2"
_cell_formula_units_Z 16
_cell_length_a 18.034341
_cell_length_b 6.750173
_cell_length_c 9.089846
_cell_angle_alpha 127.311845
_cell_angle_beta 46.643292
_cell_angle_gamma 129.444776
_cell_volume 592.164764
_symmetry_space_group_name_H-M "P -1"
_symmetry_group_IT_number 2
_symmetry_cell_setting 'triclinic'
loop_
_space_group_symop_operation_xyz
x,y,z
-x,-y,-z
loop_
_atom_site_type_symbol
_atom_site_label
_atom_site_fract_x
_atom_site_fract_y
_atom_site_fract_z
Si Si1 0.654564 0.805584 0.344371
Si Si2 0.720299 0.628706 0.571219
Si Si3 0.093592 0.925755 0.926584
Si Si4 0.578686 0.249569 0.372432
Si Si5 0.306835 0.711689 0.264222
Si Si6 0.535346 0.778027 0.987584
Si Si7 0.927978 0.480456 0.482869
Si Si8 0.969292 0.970807 0.383633
O O1 0.615414 0.514926 0.340663
O O2 0.542054 0.798373 0.414816
O O3 0.777353 0.874653 0.145117
O O4 0.671079 0.031407 0.547161
O O5 0.671880 0.357195 0.418913
O O6 0.717316 0.536749 0.701250
O O7 0.841210 0.819697 0.447102
O O8 0.635728 0.781444 0.752210
O O9 0.096519 0.684047 0.712912
O O10 0.000000 0.000000 0.000000
O O11 0.046913 0.871994 0.131108
O O12 0.571006 0.010540 0.166112
O O13 0.422269 0.755647 0.050191
O O14 0.188295 0.619035 0.311588
O O15 0.500000 0.500000 0.000000
O O16 0.986313 0.283780 0.408010
O O17 0.960163 0.786701 0.480679
#
# Coordination Sequence:
#
# PCOD9016690 Si02
#       8
#     2   2   2   2   2   2   2   2
#     4   9  21  41  66  98 136 177 227 280 346 417
#     4  11  23  41  66  96 133 180 228 282 344 411
#     4  11  23  43  69 100 134 188 234 278 350 418
#     4  10  21  42  68  99 137 173 225 291 342 412
#     4   9  20  42  64  97 135 170 231 279 343 422
#     4   9  21  41  66  98 131 173 224 274 348 416
#     4  11  23  44  70  98 134 183 228 290 353 413
#     4  12  26  45  66 101 142 180 238 294 339 410
#
# _framework density 27.019507999999998
#
# number of rings (size 3 to 8) (size 9 to 14) (size 15 to 20)
#    0.000    1.750    2.500    0.750    1.750    8.000 
#    6.750    5.625    0.000    0.000    0.000    0.000 
#    0.000    0.000    0.000    0.000    0.000    0.000 
#
# Total GULP energy -89403.741903 kJ/mol
# GULP energy per Si atom -5587.733869 kJ/mol
# Density = 2.695801 g / cm^3
# Si number density = 27.019508 Si / 1000 Ang^3
#
#
#
# Elastic Constant Matrix: (Units=GPa)
#
#
# Indices 1 2 3 4 5 6 
#
# 1 111.6007 44.3785 33.7589 -15.8091 10.6892 24.7326
# 2 44.3785 220.6967 87.9100 -15.0931 -5.2865 45.7738
# 3 33.7589 87.9100 154.5475 -22.7186 -0.7254 29.1588
# 4 -15.8091 -15.0931 -22.7186 65.1285 3.2982 -15.4222
# 5 10.6892 -5.2865 -0.7254 3.2982 39.3939 -8.1256
# 6 24.7326 45.7738 29.1588 -15.4222 -8.1256 58.9844
#
#
#
# Elastic Compliance Matrix: (Units=1/GPa)
#
#
# Indices 1 2 3 4 5 6 
#
# 1 0.011050 -0.001133 -0.000916 0.001482 -0.004006 -0.003466
# 2 -0.001133 0.006589 -0.002970 -0.000580 0.000515 -0.003251
# 3 -0.000916 -0.002970 0.008876 0.001909 -0.000405 -0.001255
# 4 0.001482 -0.000580 0.001909 0.017060 -0.001218 0.003178
# 5 -0.004006 0.000515 -0.000405 -0.001218 0.027661 0.004973
# 6 -0.003466 -0.003251 -0.001255 0.003178 0.004973 0.023066
#
#
# Mechanical properties :
#
#
# Convention : Reuss Voigt Hill
#
# Bulk Modulus (GPa) = 60.69423 90.99329 75.84376
# Shear Modulus (GPa) = 45.52463 54.08787 49.80625
#
# Velocity S-wave (km/s) = 4.10918 4.47901 4.29808
# Velocity P-wave (km/s) = 6.71012 7.77809 7.26376
#
# Compressibility (1/GPa) = 0.01647603
#
# Stress axis : x y z
#
# Youngs Moduli (GPa) = 90.49880 151.77349 112.66900
#
# Poissons Ratio (x) = 0.17192 0.10325
# Poissons Ratio (y) = 0.10251 0.33462
# Poissons Ratio (z) = 0.08294 0.45076
#
# Static dielectric constant tensor:
#      x y z
#    x 2.302480 -0.201750 -0.092960 
#    y -0.201750 2.225680 -0.016090 
#    z -0.092960 -0.016090 2.058400 
# 
# From -- ./inp_files/224364.got.cif
#   From: 2010.05.17/outbox.cif.g08.bks.cpg/sg2_113_cif.got.tgz:224364.got - 2010.06.03 11:33:40.
