data_PCOD9016334
_publ_section_title
;
Structure prediction by ZEFSAII (Michael W. Deem and Ramdas Pophale) SiO2 
 PCOD9016334
Probable space group: P -1
;
_chemical_formula_sum "Si O2"
_cell_formula_units_Z 10
_cell_length_a 21.349066
_cell_length_b 11.726691
_cell_length_c 13.260310
_cell_angle_alpha 22.249099
_cell_angle_beta 22.142415
_cell_angle_gamma 24.411535
_cell_volume 439.466984
_symmetry_space_group_name_H-M "P -1"
_symmetry_group_IT_number 2
_symmetry_cell_setting 'triclinic'
loop_
_space_group_symop_operation_xyz
x,y,z
-x,-y,-z
loop_
_atom_site_type_symbol
_atom_site_label
_atom_site_fract_x
_atom_site_fract_y
_atom_site_fract_z
Si Si1 0.953244 0.216326 0.249303
Si Si2 0.042726 0.498854 0.686006
Si Si3 0.424205 0.382192 0.551205
Si Si4 0.665278 0.661752 0.046659
Si Si5 0.549878 0.810434 0.686569
O O1 0.739192 0.323234 0.495264
O O2 0.041797 0.839782 0.454809
O O3 0.000000 0.500000 0.000000
O O4 0.008571 0.263665 0.013116
O O5 0.239399 0.311969 0.503507
O O6 0.872089 0.617520 0.767705
O O7 0.612317 0.427391 0.242426
O O8 0.360371 0.396038 0.750009
O O9 0.444610 0.056882 0.729110
O O10 0.500000 0.000000 0.000000
O O11 0.500000 0.000000 0.500000
O O12 0.500000 0.500000 0.000000
#
# Coordination Sequence:
#
# PCOD9016334 Si02
#       5
#     2   2   2   2   2
#     4  11  21  38  63  92 123 168 216 259 309 377
#     4  11  23  40  63  92 127 165 212 261 319 377
#     4  10  23  40  66  94 130 170 213 268 316 375
#     4  10  21  42  67  94 126 167 224 266 308 373
#     4  12  27  45  64  97 136 169 208 265 329 387
#
# _framework density 22.754837999999999
#
# number of rings (size 3 to 8) (size 9 to 14) (size 15 to 20)
#    0.000    1.200    2.000    4.200    2.800    2.400 
#    0.000    1.000    0.000    0.000    0.000    0.000 
#    0.000    0.000    0.000    0.000    0.000    0.000 
#
# Total GULP energy -55824.094448 kJ/mol
# GULP energy per Si atom -5582.409445 kJ/mol
# Density = 2.270305 g / cm^3
# Si number density = 22.754838 Si / 1000 Ang^3
#
#
#
# Elastic Constant Matrix: (Units=GPa)
#
#
# Indices 1 2 3 4 5 6 
#
# 1 46.3504 8.6968 17.5013 -3.3694 -14.4433 -7.1685
# 2 8.6968 103.1877 18.8265 1.3751 -6.2531 -10.8214
# 3 17.5013 18.8265 93.2982 -9.3430 -8.9934 -5.4673
# 4 -3.3694 1.3751 -9.3430 46.2657 -12.3199 -15.5143
# 5 -14.4433 -6.2531 -8.9934 -12.3199 33.4338 -5.0487
# 6 -7.1685 -10.8214 -5.4673 -15.5143 -5.0487 37.7680
#
#
#
# Elastic Compliance Matrix: (Units=1/GPa)
#
#
# Indices 1 2 3 4 5 6 
#
# 1 0.031005 0.000104 -0.002171 0.011077 0.018824 0.012667
# 2 0.000104 0.010493 -0.001531 0.001335 0.002647 0.003707
# 3 -0.002171 -0.001531 0.012550 0.004790 0.004449 0.003528
# 4 0.011077 0.001335 0.004790 0.036626 0.023036 0.021303
# 5 0.018824 0.002647 0.004449 0.023036 0.051441 0.021315
# 6 0.012667 0.003707 0.003528 0.021303 0.021315 0.042054
#
#
# Mechanical properties :
#
#
# Convention : Reuss Voigt Hill
#
# Bulk Modulus (GPa) = 21.34359 36.98727 29.16543
# Shear Modulus (GPa) = 24.15676 36.68095 30.41886
#
# Velocity S-wave (km/s) = 3.26177 4.01934 3.66021
# Velocity P-wave (km/s) = 4.85651 6.15061 5.54147
#
# Compressibility (1/GPa) = 0.04685247
#
# Stress axis : x y z
#
# Youngs Moduli (GPa) = 32.25299 95.30196 79.68270
#
# Poissons Ratio (x) = -0.00995 0.17300
# Poissons Ratio (y) = -0.00337 0.12199
# Poissons Ratio (z) = 0.07003 0.14590
#
# Static dielectric constant tensor:
#      x y z
#    x 1.919990 -0.032010 -0.048030 
#    y -0.032010 1.852030 0.034660 
#    z -0.048030 0.034660 1.949510 
# 
# From -- ./inp_files/16427.got.cif
#   From: 2010.05.17/outbox.cif.g08.bks.cpg/sg2_9_cif.got.tgz:16427.got - 2010.06.03 11:33:40.
