data_PCOD9016423
_publ_section_title
;
Structure prediction by ZEFSAII (Michael W. Deem and Ramdas Pophale) SiO2 
 PCOD9016423
Probable space group: P -1
;
_chemical_formula_sum "Si O2"
_cell_formula_units_Z 16
_cell_length_a 12.039395
_cell_length_b 5.866291
_cell_length_c 11.701027
_cell_angle_alpha 101.973796
_cell_angle_beta 80.245860
_cell_angle_gamma 61.705665
_cell_volume 676.570290
_symmetry_space_group_name_H-M "P -1"
_symmetry_group_IT_number 2
_symmetry_cell_setting 'triclinic'
loop_
_space_group_symop_operation_xyz
x,y,z
-x,-y,-z
loop_
_atom_site_type_symbol
_atom_site_label
_atom_site_fract_x
_atom_site_fract_y
_atom_site_fract_z
Si Si1 0.077391 0.847996 0.354069
Si Si2 0.333851 0.306987 0.006740
Si Si3 0.142749 0.299707 0.396453
Si Si4 0.471598 0.252184 0.187942
Si Si5 0.575038 0.942246 0.599834
Si Si6 0.648236 0.484884 0.205555
Si Si7 0.091449 0.861877 0.796458
Si Si8 0.907977 0.762996 0.966687
O O1 0.147918 0.520505 0.332678
O O2 0.149465 0.018108 0.329718
O O3 0.000000 0.000000 0.500000
O O4 0.973422 0.935527 0.277346
O O5 0.287792 0.491040 0.920697
O O6 0.469838 0.052044 0.904606
O O7 0.366317 0.426330 0.124742
O O8 0.223455 0.233921 0.045390
O O9 0.268743 0.180330 0.446533
O O10 0.000000 0.500000 0.500000
O O11 0.432648 0.259215 0.326852
O O12 0.595677 0.286077 0.171203
O O13 0.500000 0.000000 0.500000
O O14 0.487184 0.238794 0.705647
O O15 0.759078 0.391737 0.274828
O O16 0.991793 0.770798 0.847070
O O17 0.114776 0.005339 0.914912
O O18 0.000000 0.500000 0.000000
#
# Coordination Sequence:
#
# PCOD9016423 Si02
#       8
#     2   2   2   2   2   2   2   2
#     4  10  25  46  76 107 145 193 247 301 371 444
#     4  10  21  42  67  97 137 183 235 296 361 438
#     4  10  25  50  73 105 144 193 245 304 370 434
#     4  10  23  42  67  97 138 186 232 292 363 443
#     4  11  28  46  70 105 141 192 244 305 368 442
#     4  11  23  44  70 102 142 187 243 297 375 440
#     4  11  25  41  71 107 141 197 238 310 372 439
#     4  11  23  42  66 104 142 183 245 301 366 439
#
# _framework density 23.648686000000001
#
# number of rings (size 3 to 8) (size 9 to 14) (size 15 to 20)
#    0.000    1.500    2.500    0.375    8.750    2.500 
#    0.000    0.000    0.000    0.000    0.000    0.000 
#    0.000    0.000    0.000    0.000    0.000    0.000 
#
# Total GULP energy -89175.885037 kJ/mol
# GULP energy per Si atom -5573.492815 kJ/mol
# Density = 2.359486 g / cm^3
# Si number density = 23.648686 Si / 1000 Ang^3
#
#
#
# Elastic Constant Matrix: (Units=GPa)
#
#
# Indices 1 2 3 4 5 6 
#
# 1 135.7288 22.4898 42.0930 -19.6519 8.3157 -23.6651
# 2 22.4898 112.9781 30.8108 -20.8867 7.8735 -12.8550
# 3 42.0930 30.8108 89.9671 -20.8904 14.4989 -9.9700
# 4 -19.6519 -20.8867 -20.8904 29.6509 -14.9194 5.1056
# 5 8.3157 7.8735 14.4989 -14.9194 27.9530 -5.4877
# 6 -23.6651 -12.8550 -9.9700 5.1056 -5.4877 45.1295
#
#
#
# Elastic Compliance Matrix: (Units=1/GPa)
#
#
# Indices 1 2 3 4 5 6 
#
# 1 0.009624 0.000150 -0.003405 0.004391 0.002007 0.004084
# 2 0.000150 0.010799 -0.002299 0.006804 0.002158 0.002139
# 3 -0.003405 -0.002299 0.015240 0.005093 -0.003542 -0.000080
# 4 0.004391 0.006804 0.005093 0.057317 0.025108 0.001934
# 5 0.002007 0.002158 -0.003542 0.025108 0.050632 0.004201
# 6 0.004084 0.002139 -0.000080 0.001934 0.004201 0.025184
#
#
# Mechanical properties :
#
#
# Convention : Reuss Voigt Hill
#
# Bulk Modulus (GPa) = 40.72682 58.82903 49.77793
# Shear Modulus (GPa) = 26.58293 36.76536 31.67414
#
# Velocity S-wave (km/s) = 3.35636 3.94718 3.66370
# Velocity P-wave (km/s) = 5.68148 6.76046 6.24432
#
# Compressibility (1/GPa) = 0.02455384
#
# Stress axis : x y z
#
# Youngs Moduli (GPa) = 103.90917 92.59742 65.61637
#
# Poissons Ratio (x) = -0.01385 0.22343
# Poissons Ratio (y) = -0.01554 0.15087
# Poissons Ratio (z) = 0.35382 0.21290
#
# Static dielectric constant tensor:
#      x y z
#    x 2.068600 -0.133250 -0.104810 
#    y -0.133250 2.159680 0.100100 
#    z -0.104810 0.100100 1.993330 
# 
# From -- ./inp_files/410804.got.cif
#   From: 2010.05.17/outbox.cif.g08.bks.cpg/sg2_206_cif.got.tgz:410804.got - 2010.06.03 11:33:40.
