data_PCOD9016519
_publ_section_title
;
Structure prediction by ZEFSAII (Michael W. Deem and Ramdas Pophale) SiO2 
 PCOD9016519
Probable space group: P -1
;
_chemical_formula_sum "Si O2"
_cell_formula_units_Z 15
_cell_length_a 6.072019
_cell_length_b 16.848713
_cell_length_c 9.876261
_cell_angle_alpha 133.227609
_cell_angle_beta 123.070181
_cell_angle_gamma 59.735849
_cell_volume 602.747674
_symmetry_space_group_name_H-M "P -1"
_symmetry_group_IT_number 2
_symmetry_cell_setting 'triclinic'
loop_
_space_group_symop_operation_xyz
x,y,z
-x,-y,-z
loop_
_atom_site_type_symbol
_atom_site_label
_atom_site_fract_x
_atom_site_fract_y
_atom_site_fract_z
Si Si1 0.764524 0.378178 0.248400
Si Si2 0.000000 0.000000 0.000000
Si Si3 0.812339 0.176445 0.391473
Si Si4 0.249223 0.049756 0.574476
Si Si5 0.377501 0.217968 0.995104
Si Si6 0.888441 0.408790 0.014799
Si Si7 0.747803 0.791993 0.744578
Si Si8 0.294488 0.570968 0.318085
O O1 0.783845 0.395337 0.114008
O O2 0.572124 0.491280 0.367534
O O3 0.055413 0.328354 0.353032
O O4 0.610702 0.278111 0.100561
O O5 0.887899 0.894764 0.897152
O O6 0.136641 0.916751 0.817717
O O7 0.540562 0.177209 0.388561
O O8 0.767906 0.307680 0.494718
O O9 0.076346 0.144655 0.532883
O O10 0.404791 0.095592 0.802317
O O11 0.500000 0.000000 0.500000
O O12 0.000000 0.000000 0.500000
O O13 0.336826 0.216109 0.137858
O O14 0.111279 0.296143 0.937164
O O15 0.051176 0.508049 0.186631
O O16 0.696969 0.419129 0.832236
#
# Coordination Sequence:
#
# PCOD9016519 Si02
#       8
#     2   1   2   2   2   2   2   2
#     4  10  22  41  75 106 144 198 241 308 384 464
#     4  12  28  50  70 100 142 208 252 308 378 456
#     4  12  28  47  73 106 151 195 256 314 381 460
#     4  12  30  48  75 114 149 197 267 330 384 456
#     4  10  22  46  71 104 145 195 248 313 379 449
#     4   9  19  40  69 105 150 186 237 302 392 450
#     4  11  26  47  74 101 146 203 250 306 387 456
#     4  10  21  42  68 111 150 188 246 308 379 458
#
# _framework density 24.886037000000002
#
# number of rings (size 3 to 8) (size 9 to 14) (size 15 to 20)
#    0.000    1.333    1.333    2.400    9.333    1.600 
#    0.000    9.333    0.000    0.000    0.000    0.000 
#    0.000    0.000    0.000    0.000    0.000    0.000 
#
# Total GULP energy -83551.334300 kJ/mol
# GULP energy per Si atom -5570.088953 kJ/mol
# Density = 2.482940 g / cm^3
# Si number density = 24.886037 Si / 1000 Ang^3
#
#
#
# Elastic Constant Matrix: (Units=GPa)
#
#
# Indices 1 2 3 4 5 6 
#
# 1 134.0715 51.6194 26.8782 0.5557 4.1647 12.0285
# 2 51.6194 102.8130 32.7528 12.5771 2.0823 -28.1396
# 3 26.8782 32.7528 63.9654 6.1449 -3.9873 -3.6791
# 4 0.5557 12.5771 6.1449 23.6538 9.9941 2.2142
# 5 4.1647 2.0823 -3.9873 9.9941 22.7766 16.2400
# 6 12.0285 -28.1396 -3.6791 2.2142 16.2400 56.6160
#
#
#
# Elastic Compliance Matrix: (Units=1/GPa)
#
#
# Indices 1 2 3 4 5 6 
#
# 1 0.011223 -0.007535 -0.001569 0.004215 0.001349 -0.006783
# 2 -0.007535 0.020379 -0.006365 -0.006636 -0.008726 0.014079
# 3 -0.001569 -0.006365 0.020478 -0.005689 0.009882 -0.004112
# 4 0.004215 -0.006636 -0.005689 0.058803 -0.027743 0.001095
# 5 0.001349 -0.008726 0.009882 -0.027743 0.075960 -0.024685
# 6 -0.006783 0.014079 -0.004112 0.001095 -0.024685 0.032872
#
#
# Mechanical properties :
#
#
# Convention : Reuss Voigt Hill
#
# Bulk Modulus (GPa) = 47.29884 58.15009 52.72446
# Shear Modulus (GPa) = 19.40234 33.24925 26.32579
#
# Velocity S-wave (km/s) = 2.79525 3.65918 3.25600
# Velocity P-wave (km/s) = 5.42820 6.42418 5.94707
#
# Compressibility (1/GPa) = 0.02114217
#
# Stress axis : x y z
#
# Youngs Moduli (GPa) = 89.09990 49.07049 48.83263
#
# Poissons Ratio (x) = 0.36972 0.07662
# Poissons Ratio (y) = 0.67133 0.31084
# Poissons Ratio (z) = 0.13980 0.31236
#
# Static dielectric constant tensor:
#      x y z
#    x 2.033470 -0.070400 0.013940 
#    y -0.070400 1.957910 0.054260 
#    z 0.013940 0.054260 1.956960 
# 
# From -- ./inp_files/369219.got.cif
#   From: 2010.05.17/outbox.cif.g08.bks.cpg/sg2_185_cif.got.tgz:369219.got - 2010.06.03 11:33:40.
