data_PCOD9016296
_publ_section_title
;
Structure prediction by ZEFSAII (Michael W. Deem and Ramdas Pophale) SiO2 
 PCOD9016296
Probable space group: P -1
;
_chemical_formula_sum "Si O2"
_cell_formula_units_Z 16
_cell_length_a 8.768232
_cell_length_b 12.114618
_cell_length_c 18.054720
_cell_angle_alpha 31.366427
_cell_angle_beta 130.660049
_cell_angle_gamma 126.249738
_cell_volume 754.290486
_symmetry_space_group_name_H-M "P -1"
_symmetry_group_IT_number 2
_symmetry_cell_setting 'triclinic'
loop_
_space_group_symop_operation_xyz
x,y,z
-x,-y,-z
loop_
_atom_site_type_symbol
_atom_site_label
_atom_site_fract_x
_atom_site_fract_y
_atom_site_fract_z
Si Si1 0.190914 0.847497 0.035422
Si Si2 0.426427 0.281157 0.856035
Si Si3 0.380579 0.000209 0.386202
Si Si4 0.438604 0.771728 0.903428
Si Si5 0.189306 0.575707 0.331450
Si Si6 0.124851 0.598330 0.552712
Si Si7 0.768637 0.658260 0.955081
Si Si8 0.447955 0.207867 0.583412
O O1 0.399922 0.765931 0.119424
O O2 0.156003 0.762635 0.156347
O O3 0.998323 0.749821 0.985156
O O4 0.236440 0.100739 0.896799
O O5 0.338989 0.500266 0.682748
O O6 0.517624 0.263518 0.976679
O O7 0.173558 0.849134 0.415523
O O8 0.507502 0.899135 0.418936
O O9 0.500000 0.000000 0.500000
O O10 0.330082 0.229676 0.209943
O O11 0.639520 0.727860 0.945211
O O12 0.388842 0.011151 0.733081
O O13 0.268342 0.594245 0.922113
O O14 0.289798 0.384044 0.431981
O O15 0.346232 0.672654 0.387361
O O16 0.993229 0.473640 0.369309
O O17 0.000000 0.500000 0.500000
#
# Coordination Sequence:
#
# PCOD9016296 Si02
#       8
#     2   2   2   2   2   2   2   2
#     4  11  24  40  62  97 131 168 215 269 328 380
#     4  11  24  39  63  93 129 170 217 269 322 384
#     4  11  23  43  66  96 134 172 212 268 325 389
#     4  10  21  42  67  92 127 169 213 264 320 395
#     4  11  23  40  66  94 132 168 216 272 321 386
#     4  12  24  39  65  95 124 170 226 267 319 388
#     4  10  23  41  65  96 131 169 214 263 326 389
#     4  10  22  41  65  95 130 172 211 267 331 380
#
# _framework density 21.211984999999999
#
# number of rings (size 3 to 8) (size 9 to 14) (size 15 to 20)
#    0.000    1.250    2.500    3.000    3.500    4.500 
#    0.000    3.750    0.000    0.000    0.000    0.000 
#    0.000    0.000    0.000    0.000    0.000    0.000 
#
# Total GULP energy -89494.032556 kJ/mol
# GULP energy per Si atom -5593.377035 kJ/mol
# Density = 2.116371 g / cm^3
# Si number density = 21.211985 Si / 1000 Ang^3
#
#
#
# Elastic Constant Matrix: (Units=GPa)
#
#
# Indices 1 2 3 4 5 6 
#
# 1 44.7680 8.5782 6.5731 2.2555 -16.9082 4.1926
# 2 8.5782 72.2667 -5.5072 -3.6589 -0.0629 7.2610
# 3 6.5731 -5.5072 57.6248 -5.9977 -9.0821 -3.7966
# 4 2.2555 -3.6589 -5.9977 40.9554 -3.6422 -9.8639
# 5 -16.9082 -0.0629 -9.0821 -3.6422 29.2442 1.4807
# 6 4.1926 7.2610 -3.7966 -9.8639 1.4807 25.7481
#
#
#
# Elastic Compliance Matrix: (Units=1/GPa)
#
#
# Indices 1 2 3 4 5 6 
#
# 1 0.030314 -0.003211 -0.001706 -0.002158 0.017029 -0.006088
# 2 -0.003211 0.014677 0.001491 0.000888 -0.001100 -0.002993
# 3 -0.001706 0.001491 0.019277 0.004520 0.005357 0.004123
# 4 -0.002158 0.000888 0.004520 0.028307 0.003104 0.011433
# 5 0.017029 -0.001100 0.005357 0.003104 0.046248 -0.003143
# 6 -0.006088 -0.002993 0.004123 0.011433 -0.003143 0.045842
#
#
# Mechanical properties :
#
#
# Convention : Reuss Voigt Hill
#
# Bulk Modulus (GPa) = 17.41715 21.54975 19.48345
# Shear Modulus (GPa) = 23.73537 30.19055 26.96296
#
# Velocity S-wave (km/s) = 3.34872 3.77673 3.56914
# Velocity P-wave (km/s) = 4.81463 5.40366 5.11763
#
# Compressibility (1/GPa) = 0.05741466
#
# Stress axis : x y z
#
# Youngs Moduli (GPa) = 32.98826 68.13333 51.87467
#
# Poissons Ratio (x) = 0.21878 0.08852
# Poissons Ratio (y) = 0.10593 -0.07734
# Poissons Ratio (z) = 0.05629 -0.10157
#
# Static dielectric constant tensor:
#      x y z
#    x 1.758020 -0.002060 -0.004480 
#    y -0.002060 1.743680 -0.015480 
#    z -0.004480 -0.015480 1.741330 
# 
# From -- ./inp_files/462409.got.cif
#   From: 2010.05.17/outbox.cif.g08.bks.cpg/sg2_232_cif.got.tgz:462409.got - 2010.06.03 11:33:40.
