data_PCOD9016836
_publ_section_title
;
Structure prediction by ZEFSAII (Michael W. Deem and Ramdas Pophale) SiO2 
 PCOD9016836
Probable space group: P -1
;
_chemical_formula_sum "Si O2"
_cell_formula_units_Z 14
_cell_length_a 9.340616
_cell_length_b 10.820516
_cell_length_c 13.147233
_cell_angle_alpha 79.360267
_cell_angle_beta 30.228348
_cell_angle_gamma 93.192243
_cell_volume 592.025449
_symmetry_space_group_name_H-M "P -1"
_symmetry_group_IT_number 2
_symmetry_cell_setting 'triclinic'
loop_
_space_group_symop_operation_xyz
x,y,z
-x,-y,-z
loop_
_atom_site_type_symbol
_atom_site_label
_atom_site_fract_x
_atom_site_fract_y
_atom_site_fract_z
Si Si1 0.671555 0.858185 0.206579
Si Si2 0.533921 0.315681 0.249502
Si Si3 0.824029 0.424856 0.848323
Si Si4 0.322319 0.837281 0.631949
Si Si5 0.733918 0.695921 0.904775
Si Si6 0.929198 0.137506 0.526931
Si Si7 0.525453 0.553358 0.358214
O O1 0.473674 0.808532 0.441840
O O2 0.435927 0.885110 0.265273
O O3 0.712640 0.715465 0.192280
O O4 0.000000 0.000000 0.000000
O O5 0.601632 0.223708 0.305283
O O6 0.610489 0.458612 0.242210
O O7 0.162405 0.234490 0.457972
O O8 0.751857 0.337055 0.011395
O O9 0.722410 0.543063 0.933696
O O10 0.156422 0.510393 0.579423
O O11 0.617237 0.328601 0.898234
O O12 0.953977 0.786347 0.844195
O O13 0.500000 0.000000 0.500000
O O14 0.905880 0.772987 0.686182
O O15 0.000000 0.000000 0.500000
O O16 0.500000 0.500000 0.500000
#
# Coordination Sequence:
#
# PCOD9016836 Si02
#       7
#     2   2   2   2   2   2   2
#     4  11  25  47  67 100 150 186 222 298 365 403
#     4  11  24  41  75 107 128 188 239 281 365 411
#     4  10  21  42  69  95 137 173 226 290 353 405
#     4  11  22  43  65  97 140 179 236 281 347 438
#     4   9  19  39  63  95 130 173 224 281 344 404
#     4  10  21  44  70  99 140 187 238 285 345 435
#     4  12  24  45  70 103 148 172 235 305 337 429
#
# _framework density 23.647631000000001
#
# number of rings (size 3 to 8) (size 9 to 14) (size 15 to 20)
#    0.000    1.429    4.286    1.714    0.000    7.429 
#    2.571    0.714    0.000    0.000    0.000    0.000 
#    0.000    0.000    0.000    0.000    0.000    0.000 
#
# Total GULP energy -78001.217977 kJ/mol
# GULP energy per Si atom -5571.515570 kJ/mol
# Density = 2.359381 g / cm^3
# Si number density = 23.647631 Si / 1000 Ang^3
#
#
#
# Elastic Constant Matrix: (Units=GPa)
#
#
# Indices 1 2 3 4 5 6 
#
# 1 184.1768 71.8214 53.3935 -34.1504 -2.3957 -0.1660
# 2 71.8214 127.5804 33.2404 -38.0623 -9.7515 -6.3953
# 3 53.3935 33.2404 85.7380 -14.9240 -3.6869 9.5705
# 4 -34.1504 -38.0623 -14.9240 38.0535 9.1518 -3.7736
# 5 -2.3957 -9.7515 -3.6869 9.1518 39.8788 -12.7331
# 6 -0.1660 -6.3953 9.5705 -3.7736 -12.7331 28.3143
#
#
#
# Elastic Compliance Matrix: (Units=1/GPa)
#
#
# Indices 1 2 3 4 5 6 
#
# 1 0.008138 -0.002637 -0.003535 0.003609 -0.001110 0.000629
# 2 -0.002637 0.013522 -0.002424 0.010212 0.002624 0.006399
# 3 -0.003535 -0.002424 0.015495 0.000195 -0.001475 -0.006443
# 4 0.003609 0.010212 0.000195 0.041569 -0.005040 0.005535
# 5 -0.001110 0.002624 -0.001475 -0.005040 0.031297 0.014487
# 6 0.000629 0.006399 -0.006443 0.005535 0.014487 0.046197
#
#
# Mechanical properties :
#
#
# Convention : Reuss Voigt Hill
#
# Bulk Modulus (GPa) = 50.09647 79.37842 64.73745
# Shear Modulus (GPa) = 27.76773 37.18532 32.47652
#
# Velocity S-wave (km/s) = 3.43042 3.96975 3.70990
# Velocity P-wave (km/s) = 6.07626 7.39269 6.76657
#
# Compressibility (1/GPa) = 0.01996149
#
# Stress axis : x y z
#
# Youngs Moduli (GPa) = 122.87993 73.95292 64.53804
#
# Poissons Ratio (x) = 0.19501 0.22817
# Poissons Ratio (y) = 0.32402 0.15646
# Poissons Ratio (z) = 0.43444 0.17929
#
# Static dielectric constant tensor:
#      x y z
#    x 1.681230 -0.105770 -0.506230 
#    y -0.105770 2.612740 0.000970 
#    z -0.506230 0.000970 1.745220 
# 
# From -- ./inp_files/389922.got.cif
#   From: 2010.05.17/outbox.cif.g08.bks.cpg/sg2_195_cif.got.tgz:389922.got - 2010.06.03 11:33:40.
