data_PCOD9016203
_publ_section_title
;
Structure prediction by ZEFSAII (Michael W. Deem and Ramdas Pophale) SiO2 
 PCOD9016203
Probable space group: P -1
;
_chemical_formula_sum "Si O2"
_cell_formula_units_Z 16
_cell_length_a 24.223969
_cell_length_b 21.299381
_cell_length_c 8.944315
_cell_angle_alpha 151.229335
_cell_angle_beta 151.500939
_cell_angle_gamma 22.036615
_cell_volume 775.162281
_symmetry_space_group_name_H-M "P -1"
_symmetry_group_IT_number 2
_symmetry_cell_setting 'triclinic'
loop_
_space_group_symop_operation_xyz
x,y,z
-x,-y,-z
loop_
_atom_site_type_symbol
_atom_site_label
_atom_site_fract_x
_atom_site_fract_y
_atom_site_fract_z
Si Si1 0.620279 0.303816 0.455408
Si Si2 0.576496 0.050395 0.676392
Si Si3 0.889542 0.310031 0.669264
Si Si4 0.085509 0.244169 0.283918
Si Si5 0.444449 0.179378 0.306174
Si Si6 0.923429 0.522079 0.018195
Si Si7 0.482081 0.384992 0.621372
Si Si8 0.988027 0.056152 0.760570
O O1 0.500000 0.500000 0.500000
O O2 0.579791 0.321153 0.569251
O O3 0.802075 0.209878 0.673929
O O4 0.602688 0.171510 0.068469
O O5 0.472593 0.157889 0.505468
O O6 0.500000 0.000000 0.500000
O O7 0.745483 0.873505 0.641818
O O8 0.702751 0.478146 0.578771
O O9 0.968039 0.343752 0.804832
O O10 0.931406 0.128682 0.353025
O O11 0.959662 0.304695 0.982907
O O12 0.044490 0.401969 0.612262
O O13 0.079561 0.122388 0.124682
O O14 0.525920 0.231622 0.514017
O O15 0.261877 0.333281 0.154061
O O16 0.500000 0.000000 0.000000
O O17 0.000000 0.500000 0.000000
O O18 0.500000 0.500000 0.000000
O O19 0.000000 0.000000 0.500000
#
# Coordination Sequence:
#
# PCOD9016203 Si02
#       8
#     2   2   2   2   2   2   2   2
#     4  12  24  43  73 105 136 179 239 284 333 419
#     4  12  26  43  74 104 131 184 239 285 344 414
#     4  10  23  44  70  96 139 178 231 280 345 408
#     4  11  23  45  71  98 137 181 228 286 341 403
#     4  11  24  44  65  95 144 178 224 284 354 401
#     4  11  26  42  65 100 138 184 225 282 340 409
#     4  11  26  43  68 101 140 182 220 288 352 402
#     4  10  21  42  67 100 133 171 224 286 342 392
#
# _framework density 20.640840000000001
#
# number of rings (size 3 to 8) (size 9 to 14) (size 15 to 20)
#    0.000    1.000    3.750    3.375    5.250    5.000 
#    0.000    1.250    0.000    0.000    0.000    0.000 
#    0.000    0.000    0.000    0.000    0.000    0.000 
#
# Total GULP energy -89401.491611 kJ/mol
# GULP energy per Si atom -5587.593226 kJ/mol
# Density = 2.059386 g / cm^3
# Si number density = 20.640840 Si / 1000 Ang^3
#
#
#
# Elastic Constant Matrix: (Units=GPa)
#
#
# Indices 1 2 3 4 5 6 
#
# 1 170.3703 47.1998 49.7729 17.3075 25.3232 2.9402
# 2 47.1998 72.0274 10.7948 4.5024 13.7230 2.6800
# 3 49.7729 10.7948 68.9667 6.4155 10.8350 5.9895
# 4 17.3075 4.5024 6.4155 40.0800 10.9289 3.7169
# 5 25.3232 13.7230 10.8350 10.9289 39.7200 0.9498
# 6 2.9402 2.6800 5.9895 3.7169 0.9498 40.8141
#
#
#
# Elastic Compliance Matrix: (Units=1/GPa)
#
#
# Indices 1 2 3 4 5 6 
#
# 1 0.009326 -0.004755 -0.005501 -0.002063 -0.002252 0.000688
# 2 -0.004755 0.017472 0.001258 0.000960 -0.003588 -0.000993
# 3 -0.005501 0.001258 0.018795 -0.000008 -0.001995 -0.002397
# 4 -0.002063 0.000960 -0.000008 0.027744 -0.006594 -0.002286
# 5 -0.002252 -0.003588 -0.001995 -0.006594 0.030196 0.000588
# 6 0.000688 -0.000993 -0.002397 -0.002286 0.000588 0.025063
#
#
# Mechanical properties :
#
#
# Convention : Reuss Voigt Hill
#
# Bulk Modulus (GPa) = 36.23563 58.54438 47.39000
# Shear Modulus (GPa) = 32.09437 37.69594 34.89516
#
# Velocity S-wave (km/s) = 3.94750 4.27814 4.11614
# Velocity P-wave (km/s) = 6.19438 7.26830 6.75272
#
# Compressibility (1/GPa) = 0.02759715
#
# Stress axis : x y z
#
# Youngs Moduli (GPa) = 107.22586 57.23586 53.20561
#
# Poissons Ratio (x) = 0.27214 0.29266
# Poissons Ratio (y) = 0.50983 -0.06691
# Poissons Ratio (z) = 0.58980 -0.07198
#
# Static dielectric constant tensor:
#      x y z
#    x 1.754380 0.042530 0.045890 
#    y 0.042530 1.722310 0.016530 
#    z 0.045890 0.016530 1.734140 
# 
# From -- ./inp_files/355336.got.cif
#   From: 2010.05.17/outbox.cif.g08.bks.cpg/sg2_178_cif.got.tgz:355336.got - 2010.06.03 11:33:40.
