data_PCOD9016591
_publ_section_title
;
Structure prediction by ZEFSAII (Michael W. Deem and Ramdas Pophale) SiO2 
 PCOD9016591
Probable space group: P -1
;
_chemical_formula_sum "Si O2"
_cell_formula_units_Z 14
_cell_length_a 16.437915
_cell_length_b 5.217129
_cell_length_c 6.794631
_cell_angle_alpha 70.715950
_cell_angle_beta 92.489823
_cell_angle_gamma 74.880502
_cell_volume 525.570016
_symmetry_space_group_name_H-M "P -1"
_symmetry_group_IT_number 2
_symmetry_cell_setting 'triclinic'
loop_
_space_group_symop_operation_xyz
x,y,z
-x,-y,-z
loop_
_atom_site_type_symbol
_atom_site_label
_atom_site_fract_x
_atom_site_fract_y
_atom_site_fract_z
Si Si1 0.630386 0.114406 0.650886
Si Si2 0.051857 0.727627 0.955327
Si Si3 0.188205 0.241221 0.216233
Si Si4 0.158973 0.821141 0.606525
Si Si5 0.669397 0.586062 0.310451
Si Si6 0.452209 0.261025 0.068845
Si Si7 0.279136 0.941519 0.927879
O O1 0.614941 0.405064 0.455650
O O2 0.657247 0.204455 0.849181
O O3 0.717724 0.880574 0.654489
O O4 0.565425 0.926669 0.703992
O O5 0.137971 0.569161 0.126496
O O6 0.079353 0.779367 0.724024
O O7 0.000000 0.500000 0.000000
O O8 0.000000 0.000000 0.000000
O O9 0.137326 0.066343 0.379740
O O10 0.208163 0.157283 0.010283
O O11 0.231832 0.558708 0.586039
O O12 0.217518 0.871690 0.779610
O O13 0.640835 0.584558 0.077573
O O14 0.661555 0.916702 0.235008
O O15 0.500000 0.500000 0.000000
O O16 0.500000 0.000000 0.000000
#
# Coordination Sequence:
#
# PCOD9016591 Si02
#       7
#     2   2   2   2   2   2   2
#     4   8  20  43  67  98 124 173 224 275 320 390
#     4  12  26  44  66  96 140 178 214 274 337 401
#     4   9  21  44  66 100 123 169 230 270 322 392
#     4  11  22  42  72  94 126 176 223 274 330 387
#     4  10  21  42  68  95 127 171 226 273 323 389
#     4  11  25  42  64  95 140 177 213 271 333 397
#     4   9  19  39  65  98 127 160 220 281 327 374
#
# _framework density 26.637746
#
# number of rings (size 3 to 8) (size 9 to 14) (size 15 to 20)
#    0.857    1.143    1.429    0.857    4.000    3.429 
#    7.714    0.000    0.000    0.000    0.000    0.000 
#    0.000    0.000    0.000    0.000    0.000    0.000 
#
# Total GULP energy -78021.113343 kJ/mol
# GULP energy per Si atom -5572.936667 kJ/mol
# Density = 2.657712 g / cm^3
# Si number density = 26.637746 Si / 1000 Ang^3
#
#
#
# Elastic Constant Matrix: (Units=GPa)
#
#
# Indices 1 2 3 4 5 6 
#
# 1 81.1548 18.0905 33.2180 -3.4039 -33.3708 9.0215
# 2 18.0905 80.6304 27.7996 -2.8183 -7.8018 8.0493
# 3 33.2180 27.7996 188.5220 -28.9006 -34.9610 10.9354
# 4 -3.4039 -2.8183 -28.9006 36.2091 17.2871 -6.1096
# 5 -33.3708 -7.8018 -34.9610 17.2871 71.4239 -11.4153
# 6 9.0215 8.0493 10.9354 -6.1096 -11.4153 48.0013
#
#
#
# Elastic Compliance Matrix: (Units=1/GPa)
#
#
# Indices 1 2 3 4 5 6 
#
# 1 0.016547 -0.002442 -0.001694 -0.003674 0.007359 -0.001032
# 2 -0.002442 0.013614 -0.001671 -0.000487 -0.000618 -0.001652
# 3 -0.001694 -0.001671 0.006775 0.004515 0.001237 -0.000076
# 4 -0.003674 -0.000487 0.004515 0.034877 -0.007623 0.002370
# 5 0.007359 -0.000618 0.001237 -0.007623 0.020185 0.002269
# 6 -0.001032 -0.001652 -0.000076 0.002370 0.002269 0.022162
#
#
# Mechanical properties :
#
#
# Convention : Reuss Voigt Hill
#
# Bulk Modulus (GPa) = 39.48963 56.50261 47.99612
# Shear Modulus (GPa) = 37.25377 49.20679 43.23028
#
# Velocity S-wave (km/s) = 3.74375 4.30264 4.03289
# Velocity P-wave (km/s) = 5.79176 6.77799 6.30419
#
# Compressibility (1/GPa) = 0.02532311
#
# Stress axis : x y z
#
# Youngs Moduli (GPa) = 60.43532 73.45227 147.59418
#
# Poissons Ratio (x) = 0.17935 0.25005
# Poissons Ratio (y) = 0.14756 0.24659
# Poissons Ratio (z) = 0.10239 0.12272
#
# Static dielectric constant tensor:
#      x y z
#    x 2.246070 -0.069180 -0.054500 
#    y -0.069180 2.383690 -0.045390 
#    z -0.054500 -0.045390 2.150640 
# 
# From -- ./inp_files/322110.got.cif
#   From: 2010.05.17/outbox.cif.g08.bks.cpg/sg2_162_cif.got.tgz:322110.got - 2010.06.03 11:33:40.
