data_PCOD9016268
_publ_section_title
;
Structure prediction by ZEFSAII (Michael W. Deem and Ramdas Pophale) SiO2 
 PCOD9016268
Probable space group: P -1
;
_chemical_formula_sum "Si O2"
_cell_formula_units_Z 14
_cell_length_a 11.215339
_cell_length_b 12.281607
_cell_length_c 8.651407
_cell_angle_alpha 47.454869
_cell_angle_beta 54.800446
_cell_angle_gamma 35.336968
_cell_volume 506.931542
_symmetry_space_group_name_H-M "P -1"
_symmetry_group_IT_number 2
_symmetry_cell_setting 'triclinic'
loop_
_space_group_symop_operation_xyz
x,y,z
-x,-y,-z
loop_
_atom_site_type_symbol
_atom_site_label
_atom_site_fract_x
_atom_site_fract_y
_atom_site_fract_z
Si Si1 0.825616 0.969532 0.709271
Si Si2 0.432389 0.088147 0.192874
Si Si3 0.700070 0.353392 0.593262
Si Si4 0.317880 0.266093 0.432314
Si Si5 0.833934 0.488718 0.145500
Si Si6 0.233346 0.901995 0.726287
Si Si7 0.141703 0.695453 0.179036
O O1 0.654256 0.963293 0.821995
O O2 0.039231 0.735104 0.811894
O O3 0.790811 0.128726 0.697688
O O4 0.816180 0.036739 0.476019
O O5 0.301782 0.189707 0.355615
O O6 0.643080 0.867824 0.318452
O O7 0.378053 0.290347 0.973949
O O8 0.500000 0.500000 0.500000
O O9 0.804790 0.434153 0.386109
O O10 0.677526 0.387424 0.756785
O O11 0.535701 0.202425 0.316863
O O12 0.149125 0.515287 0.324906
O O13 0.000000 0.500000 0.000000
O O14 0.198098 0.758041 0.935271
O O15 0.066213 0.103593 0.769708
#
# Coordination Sequence:
#
# PCOD9016268 Si02
#       7
#     2   2   2   2   2   2   2
#     4  10  21  44  67  94 131 181 218 270 336 406
#     4   9  21  40  67  91 125 178 224 263 327 402
#     4  12  25  40  69 102 138 170 224 284 334 398
#     4  10  21  42  67  89 135 177 221 273 338 393
#     4  10  22  41  69  93 130 179 224 265 335 402
#     4  10  22  40  66  95 133 174 223 271 339 403
#     4  11  24  39  64 104 132 167 226 283 332 396
#
# _framework density 27.617142999999999
#
# number of rings (size 3 to 8) (size 9 to 14) (size 15 to 20)
#    0.000    1.714    1.429    2.571    4.000    1.143 
#    0.000   12.857    3.143    0.000    0.000    0.000 
#    0.000    0.000    0.000    0.000    0.000    0.000 
#
# Total GULP energy -78257.183394 kJ/mol
# GULP energy per Si atom -5589.798814 kJ/mol
# Density = 2.755429 g / cm^3
# Si number density = 27.617143 Si / 1000 Ang^3
#
#
#
# Elastic Constant Matrix: (Units=GPa)
#
#
# Indices 1 2 3 4 5 6 
#
# 1 97.8099 17.1310 37.8237 8.8185 -0.7976 9.5560
# 2 17.1310 116.7307 54.5129 -39.4434 -7.6898 20.3495
# 3 37.8237 54.5129 183.1159 -36.9739 -4.2988 6.5291
# 4 8.8185 -39.4434 -36.9739 51.3591 -2.9940 -6.8152
# 5 -0.7976 -7.6898 -4.2988 -2.9940 29.3391 -6.0510
# 6 9.5560 20.3495 6.5291 -6.8152 -6.0510 44.4945
#
#
#
# Elastic Compliance Matrix: (Units=1/GPa)
#
#
# Indices 1 2 3 4 5 6 
#
# 1 0.012729 -0.002324 -0.003259 -0.006761 -0.001945 -0.002493
# 2 -0.002324 0.013687 -0.001444 0.009601 0.003551 -0.003595
# 3 -0.003259 -0.001444 0.007597 0.005166 0.001427 0.001231
# 4 -0.006761 0.009601 0.005166 0.032415 0.006851 0.002200
# 5 -0.001945 0.003551 0.001427 0.006851 0.036828 0.004642
# 6 -0.002493 -0.003595 0.001231 0.002200 0.004642 0.025442
#
#
# Mechanical properties :
#
#
# Convention : Reuss Voigt Hill
#
# Bulk Modulus (GPa) = 50.10733 68.51018 59.30876
# Shear Modulus (GPa) = 33.46609 44.25112 38.85861
#
# Velocity S-wave (km/s) = 3.48485 4.00722 3.75513
# Velocity P-wave (km/s) = 5.86304 6.80231 6.35006
#
# Compressibility (1/GPa) = 0.01995716
#
# Stress axis : x y z
#
# Youngs Moduli (GPa) = 78.56378 73.06150 131.63220
#
# Poissons Ratio (x) = 0.16980 0.42901
# Poissons Ratio (y) = 0.18258 0.19014
# Poissons Ratio (z) = 0.25605 0.10554
#
# Static dielectric constant tensor:
#      x y z
#    x 2.165290 -0.142860 -0.069050 
#    y -0.142860 2.271200 0.030040 
#    z -0.069050 0.030040 2.298330 
# 
# From -- ./inp_files/261446.got.cif
#   From: 2010.05.17/outbox.cif.g08.bks.cpg/sg2_131_cif.got.tgz:261446.got - 2010.06.03 11:33:40.
