data_PCOD9016301
_publ_section_title
;
Structure prediction by ZEFSAII (Michael W. Deem and Ramdas Pophale) SiO2 
 PCOD9016301
Probable space group: P -1
;
_chemical_formula_sum "Si O2"
_cell_formula_units_Z 16
_cell_length_a 11.698118
_cell_length_b 15.265518
_cell_length_c 14.515419
_cell_angle_alpha 30.666220
_cell_angle_beta 40.442289
_cell_angle_gamma 59.893855
_cell_volume 760.365248
_symmetry_space_group_name_H-M "P -1"
_symmetry_group_IT_number 2
_symmetry_cell_setting 'triclinic'
loop_
_space_group_symop_operation_xyz
x,y,z
-x,-y,-z
loop_
_atom_site_type_symbol
_atom_site_label
_atom_site_fract_x
_atom_site_fract_y
_atom_site_fract_z
Si Si1 0.570166 0.224124 0.236305
Si Si2 0.125390 0.611513 0.939923
Si Si3 0.227171 0.494114 0.612990
Si Si4 0.753327 0.834422 0.207630
Si Si5 0.449126 0.874492 0.234489
Si Si6 0.073178 0.493317 0.359092
Si Si7 0.072272 0.829032 0.611790
Si Si8 0.188034 0.158506 0.617930
O O1 0.697911 0.338217 0.142986
O O2 0.355696 0.214199 0.386320
O O3 0.500000 0.000000 0.500000
O O4 0.723739 0.321122 0.969683
O O5 0.161462 0.783991 0.691195
O O6 0.941979 0.606844 0.114766
O O7 0.076860 0.399357 0.118561
O O8 0.305994 0.371267 0.616858
O O9 0.391433 0.665260 0.415803
O O10 0.105223 0.551174 0.561717
O O11 0.619082 0.920312 0.164849
O O12 0.733471 0.823706 0.340420
O O13 0.987430 0.954292 0.928127
O O14 0.256748 0.886737 0.378893
O O15 0.500000 0.000000 0.000000
O O16 0.114613 0.313586 0.502170
O O17 0.000000 0.500000 0.500000
O O18 0.000000 0.000000 0.500000
#
# Coordination Sequence:
#
# PCOD9016301 Si02
#       8
#     2   2   2   2   2   2   2   2
#     4  11  24  44  66  99 136 179 225 276 344 405
#     4   9  21  43  68  93 136 169 226 278 335 409
#     4  10  21  42  67  92 129 176 214 280 339 402
#     4  11  23  40  68  94 135 182 221 277 348 394
#     4  11  24  42  63  99 132 169 228 275 330 417
#     4  11  22  43  67  99 134 174 225 280 337 406
#     4  10  22  44  69  96 129 177 221 282 343 399
#     4  11  23  41  67  96 135 175 225 278 333 405
#
# _framework density 21.042518999999999
#
# number of rings (size 3 to 8) (size 9 to 14) (size 15 to 20)
#    0.000    1.500    1.250    3.750    3.500    0.000 
#   15.750    0.000    0.000    0.000    0.000    0.000 
#    0.000    0.000    0.000    0.000    0.000    0.000 
#
# Total GULP energy -89068.396274 kJ/mol
# GULP energy per Si atom -5566.774767 kJ/mol
# Density = 2.099463 g / cm^3
# Si number density = 21.042519 Si / 1000 Ang^3
#
#
#
# Elastic Constant Matrix: (Units=GPa)
#
#
# Indices 1 2 3 4 5 6 
#
# 1 79.7945 32.9492 46.5863 5.8708 18.2270 -13.4514
# 2 32.9492 95.1731 24.3784 -7.4095 7.6668 -9.3239
# 3 46.5863 24.3784 77.2485 20.6204 12.2946 10.4399
# 4 5.8708 -7.4095 20.6204 22.5557 3.2486 9.6974
# 5 18.2270 7.6668 12.2946 3.2486 36.3765 0.5349
# 6 -13.4514 -9.3239 10.4399 9.6974 0.5349 30.4614
#
#
#
# Elastic Compliance Matrix: (Units=1/GPa)
#
#
# Indices 1 2 3 4 5 6 
#
# 1 0.029096 -0.002886 -0.018163 0.001607 -0.008238 0.017823
# 2 -0.002886 0.013815 -0.005293 0.009446 -0.000546 0.001771
# 3 -0.018163 -0.005293 0.032963 -0.021207 0.001178 -0.014207
# 4 0.001607 0.009446 -0.021207 0.071819 -0.001866 -0.011962
# 5 -0.008238 -0.000546 0.001178 -0.001866 0.031563 -0.004169
# 6 0.017823 0.001771 -0.014207 -0.011962 -0.004169 0.049991
#
#
# Mechanical properties :
#
#
# Convention : Reuss Voigt Hill
#
# Bulk Modulus (GPa) = 43.12240 51.11597 47.11918
# Shear Modulus (GPa) = 17.26169 27.76552 22.51360
#
# Velocity S-wave (km/s) = 2.86724 3.63643 3.27450
# Velocity P-wave (km/s) = 5.61239 6.47889 6.06114
#
# Compressibility (1/GPa) = 0.02318981
#
# Stress axis : x y z
#
# Youngs Moduli (GPa) = 34.36945 72.38527 30.33750
#
# Poissons Ratio (x) = 0.20890 0.55101
# Poissons Ratio (y) = 0.09919 0.16058
# Poissons Ratio (z) = 0.62424 0.38315
#
# Static dielectric constant tensor:
#      x y z
#    x 1.752420 0.091990 0.044820 
#    y 0.091990 1.688450 -0.080500 
#    z 0.044820 -0.080500 1.719410 
# 
# From -- ./inp_files/522106.got.cif
#   From: 2010.05.17/outbox.cif.g08.bks.cpg/sg2_262_cif.got.tgz:522106.got - 2010.06.03 11:33:40.
