data_PCOD9016100
_publ_section_title
;
Structure prediction by ZEFSAII (Michael W. Deem and Ramdas Pophale) SiO2 
 PCOD9016100
Probable space group: P -1
;
_chemical_formula_sum "Si O2"
_cell_formula_units_Z 13
_cell_length_a 11.744009
_cell_length_b 10.111342
_cell_length_c 11.459988
_cell_angle_alpha 102.554617
_cell_angle_beta 116.069428
_cell_angle_gamma 130.318846
_cell_volume 634.431982
_symmetry_space_group_name_H-M "P -1"
_symmetry_group_IT_number 2
_symmetry_cell_setting 'triclinic'
loop_
_space_group_symop_operation_xyz
x,y,z
-x,-y,-z
loop_
_atom_site_type_symbol
_atom_site_label
_atom_site_fract_x
_atom_site_fract_y
_atom_site_fract_z
Si Si1 0.052944 0.333124 0.964574
Si Si2 0.747235 0.290796 0.698686
Si Si3 0.757676 0.753462 0.103799
Si Si4 0.136186 0.423043 0.593816
Si Si5 0.672331 0.913547 0.909906
Si Si6 0.112289 0.680603 0.751924
Si Si7 0.000000 0.000000 0.500000
O O1 0.159996 0.311238 0.931399
O O2 0.921261 0.329703 0.830305
O O3 0.253140 0.593699 0.180308
O O4 0.856454 0.096589 0.921527
O O5 0.866891 0.463030 0.672050
O O6 0.500000 0.000000 0.500000
O O7 0.500000 0.500000 0.000000
O O8 0.735834 0.845491 0.009419
O O9 0.937236 0.965983 0.325300
O O10 0.398717 0.649108 0.698356
O O11 0.159824 0.567634 0.723525
O O12 0.072824 0.226018 0.588514
O O13 0.935423 0.287279 0.385178
O O14 0.703122 0.075888 0.034895
#
# Coordination Sequence:
#
# PCOD9016100 Si02
#       7
#     2   2   2   2   2   2   1
#     4  10  24  42  66  96 132 169 222 272 323 397
#     4  10  21  42  66  95 128 171 218 270 331 387
#     4  12  25  43  65  94 135 177 217 270 332 389
#     4  11  22  39  63  95 130 171 216 268 328 384
#     4  11  22  43  65  94 129 171 215 272 331 388
#     4  10  22  39  64  94 129 168 218 271 317 392
#     4  12  24  42  62  94 132 170 222 268 320 396
#
# _framework density 20.490769
#
# number of rings (size 3 to 8) (size 9 to 14) (size 15 to 20)
#    0.000    1.231    3.077    2.769    0.000    2.462 
#    2.769    0.769    0.000    0.000    0.000    0.000 
#    0.000    0.000    0.000    0.000    0.000    0.000 
#
# Total GULP energy -72383.625222 kJ/mol
# GULP energy per Si atom -5567.971171 kJ/mol
# Density = 2.044413 g / cm^3
# Si number density = 20.490769 Si / 1000 Ang^3
#
#
#
# Elastic Constant Matrix: (Units=GPa)
#
#
# Indices 1 2 3 4 5 6 
#
# 1 124.7897 18.7325 28.4117 -0.0981 -31.6740 -13.6514
# 2 18.7325 84.8280 -1.1766 -7.0483 -8.2861 -20.8846
# 3 28.4117 -1.1766 56.1211 -3.2154 -8.1728 -3.0924
# 4 -0.0981 -7.0483 -3.2154 26.4160 -0.6723 -9.0083
# 5 -31.6740 -8.2861 -8.1728 -0.6723 15.1264 3.4333
# 6 -13.6514 -20.8846 -3.0924 -9.0083 3.4333 33.9369
#
#
#
# Elastic Compliance Matrix: (Units=1/GPa)
#
#
# Indices 1 2 3 4 5 6 
#
# 1 0.018344 0.000677 -0.003675 0.002222 0.035892 0.004419
# 2 0.000677 0.016280 0.002539 0.008971 0.009393 0.011953
# 3 -0.003675 0.002539 0.020775 0.004207 0.004509 0.002638
# 4 0.002222 0.008971 0.004207 0.047279 0.009774 0.018359
# 5 0.035892 0.009393 0.004509 0.009774 0.147395 0.008312
# 6 0.004419 0.011953 0.002638 0.018359 0.008312 0.042873
#
#
# Mechanical properties :
#
#
# Convention : Reuss Voigt Hill
#
# Bulk Modulus (GPa) = 18.35489 39.74157 29.04823
# Shear Modulus (GPa) = 16.02441 29.74728 22.88584
#
# Velocity S-wave (km/s) = 2.79951 3.81430 3.34561
# Velocity P-wave (km/s) = 4.40758 6.23182 5.39733
#
# Compressibility (1/GPa) = 0.05448139
#
# Stress axis : x y z
#
# Youngs Moduli (GPa) = 54.51440 61.42489 48.13411
#
# Poissons Ratio (x) = -0.04157 0.17688
# Poissons Ratio (y) = -0.03689 -0.12222
# Poissons Ratio (z) = 0.20033 -0.15597
#
# Static dielectric constant tensor:
#      x y z
#    x 1.711330 0.009320 0.008850 
#    y 0.009320 1.710830 -0.000460 
#    z 0.008850 -0.000460 1.756270 
# 
# From -- ./inp_files/82925.got.cif
#   From: 2010.05.17/outbox.cif.g08.bks.cpg/sg2_42_cif.got.tgz:82925.got - 2010.06.03 11:33:40.
