data_PCOD9016340
_publ_section_title
;
Structure prediction by ZEFSAII (Michael W. Deem and Ramdas Pophale) SiO2 
 PCOD9016340
Probable space group: P -1
;
_chemical_formula_sum "Si O2"
_cell_formula_units_Z 14
_cell_length_a 13.776212
_cell_length_b 11.330722
_cell_length_c 5.187588
_cell_angle_alpha 105.759899
_cell_angle_beta 82.241511
_cell_angle_gamma 52.938408
_cell_volume 572.922738
_symmetry_space_group_name_H-M "P -1"
_symmetry_group_IT_number 2
_symmetry_cell_setting 'triclinic'
loop_
_space_group_symop_operation_xyz
x,y,z
-x,-y,-z
loop_
_atom_site_type_symbol
_atom_site_label
_atom_site_fract_x
_atom_site_fract_y
_atom_site_fract_z
Si Si1 0.581241 0.252059 0.081940
Si Si2 0.687623 0.656387 0.807445
Si Si3 0.295122 0.760988 0.468138
Si Si4 0.146826 0.335785 0.909741
Si Si5 0.036206 0.106384 0.649459
Si Si6 0.109161 0.691693 0.660574
Si Si7 0.738414 0.865593 0.759277
O O1 0.432459 0.335551 0.130986
O O2 0.601715 0.291888 0.378795
O O3 0.637400 0.295458 0.868733
O O4 0.667036 0.054546 0.922778
O O5 0.808022 0.502320 0.503136
O O6 0.644247 0.825036 0.814019
O O7 0.755862 0.632476 0.040686
O O8 0.214870 0.707930 0.548066
O O9 0.184430 0.961037 0.607816
O O10 0.202791 0.207965 0.584864
O O11 0.000000 0.500000 0.000000
O O12 0.156496 0.249433 0.118722
O O13 0.949218 0.223004 0.991484
O O14 0.000000 0.000000 0.500000
O O15 0.999565 0.786900 0.529082
#
# Coordination Sequence:
#
# PCOD9016340 Si02
#       7
#     2   2   2   2   2   2   2
#     4  12  25  43  65  95 135 179 223 264 316 397
#     4  10  28  41  69  95 135 175 220 267 336 379
#     4  11  24  41  66  99 129 174 223 264 328 387
#     4  10  23  43  67  98 128 163 220 274 332 385
#     4  10  21  42  67  94 130 171 218 266 329 385
#     4  11  23  42  70  97 135 170 214 281 325 388
#     4  10  24  44  66  92 130 175 220 265 326 385
#
# _framework density 24.436104
#
# number of rings (size 3 to 8) (size 9 to 14) (size 15 to 20)
#    0.857    0.571    0.000    6.000    4.000    5.143 
#    0.000    0.000    0.000    0.000    0.000    0.000 
#    0.000    0.000    0.000    0.000    0.000    0.000 
#
# Total GULP energy -78359.247100 kJ/mol
# GULP energy per Si atom -5597.089079 kJ/mol
# Density = 2.438049 g / cm^3
# Si number density = 24.436104 Si / 1000 Ang^3
#
#
#
# Elastic Constant Matrix: (Units=GPa)
#
#
# Indices 1 2 3 4 5 6 
#
# 1 82.6556 20.2309 -1.3327 -22.9064 9.4208 -20.4698
# 2 20.2309 113.5980 63.3384 -1.4201 4.9124 -14.1765
# 3 -1.3327 63.3384 125.7618 -30.1922 5.3996 -6.2200
# 4 -22.9064 -1.4201 -30.1922 45.1195 3.1947 4.4440
# 5 9.4208 4.9124 5.3996 3.1947 33.6115 -10.4436
# 6 -20.4698 -14.1765 -6.2200 4.4440 -10.4436 41.5915
#
#
#
# Elastic Compliance Matrix: (Units=1/GPa)
#
#
# Indices 1 2 3 4 5 6 
#
# 1 0.020074 -0.006736 0.007720 0.014969 -0.005517 0.005753
# 2 -0.006736 0.015980 -0.010648 -0.010493 0.003011 0.002417
# 3 0.007720 -0.010648 0.017332 0.015543 -0.004910 -0.000132
# 4 0.014969 -0.010493 0.015543 0.040534 -0.009173 -0.000519
# 5 -0.005517 0.003011 -0.004910 -0.009173 0.034784 0.007291
# 6 0.005753 0.002417 -0.000132 -0.000519 0.007291 0.029565
#
#
# Mechanical properties :
#
#
# Convention : Reuss Voigt Hill
#
# Bulk Modulus (GPa) = 29.36202 54.05429 41.70815
# Shear Modulus (GPa) = 26.46208 40.04975 33.25592
#
# Velocity S-wave (km/s) = 3.29433 4.05280 3.69309
# Velocity P-wave (km/s) = 5.14899 6.63844 5.94058
#
# Compressibility (1/GPa) = 0.03405760
#
# Stress axis : x y z
#
# Youngs Moduli (GPa) = 49.81672 62.57832 57.69642
#
# Poissons Ratio (x) = 0.42151 -0.44543
# Poissons Ratio (y) = 0.33556 0.61438
# Poissons Ratio (z) = -0.38460 0.66636
#
# Static dielectric constant tensor:
#      x y z
#    x 2.030720 0.034360 -0.007280 
#    y 0.034360 1.944420 -0.007290 
#    z -0.007280 -0.007290 1.863460 
# 
# From -- ./inp_files/67903.got.cif
#   From: 2010.05.17/outbox.cif.g08.bks.cpg/sg2_34_cif.got.tgz:67903.got - 2010.06.03 11:33:40.
