data_PCOD9016740
_publ_section_title
;
Structure prediction by ZEFSAII (Michael W. Deem and Ramdas Pophale) SiO2 
 PCOD9016740
Probable space group: P -1
;
_chemical_formula_sum "Si O2"
_cell_formula_units_Z 10
_cell_length_a 18.388168
_cell_length_b 12.384069
_cell_length_c 9.113824
_cell_angle_alpha 141.883657
_cell_angle_beta 36.015078
_cell_angle_gamma 161.092304
_cell_volume 392.906907
_symmetry_space_group_name_H-M "P -1"
_symmetry_group_IT_number 2
_symmetry_cell_setting 'triclinic'
loop_
_space_group_symop_operation_xyz
x,y,z
-x,-y,-z
loop_
_atom_site_type_symbol
_atom_site_label
_atom_site_fract_x
_atom_site_fract_y
_atom_site_fract_z
Si Si1 0.768109 0.700002 0.351592
Si Si2 0.289930 0.218494 0.155992
Si Si3 0.304185 0.822546 0.748287
Si Si4 0.682432 0.273943 0.837827
Si Si5 0.065614 0.762387 0.481989
O O1 0.665571 0.626319 0.598909
O O2 0.774559 0.877564 0.426276
O O3 0.665222 0.411808 0.125532
O O4 0.044413 0.987744 0.240895
O O5 0.500000 0.500000 0.000000
O O6 0.272136 0.990837 0.970631
O O7 0.066406 0.443061 0.675634
O O8 0.500000 0.000000 0.500000
O O9 0.427282 0.925853 0.810752
O O10 0.800172 0.245525 0.685708
O O11 0.861821 0.551850 0.711567
#
# Coordination Sequence:
#
# PCOD9016740 Si02
#       5
#     2   2   2   2   2
#     4  11  24  45  73 104 142 192 236 295 360 423
#     4  11  24  45  71 104 143 189 240 296 359 425
#     4  10  21  42  69 102 142 187 233 289 361 416
#     4  10  21  42  69 107 144 187 234 292 356 424
#     4  10  21  42  70 103 147 183 234 295 354 426
#
# _framework density 25.451319999999999
#
# number of rings (size 3 to 8) (size 9 to 14) (size 15 to 20)
#    0.000    1.600    2.000    3.000    0.000    1.600 
#    7.200    1.000    0.000    0.000    0.000    0.000 
#    0.000    0.000    0.000    0.000    0.000    0.000 
#
# Total GULP energy -56169.404461 kJ/mol
# GULP energy per Si atom -5616.940446 kJ/mol
# Density = 2.539339 g / cm^3
# Si number density = 25.451320 Si / 1000 Ang^3
#
#
#
# Elastic Constant Matrix: (Units=GPa)
#
#
# Indices 1 2 3 4 5 6 
#
# 1 128.8006 43.7008 63.9556 5.5192 3.9902 12.4565
# 2 43.7008 84.1983 49.4347 -17.3590 24.7910 -4.1030
# 3 63.9556 49.4347 185.0772 -2.1101 11.3302 -9.1268
# 4 5.5192 -17.3590 -2.1101 50.1510 -5.2191 14.1687
# 5 3.9902 24.7910 11.3302 -5.2191 49.7574 0.5922
# 6 12.4565 -4.1030 -9.1268 14.1687 0.5922 49.3998
#
#
#
# Elastic Compliance Matrix: (Units=1/GPa)
#
#
# Indices 1 2 3 4 5 6 
#
# 1 0.011353 -0.005539 -0.002769 -0.002126 0.002296 -0.003252
# 2 -0.005539 0.020250 -0.002872 0.006402 -0.008329 0.000812
# 3 -0.002769 -0.002872 0.007226 -0.000985 -0.000121 0.002079
# 4 -0.002126 0.006402 -0.000985 0.024023 -0.000204 -0.006002
# 5 0.002296 -0.008329 -0.000121 -0.000204 0.024088 -0.001523
# 6 -0.003252 0.000812 0.002079 -0.006002 -0.001523 0.023254
#
#
# Mechanical properties :
#
#
# Convention : Reuss Voigt Hill
#
# Bulk Modulus (GPa) = 60.72178 79.13981 69.93080
# Shear Modulus (GPa) = 36.22119 45.92731 41.07425
#
# Velocity S-wave (km/s) = 3.77657 4.25257 4.02162
# Velocity P-wave (km/s) = 6.55182 7.43468 7.00717
#
# Compressibility (1/GPa) = 0.01646855
#
# Stress axis : x y z
#
# Youngs Moduli (GPa) = 88.08544 49.38373 138.39809
#
# Poissons Ratio (x) = 0.27356 0.38317
# Poissons Ratio (y) = 0.48794 0.39742
# Poissons Ratio (z) = 0.24387 0.14181
#
# Static dielectric constant tensor:
#      x y z
#    x 1.997460 0.032090 0.024740 
#    y 0.032090 2.036580 -0.017910 
#    z 0.024740 -0.017910 1.953410 
# 
# From -- ./inp_files/144050.got.cif
#   From: 2010.05.17/outbox.cif.g08.bks.cpg/sg2_73_cif.got.tgz:144050.got - 2010.06.03 11:33:40.
