data_PCOD9016911
_publ_section_title
;
Structure prediction by ZEFSAII (Michael W. Deem and Ramdas Pophale) SiO2 
 PCOD9016911
Probable space group: P -1
;
_chemical_formula_sum "Si O2"
_cell_formula_units_Z 16
_cell_length_a 12.367131
_cell_length_b 9.560316
_cell_length_c 13.269643
_cell_angle_alpha 116.468638
_cell_angle_beta 30.823678
_cell_angle_gamma 98.664709
_cell_volume 620.713677
_symmetry_space_group_name_H-M "P -1"
_symmetry_group_IT_number 2
_symmetry_cell_setting 'triclinic'
loop_
_space_group_symop_operation_xyz
x,y,z
-x,-y,-z
loop_
_atom_site_type_symbol
_atom_site_label
_atom_site_fract_x
_atom_site_fract_y
_atom_site_fract_z
Si Si1 0.707140 0.372730 0.708836
Si Si2 0.520704 0.836141 0.297468
Si Si3 0.719164 0.440917 0.504667
Si Si4 0.015911 0.506186 0.869444
Si Si5 0.316152 0.144575 0.416383
Si Si6 0.924098 0.037136 0.186158
Si Si7 0.701752 0.239655 0.047098
Si Si8 0.773576 0.963013 0.743806
O O1 0.595690 0.257986 0.709301
O O2 0.739755 0.482936 0.623019
O O3 0.982696 0.227289 0.480868
O O4 0.500000 0.500000 0.000000
O O5 0.347801 0.919055 0.559113
O O6 0.499344 0.001405 0.303642
O O7 0.780996 0.681376 0.071928
O O8 0.779075 0.473304 0.351428
O O9 0.901920 0.225587 0.295716
O O10 0.421904 0.544445 0.775829
O O11 0.081565 0.309381 0.710009
O O12 0.000000 0.500000 0.000000
O O13 0.459187 0.226236 0.267741
O O14 0.237228 0.041886 0.368801
O O15 0.000000 0.000000 0.000000
O O16 0.100893 0.874361 0.064038
O O17 0.779269 0.128838 0.846173
O O18 0.500000 0.000000 0.000000
#
# Coordination Sequence:
#
# PCOD9016911 Si02
#       8
#     2   2   2   2   2   2   2   2
#     4  11  24  45  69 105 144 179 227 285 347 411
#     4  11  25  42  67 101 133 173 229 286 341 402
#     4  10  24  45  69  96 138 180 225 278 343 411
#     4  11  26  46  69  99 134 179 234 281 341 410
#     4  10  24  42  67  98 133 174 227 276 343 412
#     4  11  25  42  66  96 135 177 229 281 349 400
#     4  10  21  44  66  98 130 178 227 276 345 416
#     4  10  21  42  69  99 138 182 228 276 343 421
#
# _framework density 25.776781
#
# number of rings (size 3 to 8) (size 9 to 14) (size 15 to 20)
#    0.000    1.500    2.500    1.500    8.750    4.500 
#    0.000    2.500    0.000    0.000    0.000    0.000 
#    0.000    0.000    0.000    0.000    0.000    0.000 
#
# Total GULP energy -89214.938290 kJ/mol
# GULP energy per Si atom -5575.933643 kJ/mol
# Density = 2.571811 g / cm^3
# Si number density = 25.776781 Si / 1000 Ang^3
#
#
#
# Elastic Constant Matrix: (Units=GPa)
#
#
# Indices 1 2 3 4 5 6 
#
# 1 91.8844 18.0249 77.2433 1.7071 15.9199 -26.5661
# 2 18.0249 59.1139 36.5306 -4.5835 11.2542 -43.4289
# 3 77.2433 36.5306 241.6772 16.3163 9.7652 -26.2349
# 4 1.7071 -4.5835 16.3163 53.7614 -17.5672 -13.6239
# 5 15.9199 11.2542 9.7652 -17.5672 53.8980 -3.8422
# 6 -26.5661 -43.4289 -26.2349 -13.6239 -3.8422 25.3207
#
#
#
# Elastic Compliance Matrix: (Units=1/GPa)
#
#
# Indices 1 2 3 4 5 6 
#
# 1 0.012487 -0.012174 -0.003233 -0.005175 -0.003274 -0.014410
# 2 -0.012174 -0.017974 0.002303 -0.014832 -0.001425 -0.049411
# 3 -0.003233 0.002303 0.005499 0.000256 0.000017 0.006396
# 4 -0.005175 -0.014832 0.000256 0.014473 0.007753 -0.021639
# 5 -0.003274 -0.001425 0.000017 0.007753 0.022465 0.001719
# 6 -0.014410 -0.049411 0.006396 -0.021639 0.001719 -0.065129
#
#
# Mechanical properties :
#
#
# Convention : Reuss Voigt Hill
#
# Bulk Modulus (GPa) = -38.17330 72.91925 17.37297
# Shear Modulus (GPa) = -467.14090 43.98781 -211.57655
#
# Velocity S-wave (km/s) = -13.47661 4.13545 -9.06965
# Velocity P-wave (km/s) = 16.03121 7.15211 10.14512
#
# Compressibility (1/GPa) = -0.02619632
#
# Stress axis : x y z
#
# Youngs Moduli (GPa) = 80.08500 -55.63516 181.83837
#
# Poissons Ratio (x) = -0.67727 0.58796
# Poissons Ratio (y) = 0.97491 -0.41874
# Poissons Ratio (z) = 0.25895 0.12812
#
# Static dielectric constant tensor:
#      x y z
#    x 2.091400 0.272760 0.037300 
#    y 0.272760 2.735940 -0.241660 
#    z 0.037300 -0.241660 1.677510 
# 
# From -- ./inp_files/428517.got.cif
#   From: 2010.05.17/outbox.cif.g08.bks.cpg/sg2_215_cif.got.tgz:428517.got - 2010.06.03 11:33:40.
