data_PCOD9016681
_publ_section_title
;
Structure prediction by ZEFSAII (Michael W. Deem and Ramdas Pophale) SiO2 
 PCOD9016681
Probable space group: P -1
;
_chemical_formula_sum "Si O2"
_cell_formula_units_Z 16
_cell_length_a 22.658137
_cell_length_b 12.856339
_cell_length_c 8.622942
_cell_angle_alpha 115.698765
_cell_angle_beta 64.354553
_cell_angle_gamma 161.595238
_cell_volume 712.608366
_symmetry_space_group_name_H-M "P -1"
_symmetry_group_IT_number 2
_symmetry_cell_setting 'triclinic'
loop_
_space_group_symop_operation_xyz
x,y,z
-x,-y,-z
loop_
_atom_site_type_symbol
_atom_site_label
_atom_site_fract_x
_atom_site_fract_y
_atom_site_fract_z
Si Si1 0.246011 0.563909 0.662792
Si Si2 0.954023 0.191625 0.243186
Si Si3 0.910525 0.120520 0.598629
Si Si4 0.843847 0.242071 0.252493
Si Si5 0.330320 0.442210 0.996430
Si Si6 0.716412 0.390709 0.995948
Si Si7 0.646125 0.802350 0.913141
Si Si8 0.488114 0.791376 0.356380
O O1 0.207402 0.500639 0.847525
O O2 0.359841 0.638899 0.531477
O O3 0.052220 0.260307 0.596336
O O4 0.383283 0.896975 0.672096
O O5 0.878346 0.043764 0.405550
O O6 0.929947 0.284725 0.287314
O O7 0.165084 0.493905 0.180233
O O8 0.829152 0.914181 0.084292
O O9 0.022590 0.427208 0.682929
O O10 0.730215 0.847711 0.730868
O O11 0.639035 0.949187 0.348894
O O12 0.802020 0.120058 0.050513
O O13 0.360514 0.528888 0.195690
O O14 0.277094 0.467507 0.977527
O O15 0.528234 0.708097 0.900658
O O16 0.500000 0.000000 0.000000
O O17 0.500000 0.500000 0.000000
#
# Coordination Sequence:
#
# PCOD9016681 Si02
#       8
#     2   2   2   2   2   2   2   2
#     4  10  21  42  68  99 130 169 227 274 323 390
#     4  12  26  45  64  99 143 174 220 277 336 395
#     4  11  25  42  71  99 133 178 228 273 325 397
#     4  10  22  42  71  99 132 175 227 274 329 393
#     4  11  24  45  65  95 139 175 217 276 337 397
#     4  12  26  42  70  97 131 177 225 275 333 394
#     4  11  23  45  70  98 133 174 218 277 337 393
#     4   9  20  40  71  99 131 171 220 277 325 391
#
# _framework density 22.452725999999998
#
# number of rings (size 3 to 8) (size 9 to 14) (size 15 to 20)
#    0.000    1.250    2.500    2.625    5.250    1.500 
#    4.500    1.250    0.000    0.000    0.000    0.000 
#    0.000    0.000    0.000    0.000    0.000    0.000 
#
# Total GULP energy -89549.201099 kJ/mol
# GULP energy per Si atom -5596.825069 kJ/mol
# Density = 2.240162 g / cm^3
# Si number density = 22.452726 Si / 1000 Ang^3
#
#
#
# Elastic Constant Matrix: (Units=GPa)
#
#
# Indices 1 2 3 4 5 6 
#
# 1 118.7427 9.6539 7.5671 -28.3665 -10.0447 23.0383
# 2 9.6539 64.1276 31.8074 -7.7912 -6.0383 7.9546
# 3 7.5671 31.8074 92.9146 -32.1520 -16.4061 20.2924
# 4 -28.3665 -7.7912 -32.1520 38.0142 7.8157 -9.0743
# 5 -10.0447 -6.0383 -16.4061 7.8157 29.7023 0.6507
# 6 23.0383 7.9546 20.2924 -9.0743 0.6507 26.7398
#
#
#
# Elastic Compliance Matrix: (Units=1/GPa)
#
#
# Indices 1 2 3 4 5 6 
#
# 1 0.014139 -0.002323 0.007844 0.012342 0.005687 -0.013393
# 2 -0.002323 0.019339 -0.008229 -0.004441 -0.000253 0.000992
# 3 0.007844 -0.008229 0.025132 0.019251 0.010170 -0.017097
# 4 0.012342 -0.004441 0.019251 0.048883 0.001203 -0.007362
# 5 0.005687 -0.000253 0.010170 0.001203 0.041128 -0.013136
# 6 -0.013393 0.000992 -0.017097 -0.007362 -0.013136 0.059437
#
#
# Mechanical properties :
#
#
# Convention : Reuss Voigt Hill
#
# Bulk Modulus (GPa) = 18.79927 41.53797 30.16862
# Shear Modulus (GPa) = 21.62580 34.00836 27.81708
#
# Velocity S-wave (km/s) = 3.10687 3.89609 3.52364
# Velocity P-wave (km/s) = 4.61098 6.22734 5.47909
#
# Compressibility (1/GPa) = 0.05319356
#
# Stress axis : x y z
#
# Youngs Moduli (GPa) = 70.72837 51.70942 39.78973
#
# Poissons Ratio (x) = 0.12010 -0.31210
# Poissons Ratio (y) = 0.16428 0.32743
# Poissons Ratio (z) = -0.55478 0.42552
#
# Static dielectric constant tensor:
#      x y z
#    x 1.871980 0.006840 -0.012870 
#    y 0.006840 1.851570 0.002360 
#    z -0.012870 0.002360 1.799800 
# 
# From -- ./inp_files/346229.got.cif
#   From: 2010.05.17/outbox.cif.g08.bks.cpg/sg2_174_cif.got.tgz:346229.got - 2010.06.03 11:33:40.
