data_PCOD9016990
_publ_section_title
;
Structure prediction by ZEFSAII (Michael W. Deem and Ramdas Pophale) SiO2 
 PCOD9016990
Probable space group: P -1
;
_chemical_formula_sum "Si O2"
_cell_formula_units_Z 16
_cell_length_a 9.496937
_cell_length_b 9.941473
_cell_length_c 9.151536
_cell_angle_alpha 84.277291
_cell_angle_beta 93.563819
_cell_angle_gamma 65.272253
_cell_volume 775.716547
_symmetry_space_group_name_H-M "P -1"
_symmetry_group_IT_number 2
_symmetry_cell_setting 'triclinic'
loop_
_space_group_symop_operation_xyz
x,y,z
-x,-y,-z
loop_
_atom_site_type_symbol
_atom_site_label
_atom_site_fract_x
_atom_site_fract_y
_atom_site_fract_z
Si Si1 0.105917 0.584346 0.498099
Si Si2 0.681481 0.577417 0.742944
Si Si3 0.878519 0.706287 0.943162
Si Si4 0.161925 0.962032 0.095773
Si Si5 0.904463 0.133366 0.581615
Si Si6 0.807001 0.510087 0.157938
Si Si7 0.449952 0.677331 0.487111
Si Si8 0.448965 0.662073 0.155258
O O1 0.212970 0.521108 0.371128
O O2 0.011686 0.757485 0.436974
O O3 0.179551 0.547521 0.668837
O O4 0.000000 0.500000 0.500000
O O5 0.777882 0.644936 0.839129
O O6 0.543285 0.702722 0.625418
O O7 0.617517 0.464347 0.823724
O O8 0.060332 0.627400 0.910178
O O9 0.816746 0.884391 0.917032
O O10 0.862266 0.640482 0.107290
O O11 0.125810 0.918000 0.258541
O O12 0.313586 0.815213 0.065035
O O13 0.000000 0.000000 0.000000
O O14 0.731710 0.236162 0.500558
O O15 0.000000 0.000000 0.500000
O O16 0.621254 0.584091 0.105037
O O17 0.500000 0.500000 0.500000
O O18 0.475084 0.711365 0.317100
#
# Coordination Sequence:
#
# PCOD9016990 Si02
#       8
#     2   2   2   2   2   2   2   2
#     4  12  21  37  70  98 123 172 216 267 326 382
#     4  11  20  41  71  99 126 166 227 270 318 383
#     4  11  27  43  63 101 138 166 218 279 319 385
#     4  11  26  46  66  87 139 182 210 262 339 397
#     4  11  23  41  63 100 128 166 219 269 322 385
#     4  11  24  41  69  96 136 165 225 269 322 381
#     4   9  16  36  66  90 123 165 212 261 309 383
#     4  10  21  42  70  94 125 182 219 258 327 400
#
# _framework density 20.626090000000001
#
# number of rings (size 3 to 8) (size 9 to 14) (size 15 to 20)
#    0.000    1.250    6.250    1.500    5.250    1.000 
#    2.250    3.750    0.000    0.000    0.000    0.000 
#    0.000    0.000    0.000    0.000    0.000    0.000 
#
# Total GULP energy -89127.278025 kJ/mol
# GULP energy per Si atom -5570.454877 kJ/mol
# Density = 2.057914 g / cm^3
# Si number density = 20.626090 Si / 1000 Ang^3
#
#
#
# Elastic Constant Matrix: (Units=GPa)
#
#
# Indices 1 2 3 4 5 6 
#
# 1 122.2837 51.7147 29.2118 1.7579 -9.9430 -14.6466
# 2 51.7147 101.1422 38.0865 -15.6603 -7.9423 8.9018
# 3 29.2118 38.0865 85.7908 -9.9720 -4.3161 0.4367
# 4 1.7579 -15.6603 -9.9720 27.8197 0.3608 -2.6285
# 5 -9.9430 -7.9423 -4.3161 0.3608 38.4158 -4.5558
# 6 -14.6466 8.9018 0.4367 -2.6285 -4.5558 37.2907
#
#
#
# Elastic Compliance Matrix: (Units=1/GPa)
#
#
# Indices 1 2 3 4 5 6 
#
# 1 0.012546 -0.006898 -0.001664 -0.004684 0.002456 0.006564
# 2 -0.006898 0.016742 -0.004124 0.007804 0.000421 -0.006056
# 3 -0.001664 -0.004124 0.014417 0.002986 0.000358 0.000416
# 4 -0.004684 0.007804 0.002986 0.041629 0.000254 -0.000772
# 5 0.002456 0.000421 0.000358 0.000254 0.027291 0.004212
# 6 0.006564 -0.006056 0.000416 -0.000772 0.004212 0.031295
#
#
# Mechanical properties :
#
#
# Convention : Reuss Voigt Hill
#
# Bulk Modulus (GPa) = 54.55109 60.80474 57.67791
# Shear Modulus (GPa) = 28.50588 33.38548 30.94568
#
# Velocity S-wave (km/s) = 3.72160 4.02755 3.87760
# Velocity P-wave (km/s) = 6.70612 7.15344 6.93339
#
# Compressibility (1/GPa) = 0.01833144
#
# Stress axis : x y z
#
# Youngs Moduli (GPa) = 79.70871 59.73107 69.36406
#
# Poissons Ratio (x) = 0.41204 0.11540
# Poissons Ratio (y) = 0.54985 0.28609
# Poissons Ratio (z) = 0.13261 0.24636
#
# Static dielectric constant tensor:
#      x y z
#    x 1.951700 -0.017800 0.024460 
#    y -0.017800 1.712050 0.005930 
#    z 0.024460 0.005930 1.816260 
# 
# From -- ./inp_files/243560.got.cif
#   From: 2010.05.17/outbox.cif.g08.bks.cpg/sg2_122_cif.got.tgz:243560.got - 2010.06.03 11:33:40.
