data_PCOD9016393
_publ_section_title
;
Structure prediction by ZEFSAII (Michael W. Deem and Ramdas Pophale) SiO2 
 PCOD9016393
Probable space group: P -1
;
_chemical_formula_sum "Si O2"
_cell_formula_units_Z 16
_cell_length_a 9.536736
_cell_length_b 9.879250
_cell_length_c 15.109059
_cell_angle_alpha 103.273366
_cell_angle_beta 143.869928
_cell_angle_gamma 70.185388
_cell_volume 787.129094
_symmetry_space_group_name_H-M "P -1"
_symmetry_group_IT_number 2
_symmetry_cell_setting 'triclinic'
loop_
_space_group_symop_operation_xyz
x,y,z
-x,-y,-z
loop_
_atom_site_type_symbol
_atom_site_label
_atom_site_fract_x
_atom_site_fract_y
_atom_site_fract_z
Si Si1 0.381425 0.610317 0.535860
Si Si2 0.740032 0.619629 0.883359
Si Si3 0.574163 0.378984 0.095932
Si Si4 0.059888 0.444708 0.424461
Si Si5 0.255067 0.951395 0.883945
Si Si6 0.241197 0.936344 0.447024
Si Si7 0.509646 0.166078 0.629788
Si Si8 0.989643 0.874763 0.043985
O O1 0.500000 0.500000 0.500000
O O2 0.562415 0.589174 0.710422
O O3 0.130653 0.569076 0.424255
O O4 0.308147 0.779480 0.501407
O O5 0.610415 0.620213 0.914242
O O6 0.821627 0.766050 0.923845
O O7 0.000000 0.500000 0.000000
O O8 0.652030 0.217610 0.073190
O O9 0.825320 0.401411 0.264797
O O10 0.500000 0.500000 0.000000
O O11 0.296780 0.308372 0.522161
O O12 0.000000 0.500000 0.500000
O O13 0.120802 0.042286 0.911336
O O14 0.050060 0.987440 0.705937
O O15 0.500000 0.000000 0.000000
O O16 0.357745 0.900105 0.403165
O O17 0.377574 0.045872 0.578930
O O18 0.721201 0.203247 0.802673
O O19 0.000000 0.000000 0.000000
#
# Coordination Sequence:
#
# PCOD9016393 Si02
#       8
#     2   2   2   2   2   2   2   2
#     4  12  26  44  74 105 140 190 240 284 356 425
#     4  12  28  48  68 107 150 183 242 300 348 430
#     4  12  29  47  72 105 144 191 236 296 361 422
#     4  12  25  45  66 100 144 183 233 291 346 411
#     4  11  24  46  70 100 141 187 237 290 356 420
#     4  10  22  41  70  99 133 180 235 285 339 418
#     4  10  21  42  67  96 135 181 230 283 344 411
#     4  11  25  42  73 102 142 183 234 291 359 428
#
# _framework density 20.327034000000001
#
# number of rings (size 3 to 8) (size 9 to 14) (size 15 to 20)
#    0.000    0.750    5.000    1.500    7.000    0.000 
#    0.000    1.250    0.000    0.000    0.000    0.000 
#    0.000    0.000    0.000    0.000    0.000    0.000 
#
# Total GULP energy -89311.711005 kJ/mol
# GULP energy per Si atom -5581.981938 kJ/mol
# Density = 2.028077 g / cm^3
# Si number density = 20.327034 Si / 1000 Ang^3
#
#
#
# Elastic Constant Matrix: (Units=GPa)
#
#
# Indices 1 2 3 4 5 6 
#
# 1 74.7483 17.3472 28.4319 5.3259 21.5782 20.1487
# 2 17.3472 119.5666 32.4502 1.8872 10.8873 26.1983
# 3 28.4319 32.4502 87.6038 -2.5334 25.0920 3.5199
# 4 5.3259 1.8872 -2.5334 43.0236 1.9798 4.2921
# 5 21.5782 10.8873 25.0920 1.9798 32.1736 4.1796
# 6 20.1487 26.1983 3.5199 4.2921 4.1796 39.5022
#
#
#
# Elastic Compliance Matrix: (Units=1/GPa)
#
#
# Indices 1 2 3 4 5 6 
#
# 1 0.019943 0.001089 -0.003831 -0.001369 -0.009451 -0.009405
# 2 0.001089 0.010953 -0.004021 -0.000097 -0.000332 -0.007416
# 3 -0.003831 -0.004021 0.016854 0.001699 -0.009836 0.003975
# 4 -0.001369 -0.000097 0.001699 0.023770 -0.001603 -0.001802
# 5 -0.009451 -0.000332 -0.009836 -0.001603 0.045130 0.001316
# 6 -0.009405 -0.007416 0.003975 -0.001802 0.001316 0.034733
#
#
# Mechanical properties :
#
#
# Convention : Reuss Voigt Hill
#
# Bulk Modulus (GPa) = 29.21735 48.70859 38.96297
# Shear Modulus (GPa) = 28.35785 36.51917 32.43851
#
# Velocity S-wave (km/s) = 3.73913 4.24321 3.99912
# Velocity P-wave (km/s) = 5.74859 6.92971 6.36660
#
# Compressibility (1/GPa) = 0.03422623
#
# Stress axis : x y z
#
# Youngs Moduli (GPa) = 50.14187 91.29605 59.33227
#
# Poissons Ratio (x) = -0.09942 0.22730
# Poissons Ratio (y) = -0.05461 0.23855
# Poissons Ratio (z) = 0.19209 0.36706
#
# Static dielectric constant tensor:
#      x y z
#    x 1.681360 0.026530 0.002890 
#    y 0.026530 1.720390 -0.014790 
#    z 0.002890 -0.014790 1.726510 
# 
# From -- ./inp_files/338005.got.cif
#   From: 2010.05.17/outbox.cif.g08.bks.cpg/sg2_170_cif.got.tgz:338005.got - 2010.06.03 11:33:40.
