data_PCOD9016662
_publ_section_title
;
Structure prediction by ZEFSAII (Michael W. Deem and Ramdas Pophale) SiO2 
 PCOD9016662
Probable space group: P -1
;
_chemical_formula_sum "Si O2"
_cell_formula_units_Z 12
_cell_length_a 11.019478
_cell_length_b 8.070170
_cell_length_c 8.896174
_cell_angle_alpha 55.829754
_cell_angle_beta 103.816582
_cell_angle_gamma 125.066987
_cell_volume 531.617842
_symmetry_space_group_name_H-M "P -1"
_symmetry_group_IT_number 2
_symmetry_cell_setting 'triclinic'
loop_
_space_group_symop_operation_xyz
x,y,z
-x,-y,-z
loop_
_atom_site_type_symbol
_atom_site_label
_atom_site_fract_x
_atom_site_fract_y
_atom_site_fract_z
Si Si1 0.551488 0.530454 0.329025
Si Si2 0.809261 0.629019 0.196383
Si Si3 0.633415 0.992877 0.969400
Si Si4 0.684740 0.804979 0.806273
Si Si5 0.038168 0.525861 0.171020
Si Si6 0.020825 0.747816 0.441431
O O1 0.500000 0.500000 0.500000
O O2 0.663350 0.453688 0.344640
O O3 0.414613 0.399390 0.238658
O O4 0.644657 0.810962 0.174018
O O5 0.926261 0.802691 0.271158
O O6 0.900968 0.533659 0.194051
O O7 0.759711 0.727531 0.994098
O O8 0.593531 0.877899 0.849146
O O9 0.795289 0.238293 0.878704
O O10 0.500000 0.000000 0.000000
O O11 0.810607 0.035845 0.637169
O O12 0.033432 0.314693 0.371275
O O13 0.000000 0.500000 0.000000
O O14 0.000000 0.500000 0.500000
#
# Coordination Sequence:
#
# PCOD9016662 Si02
#       6
#     2   2   2   2   2   2
#     4  11  28  44  68 102 135 184 229 276 343 403
#     4  10  22  45  71  94 136 176 227 280 330 400
#     4  11  25  44  68  97 142 176 226 282 336 405
#     4  11  23  46  72  97 135 183 227 279 345 395
#     4  11  26  41  68 105 136 177 225 277 347 399
#     4  10  21  42  68  98 130 172 225 277 331 402
#
# _framework density 22.572606
#
# number of rings (size 3 to 8) (size 9 to 14) (size 15 to 20)
#    0.000    1.333    3.333    2.500   11.667    0.000 
#    0.000    5.833    0.000    0.000    0.000    0.000 
#    0.000    0.000    0.000    0.000    0.000    0.000 
#
# Total GULP energy -66902.711119 kJ/mol
# GULP energy per Si atom -5575.225927 kJ/mol
# Density = 2.252123 g / cm^3
# Si number density = 22.572606 Si / 1000 Ang^3
#
#
#
# Elastic Constant Matrix: (Units=GPa)
#
#
# Indices 1 2 3 4 5 6 
#
# 1 121.7557 33.7993 52.5806 11.9211 -17.1213 6.8997
# 2 33.7993 63.9312 60.9978 14.9687 -15.0486 9.5627
# 3 52.5806 60.9978 138.6569 27.1301 -48.7299 0.9386
# 4 11.9211 14.9687 27.1301 44.4124 0.6050 -13.1813
# 5 -17.1213 -15.0486 -48.7299 0.6050 37.0491 -1.1506
# 6 6.8997 9.5627 0.9386 -13.1813 -1.1506 20.4569
#
#
#
# Elastic Compliance Matrix: (Units=1/GPa)
#
#
# Indices 1 2 3 4 5 6 
#
# 1 0.010275 -0.002111 -0.002412 -0.001575 0.000640 -0.003347
# 2 -0.002111 0.034420 -0.015599 -0.007273 -0.008008 -0.019799
# 3 -0.002412 -0.015599 0.026912 -0.010397 0.028170 0.001755
# 4 -0.001575 -0.007273 -0.010397 0.040800 -0.017100 0.029736
# 5 0.000640 -0.008008 0.028170 -0.017100 0.061199 -0.005342
# 6 -0.003347 -0.019799 0.001755 0.029736 -0.005342 0.078046
#
#
# Mechanical properties :
#
#
# Convention : Reuss Voigt Hill
#
# Bulk Modulus (GPa) = 31.88399 68.78880 50.33639
# Shear Modulus (GPa) = 16.53716 32.18139 24.35927
#
# Velocity S-wave (km/s) = 2.70963 3.77992 3.28861
# Velocity P-wave (km/s) = 4.89339 7.04209 6.06367
#
# Compressibility (1/GPa) = 0.03136370
#
# Stress axis : x y z
#
# Youngs Moduli (GPa) = 97.32736 29.05264 37.15878
#
# Poissons Ratio (x) = 0.06132 0.08962
# Poissons Ratio (y) = 0.20542 0.57964
# Poissons Ratio (z) = 0.23473 0.45319
#
# Static dielectric constant tensor:
#      x y z
#    x 1.400610 -0.141240 0.326440 
#    y -0.141240 1.840570 0.040550 
#    z 0.326440 0.040550 1.809530 
# 
# From -- ./inp_files/146420.got.cif
#   From: 2010.05.17/outbox.cif.g08.bks.cpg/sg2_74_cif.got.tgz:146420.got - 2010.06.03 11:33:40.
