data_PCOD9016952
_publ_section_title
;
Structure prediction by ZEFSAII (Michael W. Deem and Ramdas Pophale) SiO2 
 PCOD9016952
Probable space group: P -1
;
_chemical_formula_sum "Si O2"
_cell_formula_units_Z 16
_cell_length_a 11.649050
_cell_length_b 22.699117
_cell_length_c 6.668984
_cell_angle_alpha 114.190090
_cell_angle_beta 55.816862
_cell_angle_gamma 151.014277
_cell_volume 692.082618
_symmetry_space_group_name_H-M "P -1"
_symmetry_group_IT_number 2
_symmetry_cell_setting 'triclinic'
loop_
_space_group_symop_operation_xyz
x,y,z
-x,-y,-z
loop_
_atom_site_type_symbol
_atom_site_label
_atom_site_fract_x
_atom_site_fract_y
_atom_site_fract_z
Si Si1 0.897038 0.888772 0.177122
Si Si2 0.312491 0.474268 0.360366
Si Si3 0.567833 0.859627 0.234129
Si Si4 0.613585 0.087626 0.324550
Si Si5 0.261802 0.335594 0.463674
Si Si6 0.446531 0.614363 0.080581
Si Si7 0.113657 0.586232 0.192416
Si Si8 0.146833 0.903236 0.225310
O O1 0.715687 0.878296 0.290880
O O2 0.701129 0.752563 0.113177
O O3 0.985026 0.903598 0.333106
O O4 0.180088 0.010012 0.951708
O O5 0.184649 0.357236 0.401414
O O6 0.584900 0.579832 0.370786
O O7 0.382232 0.522991 0.134835
O O8 0.118183 0.455813 0.584263
O O9 0.371284 0.835582 0.483663
O O10 0.384449 0.737318 0.114780
O O11 0.500000 0.000000 0.500000
O O12 0.422883 0.026872 0.235081
O O13 0.825506 0.127733 0.050673
O O14 0.005209 0.197868 0.600439
O O15 0.469252 0.370458 0.204069
O O16 0.206265 0.569400 0.239723
O O17 0.000000 0.500000 0.000000
#
# Coordination Sequence:
#
# PCOD9016952 Si02
#       8
#     2   2   2   2   2   2   2   2
#     4  10  21  42  70 104 133 176 234 281 349 413
#     4  11  24  43  65 101 133 180 240 279 351 412
#     4  10  23  43  71 103 139 184 231 285 349 418
#     4  11  24  43  69 103 145 183 223 285 354 420
#     4  11  24  41  67 100 134 180 234 290 337 418
#     4  11  22  45  71  95 139 184 229 293 352 409
#     4  11  24  45  71  99 141 185 232 294 343 415
#     4  11  24  42  70 103 142 182 230 286 353 413
#
# _framework density 23.118625999999999
#
# number of rings (size 3 to 8) (size 9 to 14) (size 15 to 20)
#    0.000    1.250    3.750    1.500    1.750    0.500 
#    4.500    6.250    0.000    0.000    0.000    0.000 
#    0.000    0.000    0.000    0.000    0.000    0.000 
#
# Total GULP energy -89208.312370 kJ/mol
# GULP energy per Si atom -5575.519523 kJ/mol
# Density = 2.306601 g / cm^3
# Si number density = 23.118626 Si / 1000 Ang^3
#
#
#
# Elastic Constant Matrix: (Units=GPa)
#
#
# Indices 1 2 3 4 5 6 
#
# 1 143.9008 50.5037 17.9220 -1.4954 0.1705 -3.2279
# 2 50.5037 68.2565 20.6268 8.6765 1.7908 5.1595
# 3 17.9220 20.6268 84.3170 -4.4311 -6.8150 -8.4216
# 4 -1.4954 8.6765 -4.4311 19.8878 -4.1527 5.4816
# 5 0.1705 1.7908 -6.8150 -4.1527 30.0688 -5.1634
# 6 -3.2279 5.1595 -8.4216 5.4816 -5.1634 45.2358
#
#
#
# Elastic Compliance Matrix: (Units=1/GPa)
#
#
# Indices 1 2 3 4 5 6 
#
# 1 0.009793 -0.008019 0.000339 0.004221 0.001307 0.001314
# 2 -0.008019 0.024275 -0.005641 -0.012546 -0.005003 -0.003442
# 3 0.000339 -0.005641 0.014184 0.005796 0.004893 0.003164
# 4 0.004221 -0.012546 0.005796 0.060341 0.009790 -0.003383
# 5 0.001307 -0.005003 0.004893 0.009790 0.036797 0.004589
# 6 0.001314 -0.003442 0.003164 -0.003383 0.004589 0.024116
#
#
# Mechanical properties :
#
#
# Convention : Reuss Voigt Hill
#
# Bulk Modulus (GPa) = 46.27591 52.73105 49.50348
# Shear Modulus (GPa) = 24.58802 32.86658 28.72730
#
# Velocity S-wave (km/s) = 3.26476 3.77457 3.52888
# Velocity P-wave (km/s) = 5.85421 6.46954 6.16955
#
# Compressibility (1/GPa) = 0.02160952
#
# Stress axis : x y z
#
# Youngs Moduli (GPa) = 102.11335 41.19510 70.50083
#
# Poissons Ratio (x) = 0.33033 -0.02389
# Poissons Ratio (y) = 0.81880 0.39773
# Poissons Ratio (z) = -0.03460 0.23240
#
# Static dielectric constant tensor:
#      x y z
#    x 1.896930 -0.030930 -0.020050 
#    y -0.030930 1.926860 -0.006630 
#    z -0.020050 -0.006630 1.907400 
# 
# From -- ./inp_files/84424.got.cif
#   From: 2010.05.17/outbox.cif.g08.bks.cpg/sg2_43_cif.got.tgz:84424.got - 2010.06.03 11:33:40.
