data_PCOD9016736
_publ_section_title
;
Structure prediction by ZEFSAII (Michael W. Deem and Ramdas Pophale) SiO2 
 PCOD9016736
Probable space group: P -1
;
_chemical_formula_sum "Si O2"
_cell_formula_units_Z 16
_cell_length_a 8.430964
_cell_length_b 13.473053
_cell_length_c 18.827769
_cell_angle_alpha 21.789058
_cell_angle_beta 103.291854
_cell_angle_gamma 91.320168
_cell_volume 656.501073
_symmetry_space_group_name_H-M "P -1"
_symmetry_group_IT_number 2
_symmetry_cell_setting 'triclinic'
loop_
_space_group_symop_operation_xyz
x,y,z
-x,-y,-z
loop_
_atom_site_type_symbol
_atom_site_label
_atom_site_fract_x
_atom_site_fract_y
_atom_site_fract_z
Si Si1 0.170371 0.735493 0.479372
Si Si2 0.011341 0.409541 0.956459
Si Si3 0.438685 0.682038 0.023913
Si Si4 0.781055 0.608588 0.419260
Si Si5 0.442398 0.335901 0.388583
Si Si6 0.165945 0.425281 0.816409
Si Si7 0.215875 0.809533 0.177275
Si Si8 0.324315 0.347306 0.135975
O O1 0.274135 0.443115 0.630203
O O2 0.340441 0.752726 0.519939
O O3 0.073094 0.661187 0.583432
O O4 0.047884 0.061684 0.207663
O O5 0.188880 0.416684 0.007428
O O6 0.021782 0.461708 0.839525
O O7 0.818128 0.645474 0.821607
O O8 0.376973 0.525220 0.183068
O O9 0.663063 0.552530 0.144896
O O10 0.380275 0.596219 0.001155
O O11 0.329631 0.049360 0.785860
O O12 0.765897 0.376677 0.625640
O O13 0.000000 0.500000 0.500000
O O14 0.331079 0.558698 0.294675
O O15 0.477786 0.989816 0.622458
O O16 0.262072 0.075195 0.025497
O O17 0.000000 0.000000 0.000000
#
# Coordination Sequence:
#
# PCOD9016736 Si02
#       8
#     2   2   2   2   2   2   2   2
#     4  10  21  42  69 102 138 174 222 283 343 403
#     4  10  22  44  73  99 138 184 233 279 333 401
#     4  11  24  41  68 100 137 183 228 280 340 402
#     4  12  24  40  67 100 140 176 221 288 348 405
#     4  10  23  43  68  97 136 180 229 276 341 406
#     4  11  24  43  72 105 135 179 226 283 349 402
#     4  12  26  43  70 104 134 175 228 286 349 413
#     4  10  23  44  70  95 140 188 228 282 331 396
#
# _framework density 24.371628000000001
#
# number of rings (size 3 to 8) (size 9 to 14) (size 15 to 20)
#    0.000    1.250    1.250    4.125    5.250    3.500 
#    0.000   10.000    0.000    0.000    0.000    0.000 
#    0.000    0.000    0.000    0.000    0.000    0.000 
#
# Total GULP energy -89528.284652 kJ/mol
# GULP energy per Si atom -5595.517791 kJ/mol
# Density = 2.431616 g / cm^3
# Si number density = 24.371628 Si / 1000 Ang^3
#
#
#
# Elastic Constant Matrix: (Units=GPa)
#
#
# Indices 1 2 3 4 5 6 
#
# 1 50.8969 27.8294 30.0837 0.3116 -9.7786 -12.5778
# 2 27.8294 144.3048 61.0006 -8.6836 -22.4380 -17.3549
# 3 30.0837 61.0006 78.4710 -8.8366 -10.0921 -8.8236
# 4 0.3116 -8.6836 -8.8366 46.8637 -9.0473 -10.4159
# 5 -9.7786 -22.4380 -10.0921 -9.0473 29.8510 -3.4187
# 6 -12.5778 -17.3549 -8.8236 -10.4159 -3.4187 58.2318
#
#
#
# Elastic Compliance Matrix: (Units=1/GPa)
#
#
# Indices 1 2 3 4 5 6 
#
# 1 0.027553 0.000350 -0.009295 0.000613 0.006924 0.005163
# 2 0.000350 0.011912 -0.007660 0.003036 0.007796 0.003466
# 3 -0.009295 -0.007660 0.022460 0.002697 -0.000441 -0.000431
# 4 0.000613 0.003036 0.002697 0.026274 0.012143 0.006858
# 5 0.006924 0.007796 -0.000441 0.012143 0.046147 0.008633
# 6 0.005163 0.003466 -0.000431 0.006858 0.008633 0.020989
#
#
# Mechanical properties :
#
#
# Convention : Reuss Voigt Hill
#
# Bulk Modulus (GPa) = 34.82528 56.83335 45.82932
# Shear Modulus (GPa) = 25.23767 37.30657 31.27212
#
# Velocity S-wave (km/s) = 3.22146 3.91671 3.58598
# Velocity P-wave (km/s) = 5.30635 6.61999 5.99924
#
# Compressibility (1/GPa) = 0.02871477
#
# Stress axis : x y z
#
# Youngs Moduli (GPa) = 36.29429 83.94919 44.52356
#
# Poissons Ratio (x) = -0.02938 0.41384
# Poissons Ratio (y) = -0.01270 0.34105
# Poissons Ratio (z) = 0.33735 0.64305
#
# Static dielectric constant tensor:
#      x y z
#    x 1.987340 0.083260 -0.045180 
#    y 0.083260 1.980900 -0.022830 
#    z -0.045180 -0.022830 1.994100 
# 
# From -- ./inp_files/590194.got.cif
#   From: 2010.05.17/outbox.cif.g08.bks.cpg/sg2_296_cif.got.tgz:590194.got - 2010.06.03 11:33:40.
