data_PCOD9016058
_publ_section_title
;
Structure prediction by ZEFSAII (Michael W. Deem and Ramdas Pophale) SiO2 
 PCOD9016058
Probable space group: P -1
;
_chemical_formula_sum "Si O2"
_cell_formula_units_Z 14
_cell_length_a 12.466789
_cell_length_b 8.492662
_cell_length_c 7.336174
_cell_angle_alpha 106.105148
_cell_angle_beta 56.652164
_cell_angle_gamma 77.128024
_cell_volume 551.030017
_symmetry_space_group_name_H-M "P -1"
_symmetry_group_IT_number 2
_symmetry_cell_setting 'triclinic'
loop_
_space_group_symop_operation_xyz
x,y,z
-x,-y,-z
loop_
_atom_site_type_symbol
_atom_site_label
_atom_site_fract_x
_atom_site_fract_y
_atom_site_fract_z
Si Si1 0.183915 0.272810 0.256843
Si Si2 0.481603 0.572922 0.744591
Si Si3 0.275093 0.560520 0.218325
Si Si4 0.053619 0.731423 0.988509
Si Si5 0.537038 0.052970 0.179981
Si Si6 0.967986 0.106607 0.329107
Si Si7 0.223242 0.300684 0.664659
O O1 0.164686 0.473118 0.278427
O O2 0.197568 0.284894 0.466820
O O3 0.078830 0.183783 0.298617
O O4 0.326641 0.139570 0.962320
O O5 0.500000 0.500000 0.500000
O O6 0.625940 0.514934 0.715447
O O7 0.412028 0.792996 0.856180
O O8 0.385045 0.508751 0.933009
O O9 0.181935 0.781142 0.388217
O O10 0.895477 0.738989 0.134033
O O11 0.080764 0.813834 0.804444
O O12 0.172379 0.517091 0.826902
O O13 0.036163 0.886365 0.201065
O O14 0.393841 0.153518 0.471720
O O15 0.500000 0.000000 0.000000
#
# Coordination Sequence:
#
# PCOD9016058 Si02
#       7
#     2   2   2   2   2   2   2
#     4  11  23  43  67  95 134 187 224 274 352 411
#     4  11  25  45  74 103 133 184 234 281 351 409
#     4  11  24  46  71  98 150 175 225 299 337 402
#     4  10  23  40  65  97 133 171 229 286 331 406
#     4  10  21  42  68  94 135 177 230 281 341 410
#     4  11  24  43  63  99 136 182 227 276 347 405
#     4  10  21  42  66  93 132 175 219 288 338 393
#
# _framework density 25.406963999999999
#
# number of rings (size 3 to 8) (size 9 to 14) (size 15 to 20)
#    0.000    1.429    4.286    0.429    4.000    5.143 
#    5.143    1.429    0.000    0.000    0.000    0.000 
#    0.000    0.000    0.000    0.000    0.000    0.000 
#
# Total GULP energy -78269.007028 kJ/mol
# GULP energy per Si atom -5590.643359 kJ/mol
# Density = 2.534914 g / cm^3
# Si number density = 25.406964 Si / 1000 Ang^3
#
#
#
# Elastic Constant Matrix: (Units=GPa)
#
#
# Indices 1 2 3 4 5 6 
#
# 1 66.8142 20.7500 26.1848 16.4579 13.5997 10.0859
# 2 20.7500 76.5562 58.9265 21.2309 19.8695 20.3611
# 3 26.1848 58.9265 143.0878 32.5128 -14.8617 -10.8524
# 4 16.4579 21.2309 32.5128 64.2457 2.6029 9.0688
# 5 13.5997 19.8695 -14.8617 2.6029 39.4339 -3.9687
# 6 10.0859 20.3611 -10.8524 9.0688 -3.9687 38.0820
#
#
#
# Elastic Compliance Matrix: (Units=1/GPa)
#
#
# Indices 1 2 3 4 5 6 
#
# 1 0.026840 0.026965 -0.022341 0.001413 -0.034560 -0.031830
# 2 0.026965 0.111335 -0.071594 0.010888 -0.103205 -0.100419
# 3 -0.022341 -0.071594 0.056214 -0.011993 0.072868 0.070665
# 4 0.001413 0.010888 -0.011993 0.020462 -0.013443 -0.015887
# 5 -0.034560 -0.103205 0.072868 -0.013443 0.127856 0.101624
# 6 -0.031830 -0.100419 0.070665 -0.015887 0.101624 0.122891
#
#
# Mechanical properties :
#
#
# Convention : Reuss Voigt Hill
#
# Bulk Modulus (GPa) = 16.54302 55.35339 35.94821
# Shear Modulus (GPa) = 8.06860 40.39212 24.23036
#
# Velocity S-wave (km/s) = 1.78399 3.99156 3.09154
# Velocity P-wave (km/s) = 3.28160 6.56334 5.18875
#
# Compressibility (1/GPa) = 0.06044844
#
# Stress axis : x y z
#
# Youngs Moduli (GPa) = 37.25851 8.98194 17.78921
#
# Poissons Ratio (x) = -0.24220 0.39743
# Poissons Ratio (y) = -1.00469 1.27360
# Poissons Ratio (z) = 0.83240 0.64305
#
# Static dielectric constant tensor:
#      x y z
#    x 2.054210 -0.052920 -0.005740 
#    y -0.052920 1.884290 -0.015730 
#    z -0.005740 -0.015730 2.013470 
# 
# From -- ./inp_files/299086.got.cif
#   From: 2010.05.17/outbox.cif.g08.bks.cpg/sg2_150_cif.got.tgz:299086.got - 2010.06.03 11:33:40.
