data_PCOD9016309
_publ_section_title
;
Structure prediction by ZEFSAII (Michael W. Deem and Ramdas Pophale) SiO2 
 PCOD9016309
Probable space group: P -1
;
_chemical_formula_sum "Si O2"
_cell_formula_units_Z 14
_cell_length_a 15.893938
_cell_length_b 8.109648
_cell_length_c 12.013599
_cell_angle_alpha 85.347016
_cell_angle_beta 36.848192
_cell_angle_gamma 114.113019
_cell_volume 564.957179
_symmetry_space_group_name_H-M "P -1"
_symmetry_group_IT_number 2
_symmetry_cell_setting 'triclinic'
loop_
_space_group_symop_operation_xyz
x,y,z
-x,-y,-z
loop_
_atom_site_type_symbol
_atom_site_label
_atom_site_fract_x
_atom_site_fract_y
_atom_site_fract_z
Si Si1 0.799687 0.181542 0.744143
Si Si2 0.327054 0.194042 0.678332
Si Si3 0.995471 0.429489 0.135504
Si Si4 0.507192 0.213091 0.093823
Si Si5 0.480424 0.878890 0.685196
Si Si6 0.031947 0.989101 0.790396
Si Si7 0.112480 0.212980 0.465835
O O1 0.594822 0.103552 0.005921
O O2 0.000000 0.500000 0.500000
O O3 0.908142 0.150474 0.711765
O O4 0.727021 0.025610 0.714465
O O5 0.500000 0.500000 0.500000
O O6 0.445051 0.137034 0.510693
O O7 0.157756 0.051961 0.970467
O O8 0.196310 0.140214 0.712553
O O9 0.038710 0.271988 0.118664
O O10 0.221484 0.708421 0.948108
O O11 0.716831 0.192512 0.461795
O O12 0.000000 0.500000 0.000000
O O13 0.670760 0.485554 0.832045
O O14 0.534360 0.273859 0.192244
O O15 0.153177 0.152172 0.538576
O O16 0.000000 0.000000 0.500000
#
# Coordination Sequence:
#
# PCOD9016309 Si02
#       7
#     2   2   2   2   2   2   2
#     4   9  22  45  67  96 142 188 239 298 361 437
#     4  10  21  42  67  92 143 182 238 292 369 416
#     4  11  24  46  68  99 139 187 245 296 361 425
#     4  10  23  45  71 105 144 190 243 299 371 444
#     4  11  24  43  77 104 139 189 240 306 360 445
#     4  10  23  43  65 102 141 188 234 305 358 442
#     4  11  24  41  73 107 146 187 242 299 376 442
#
# _framework density 24.780639000000001
#
# number of rings (size 3 to 8) (size 9 to 14) (size 15 to 20)
#    0.000    1.714    1.429    1.286    8.000    1.714 
#   10.286    0.000    0.000    0.000    0.000    0.000 
#    0.000    0.000    0.000    0.000    0.000    0.000 
#
# Total GULP energy -77938.504070 kJ/mol
# GULP energy per Si atom -5567.036005 kJ/mol
# Density = 2.472424 g / cm^3
# Si number density = 24.780639 Si / 1000 Ang^3
#
#
#
# Elastic Constant Matrix: (Units=GPa)
#
#
# Indices 1 2 3 4 5 6 
#
# 1 142.7652 19.0820 58.4725 -17.0506 16.3419 6.0540
# 2 19.0820 84.5274 40.7845 -5.5712 2.0085 6.0637
# 3 58.4725 40.7845 132.3404 -15.0508 2.2171 25.8188
# 4 -17.0506 -5.5712 -15.0508 37.7335 11.8390 -12.8773
# 5 16.3419 2.0085 2.2171 11.8390 62.1727 2.7911
# 6 6.0540 6.0637 25.8188 -12.8773 2.7911 37.9323
#
#
#
# Elastic Compliance Matrix: (Units=1/GPa)
#
#
# Indices 1 2 3 4 5 6 
#
# 1 0.009581 0.000070 -0.004286 0.004822 -0.003433 0.003267
# 2 0.000070 0.013946 -0.004439 0.000865 -0.000525 0.001113
# 3 -0.004286 -0.004439 0.012125 -0.000597 0.001273 -0.007156
# 4 0.004822 0.000865 -0.000597 0.035401 -0.008560 0.012147
# 5 -0.003433 -0.000525 0.001273 -0.008560 0.018791 -0.004523
# 6 0.003267 0.001113 -0.007156 0.012147 -0.004523 0.034990
#
#
# Mechanical properties :
#
#
# Convention : Reuss Voigt Hill
#
# Bulk Modulus (GPa) = 54.51967 66.25677 60.38822
# Shear Modulus (GPa) = 33.72497 43.65396 38.68946
#
# Velocity S-wave (km/s) = 3.69309 4.20171 3.95559
# Velocity P-wave (km/s) = 6.34302 7.09469 6.72936
#
# Compressibility (1/GPa) = 0.01834200
#
# Stress axis : x y z
#
# Youngs Moduli (GPa) = 104.37442 71.70491 82.47555
#
# Poissons Ratio (x) = -0.00504 0.35351
# Poissons Ratio (y) = -0.00733 0.36610
# Poissons Ratio (z) = 0.44737 0.31829
#
# Static dielectric constant tensor:
#      x y z
#    x 2.003010 -0.064120 -0.053560 
#    y -0.064120 1.830410 0.195600 
#    z -0.053560 0.195600 2.183070 
# 
# From -- ./inp_files/445828.got.cif
#   From: 2010.05.17/outbox.cif.g08.bks.cpg/sg2_223_cif.got.tgz:445828.got - 2010.06.03 11:33:40.
