data_PCOD9016155
_publ_section_title
;
Structure prediction by ZEFSAII (Michael W. Deem and Ramdas Pophale) SiO2 
 PCOD9016155
Probable space group: P -1
;
_chemical_formula_sum "Si O2"
_cell_formula_units_Z 16
_cell_length_a 9.415405
_cell_length_b 10.183883
_cell_length_c 12.444636
_cell_angle_alpha 141.105376
_cell_angle_beta 85.662452
_cell_angle_gamma 81.900229
_cell_volume 708.041810
_symmetry_space_group_name_H-M "P -1"
_symmetry_group_IT_number 2
_symmetry_cell_setting 'triclinic'
loop_
_space_group_symop_operation_xyz
x,y,z
-x,-y,-z
loop_
_atom_site_type_symbol
_atom_site_label
_atom_site_fract_x
_atom_site_fract_y
_atom_site_fract_z
Si Si1 0.101883 0.026672 0.914264
Si Si2 0.642424 0.251869 0.910356
Si Si3 0.645626 0.371497 0.759438
Si Si4 0.351756 0.946303 0.001782
Si Si5 0.096327 0.549851 0.929913
Si Si6 0.017607 0.755318 0.381697
Si Si7 0.116822 0.608528 0.512458
Si Si8 0.553243 0.510705 0.627041
O O1 0.234125 0.074327 0.001737
O O2 0.149062 0.797626 0.702624
O O3 0.008302 0.225549 0.973911
O O4 0.000000 0.000000 0.000000
O O5 0.474575 0.400617 0.048104
O O6 0.690030 0.056019 0.871637
O O7 0.751651 0.401458 0.016797
O O8 0.645699 0.204508 0.752034
O O9 0.813685 0.384132 0.754612
O O10 0.601909 0.335162 0.614284
O O11 0.406304 0.688250 0.799768
O O12 0.500000 0.000000 0.000000
O O13 0.105625 0.348481 0.720794
O O14 0.000000 0.500000 0.000000
O O15 0.030035 0.735772 0.495170
O O16 0.000000 0.000000 0.500000
O O17 0.284771 0.446644 0.370877
O O18 0.000000 0.500000 0.500000
O O19 0.500000 0.500000 0.500000
#
# Coordination Sequence:
#
# PCOD9016155 Si02
#       8
#     2   2   2   2   2   2   2   2
#     4  12  25  42  66 104 131 177 240 280 342 416
#     4  10  21  42  66  97 134 174 228 281 339 398
#     4   9  21  39  68  92 128 174 223 276 332 410
#     4  11  25  40  69  99 137 181 231 285 341 404
#     4  12  24  40  70  97 138 179 228 282 337 411
#     4  11  24  44  65  97 135 178 225 278 348 411
#     4  11  25  41  67  96 138 178 221 286 345 404
#     4  10  21  43  64  92 133 177 220 275 341 402
#
# _framework density 22.597536000000002
#
# number of rings (size 3 to 8) (size 9 to 14) (size 15 to 20)
#    0.000    1.250    3.750    1.500    7.000    0.000 
#    0.000    0.625    0.000    0.000    0.000    0.000 
#    0.000    0.000    0.000    0.000    0.000    0.000 
#
# Total GULP energy -89161.978706 kJ/mol
# GULP energy per Si atom -5572.623669 kJ/mol
# Density = 2.254610 g / cm^3
# Si number density = 22.597536 Si / 1000 Ang^3
#
#
#
# Elastic Constant Matrix: (Units=GPa)
#
#
# Indices 1 2 3 4 5 6 
#
# 1 117.6060 41.4020 17.1679 -2.2185 9.2346 -6.2471
# 2 41.4020 162.7180 30.8410 -34.4895 13.0125 -4.3981
# 3 17.1679 30.8410 52.4166 -18.6876 12.3555 -6.1651
# 4 -2.2185 -34.4895 -18.6876 46.0054 -5.6859 2.6698
# 5 9.2346 13.0125 12.3555 -5.6859 34.4371 -7.8402
# 6 -6.2471 -4.3981 -6.1651 2.6698 -7.8402 35.6716
#
#
#
# Elastic Compliance Matrix: (Units=1/GPa)
#
#
# Indices 1 2 3 4 5 6 
#
# 1 0.009796 -0.002479 -0.002275 -0.002499 -0.001065 0.000969
# 2 -0.002479 0.008335 -0.002053 0.005196 -0.000973 -0.000364
# 3 -0.002275 -0.002053 0.025466 0.007843 -0.006038 0.001836
# 4 -0.002499 0.005196 0.007843 0.028791 0.000538 -0.000478
# 5 -0.001065 -0.000973 -0.006038 0.000538 0.033297 0.005928
# 6 0.000969 -0.000364 0.001836 -0.000478 0.005928 0.029814
#
#
# Mechanical properties :
#
#
# Convention : Reuss Voigt Hill
#
# Bulk Modulus (GPa) = 33.35340 56.84027 45.09683
# Shear Modulus (GPa) = 31.42498 39.44479 35.43489
#
# Velocity S-wave (km/s) = 3.73317 4.18249 3.96420
# Velocity P-wave (km/s) = 5.77701 6.96651 6.39946
#
# Compressibility (1/GPa) = 0.02998195
#
# Stress axis : x y z
#
# Youngs Moduli (GPa) = 102.08255 119.97780 39.26730
#
# Poissons Ratio (x) = 0.29748 0.08934
# Poissons Ratio (y) = 0.25311 0.08062
# Poissons Ratio (z) = 0.23226 0.24632
#
# Static dielectric constant tensor:
#      x y z
#    x 1.826550 -0.029770 0.031500 
#    y -0.029770 1.887880 -0.022350 
#    z 0.031500 -0.022350 1.896170 
# 
# From -- ./inp_files/308555.got.cif
#   From: 2010.05.17/outbox.cif.g08.bks.cpg/sg2_155_cif.got.tgz:308555.got - 2010.06.03 11:33:40.
