data_PCOD9016575
_publ_section_title
;
Structure prediction by ZEFSAII (Michael W. Deem and Ramdas Pophale) SiO2 
 PCOD9016575
Probable space group: P -1
;
_chemical_formula_sum "Si O2"
_cell_formula_units_Z 16
_cell_length_a 7.387286
_cell_length_b 16.042942
_cell_length_c 8.598007
_cell_angle_alpha 84.781030
_cell_angle_beta 48.844907
_cell_angle_gamma 112.288828
_cell_volume 619.296760
_symmetry_space_group_name_H-M "P -1"
_symmetry_group_IT_number 2
_symmetry_cell_setting 'triclinic'
loop_
_space_group_symop_operation_xyz
x,y,z
-x,-y,-z
loop_
_atom_site_type_symbol
_atom_site_label
_atom_site_fract_x
_atom_site_fract_y
_atom_site_fract_z
Si Si1 0.218062 0.378137 0.681048
Si Si2 0.351168 0.882493 0.554557
Si Si3 0.245021 0.410170 0.013061
Si Si4 0.714001 0.018059 0.067646
Si Si5 0.096775 0.424230 0.423518
Si Si6 0.686077 0.922142 0.771381
Si Si7 0.360513 0.213545 0.676234
Si Si8 0.649353 0.751366 0.985725
O O1 0.500000 0.500000 0.500000
O O2 0.024039 0.362334 0.640445
O O3 0.298219 0.295221 0.638649
O O4 0.105287 0.368189 0.926452
O O5 0.476371 0.815872 0.530783
O O6 0.008628 0.822743 0.785990
O O7 0.500000 0.000000 0.500000
O O8 0.456497 0.910467 0.310710
O O9 0.034122 0.394727 0.277801
O O10 0.398312 0.355065 0.993781
O O11 0.546046 0.523234 0.794867
O O12 0.588722 0.086454 0.146434
O O13 0.056029 0.099319 0.904762
O O14 0.728852 0.981793 0.896205
O O15 0.000000 0.500000 0.500000
O O16 0.605846 0.810920 0.869459
O O17 0.000000 0.000000 0.500000
O O18 0.493889 0.255032 0.766456
#
# Coordination Sequence:
#
# PCOD9016575 Si02
#       8
#     2   2   2   2   2   2   2   2
#     4   9  21  43  66  94 130 165 209 267 328 386
#     4  12  22  38  64  89 123 167 218 261 315 379
#     4   9  22  41  63  95 127 163 215 261 321 397
#     4  11  23  38  57  88 122 163 214 259 317 379
#     4  10  21  42  68  94 127 166 208 271 331 381
#     4  11  23  38  56  84 127 167 203 265 322 369
#     4  11  23  40  64  89 124 166 217 267 314 386
#     4  11  22  39  61  88 123 169 213 259 319 385
#
# _framework density 25.835757999999998
#
# number of rings (size 3 to 8) (size 9 to 14) (size 15 to 20)
#    0.000    1.500    3.750    1.125    0.000    5.500 
#    0.000    6.250    0.000    0.000    0.000    0.000 
#    0.000    0.000    0.000    0.000    0.000    0.000 
#
# Total GULP energy -89180.321751 kJ/mol
# GULP energy per Si atom -5573.770109 kJ/mol
# Density = 2.577696 g / cm^3
# Si number density = 25.835758 Si / 1000 Ang^3
#
#
#
# Elastic Constant Matrix: (Units=GPa)
#
#
# Indices 1 2 3 4 5 6 
#
# 1 77.7707 12.8397 23.8161 9.6839 29.6598 -13.6856
# 2 12.8397 112.4231 37.6955 21.8419 23.4784 -16.5322
# 3 23.8161 37.6955 190.2452 18.5080 15.1686 -4.4579
# 4 9.6839 21.8419 18.5080 57.7912 4.7587 1.1006
# 5 29.6598 23.4784 15.1686 4.7587 41.3567 -11.7071
# 6 -13.6856 -16.5322 -4.4579 1.1006 -11.7071 42.4375
#
#
#
# Elastic Compliance Matrix: (Units=1/GPa)
#
#
# Indices 1 2 3 4 5 6 
#
# 1 0.018723 0.001951 -0.001395 -0.002430 -0.012846 0.003171
# 2 0.001951 0.011730 -0.001636 -0.003805 -0.006041 0.003459
# 3 -0.001395 -0.001636 0.005860 -0.000994 -0.000251 -0.000515
# 4 -0.002430 -0.003805 -0.000994 0.019406 0.001325 -0.002508
# 5 -0.012846 -0.006041 -0.000251 0.001325 0.037863 0.003888
# 6 0.003171 0.003459 -0.000515 -0.002508 0.003888 0.027018
#
#
# Mechanical properties :
#
#
# Convention : Reuss Voigt Hill
#
# Bulk Modulus (GPa) = 29.28009 58.79353 44.03681
# Shear Modulus (GPa) = 37.27317 48.72292 42.99804
#
# Velocity S-wave (km/s) = 3.80241 4.34737 4.08399
# Velocity P-wave (km/s) = 5.53493 6.92861 6.27061
#
# Compressibility (1/GPa) = 0.03415290
#
# Stress axis : x y z
#
# Youngs Moduli (GPa) = 53.40911 85.25053 170.65359
#
# Poissons Ratio (x) = -0.16630 0.23814
# Poissons Ratio (y) = -0.10419 0.27911
# Poissons Ratio (z) = 0.07453 0.13943
#
# Static dielectric constant tensor:
#      x y z
#    x 2.170940 0.071020 0.043520 
#    y 0.071020 2.029950 0.069360 
#    z 0.043520 0.069360 1.996070 
# 
# From -- ./inp_files/99695.got.cif
#   From: 2010.05.17/outbox.cif.g08.bks.cpg/sg2_50_cif.got.tgz:99695.got - 2010.06.03 11:33:40.
