data_PCOD9016503
_publ_section_title
;
Structure prediction by ZEFSAII (Michael W. Deem and Ramdas Pophale) SiO2 
 PCOD9016503
Probable space group: P -1
;
_chemical_formula_sum "Si O2"
_cell_formula_units_Z 16
_cell_length_a 9.044070
_cell_length_b 11.707796
_cell_length_c 18.628530
_cell_angle_alpha 33.162106
_cell_angle_beta 45.402444
_cell_angle_gamma 41.918670
_cell_volume 703.696663
_symmetry_space_group_name_H-M "P -1"
_symmetry_group_IT_number 2
_symmetry_cell_setting 'triclinic'
loop_
_space_group_symop_operation_xyz
x,y,z
-x,-y,-z
loop_
_atom_site_type_symbol
_atom_site_label
_atom_site_fract_x
_atom_site_fract_y
_atom_site_fract_z
Si Si1 0.009604 0.070777 0.305813
Si Si2 0.382800 0.042012 0.305889
Si Si3 0.476651 0.697430 0.579900
Si Si4 0.911286 0.646994 0.524334
Si Si5 0.417675 0.689692 0.989884
Si Si6 0.376296 0.287677 0.814042
Si Si7 0.711738 0.758280 0.970255
Si Si8 0.945678 0.479009 0.758220
O O1 0.781374 0.198740 0.360416
O O2 0.216882 0.991852 0.333230
O O3 0.065172 0.231950 0.145885
O O4 0.976783 0.862180 0.389470
O O5 0.221734 0.273339 0.281895
O O6 0.490264 0.840596 0.431286
O O7 0.568550 0.093985 0.169188
O O8 0.640980 0.719243 0.573348
O O9 0.525391 0.437406 0.681639
O O10 0.989427 0.515645 0.641484
O O11 0.000000 0.500000 0.500000
O O12 0.185835 0.687669 0.099668
O O13 0.500000 0.500000 0.000000
O O14 0.599338 0.632888 0.022344
O O15 0.175535 0.383486 0.775117
O O16 0.530967 0.022772 0.891149
O O17 0.270311 0.314493 0.915648
#
# Coordination Sequence:
#
# PCOD9016503 Si02
#       8
#     2   2   2   2   2   2   2   2
#     4  11  22  42  68  95 133 175 222 276 323 393
#     4  10  21  42  68 103 132 170 227 273 322 395
#     4  12  23  42  70  96 132 176 220 273 332 388
#     4  12  27  42  63 101 138 175 218 272 335 401
#     4   9  21  41  67  98 136 174 214 274 329 387
#     4  11  24  43  71  96 132 183 217 280 336 388
#     4  10  24  45  65 100 136 170 231 272 331 403
#     4  11  22  44  69  97 135 173 224 274 330 395
#
# _framework density 22.737071
#
# number of rings (size 3 to 8) (size 9 to 14) (size 15 to 20)
#    0.000    1.250    2.500    3.000    0.000    5.000 
#    4.500    4.375    0.000    0.000    0.000    0.000 
#    0.000    0.000    0.000    0.000    0.000    0.000 
#
# Total GULP energy -89585.013966 kJ/mol
# GULP energy per Si atom -5599.063373 kJ/mol
# Density = 2.268532 g / cm^3
# Si number density = 22.737071 Si / 1000 Ang^3
#
#
#
# Elastic Constant Matrix: (Units=GPa)
#
#
# Indices 1 2 3 4 5 6 
#
# 1 148.9477 18.2662 65.4535 -5.7974 -3.4885 18.5641
# 2 18.2662 52.3755 10.5637 -1.4317 -3.1791 17.4255
# 3 65.4535 10.5637 98.9874 4.3033 0.7804 3.9893
# 4 -5.7974 -1.4317 4.3033 32.3515 5.0146 -0.1457
# 5 -3.4885 -3.1791 0.7804 5.0146 53.6270 1.6019
# 6 18.5641 17.4255 3.9893 -0.1457 1.6019 33.0570
#
#
#
# Elastic Compliance Matrix: (Units=1/GPa)
#
#
# Indices 1 2 3 4 5 6 
#
# 1 0.010486 -0.000585 -0.006799 0.002637 0.000643 -0.004780
# 2 -0.000585 0.023788 -0.001716 0.000862 0.001677 -0.012081
# 3 -0.006799 -0.001716 0.014804 -0.003165 -0.000552 0.002949
# 4 0.002637 0.000862 -0.003165 0.032256 -0.002709 -0.001279
# 5 0.000643 0.001677 -0.000552 -0.002709 0.019113 -0.002117
# 6 -0.004780 -0.012081 0.002949 -0.001279 -0.002117 0.039045
#
#
# Mechanical properties :
#
#
# Convention : Reuss Voigt Hill
#
# Bulk Modulus (GPa) = 32.38333 54.31968 43.35151
# Shear Modulus (GPa) = 29.76480 37.54224 33.65352
#
# Velocity S-wave (km/s) = 3.62206 4.06784 3.85140
# Velocity P-wave (km/s) = 5.63612 6.78272 6.23583
#
# Compressibility (1/GPa) = 0.03088008
#
# Stress axis : x y z
#
# Youngs Moduli (GPa) = 95.36114 42.03843 67.54950
#
# Poissons Ratio (x) = 0.02458 0.45924
# Poissons Ratio (y) = 0.05575 0.11590
# Poissons Ratio (z) = 0.64832 0.07213
#
# Static dielectric constant tensor:
#      x y z
#    x 1.793480 -0.020290 -0.016410 
#    y -0.020290 1.923220 -0.015460 
#    z -0.016410 -0.015460 1.840750 
# 
# From -- ./inp_files/559504.got.cif
#   From: 2010.05.17/outbox.cif.g08.bks.cpg/sg2_280_cif.got.tgz:559504.got - 2010.06.03 11:33:40.
