data_PCOD9016801
_publ_section_title
;
Structure prediction by ZEFSAII (Michael W. Deem and Ramdas Pophale) SiO2 
 PCOD9016801
Probable space group: P -1
;
_chemical_formula_sum "Si O2"
_cell_formula_units_Z 16
_cell_length_a 5.752056
_cell_length_b 18.013491
_cell_length_c 13.388529
_cell_angle_alpha 40.879458
_cell_angle_beta 52.717379
_cell_angle_gamma 77.740102
_cell_volume 636.954584
_symmetry_space_group_name_H-M "P -1"
_symmetry_group_IT_number 2
_symmetry_cell_setting 'triclinic'
loop_
_space_group_symop_operation_xyz
x,y,z
-x,-y,-z
loop_
_atom_site_type_symbol
_atom_site_label
_atom_site_fract_x
_atom_site_fract_y
_atom_site_fract_z
Si Si1 0.121405 0.413193 0.350742
Si Si2 0.737959 0.895548 0.754352
Si Si3 0.702816 0.152823 0.264876
Si Si4 0.557880 0.773342 0.554493
Si Si5 0.588651 0.498815 0.628187
Si Si6 0.377639 0.294038 0.717939
Si Si7 0.056017 0.550429 0.823716
Si Si8 0.233048 0.024729 0.108053
O O1 0.762701 0.294029 0.364608
O O2 0.729567 0.324258 0.547636
O O3 0.228256 0.487336 0.144418
O O4 0.196353 0.505199 0.332318
O O5 0.406307 0.831478 0.835715
O O6 0.689447 0.954107 0.813240
O O7 0.925193 0.815986 0.828357
O O8 0.000000 0.000000 0.500000
O O9 0.564995 0.220055 0.309690
O O10 0.500000 0.000000 0.500000
O O11 0.707345 0.676115 0.599589
O O12 0.860812 0.909681 0.310905
O O13 0.773945 0.642217 0.384543
O O14 0.272035 0.494314 0.769409
O O15 0.529600 0.612371 0.306804
O O16 0.219204 0.148790 0.940496
O O17 0.000000 0.500000 0.000000
O O18 0.500000 0.000000 0.000000
#
# Coordination Sequence:
#
# PCOD9016801 Si02
#       8
#     2   2   2   2   2   2   2   2
#     4  10  21  43  67  97 139 183 235 308 367 434
#     4  10  22  44  66  99 148 201 250 305 366 456
#     4  10  21  42  69  93 143 199 241 292 378 440
#     4  11  23  41  69 101 146 192 236 311 377 449
#     4   9  21  43  67  98 128 189 242 300 365 424
#     4  10  21  42  69  96 141 183 241 302 361 453
#     4  10  24  44  69 101 136 187 248 305 374 442
#     4  12  24  45  71 113 147 198 245 299 389 464
#
# _framework density 25.119530000000001
#
# number of rings (size 3 to 8) (size 9 to 14) (size 15 to 20)
#    0.000    1.750    3.750    0.375    1.750    3.000 
#    9.000    6.250    0.000    0.000    0.000    0.000 
#    0.000    0.000    0.000    0.000    0.000    0.000 
#
# Total GULP energy -89291.790552 kJ/mol
# GULP energy per Si atom -5580.736910 kJ/mol
# Density = 2.506236 g / cm^3
# Si number density = 25.119530 Si / 1000 Ang^3
#
#
#
# Elastic Constant Matrix: (Units=GPa)
#
#
# Indices 1 2 3 4 5 6 
#
# 1 123.9801 48.5048 40.1315 6.9742 22.9588 23.3186
# 2 48.5048 156.6718 56.0101 29.8865 22.9301 11.8928
# 3 40.1315 56.0101 104.9396 18.9901 23.3247 4.7315
# 4 6.9742 29.8865 18.9901 44.0970 0.5565 7.7757
# 5 22.9588 22.9301 23.3247 0.5565 32.8298 14.6422
# 6 23.3186 11.8928 4.7315 7.7757 14.6422 44.8013
#
#
#
# Elastic Compliance Matrix: (Units=1/GPa)
#
#
# Indices 1 2 3 4 5 6 
#
# 1 0.010892 -0.002056 -0.002626 0.001597 -0.002408 -0.004336
# 2 -0.002056 0.009343 -0.002527 -0.005034 -0.003613 0.000912
# 3 -0.002626 -0.002527 0.014407 -0.004687 -0.008368 0.004064
# 4 0.001597 -0.005034 -0.004687 0.028934 0.008232 -0.006712
# 5 -0.002408 -0.003613 -0.008368 0.008232 0.046509 -0.013533
# 6 -0.004336 0.000912 0.004064 -0.006712 -0.013533 0.029494
#
#
# Mechanical properties :
#
#
# Convention : Reuss Voigt Hill
#
# Bulk Modulus (GPa) = 49.44936 74.98717 62.21826
# Shear Modulus (GPa) = 31.10616 40.40862 35.75739
#
# Velocity S-wave (km/s) = 3.52280 4.01515 3.77701
# Velocity P-wave (km/s) = 6.02289 7.17023 6.62146
#
# Compressibility (1/GPa) = 0.02022271
#
# Stress axis : x y z
#
# Youngs Moduli (GPa) = 91.81036 107.03546 69.40925
#
# Poissons Ratio (x) = 0.22010 0.18227
# Poissons Ratio (y) = 0.18879 0.17542
# Poissons Ratio (z) = 0.24110 0.27051
#
# Static dielectric constant tensor:
#      x y z
#    x 2.233930 0.044740 -0.058380 
#    y 0.044740 1.967770 -0.027490 
#    z -0.058380 -0.027490 2.121600 
# 
# From -- ./inp_files/369417.got.cif
#   From: 2010.05.17/outbox.cif.g08.bks.cpg/sg2_185_cif.got.tgz:369417.got - 2010.06.03 11:33:40.
