data_PCOD9016526
_publ_section_title
;
Structure prediction by ZEFSAII (Michael W. Deem and Ramdas Pophale) SiO2 
 PCOD9016526
Probable space group: P -1
;
_chemical_formula_sum "Si O2"
_cell_formula_units_Z 14
_cell_length_a 14.952458
_cell_length_b 14.360394
_cell_length_c 26.806341
_cell_angle_alpha 21.403054
_cell_angle_beta 17.530122
_cell_angle_gamma 28.352621
_cell_volume 631.107189
_symmetry_space_group_name_H-M "P -1"
_symmetry_group_IT_number 2
_symmetry_cell_setting 'triclinic'
loop_
_space_group_symop_operation_xyz
x,y,z
-x,-y,-z
loop_
_atom_site_type_symbol
_atom_site_label
_atom_site_fract_x
_atom_site_fract_y
_atom_site_fract_z
Si Si1 0.656889 0.924456 0.590801
Si Si2 0.724048 0.703081 0.249853
Si Si3 0.086397 0.201109 0.631643
Si Si4 0.813321 0.294218 0.629039
Si Si5 0.728694 0.490182 0.241743
Si Si6 0.372930 0.771577 0.919854
Si Si7 0.685706 0.315040 0.195052
O O1 0.567030 0.896184 0.709282
O O2 0.457694 0.723413 0.763793
O O3 0.997248 0.868817 0.427438
O O4 0.594616 0.201407 0.464369
O O5 0.500000 0.500000 0.500000
O O6 0.763551 0.609198 0.219092
O O7 0.627054 0.996516 0.155959
O O8 0.036975 0.715475 0.106582
O O9 0.020052 0.420296 0.596419
O O10 0.407089 0.307206 0.384400
O O11 0.856180 0.182774 0.717378
O O12 0.140985 0.934192 0.759577
O O13 0.490457 0.341862 0.756599
O O14 0.047645 0.469342 0.055749
O O15 0.500000 0.500000 0.000000
#
# Coordination Sequence:
#
# PCOD9016526 Si02
#       7
#     2   2   2   2   2   2   2
#     4  11  23  44  62  97 132 167 220 266 328 391
#     4  11  25  45  68 100 134 169 219 275 332 396
#     4   9  20  44  64  93 132 173 216 266 325 386
#     4  10  23  40  65  95 129 171 211 271 318 382
#     4  12  24  42  67  97 130 173 216 272 326 387
#     4  11  26  44  71  97 131 178 216 272 335 396
#     4  10  21  42  68  88 133 174 212 271 327 379
#
# _framework density 22.183236000000001
#
# number of rings (size 3 to 8) (size 9 to 14) (size 15 to 20)
#    0.000    1.429    4.286    0.000    2.000    4.000 
#    7.714    0.000    0.000    0.000    0.000    0.000 
#    0.000    0.000    0.000    0.000    0.000    0.000 
#
# Total GULP energy -78205.099656 kJ/mol
# GULP energy per Si atom -5586.078547 kJ/mol
# Density = 2.213275 g / cm^3
# Si number density = 22.183236 Si / 1000 Ang^3
#
#
#
# Elastic Constant Matrix: (Units=GPa)
#
#
# Indices 1 2 3 4 5 6 
#
# 1 48.6484 12.7051 18.9736 9.3583 -10.9025 -4.0833
# 2 12.7051 107.1815 20.9142 -6.3831 -8.5610 -13.5013
# 3 18.9736 20.9142 66.2511 6.5056 -7.1273 -6.5108
# 4 9.3583 -6.3831 6.5056 26.6990 -5.1801 1.1465
# 5 -10.9025 -8.5610 -7.1273 -5.1801 22.1849 0.0464
# 6 -4.0833 -13.5013 -6.5108 1.1465 0.0464 38.5908
#
#
#
# Elastic Compliance Matrix: (Units=1/GPa)
#
#
# Indices 1 2 3 4 5 6 
#
# 1 0.026497 -0.001578 -0.005300 -0.006664 0.009151 0.001544
# 2 -0.001578 0.010995 -0.002763 0.004423 0.003606 0.003078
# 3 -0.005300 -0.002763 0.018092 -0.003002 0.001437 0.001612
# 4 -0.006664 0.004423 -0.003002 0.043081 0.007528 -0.000953
# 5 0.009151 0.003606 0.001437 0.007528 0.053179 0.002185
# 6 0.001544 0.003078 0.001612 -0.000953 0.002185 0.027451
#
#
# Mechanical properties :
#
#
# Convention : Reuss Voigt Hill
#
# Bulk Modulus (GPa) = 27.54607 36.36299 31.95453
# Shear Modulus (GPa) = 23.73289 28.79413 26.26351
#
# Velocity S-wave (km/s) = 3.27441 3.60670 3.44457
# Velocity P-wave (km/s) = 5.17109 5.81138 5.50056
#
# Compressibility (1/GPa) = 0.03630282
#
# Stress axis : x y z
#
# Youngs Moduli (GPa) = 37.73982 90.94804 55.27338
#
# Poissons Ratio (x) = 0.14354 0.29293
# Poissons Ratio (y) = 0.05956 0.15271
# Poissons Ratio (z) = 0.20001 0.25128
#
# Static dielectric constant tensor:
#      x y z
#    x 1.789850 0.008310 -0.021490 
#    y 0.008310 1.851770 0.013490 
#    z -0.021490 0.013490 1.826970 
# 
# From -- ./inp_files/139447.got.cif
#   From: 2010.05.17/outbox.cif.g08.bks.cpg/sg2_70_cif.got.tgz:139447.got - 2010.06.03 11:33:40.
