data_PCOD9016584
_publ_section_title
;
Structure prediction by ZEFSAII (Michael W. Deem and Ramdas Pophale) SiO2 
 PCOD9016584
Probable space group: P -1
;
_chemical_formula_sum "Si O2"
_cell_formula_units_Z 16
_cell_length_a 14.642136
_cell_length_b 9.911825
_cell_length_c 14.880530
_cell_angle_alpha 112.544041
_cell_angle_beta 123.512651
_cell_angle_gamma 24.659593
_cell_volume 706.427061
_symmetry_space_group_name_H-M "P -1"
_symmetry_group_IT_number 2
_symmetry_cell_setting 'triclinic'
loop_
_space_group_symop_operation_xyz
x,y,z
-x,-y,-z
loop_
_atom_site_type_symbol
_atom_site_label
_atom_site_fract_x
_atom_site_fract_y
_atom_site_fract_z
Si Si1 0.425498 0.917645 0.178544
Si Si2 0.984320 0.813860 0.953374
Si Si3 0.598362 0.736718 0.434592
Si Si4 0.076621 0.822436 0.268642
Si Si5 0.236558 0.690907 0.919588
Si Si6 0.578742 0.348962 0.602797
Si Si7 0.138635 0.059883 0.641824
Si Si8 0.553588 0.785353 0.808918
O O1 0.540961 0.794950 0.311367
O O2 0.555055 0.646609 0.111152
O O3 0.142568 0.191570 0.111039
O O4 0.442846 0.049669 0.170213
O O5 0.061520 0.771511 0.885677
O O6 0.244969 0.497468 0.074631
O O7 0.775872 0.188881 0.968093
O O8 0.456416 0.775186 0.420438
O O9 0.908000 0.354109 0.520372
O O10 0.500000 0.000000 0.500000
O O11 0.140714 0.915641 0.311898
O O12 0.325129 0.435917 0.270939
O O13 0.991991 0.867860 0.328923
O O14 0.853930 0.073888 0.139525
O O15 0.500000 0.500000 0.500000
O O16 0.375120 0.674773 0.640163
O O17 0.274782 0.048207 0.739483
#
# Coordination Sequence:
#
# PCOD9016584 Si02
#       8
#     2   2   2   2   2   2   2   2
#     4  12  25  42  68 100 134 177 225 275 350 393
#     4  10  23  47  68  96 134 168 228 283 340 400
#     4  12  27  45  69 103 146 180 224 285 338 403
#     4  10  21  42  68  94 134 173 229 276 332 398
#     4  10  23  40  70 101 128 170 220 289 340 403
#     4  11  23  40  68  95 128 182 235 268 330 401
#     4  11  24  44  67  98 134 185 229 272 335 411
#     4  10  25  43  67  98 131 181 221 276 339 412
#
# _framework density 22.649190000000001
#
# number of rings (size 3 to 8) (size 9 to 14) (size 15 to 20)
#    0.000    1.250    1.250    3.375    3.500   10.000 
#    0.000    0.000    0.000    0.000    0.000    0.000 
#    0.000    0.000    0.000    0.000    0.000    0.000 
#
# Total GULP energy -89176.953313 kJ/mol
# GULP energy per Si atom -5573.559582 kJ/mol
# Density = 2.259764 g / cm^3
# Si number density = 22.649190 Si / 1000 Ang^3
#
#
#
# Elastic Constant Matrix: (Units=GPa)
#
#
# Indices 1 2 3 4 5 6 
#
# 1 130.8069 51.0104 51.8462 -9.3889 6.0944 2.5371
# 2 51.0104 48.2167 15.2412 8.5464 5.6871 -7.3990
# 3 51.8462 15.2412 106.9463 -10.1337 -10.6320 -15.0566
# 4 -9.3889 8.5464 -10.1337 20.1610 -3.9915 -1.6159
# 5 6.0944 5.6871 -10.6320 -3.9915 43.6554 3.1096
# 6 2.5371 -7.3990 -15.0566 -1.6159 3.1096 34.1288
#
#
#
# Elastic Compliance Matrix: (Units=1/GPa)
#
#
# Indices 1 2 3 4 5 6 
#
# 1 0.021172 -0.024849 -0.006326 0.016669 0.000909 -0.009046
# 2 -0.024849 0.055449 0.002103 -0.034370 -0.007371 0.013841
# 3 -0.006326 0.002103 0.013905 0.004480 0.003913 0.006916
# 4 0.016669 -0.034370 0.004480 0.075932 0.010474 -0.004073
# 5 0.000909 -0.007371 0.003913 0.010474 0.025778 -0.001792
# 6 -0.009046 0.013841 0.006916 -0.004073 -0.001792 0.035996
#
#
# Mechanical properties :
#
#
# Convention : Reuss Voigt Hill
#
# Bulk Modulus (GPa) = 30.88133 58.01839 44.44986
# Shear Modulus (GPa) = 16.82538 30.78051 23.80294
#
# Velocity S-wave (km/s) = 2.72852 3.69048 3.24534
# Velocity P-wave (km/s) = 4.85702 6.62051 5.80611
#
# Compressibility (1/GPa) = 0.03238203
#
# Stress axis : x y z
#
# Youngs Moduli (GPa) = 47.23180 18.03461 71.91683
#
# Poissons Ratio (x) = 0.44814 0.45498
# Poissons Ratio (y) = 1.17366 -0.15127
# Poissons Ratio (z) = 0.29881 -0.03793
#
# Static dielectric constant tensor:
#      x y z
#    x 1.911180 -0.055980 0.189260 
#    y -0.055980 1.944140 -0.190110 
#    z 0.189260 -0.190110 2.390460 
# 
# From -- ./inp_files/515775.got.cif
#   From: 2010.05.17/outbox.cif.g08.bks.cpg/sg2_258_cif.got.tgz:515775.got - 2010.06.03 11:33:40.
