data_PCOD9016103
_publ_section_title
;
Structure prediction by ZEFSAII (Michael W. Deem and Ramdas Pophale) SiO2 
 PCOD9016103
Probable space group: P -1
;
_chemical_formula_sum "Si O2"
_cell_formula_units_Z 16
_cell_length_a 11.955254
_cell_length_b 9.375009
_cell_length_c 15.878035
_cell_angle_alpha 65.494491
_cell_angle_beta 151.189986
_cell_angle_gamma 102.304633
_cell_volume 733.066370
_symmetry_space_group_name_H-M "P -1"
_symmetry_group_IT_number 2
_symmetry_cell_setting 'triclinic'
loop_
_space_group_symop_operation_xyz
x,y,z
-x,-y,-z
loop_
_atom_site_type_symbol
_atom_site_label
_atom_site_fract_x
_atom_site_fract_y
_atom_site_fract_z
Si Si1 0.156271 0.674209 0.736975
Si Si2 0.624963 0.685379 0.117572
Si Si3 0.216430 0.061870 0.274197
Si Si4 0.376948 0.238438 0.706350
Si Si5 0.515994 0.338281 0.604555
Si Si6 0.171597 0.109074 0.907955
Si Si7 0.939532 0.736991 0.032050
Si Si8 0.041537 0.358257 0.203525
O O1 0.260792 0.505533 0.791902
O O2 0.891358 0.771184 0.494880
O O3 0.111259 0.630678 0.814771
O O4 0.369065 0.753941 0.876989
O O5 0.607528 0.697675 0.204312
O O6 0.791382 0.795123 0.173605
O O7 0.034378 0.229852 0.159155
O O8 0.500000 0.000000 0.500000
O O9 0.229004 0.122894 0.173006
O O10 0.079810 0.932233 0.239007
O O11 0.428699 0.357972 0.638953
O O12 0.595864 0.060692 0.886889
O O13 0.500000 0.500000 0.500000
O O14 0.322161 0.277359 0.442659
O O15 0.800455 0.232791 0.813221
O O16 0.157666 0.233621 0.945079
O O17 0.983028 0.545228 0.085171
#
# Coordination Sequence:
#
# PCOD9016103 Si02
#       8
#     2   2   2   2   2   2   2   2
#     4  10  23  44  71  98 136 176 238 286 338 411
#     4  11  24  47  67 101 137 182 234 288 339 413
#     4  12  26  41  64 104 138 176 227 289 342 416
#     4  11  23  42  71  99 136 184 224 288 349 404
#     4   9  20  39  68  97 127 174 226 277 340 411
#     4  12  25  44  67  97 141 180 225 283 352 409
#     4  11  22  43  65  94 134 181 219 272 351 412
#     4  10  21  42  66  95 129 175 224 280 340 411
#
# _framework density 21.826128000000001
#
# number of rings (size 3 to 8) (size 9 to 14) (size 15 to 20)
#    0.000    1.250    2.500    3.000    3.500    0.500 
#    2.250    0.000    0.000    0.000    0.000    0.000 
#    0.000    0.000    0.000    0.000    0.000    0.000 
#
# Total GULP energy -89234.435504 kJ/mol
# GULP energy per Si atom -5577.152219 kJ/mol
# Density = 2.177645 g / cm^3
# Si number density = 21.826128 Si / 1000 Ang^3
#
#
#
# Elastic Constant Matrix: (Units=GPa)
#
#
# Indices 1 2 3 4 5 6 
#
# 1 110.6921 35.4510 11.1154 2.7548 -17.5353 -3.1123
# 2 35.4510 86.7059 4.0646 2.7682 -5.9664 -1.3637
# 3 11.1154 4.0646 106.5419 3.4639 7.8729 15.6564
# 4 2.7548 2.7682 3.4639 19.0999 2.5742 1.7182
# 5 -17.5353 -5.9664 7.8729 2.5742 33.9902 -0.3855
# 6 -3.1123 -1.3637 15.6564 1.7182 -0.3855 28.3905
#
#
#
# Elastic Compliance Matrix: (Units=1/GPa)
#
#
# Indices 1 2 3 4 5 6 
#
# 1 0.011564 -0.004158 -0.001745 -0.001729 0.005797 0.002214
# 2 -0.004158 0.013309 -0.000101 -0.001384 0.000323 0.000327
# 3 -0.001745 -0.000101 0.010748 -0.000670 -0.003426 -0.006129
# 4 -0.001729 -0.001384 -0.000670 0.053905 -0.005099 -0.003218
# 5 0.005797 0.000323 -0.003426 -0.005099 0.033685 0.003306
# 6 0.002214 0.000327 -0.006129 -0.003218 0.003306 0.039101
#
#
# Mechanical properties :
#
#
# Convention : Reuss Voigt Hill
#
# Bulk Modulus (GPa) = 42.34850 45.02243 43.68546
# Shear Modulus (GPa) = 27.44374 33.18336 30.31355
#
# Velocity S-wave (km/s) = 3.54980 3.90340 3.73079
# Velocity P-wave (km/s) = 6.02049 6.40218 6.21426
#
# Compressibility (1/GPa) = 0.02361359
#
# Stress axis : x y z
#
# Youngs Moduli (GPa) = 86.47226 75.13467 93.04441
#
# Poissons Ratio (x) = 0.31238 0.16239
# Poissons Ratio (y) = 0.35951 0.00940
# Poissons Ratio (z) = 0.15092 0.00759
#
# Static dielectric constant tensor:
#      x y z
#    x 1.834180 -0.029970 -0.012810 
#    y -0.029970 1.850080 0.109340 
#    z -0.012810 0.109340 1.983060 
# 
# From -- ./inp_files/501271.got.cif
#   From: 2010.05.17/outbox.cif.g08.bks.cpg/sg2_251_cif.got.tgz:501271.got - 2010.06.03 11:33:40.
