data_PCOD9016752
_publ_section_title
;
Structure prediction by ZEFSAII (Michael W. Deem and Ramdas Pophale) SiO2 
 PCOD9016752
Probable space group: P -1
;
_chemical_formula_sum "Si O2"
_cell_formula_units_Z 16
_cell_length_a 17.017658
_cell_length_b 17.931769
_cell_length_c 8.600782
_cell_angle_alpha 143.405361
_cell_angle_beta 29.931823
_cell_angle_gamma 150.229940
_cell_volume 636.516614
_symmetry_space_group_name_H-M "P -1"
_symmetry_group_IT_number 2
_symmetry_cell_setting 'triclinic'
loop_
_space_group_symop_operation_xyz
x,y,z
-x,-y,-z
loop_
_atom_site_type_symbol
_atom_site_label
_atom_site_fract_x
_atom_site_fract_y
_atom_site_fract_z
Si Si1 0.249540 0.256502 0.474084
Si Si2 0.396129 0.239771 0.712508
Si Si3 0.994145 0.490186 0.803377
Si Si4 0.597929 0.425865 0.400681
Si Si5 0.742050 0.975036 0.150502
Si Si6 0.163331 0.809567 0.887013
Si Si7 0.302010 0.967260 0.224370
Si Si8 0.968394 0.769200 0.688430
O O1 0.405147 0.318749 0.449812
O O2 0.335183 0.401902 0.455650
O O3 0.221591 0.115361 0.191077
O O4 0.046288 0.219330 0.818050
O O5 0.567823 0.382812 0.563051
O O6 0.422138 0.160625 0.683224
O O7 0.308766 0.109909 0.512144
O O8 0.232785 0.264680 0.071657
O O9 0.053186 0.380129 0.459692
O O10 0.117521 0.651842 0.770629
O O11 0.769298 0.416045 0.029420
O O12 0.000000 0.500000 0.000000
O O13 0.722735 0.102436 0.317770
O O14 0.921260 0.083839 0.141080
O O15 0.279560 0.936651 0.032181
O O16 0.114439 0.820806 0.380237
O O17 0.500000 0.000000 0.000000
#
# Coordination Sequence:
#
# PCOD9016752 Si02
#       8
#     2   2   2   2   2   2   2   2
#     4  10  21  42  69 104 134 176 229 288 332 403
#     4  11  23  40  67 102 141 178 221 283 340 402
#     4  11  24  45  73  94 131 183 237 276 331 415
#     4  10  23  43  72 100 135 179 234 275 334 408
#     4  11  23  38  63  99 138 170 216 280 346 393
#     4  11  22  41  71  98 132 182 228 275 342 410
#     4  11  22  41  69  97 136 183 233 275 331 412
#     4  11  23  43  65 101 138 179 225 283 345 397
#
# _framework density 25.136814000000001
#
# number of rings (size 3 to 8) (size 9 to 14) (size 15 to 20)
#    0.000    1.250    1.250    5.625    1.750    1.000 
#    0.000    5.625    0.000    0.000    0.000    0.000 
#    0.000    0.000    0.000    0.000    0.000    0.000 
#
# Total GULP energy -89524.797729 kJ/mol
# GULP energy per Si atom -5595.299858 kJ/mol
# Density = 2.507960 g / cm^3
# Si number density = 25.136814 Si / 1000 Ang^3
#
#
#
# Elastic Constant Matrix: (Units=GPa)
#
#
# Indices 1 2 3 4 5 6 
#
# 1 101.9879 54.4880 33.2330 -10.4435 -7.8801 -17.4022
# 2 54.4880 145.6885 49.9800 6.2712 0.6427 -45.7549
# 3 33.2330 49.9800 84.4020 -0.2180 -20.6967 -2.5048
# 4 -10.4435 6.2712 -0.2180 47.3033 -1.5518 10.0521
# 5 -7.8801 0.6427 -20.6967 -1.5518 28.6454 -9.1092
# 6 -17.4022 -45.7549 -2.5048 10.0521 -9.1092 69.9405
#
#
#
# Elastic Compliance Matrix: (Units=1/GPa)
#
#
# Indices 1 2 3 4 5 6 
#
# 1 0.013433 -0.004444 -0.002006 0.003591 0.002600 0.000186
# 2 -0.004444 0.013605 -0.007214 -0.004583 -0.004571 0.007600
# 3 -0.002006 -0.007214 0.020072 0.001682 0.013245 -0.003016
# 4 0.003591 -0.004583 0.001682 0.023717 0.001937 -0.005201
# 5 0.002600 -0.004571 0.013245 0.001937 0.046651 0.003928
# 6 0.000186 0.007600 -0.003016 -0.005201 0.003928 0.020467
#
#
# Mechanical properties :
#
#
# Convention : Reuss Voigt Hill
#
# Bulk Modulus (GPa) = 50.54662 67.49784 59.02223
# Shear Modulus (GPa) = 29.09249 42.13633 35.61441
#
# Velocity S-wave (km/s) = 3.40570 4.09868 3.76815
# Velocity P-wave (km/s) = 5.96802 7.02206 6.51639
#
# Compressibility (1/GPa) = 0.01978371
#
# Stress axis : x y z
#
# Youngs Moduli (GPa) = 74.44363 73.50293 49.82011
#
# Poissons Ratio (x) = 0.32662 0.09992
# Poissons Ratio (y) = 0.33080 0.35940
# Poissons Ratio (z) = 0.14930 0.53025
#
# Static dielectric constant tensor:
#      x y z
#    x 2.007320 -0.075770 0.015430 
#    y -0.075770 2.024880 -0.036700 
#    z 0.015430 -0.036700 2.013920 
# 
# From -- ./inp_files/336793.got.cif
#   From: 2010.05.17/outbox.cif.g08.bks.cpg/sg2_169_cif.got.tgz:336793.got - 2010.06.03 11:33:40.
