data_PCOD9016012
_publ_section_title
;
Structure prediction by ZEFSAII (Michael W. Deem and Ramdas Pophale) SiO2 
 PCOD9016012
Probable space group: P -1
;
_chemical_formula_sum "Si O2"
_cell_formula_units_Z 14
_cell_length_a 8.568667
_cell_length_b 11.508125
_cell_length_c 11.661302
_cell_angle_alpha 60.137922
_cell_angle_beta 52.187836
_cell_angle_gamma 40.397587
_cell_volume 587.680298
_symmetry_space_group_name_H-M "P -1"
_symmetry_group_IT_number 2
_symmetry_cell_setting 'triclinic'
loop_
_space_group_symop_operation_xyz
x,y,z
-x,-y,-z
loop_
_atom_site_type_symbol
_atom_site_label
_atom_site_fract_x
_atom_site_fract_y
_atom_site_fract_z
Si Si1 0.079697 0.898391 0.895090
Si Si2 0.551984 0.287211 0.607853
Si Si3 0.124970 0.558457 0.836430
Si Si4 0.208949 0.568124 0.444375
Si Si5 0.720615 0.976184 0.833603
Si Si6 0.296492 0.362547 0.288370
Si Si7 0.280241 0.532637 0.005299
O O1 0.382668 0.799673 0.773530
O O2 0.871896 0.013223 0.830671
O O3 0.055985 0.747391 0.999901
O O4 0.000000 0.000000 0.000000
O O5 0.274419 0.437781 0.721237
O O6 0.459787 0.365032 0.482373
O O7 0.739977 0.313873 0.570281
O O8 0.631269 0.102541 0.701608
O O9 0.931618 0.769011 0.802589
O O10 0.353880 0.491752 0.859687
O O11 0.000000 0.500000 0.000000
O O12 0.217488 0.523906 0.327105
O O13 0.910274 0.656903 0.569761
O O14 0.500000 0.000000 0.000000
O O15 0.236597 0.419158 0.152856
O O16 0.500000 0.500000 0.000000
#
# Coordination Sequence:
#
# PCOD9016012 Si02
#       7
#     2   2   2   2   2   2   2
#     4  10  23  38  63 100 128 159 210 282 340 372
#     4  11  23  42  66  94 133 170 228 255 335 386
#     4  11  21  38  64  97 127 162 209 277 338 374
#     4  10  23  41  68  90 128 192 213 260 303 408
#     4  11  24  39  63 102 131 164 215 283 331 388
#     4  10  21  42  66  90 128 172 229 251 327 386
#     4   9  19  34  62  90 118 156 206 272 318 372
#
# _framework density 23.822476999999999
#
# number of rings (size 3 to 8) (size 9 to 14) (size 15 to 20)
#    0.000    1.714    1.429    3.429    8.000    1.143 
#    0.000    7.143    3.143    0.000    0.000    0.000 
#    0.000    0.000    0.000    0.000    0.000    0.000 
#
# Total GULP energy -77993.313552 kJ/mol
# GULP energy per Si atom -5570.950968 kJ/mol
# Density = 2.376826 g / cm^3
# Si number density = 23.822477 Si / 1000 Ang^3
#
#
#
# Elastic Constant Matrix: (Units=GPa)
#
#
# Indices 1 2 3 4 5 6 
#
# 1 67.0511 11.7099 5.8580 6.4202 -22.8613 -15.8372
# 2 11.7099 79.5606 22.7876 -8.3775 5.0753 -10.7277
# 3 5.8580 22.7876 66.4422 1.2231 -8.5521 -12.6426
# 4 6.4202 -8.3775 1.2231 45.4991 -9.9213 2.9271
# 5 -22.8613 5.0753 -8.5521 -9.9213 65.6718 4.5482
# 6 -15.8372 -10.7277 -12.6426 2.9271 4.5482 28.4070
#
#
#
# Elastic Compliance Matrix: (Units=1/GPa)
#
#
# Indices 1 2 3 4 5 6 
#
# 1 0.020088 -0.002839 0.002028 -0.002687 0.006358 0.010289
# 2 -0.002839 0.015113 -0.004914 0.002627 -0.002543 0.002074
# 3 0.002028 -0.004914 0.018297 -0.001544 0.002741 0.007138
# 4 -0.002687 0.002627 -0.001544 0.023692 0.002519 -0.004038
# 5 0.006358 -0.002543 0.002741 0.002519 0.018332 0.000609
# 6 0.010289 0.002074 0.007138 -0.004038 0.000609 0.045217
#
#
# Mechanical properties :
#
#
# Convention : Reuss Voigt Hill
#
# Bulk Modulus (GPa) = 23.78233 32.64054 28.21143
# Shear Modulus (GPa) = 30.08354 39.42883 34.75619
#
# Velocity S-wave (km/s) = 3.55748 4.07272 3.82379
# Velocity P-wave (km/s) = 5.18450 5.98727 5.60028
#
# Compressibility (1/GPa) = 0.04204803
#
# Stress axis : x y z
#
# Youngs Moduli (GPa) = 49.78171 66.16909 54.65477
#
# Poissons Ratio (x) = 0.18783 -0.11084
# Poissons Ratio (y) = 0.14131 0.26857
# Poissons Ratio (z) = -0.10096 0.32515
#
# Static dielectric constant tensor:
#      x y z
#    x 2.183180 0.027880 -0.176490 
#    y 0.027880 1.931420 -0.099190 
#    z -0.176490 -0.099190 1.981660 
# 
# From -- ./inp_files/389639.got.cif
#   From: 2010.05.17/outbox.cif.g08.bks.cpg/sg2_195_cif.got.tgz:389639.got - 2010.06.03 11:33:40.
