data_PCOD9016066
_publ_section_title
;
Structure prediction by ZEFSAII (Michael W. Deem and Ramdas Pophale) SiO2 
 PCOD9016066
Probable space group: P -1
;
_chemical_formula_sum "Si O2"
_cell_formula_units_Z 16
_cell_length_a 10.680306
_cell_length_b 9.120808
_cell_length_c 16.021683
_cell_angle_alpha 112.990323
_cell_angle_beta 149.131711
_cell_angle_gamma 75.468733
_cell_volume 725.301616
_symmetry_space_group_name_H-M "P -1"
_symmetry_group_IT_number 2
_symmetry_cell_setting 'triclinic'
loop_
_space_group_symop_operation_xyz
x,y,z
-x,-y,-z
loop_
_atom_site_type_symbol
_atom_site_label
_atom_site_fract_x
_atom_site_fract_y
_atom_site_fract_z
Si Si1 0.239251 0.637769 0.666451
Si Si2 0.873856 0.390482 0.781869
Si Si3 0.067924 0.289110 0.205087
Si Si4 0.364149 0.889770 0.163431
Si Si5 0.507674 0.115823 0.452157
Si Si6 0.573348 0.336459 0.034112
Si Si7 0.390028 0.998582 0.841027
Si Si8 0.620530 0.438777 0.819019
O O1 0.363010 0.645240 0.829278
O O2 0.213163 0.826427 0.683164
O O3 0.430866 0.552291 0.704316
O O4 0.000000 0.500000 0.500000
O O5 0.813284 0.542482 0.730273
O O6 0.771581 0.234345 0.634376
O O7 0.737008 0.371926 0.788675
O O8 0.162173 0.443299 0.980833
O O9 0.280355 0.212996 0.352875
O O10 0.832617 0.311236 0.133036
O O11 0.930511 0.175982 0.026994
O O12 0.465449 0.720703 0.206787
O O13 0.458996 0.013257 0.317740
O O14 0.432865 0.983109 0.135601
O O15 0.500000 0.000000 0.500000
O O16 0.500000 0.500000 0.000000
O O17 0.348988 0.184717 0.856700
O O18 0.500000 0.000000 0.000000
#
# Coordination Sequence:
#
# PCOD9016066 Si02
#       8
#     2   2   2   2   2   2   2   2
#     4  11  24  39  67  96 130 171 227 287 336 394
#     4  10  22  40  65  92 136 179 227 274 333 412
#     4  10  23  40  65  96 135 182 224 272 343 414
#     4  10  21  42  66  93 139 178 221 280 341 409
#     4  12  24  38  61 102 138 173 225 280 338 398
#     4  10  21  44  68  92 133 178 224 274 337 408
#     4   9  21  41  65  97 125 174 230 270 334 405
#     4  10  22  43  65  96 134 183 226 272 347 409
#
# _framework density 22.05979
#
# number of rings (size 3 to 8) (size 9 to 14) (size 15 to 20)
#    0.000    1.750    1.250    3.000    3.500    3.000 
#    0.000    7.500    0.000    0.000    0.000    0.000 
#    0.000    0.000    0.000    0.000    0.000    0.000 
#
# Total GULP energy -89067.380971 kJ/mol
# GULP energy per Si atom -5566.711311 kJ/mol
# Density = 2.200958 g / cm^3
# Si number density = 22.059790 Si / 1000 Ang^3
#
#
#
# Elastic Constant Matrix: (Units=GPa)
#
#
# Indices 1 2 3 4 5 6 
#
# 1 78.0149 15.5929 15.2752 4.9787 -10.1648 9.7147
# 2 15.5929 122.1540 44.7619 29.4163 15.6609 12.6446
# 3 15.2752 44.7619 95.0637 37.3541 6.5213 -6.3507
# 4 4.9787 29.4163 37.3541 45.3728 5.8432 3.6124
# 5 -10.1648 15.6609 6.5213 5.8432 17.4752 -3.0603
# 6 9.7147 12.6446 -6.3507 3.6124 -3.0603 35.5520
#
#
#
# Elastic Compliance Matrix: (Units=1/GPa)
#
#
# Indices 1 2 3 4 5 6 
#
# 1 0.015628 -0.002347 -0.002707 0.000807 0.011405 -0.003020
# 2 -0.002347 0.012607 -0.004085 -0.002697 -0.011158 -0.005259
# 3 -0.002707 -0.004085 0.018295 -0.012751 0.000717 0.006818
# 4 0.000807 -0.002697 -0.012751 0.035301 -0.005134 -0.005568
# 5 0.011405 -0.011158 0.000717 -0.005134 0.076726 0.008106
# 6 -0.003020 -0.005259 0.006818 -0.005568 0.008106 0.033305
#
#
# Mechanical properties :
#
#
# Convention : Reuss Voigt Hill
#
# Bulk Modulus (GPa) = 35.39748 49.61030 42.50389
# Shear Modulus (GPa) = 22.77305 34.32017 28.54661
#
# Velocity S-wave (km/s) = 3.21648 3.94862 3.60120
# Velocity P-wave (km/s) = 5.46583 6.58229 6.04987
#
# Compressibility (1/GPa) = 0.02825060
#
# Stress axis : x y z
#
# Youngs Moduli (GPa) = 63.98900 79.31854 54.66120
#
# Poissons Ratio (x) = 0.18614 0.14799
# Poissons Ratio (y) = 0.15017 0.22331
# Poissons Ratio (z) = 0.17324 0.32404
#
# Static dielectric constant tensor:
#      x y z
#    x 1.847380 -0.031400 -0.017460 
#    y -0.031400 1.905750 0.021110 
#    z -0.017460 0.021110 1.823390 
# 
# From -- ./inp_files/566172.got.cif
#   From: 2010.05.17/outbox.cif.g08.bks.cpg/sg2_284_cif.got.tgz:566172.got - 2010.06.03 11:33:40.
