data_PCOD9016860
_publ_section_title
;
Structure prediction by ZEFSAII (Michael W. Deem and Ramdas Pophale) SiO2 
 PCOD9016860
Probable space group: P -1
;
_chemical_formula_sum "Si O2"
_cell_formula_units_Z 14
_cell_length_a 5.592884
_cell_length_b 6.398244
_cell_length_c 18.842144
_cell_angle_alpha 75.387748
_cell_angle_beta 108.950049
_cell_angle_gamma 110.685928
_cell_volume 589.348663
_symmetry_space_group_name_H-M "P -1"
_symmetry_group_IT_number 2
_symmetry_cell_setting 'triclinic'
loop_
_space_group_symop_operation_xyz
x,y,z
-x,-y,-z
loop_
_atom_site_type_symbol
_atom_site_label
_atom_site_fract_x
_atom_site_fract_y
_atom_site_fract_z
Si Si1 0.608747 0.955220 0.437627
Si Si2 0.404379 0.207255 0.278210
Si Si3 0.776984 0.122212 0.829478
Si Si4 0.115745 0.374348 0.462767
Si Si5 0.031269 0.464382 0.294104
Si Si6 0.134510 0.405022 0.957377
Si Si7 0.470851 0.867546 0.932671
O O1 0.448904 0.014335 0.351671
O O2 0.892132 0.142759 0.439497
O O3 0.500000 0.000000 0.500000
O O4 0.657611 0.713799 0.472368
O O5 0.196661 0.305346 0.291093
O O6 0.706862 0.368655 0.276531
O O7 0.266234 0.104502 0.200222
O O8 0.864450 0.317713 0.763902
O O9 0.982115 0.213424 0.904689
O O10 0.512327 0.053784 0.858846
O O11 0.139699 0.510890 0.380738
O O12 0.000000 0.500000 0.500000
O O13 0.234379 0.647163 0.906287
O O14 0.321086 0.277261 0.024564
O O15 0.000000 0.500000 0.000000
O O16 0.500000 0.000000 0.000000
#
# Coordination Sequence:
#
# PCOD9016860 Si02
#       7
#     2   2   2   2   2   2   2
#     4  10  21  42  69  96 139 191 244 303 355 429
#     4  11  27  48  70 105 152 195 248 305 374 428
#     4  12  27  44  77 102 149 190 238 306 371 441
#     4  10  23  41  72 102 140 190 251 303 360 432
#     4  11  27  48  69 111 149 193 246 309 368 439
#     4  11  25  46  72 108 141 182 244 295 354 444
#     4  11  25  46  76 108 140 189 242 294 366 438
#
# _framework density 23.755037999999999
#
# number of rings (size 3 to 8) (size 9 to 14) (size 15 to 20)
#    0.000    1.143    2.857    1.286    4.000    6.286 
#    0.000    0.000    0.000    0.000    0.000    0.000 
#    0.000    0.000    0.000    0.000    0.000    0.000 
#
# Total GULP energy -77951.651728 kJ/mol
# GULP energy per Si atom -5567.975123 kJ/mol
# Density = 2.370097 g / cm^3
# Si number density = 23.755038 Si / 1000 Ang^3
#
#
#
# Elastic Constant Matrix: (Units=GPa)
#
#
# Indices 1 2 3 4 5 6 
#
# 1 78.4199 39.4927 29.2372 1.0272 -8.5566 -14.0982
# 2 39.4927 85.4956 26.1908 -3.7613 -7.2018 3.3231
# 3 29.2372 26.1908 113.5887 5.3488 -28.5045 4.5812
# 4 1.0272 -3.7613 5.3488 59.1637 10.2321 -14.4498
# 5 -8.5566 -7.2018 -28.5045 10.2321 41.8542 3.8616
# 6 -14.0982 3.3231 4.5812 -14.4498 3.8616 59.6305
#
#
#
# Elastic Compliance Matrix: (Units=1/GPa)
#
#
# Indices 1 2 3 4 5 6 
#
# 1 0.018922 -0.007902 -0.003452 0.000907 -0.000566 0.005436
# 2 -0.007902 0.015956 -0.001537 0.000656 0.000152 -0.002490
# 3 -0.003452 -0.001537 0.012507 -0.003420 0.008668 -0.003082
# 4 0.000907 0.000656 -0.003420 0.019928 -0.007433 0.005751
# 5 -0.000566 0.000152 0.008668 -0.007433 0.031955 -0.004679
# 6 0.005436 -0.002490 -0.003082 0.005751 -0.004679 0.020127
#
#
# Mechanical properties :
#
#
# Convention : Reuss Voigt Hill
#
# Bulk Modulus (GPa) = 46.29155 51.92727 49.10941
# Shear Modulus (GPa) = 32.81276 44.30193 38.55734
#
# Velocity S-wave (km/s) = 3.72061 4.32319 4.03317
# Velocity P-wave (km/s) = 6.16333 6.84302 6.51205
#
# Compressibility (1/GPa) = 0.02160221
#
# Stress axis : x y z
#
# Youngs Moduli (GPa) = 52.84820 62.67182 79.95306
#
# Poissons Ratio (x) = 0.49524 0.27602
# Poissons Ratio (y) = 0.41761 0.12291
# Poissons Ratio (z) = 0.18245 0.09635
#
# Static dielectric constant tensor:
#      x y z
#    x 2.042510 0.111370 -0.045710 
#    y 0.111370 1.926120 -0.071610 
#    z -0.045710 -0.071610 1.863150 
# 
# From -- ./inp_files/13783.got.cif
#   From: 2010.05.17/outbox.cif.g08.bks.cpg/sg2_7_cif.got.tgz:13783.got - 2010.06.03 11:33:40.
