data_PCOD9016029
_publ_section_title
;
Structure prediction by ZEFSAII (Michael W. Deem and Ramdas Pophale) SiO2 
 PCOD9016029
Probable space group: P -1
;
_chemical_formula_sum "Si O2"
_cell_formula_units_Z 16
_cell_length_a 10.825827
_cell_length_b 14.550962
_cell_length_c 12.505440
_cell_angle_alpha 149.774335
_cell_angle_beta 41.207835
_cell_angle_gamma 137.263598
_cell_volume 631.780470
_symmetry_space_group_name_H-M "P -1"
_symmetry_group_IT_number 2
_symmetry_cell_setting 'triclinic'
loop_
_space_group_symop_operation_xyz
x,y,z
-x,-y,-z
loop_
_atom_site_type_symbol
_atom_site_label
_atom_site_fract_x
_atom_site_fract_y
_atom_site_fract_z
Si Si1 0.493509 0.060369 0.443939
Si Si2 0.419646 0.276190 0.357698
Si Si3 0.215211 0.001274 0.398627
Si Si4 0.029014 0.987814 0.786785
Si Si5 0.283773 0.203835 0.025055
Si Si6 0.780849 0.413085 0.515959
Si Si7 0.827342 0.276866 0.108357
Si Si8 0.982279 0.317525 0.664690
O O1 0.300339 0.095285 0.552038
O O2 0.500000 0.000000 0.500000
O O3 0.671656 0.235553 0.476987
O O4 0.538306 0.888292 0.174917
O O5 0.500000 0.500000 0.500000
O O6 0.615712 0.217563 0.130594
O O7 0.194740 0.273610 0.477429
O O8 0.367476 0.137114 0.356596
O O9 0.154236 0.776494 0.242950
O O10 0.000000 0.000000 0.500000
O O11 0.867254 0.888976 0.879019
O O12 0.101627 0.812344 0.514187
O O13 0.922893 0.105171 0.894756
O O14 0.182106 0.139328 0.911902
O O15 0.331098 0.425181 0.233584
O O16 0.785296 0.352182 0.329091
O O17 0.000000 0.500000 0.500000
O O18 0.976682 0.458461 0.143049
#
# Coordination Sequence:
#
# PCOD9016029 Si02
#       8
#     2   2   2   2   2   2   2   2
#     4  12  26  42  65  97 134 172 217 269 327 384
#     4   9  19  38  64  91 118 166 216 263 314 382
#     4  10  21  42  66  91 132 173 211 266 329 379
#     4  11  20  34  59  92 122 160 213 260 320 386
#     4  11  22  36  59  92 127 165 214 264 319 385
#     4  12  22  39  65  91 128 171 213 264 325 380
#     4  11  20  37  62  89 121 161 212 262 315 381
#     4  10  22  36  64  88 121 165 210 265 326 374
#
# _framework density 25.325253
#
# number of rings (size 3 to 8) (size 9 to 14) (size 15 to 20)
#    0.000    1.250    5.000    1.500    1.750    1.000 
#    0.000    1.250    0.000    6.750    0.000    0.000 
#    0.000    0.000    0.000    0.000    0.000    0.000 
#
# Total GULP energy -89101.134899 kJ/mol
# GULP energy per Si atom -5568.820931 kJ/mol
# Density = 2.526761 g / cm^3
# Si number density = 25.325253 Si / 1000 Ang^3
#
#
#
# Elastic Constant Matrix: (Units=GPa)
#
#
# Indices 1 2 3 4 5 6 
#
# 1 94.0591 50.1709 15.1223 7.5746 -11.4363 9.5746
# 2 50.1709 219.1038 32.3270 33.4111 -3.1817 -14.4570
# 3 15.1223 32.3270 106.9321 22.6324 -3.7582 -6.7177
# 4 7.5746 33.4111 22.6324 39.8353 -1.7490 -13.1123
# 5 -11.4363 -3.1817 -3.7582 -1.7490 37.2065 -6.9575
# 6 9.5746 -14.4570 -6.7177 -13.1123 -6.9575 38.9822
#
#
#
# Elastic Compliance Matrix: (Units=1/GPa)
#
#
# Indices 1 2 3 4 5 6 
#
# 1 0.013241 -0.003019 -0.000977 -0.000707 0.002882 -0.004264
# 2 -0.003019 0.005988 -0.000525 -0.003644 -0.000344 0.001585
# 3 -0.000977 -0.000525 0.010831 -0.005448 0.000525 0.000173
# 4 -0.000707 -0.003644 -0.005448 0.034794 0.002430 0.010021
# 5 0.002882 -0.000344 0.000525 0.002430 0.028878 0.005227
# 6 -0.004264 0.001585 0.000173 0.010021 0.005227 0.031621
#
#
# Mechanical properties :
#
#
# Convention : Reuss Voigt Hill
#
# Bulk Modulus (GPa) = 47.57752 68.37060 57.97406
# Shear Modulus (GPa) = 35.36065 44.70313 40.03189
#
# Velocity S-wave (km/s) = 3.74071 4.20594 3.98013
# Velocity P-wave (km/s) = 6.12247 7.11633 6.63803
#
# Compressibility (1/GPa) = 0.02101833
#
# Stress axis : x y z
#
# Youngs Moduli (GPa) = 75.52544 166.99991 92.32936
#
# Poissons Ratio (x) = 0.50424 0.09016
# Poissons Ratio (y) = 0.22804 0.04844
# Poissons Ratio (z) = 0.07375 0.08761
#
# Static dielectric constant tensor:
#      x y z
#    x 2.397650 0.184110 -0.103680 
#    y 0.184110 2.123390 -0.114370 
#    z -0.103680 -0.114370 2.032310 
# 
# From -- ./inp_files/521870.got.cif
#   From: 2010.05.17/outbox.cif.g08.bks.cpg/sg2_261_cif.got.tgz:521870.got - 2010.06.03 11:33:40.
