data_PCOD9016928
_publ_section_title
;
Structure prediction by ZEFSAII (Michael W. Deem and Ramdas Pophale) SiO2 
 PCOD9016928
Probable space group: P -1
;
_chemical_formula_sum "Si O2"
_cell_formula_units_Z 16
_cell_length_a 9.694783
_cell_length_b 11.162571
_cell_length_c 9.847072
_cell_angle_alpha 99.490868
_cell_angle_beta 133.627241
_cell_angle_gamma 84.358229
_cell_volume 760.618323
_symmetry_space_group_name_H-M "P -1"
_symmetry_group_IT_number 2
_symmetry_cell_setting 'triclinic'
loop_
_space_group_symop_operation_xyz
x,y,z
-x,-y,-z
loop_
_atom_site_type_symbol
_atom_site_label
_atom_site_fract_x
_atom_site_fract_y
_atom_site_fract_z
Si Si1 0.365482 0.487671 0.533767
Si Si2 0.708531 0.075243 0.274424
Si Si3 0.862264 0.832714 0.386041
Si Si4 0.621788 0.447333 0.951818
Si Si5 0.278027 0.819189 0.992085
Si Si6 0.973878 0.566294 0.347690
Si Si7 0.586526 0.956909 0.694668
Si Si8 0.827840 0.779415 0.658776
O O1 0.500000 0.500000 0.500000
O O2 0.189864 0.579338 0.442408
O O3 0.260167 0.355684 0.435714
O O4 0.513910 0.497832 0.758915
O O5 0.667710 0.139562 0.116180
O O6 0.564075 0.091394 0.303643
O O7 0.917897 0.123752 0.468606
O O8 0.736572 0.930558 0.241871
O O9 0.799386 0.839642 0.502210
O O10 0.868126 0.692834 0.321293
O O11 0.613101 0.301516 0.915917
O O12 0.838543 0.489834 0.139386
O O13 0.500000 0.500000 0.000000
O O14 0.054451 0.783880 0.831998
O O15 0.314512 0.928042 0.142057
O O16 0.000000 0.500000 0.500000
O O17 0.730299 0.853588 0.726330
O O18 0.500000 0.000000 0.500000
#
# Coordination Sequence:
#
# PCOD9016928 Si02
#       8
#     2   2   2   2   2   2   2   2
#     4  12  28  47  70 108 146 183 237 301 362 426
#     4  10  23  42  68 102 137 182 237 290 332 425
#     4  10  21  42  70 100 139 182 234 283 351 409
#     4  12  25  44  78 104 134 192 242 289 362 422
#     4  11  25  47  69  99 139 184 242 286 347 427
#     4  12  22  46  75 104 140 191 237 293 350 428
#     4  12  24  40  65  99 138 181 227 285 353 406
#     4  11  22  46  68  94 145 184 227 292 356 415
#
# _framework density 21.035516999999999
#
# number of rings (size 3 to 8) (size 9 to 14) (size 15 to 20)
#    0.000    0.750    5.000    2.250    3.500    0.500 
#    2.250    0.000    0.000    0.000    0.000    0.000 
#    0.000    0.000    0.000    0.000    0.000    0.000 
#
# Total GULP energy -89451.439283 kJ/mol
# GULP energy per Si atom -5590.714955 kJ/mol
# Density = 2.098764 g / cm^3
# Si number density = 21.035517 Si / 1000 Ang^3
#
#
#
# Elastic Constant Matrix: (Units=GPa)
#
#
# Indices 1 2 3 4 5 6 
#
# 1 154.8603 22.8387 51.0564 -0.0845 -3.5930 -6.4279
# 2 22.8387 57.3096 -7.3763 12.9881 0.4733 -15.5222
# 3 51.0564 -7.3763 111.3167 10.5073 5.6732 4.5691
# 4 -0.0845 12.9881 10.5073 28.3061 -3.2200 3.6049
# 5 -3.5930 0.4733 5.6732 -3.2200 34.6700 5.6385
# 6 -6.4279 -15.5222 4.5691 3.6049 5.6385 34.2137
#
#
#
# Elastic Compliance Matrix: (Units=1/GPa)
#
#
# Indices 1 2 3 4 5 6 
#
# 1 0.008964 -0.005663 -0.005030 0.004919 0.002471 -0.001139
# 2 -0.005663 0.028209 0.005854 -0.017545 -0.005797 0.013756
# 3 -0.005030 0.005854 0.012555 -0.007962 -0.003634 0.001472
# 4 0.004919 -0.017545 -0.007962 0.048930 0.008638 -0.012551
# 5 0.002471 -0.005797 -0.003634 0.008638 0.031850 -0.007839
# 6 -0.001139 0.013756 0.001472 -0.012551 -0.007839 0.037673
#
#
# Mechanical properties :
#
#
# Convention : Reuss Voigt Hill
#
# Bulk Modulus (GPa) = 24.96983 50.72491 37.84737
# Shear Modulus (GPa) = 26.14931 36.56916 31.35924
#
# Velocity S-wave (km/s) = 3.52959 4.17399 3.86525
# Velocity P-wave (km/s) = 5.33917 6.88447 6.16047
#
# Compressibility (1/GPa) = 0.04004832
#
# Stress axis : x y z
#
# Youngs Moduli (GPa) = 111.56020 35.44936 79.65132
#
# Poissons Ratio (x) = 0.20076 0.40065
# Poissons Ratio (y) = 0.63179 -0.46625
# Poissons Ratio (z) = 0.56116 -0.20751
#
# Static dielectric constant tensor:
#      x y z
#    x 1.744790 0.014500 0.049730 
#    y 0.014500 1.798030 0.008850 
#    z 0.049730 0.008850 1.739140 
# 
# From -- ./inp_files/188863.got.cif
#   From: 2010.05.17/outbox.cif.g08.bks.cpg/sg2_95_cif.got.tgz:188863.got - 2010.06.03 11:33:40.
