data_PCOD9016621
_publ_section_title
;
Structure prediction by ZEFSAII (Michael W. Deem and Ramdas Pophale) SiO2 
 PCOD9016621
Probable space group: P -1
;
_chemical_formula_sum "Si O2"
_cell_formula_units_Z 16
_cell_length_a 21.754283
_cell_length_b 8.333684
_cell_length_c 15.402986
_cell_angle_alpha 52.269399
_cell_angle_beta 29.094868
_cell_angle_gamma 34.336203
_cell_volume 702.089922
_symmetry_space_group_name_H-M "P -1"
_symmetry_group_IT_number 2
_symmetry_cell_setting 'triclinic'
loop_
_space_group_symop_operation_xyz
x,y,z
-x,-y,-z
loop_
_atom_site_type_symbol
_atom_site_label
_atom_site_fract_x
_atom_site_fract_y
_atom_site_fract_z
Si Si1 0.997828 0.254743 0.339503
Si Si2 0.665400 0.652423 0.874803
Si Si3 0.415241 0.757753 0.634529
Si Si4 0.981018 0.568366 0.103129
Si Si5 0.435748 0.219186 0.239959
Si Si6 0.488852 0.500562 0.215360
Si Si7 0.693020 0.536420 0.212083
Si Si8 0.930266 0.862798 0.519517
O O1 0.776225 0.577169 0.529255
O O2 0.052061 0.308779 0.167884
O O3 0.102294 0.176775 0.328166
O O4 0.001919 0.009564 0.397280
O O5 0.592467 0.694840 0.853796
O O6 0.887769 0.452477 0.653199
O O7 0.651120 0.473437 0.012444
O O8 0.500000 0.000000 0.000000
O O9 0.481092 0.672037 0.680534
O O10 0.589524 0.601622 0.408158
O O11 0.329932 0.638292 0.758052
O O12 0.245105 0.121330 0.707563
O O13 0.099154 0.624928 0.967204
O O14 0.000000 0.500000 0.000000
O O15 0.495512 0.346505 0.175654
O O16 0.575411 0.860980 0.203571
O O17 0.277829 0.865214 0.359046
#
# Coordination Sequence:
#
# PCOD9016621 Si02
#       8
#     2   2   2   2   2   2   2   2
#     4   9  20  42  65  98 135 170 223 283 329 393
#     4  11  24  41  65 100 139 172 220 275 342 411
#     4  11  26  47  62 101 140 178 227 276 344 409
#     4  12  26  40  72 103 131 176 235 283 333 398
#     4  10  21  42  68  96 131 174 227 280 334 392
#     4  11  24  41  71  96 132 177 229 279 330 399
#     4  11  25  44  70  92 138 184 218 281 350 399
#     4   9  22  41  66  96 135 176 217 273 339 393
#
# _framework density 22.789102
#
# number of rings (size 3 to 8) (size 9 to 14) (size 15 to 20)
#    0.000    1.500    1.250    3.000    8.750    1.500 
#    0.000    2.500    0.000    0.000    0.000    0.000 
#    0.000    0.000    0.000    0.000    0.000    0.000 
#
# Total GULP energy -89477.404479 kJ/mol
# GULP energy per Si atom -5592.337780 kJ/mol
# Density = 2.273723 g / cm^3
# Si number density = 22.789102 Si / 1000 Ang^3
#
#
#
# Elastic Constant Matrix: (Units=GPa)
#
#
# Indices 1 2 3 4 5 6 
#
# 1 48.0531 4.9140 32.2782 -4.7154 7.8319 -17.1584
# 2 4.9140 78.0187 20.9041 -0.0928 8.1419 -22.5067
# 3 32.2782 20.9041 77.5987 -1.7819 6.8018 -13.2571
# 4 -4.7154 -0.0928 -1.7819 45.4958 -4.5546 2.5378
# 5 7.8319 8.1419 6.8018 -4.5546 34.4055 0.5776
# 6 -17.1584 -22.5067 -13.2571 2.5378 0.5776 32.4744
#
#
#
# Elastic Compliance Matrix: (Units=1/GPa)
#
#
# Indices 1 2 3 4 5 6 
#
# 1 0.037687 0.007816 -0.013682 0.001497 -0.007857 0.019767
# 2 0.007816 0.018651 -0.005234 -0.000749 -0.005510 0.015076
# 3 -0.013682 -0.005234 0.019439 -0.000456 0.000498 -0.002894
# 4 0.001497 -0.000749 -0.000456 0.022506 0.002935 -0.001726
# 5 -0.007857 -0.005510 0.000498 0.002935 0.032592 -0.008576
# 6 0.019767 0.015076 -0.002894 -0.001726 -0.008576 0.050792
#
#
# Mechanical properties :
#
#
# Convention : Reuss Voigt Hill
#
# Bulk Modulus (GPa) = 18.66444 35.54035 27.10240
# Shear Modulus (GPa) = 22.55032 32.18008 27.36520
#
# Velocity S-wave (km/s) = 3.14908 3.76184 3.46902
# Velocity P-wave (km/s) = 4.62927 5.87348 5.28810
#
# Compressibility (1/GPa) = 0.05357782
#
# Stress axis : x y z
#
# Youngs Moduli (GPa) = 26.53410 53.61714 51.44172
#
# Poissons Ratio (x) = -0.41909 0.70383
# Poissons Ratio (y) = -0.20740 0.26926
# Poissons Ratio (z) = 0.36304 0.28065
#
# Static dielectric constant tensor:
#      x y z
#    x 1.829290 0.031990 -0.012320 
#    y 0.031990 1.852440 0.012710 
#    z -0.012320 0.012710 1.843590 
# 
# From -- ./inp_files/399383.got.cif
#   From: 2010.05.17/outbox.cif.g08.bks.cpg/sg2_200_cif.got.tgz:399383.got - 2010.06.03 11:33:40.
