data_PCOD9016848
_publ_section_title
;
Structure prediction by ZEFSAII (Michael W. Deem and Ramdas Pophale) SiO2 
 PCOD9016848
Probable space group: P -1
;
_chemical_formula_sum "Si O2"
_cell_formula_units_Z 16
_cell_length_a 8.863979
_cell_length_b 19.049628
_cell_length_c 12.388368
_cell_angle_alpha 141.727197
_cell_angle_beta 49.031898
_cell_angle_gamma 102.255663
_cell_volume 746.253565
_symmetry_space_group_name_H-M "P -1"
_symmetry_group_IT_number 2
_symmetry_cell_setting 'triclinic'
loop_
_space_group_symop_operation_xyz
x,y,z
-x,-y,-z
loop_
_atom_site_type_symbol
_atom_site_label
_atom_site_fract_x
_atom_site_fract_y
_atom_site_fract_z
Si Si1 0.798055 0.617734 0.874197
Si Si2 0.829872 0.721989 0.766764
Si Si3 0.775758 0.431687 0.232856
Si Si4 0.982596 0.760752 0.312113
Si Si5 0.659837 0.337197 0.775809
Si Si6 0.415126 0.293218 0.491947
Si Si7 0.592638 0.070382 0.966350
Si Si8 0.889075 0.166202 0.258102
O O1 0.719681 0.699761 0.896106
O O2 0.928613 0.446596 0.585760
O O3 0.018161 0.609136 0.821242
O O4 0.540253 0.692876 0.154688
O O5 0.933127 0.807729 0.854595
O O6 0.627621 0.809264 0.869675
O O7 0.500000 0.500000 0.500000
O O8 0.731620 0.555318 0.322799
O O9 0.903664 0.291761 0.924676
O O10 0.219021 0.670624 0.177296
O O11 0.784840 0.728403 0.394149
O O12 0.830140 0.932648 0.619462
O O13 0.883335 0.215599 0.442210
O O14 0.500000 0.500000 0.000000
O O15 0.596235 0.274901 0.479565
O O16 0.615006 0.162336 0.153857
O O17 0.500000 0.000000 0.000000
O O18 0.000000 0.000000 0.000000
#
# Coordination Sequence:
#
# PCOD9016848 Si02
#       8
#     2   2   2   2   2   2   2   2
#     4  11  25  43  69  95 137 177 225 277 333 396
#     4  11  23  44  68  97 136 180 220 273 341 400
#     4  12  25  42  64  96 130 172 224 270 331 392
#     4  11  24  41  65  98 131 169 223 278 328 391
#     4  12  23  41  68 100 134 178 230 271 330 402
#     4  11  21  40  65  94 131 170 219 277 326 386
#     4  10  21  42  69  96 132 174 216 271 335 400
#     4  12  23  40  67 102 135 173 225 280 336 396
#
# _framework density 21.440432999999999
#
# number of rings (size 3 to 8) (size 9 to 14) (size 15 to 20)
#    0.000    0.750    2.500    7.125    3.500    0.000 
#    0.000    6.250    0.000    0.000    0.000    0.000 
#    0.000    0.000    0.000    0.000    0.000    0.000 
#
# Total GULP energy -89469.856142 kJ/mol
# GULP energy per Si atom -5591.866009 kJ/mol
# Density = 2.139163 g / cm^3
# Si number density = 21.440433 Si / 1000 Ang^3
#
#
#
# Elastic Constant Matrix: (Units=GPa)
#
#
# Indices 1 2 3 4 5 6 
#
# 1 85.8110 17.4739 -6.7485 -5.4684 -3.4363 -6.5775
# 2 17.4739 81.9421 27.3397 -1.0048 -6.2973 -15.0045
# 3 -6.7485 27.3397 92.0648 -7.5868 23.2997 2.9033
# 4 -5.4684 -1.0048 -7.5868 36.4513 2.0662 -5.7064
# 5 -3.4363 -6.2973 23.2997 2.0662 39.3045 0.3685
# 6 -6.5775 -15.0045 2.9033 -5.7064 0.3685 29.9875
#
#
#
# Elastic Compliance Matrix: (Units=1/GPa)
#
#
# Indices 1 2 3 4 5 6 
#
# 1 0.012736 -0.003259 0.002302 0.002578 -0.000922 0.001442
# 2 -0.003259 0.017496 -0.007507 -0.000621 0.006921 0.008563
# 3 0.002302 -0.007507 0.016436 0.003545 -0.010894 -0.004034
# 4 0.002578 -0.000621 0.003545 0.029620 -0.003585 0.005592
# 5 -0.000922 0.006921 -0.010894 -0.003585 0.033086 0.003226
# 6 0.001442 0.008563 -0.004034 0.005592 0.003226 0.039363
#
#
# Mechanical properties :
#
#
# Convention : Reuss Voigt Hill
#
# Bulk Modulus (GPa) = 33.62591 37.32756 35.47674
# Shear Modulus (GPa) = 28.47714 35.93218 32.20466
#
# Velocity S-wave (km/s) = 3.64840 4.09823 3.87984
# Velocity P-wave (km/s) = 5.78491 6.31202 6.05421
#
# Compressibility (1/GPa) = 0.02973897
#
# Stress axis : x y z
#
# Youngs Moduli (GPa) = 78.51712 57.15706 60.84108
#
# Poissons Ratio (x) = 0.18628 -0.14004
# Poissons Ratio (y) = 0.25590 0.45674
# Poissons Ratio (z) = -0.18073 0.42909
#
# Static dielectric constant tensor:
#      x y z
#    x 1.758630 -0.001990 0.022720 
#    y -0.001990 1.763260 -0.009620 
#    z 0.022720 -0.009620 1.813340 
# 
# From -- ./inp_files/190182.got.cif
#   From: 2010.05.17/outbox.cif.g08.bks.cpg/sg2_96_cif.got.tgz:190182.got - 2010.06.03 11:33:40.
