data_PCOD9016612
_publ_section_title
;
Structure prediction by ZEFSAII (Michael W. Deem and Ramdas Pophale) SiO2 
 PCOD9016612
Probable space group: P -1
;
_chemical_formula_sum "Si O2"
_cell_formula_units_Z 16
_cell_length_a 6.062449
_cell_length_b 17.808241
_cell_length_c 9.313174
_cell_angle_alpha 115.428672
_cell_angle_beta 53.245390
_cell_angle_gamma 120.497180
_cell_volume 682.530362
_symmetry_space_group_name_H-M "P -1"
_symmetry_group_IT_number 2
_symmetry_cell_setting 'triclinic'
loop_
_space_group_symop_operation_xyz
x,y,z
-x,-y,-z
loop_
_atom_site_type_symbol
_atom_site_label
_atom_site_fract_x
_atom_site_fract_y
_atom_site_fract_z
Si Si1 0.263092 0.769318 0.567846
Si Si2 0.062980 0.103483 0.224347
Si Si3 0.301797 0.053137 0.349631
Si Si4 0.667543 0.505801 0.597909
Si Si5 0.623664 0.267966 0.802295
Si Si6 0.897574 0.584227 0.083203
Si Si7 0.870264 0.661047 0.851762
Si Si8 0.376287 0.070721 0.810560
O O1 0.532970 0.861122 0.548384
O O2 0.299641 0.709482 0.375320
O O3 0.004499 0.807353 0.661855
O O4 0.179172 0.719845 0.711084
O O5 0.305173 0.099150 0.234393
O O6 0.145575 0.093425 0.020711
O O7 0.799222 0.011359 0.290845
O O8 0.448188 0.979184 0.209535
O O9 0.000000 0.000000 0.500000
O O10 0.500000 0.500000 0.500000
O O11 0.419582 0.436667 0.736685
O O12 0.705859 0.600378 0.732739
O O13 0.000000 0.500000 0.500000
O O14 0.581528 0.164270 0.748176
O O15 0.873374 0.330360 0.858636
O O16 0.322519 0.282281 0.971396
O O17 0.892188 0.602212 0.930469
O O18 0.000000 0.500000 0.000000
#
# Coordination Sequence:
#
# PCOD9016612 Si02
#       8
#     2   2   2   2   2   2   2   2
#     4  11  26  45  70 111 150 198 253 317 383 459
#     4  10  21  42  68  95 149 193 251 304 377 450
#     4  11  23  41  68 101 148 198 258 305 379 454
#     4  12  28  53  88 119 158 210 268 329 415 489
#     4  12  26  47  76 108 153 194 259 318 398 465
#     4  12  28  52  79 111 154 205 260 329 406 489
#     4  12  28  48  79 111 155 196 259 326 397 483
#     4  10  22  41  67 103 137 202 244 313 370 456
#
# _framework density 23.44218
#
# number of rings (size 3 to 8) (size 9 to 14) (size 15 to 20)
#    0.000    0.750    2.500    3.750    5.250    5.000 
#    0.000    0.000    0.000    0.000    0.000    0.000 
#    0.000    0.000    0.000    0.000    0.000    0.000 
#
# Total GULP energy -89291.802555 kJ/mol
# GULP energy per Si atom -5580.737660 kJ/mol
# Density = 2.338882 g / cm^3
# Si number density = 23.442180 Si / 1000 Ang^3
#
#
#
# Elastic Constant Matrix: (Units=GPa)
#
#
# Indices 1 2 3 4 5 6 
#
# 1 89.1285 41.6248 40.3494 -7.4944 14.2427 -9.7922
# 2 41.6248 102.0169 30.7005 -12.6861 26.1981 6.5884
# 3 40.3494 30.7005 125.1152 -10.6254 15.7508 3.8597
# 4 -7.4944 -12.6861 -10.6254 43.2578 3.1166 -5.2924
# 5 14.2427 26.1981 15.7508 3.1166 30.6962 -5.5840
# 6 -9.7922 6.5884 3.8597 -5.2924 -5.5840 33.6338
#
#
#
# Elastic Compliance Matrix: (Units=1/GPa)
#
#
# Indices 1 2 3 4 5 6 
#
# 1 0.016598 -0.006047 -0.004091 0.000872 0.000696 0.006739
# 2 -0.006047 0.016461 0.000064 0.003926 -0.012859 -0.006509
# 3 -0.004091 0.000064 0.010028 0.001724 -0.003976 -0.002743
# 4 0.000872 0.003926 0.001724 0.025603 -0.006843 0.002180
# 5 0.000696 -0.012859 -0.003976 -0.006843 0.047789 0.010035
# 6 0.006739 -0.006509 -0.002743 0.002180 0.010035 0.035293
#
#
# Mechanical properties :
#
#
# Convention : Reuss Voigt Hill
#
# Bulk Modulus (GPa) = 43.59212 60.17889 51.88550
# Shear Modulus (GPa) = 27.84503 35.08995 31.46749
#
# Velocity S-wave (km/s) = 3.45021 3.87314 3.66778
# Velocity P-wave (km/s) = 5.87434 6.76229 6.33390
#
# Compressibility (1/GPa) = 0.02293993
#
# Stress axis : x y z
#
# Youngs Moduli (GPa) = 60.24788 60.74977 99.72362
#
# Poissons Ratio (x) = 0.36734 0.40792
# Poissons Ratio (y) = 0.36431 -0.00637
# Poissons Ratio (z) = 0.24645 -0.00388
#
# Static dielectric constant tensor:
#      x y z
#    x 2.033780 0.040960 -0.023440 
#    y 0.040960 1.924920 -0.042890 
#    z -0.023440 -0.042890 1.960080 
# 
# From -- ./inp_files/139204.got.cif
#   From: 2010.05.17/outbox.cif.g08.bks.cpg/sg2_70_cif.got.tgz:139204.got - 2010.06.03 11:33:40.
