data_PCOD9016714
_publ_section_title
;
Structure prediction by ZEFSAII (Michael W. Deem and Ramdas Pophale) SiO2 
 PCOD9016714
Probable space group: P -1
;
_chemical_formula_sum "Si O2"
_cell_formula_units_Z 16
_cell_length_a 8.821983
_cell_length_b 8.571313
_cell_length_c 23.499942
_cell_angle_alpha 33.756933
_cell_angle_beta 51.424259
_cell_angle_gamma 65.110574
_cell_volume 752.227790
_symmetry_space_group_name_H-M "P -1"
_symmetry_group_IT_number 2
_symmetry_cell_setting 'triclinic'
loop_
_space_group_symop_operation_xyz
x,y,z
-x,-y,-z
loop_
_atom_site_type_symbol
_atom_site_label
_atom_site_fract_x
_atom_site_fract_y
_atom_site_fract_z
Si Si1 0.635671 0.823654 0.805914
Si Si2 0.295874 0.090161 0.002954
Si Si3 0.125163 0.758672 0.551817
Si Si4 0.963758 0.498869 0.785123
Si Si5 0.799833 0.430873 0.533268
Si Si6 0.440310 0.206016 0.565136
Si Si7 0.814239 0.395483 0.183652
Si Si8 0.770270 0.644434 0.947896
O O1 0.795986 0.681473 0.779127
O O2 0.703889 0.816719 0.857844
O O3 0.659694 0.136262 0.678212
O O4 0.415587 0.622319 0.915152
O O5 0.198136 0.157286 0.064489
O O6 0.153035 0.830987 0.081928
O O7 0.312796 0.377955 0.874665
O O8 0.500000 0.000000 0.000000
O O9 0.129747 0.601345 0.538179
O O10 0.358260 0.882731 0.472161
O O11 0.042111 0.558367 0.684984
O O12 0.000000 0.000000 0.500000
O O13 0.132554 0.582659 0.768326
O O14 0.685578 0.687122 0.487078
O O15 0.000000 0.500000 0.500000
O O16 0.500000 0.500000 0.500000
O O17 0.298326 0.926020 0.709982
O O18 0.031516 0.458040 0.084330
#
# Coordination Sequence:
#
# PCOD9016714 Si02
#       8
#     2   2   2   2   2   2   2   2
#     4  10  21  42  69 100 141 174 224 283 334 413
#     4  12  26  42  71 102 135 178 230 285 346 401
#     4  11  25  44  70  97 136 184 229 282 345 401
#     4  11  24  45  68 102 142 179 228 280 348 412
#     4  11  23  44  71 101 140 180 229 284 342 409
#     4  10  26  44  69 100 135 179 235 278 342 419
#     4  11  26  49  68  96 145 178 226 290 343 416
#     4  10  23  42  70  99 133 182 225 271 350 400
#
# _framework density 21.270152
#
# number of rings (size 3 to 8) (size 9 to 14) (size 15 to 20)
#    0.000    1.250    2.500    2.250   10.500    1.500 
#    2.250    0.000    0.000    0.000    0.000    0.000 
#    0.000    0.000    0.000    0.000    0.000    0.000 
#
# Total GULP energy -89391.100644 kJ/mol
# GULP energy per Si atom -5586.943790 kJ/mol
# Density = 2.122174 g / cm^3
# Si number density = 21.270152 Si / 1000 Ang^3
#
#
#
# Elastic Constant Matrix: (Units=GPa)
#
#
# Indices 1 2 3 4 5 6 
#
# 1 112.7982 43.8090 40.9517 -4.6121 2.9513 -24.1659
# 2 43.8090 53.4780 32.4627 -2.8151 13.5778 -11.1601
# 3 40.9517 32.4627 109.3738 0.7362 8.9251 -7.1003
# 4 -4.6121 -2.8151 0.7362 33.9822 -0.7723 5.5928
# 5 2.9513 13.5778 8.9251 -0.7723 28.8696 -3.3913
# 6 -24.1659 -11.1601 -7.1003 5.5928 -3.3913 44.6415
#
#
#
# Elastic Compliance Matrix: (Units=1/GPa)
#
#
# Indices 1 2 3 4 5 6 
#
# 1 0.015047 -0.010983 -0.002440 0.000420 0.005020 0.005340
# 2 -0.010983 0.034286 -0.004935 0.001038 -0.013367 0.000695
# 3 -0.002440 -0.004935 0.011574 -0.000903 -0.001112 -0.000685
# 4 0.000420 0.001038 -0.000903 0.030157 0.000153 -0.003423
# 5 0.005020 -0.013367 -0.001112 0.000153 0.041030 0.002297
# 6 0.005340 0.000695 -0.000685 -0.003423 0.002297 0.025960
#
#
# Mechanical properties :
#
#
# Convention : Reuss Voigt Hill
#
# Bulk Modulus (GPa) = 41.33878 56.67743 49.00811
# Shear Modulus (GPa) = 24.65089 32.06041 28.35565
#
# Velocity S-wave (km/s) = 3.40802 3.88660 3.65515
# Velocity P-wave (km/s) = 5.91299 6.84436 6.39565
#
# Compressibility (1/GPa) = 0.02419036
#
# Stress axis : x y z
#
# Youngs Moduli (GPa) = 66.45917 29.16630 86.40407
#
# Poissons Ratio (x) = 0.32035 0.21080
# Poissons Ratio (y) = 0.72995 0.42640
# Poissons Ratio (z) = 0.16214 0.14393
#
# Static dielectric constant tensor:
#      x y z
#    x 1.829990 0.014830 0.007440 
#    y 0.014830 1.767560 -0.009380 
#    z 0.007440 -0.009380 1.779220 
# 
# From -- ./inp_files/587719.got.cif
#   From: 2010.05.17/outbox.cif.g08.bks.cpg/sg2_294_cif.got.tgz:587719.got - 2010.06.03 11:33:40.
