data_PCOD9016821
_publ_section_title
;
Structure prediction by ZEFSAII (Michael W. Deem and Ramdas Pophale) SiO2 
 PCOD9016821
Probable space group: P -1
;
_chemical_formula_sum "Si O2"
_cell_formula_units_Z 16
_cell_length_a 8.749161
_cell_length_b 11.162651
_cell_length_c 11.342671
_cell_angle_alpha 66.752287
_cell_angle_beta 115.266647
_cell_angle_gamma 71.868394
_cell_volume 751.584204
_symmetry_space_group_name_H-M "P -1"
_symmetry_group_IT_number 2
_symmetry_cell_setting 'triclinic'
loop_
_space_group_symop_operation_xyz
x,y,z
-x,-y,-z
loop_
_atom_site_type_symbol
_atom_site_label
_atom_site_fract_x
_atom_site_fract_y
_atom_site_fract_z
Si Si1 0.858708 0.262762 0.207098
Si Si2 0.271910 0.718201 0.573822
Si Si3 0.740953 0.101473 0.055846
Si Si4 0.556720 0.994254 0.214067
Si Si5 0.074592 0.324098 0.626621
Si Si6 0.902934 0.813568 0.069249
Si Si7 0.685061 0.397034 0.863176
Si Si8 0.309491 0.005014 0.488642
O O1 0.765398 0.291364 0.294744
O O2 0.848497 0.128994 0.187814
O O3 0.736451 0.405022 0.015468
O O4 0.101328 0.180967 0.331257
O O5 0.502155 0.562248 0.685871
O O6 0.276903 0.870188 0.489378
O O7 0.093795 0.711495 0.454787
O O8 0.591667 0.065356 0.081641
O O9 0.898932 0.953366 0.083351
O O10 0.621953 0.272132 0.887593
O O11 0.645382 0.024785 0.345955
O O12 0.707517 0.805247 0.314726
O O13 0.313039 0.082610 0.112449
O O14 0.101746 0.291839 0.787988
O O15 0.000000 0.500000 0.500000
O O16 0.098099 0.699175 0.096539
O O17 0.500000 0.000000 0.500000
#
# Coordination Sequence:
#
# PCOD9016821 Si02
#       8
#     2   2   2   2   2   2   2   2
#     4  10  21  42  69  95 126 177 228 264 325 402
#     4  12  24  45  69  96 138 173 225 272 334 396
#     4   9  20  39  69  89 123 178 224 263 319 394
#     4  11  22  42  68  93 129 178 227 269 316 407
#     4  11  26  43  70 101 132 175 221 280 331 394
#     4  11  23  43  63  98 133 174 225 269 329 394
#     4  10  24  40  65  99 131 174 213 280 334 386
#     4  12  23  41  66 102 133 172 223 275 332 387
#
# _framework density 21.288366
#
# number of rings (size 3 to 8) (size 9 to 14) (size 15 to 20)
#    0.750    0.500    2.500    4.875    3.500    1.500 
#    2.250    1.250    0.000    0.000    0.000    0.000 
#    0.000    0.000    0.000    0.000    0.000    0.000 
#
# Total GULP energy -89243.041603 kJ/mol
# GULP energy per Si atom -5577.690100 kJ/mol
# Density = 2.123991 g / cm^3
# Si number density = 21.288366 Si / 1000 Ang^3
#
#
#
# Elastic Constant Matrix: (Units=GPa)
#
#
# Indices 1 2 3 4 5 6 
#
# 1 57.7247 14.4012 8.9104 -3.3966 13.7626 -3.3691
# 2 14.4012 36.9038 16.2997 -11.4952 10.0728 6.1595
# 3 8.9104 16.2997 84.0105 -11.7313 20.0643 12.1890
# 4 -3.3966 -11.4952 -11.7313 37.7699 1.9793 3.9811
# 5 13.7626 10.0728 20.0643 1.9793 41.2150 -8.3139
# 6 -3.3691 6.1595 12.1890 3.9811 -8.3139 30.2590
#
#
#
# Elastic Compliance Matrix: (Units=1/GPa)
#
#
# Indices 1 2 3 4 5 6 
#
# 1 0.020331 -0.007266 -0.000156 -0.000483 -0.004376 0.002667
# 2 -0.007266 0.039184 -0.000761 0.012923 -0.010008 -0.012929
# 3 -0.000156 -0.000761 0.017029 0.006698 -0.010489 -0.010485
# 4 -0.000483 0.012923 0.006698 0.034343 -0.010486 -0.012782
# 5 -0.004376 -0.010008 -0.010489 -0.010486 0.037290 0.017400
# 6 0.002667 -0.012929 -0.010485 -0.012782 0.017400 0.046663
#
#
# Mechanical properties :
#
#
# Convention : Reuss Voigt Hill
#
# Bulk Modulus (GPa) = 16.61741 28.65130 22.63435
# Shear Modulus (GPa) = 21.62006 31.11728 26.36867
#
# Velocity S-wave (km/s) = 3.19028 3.82737 3.52325
# Velocity P-wave (km/s) = 4.62529 5.74627 5.21598
#
# Compressibility (1/GPa) = 0.06017785
#
# Stress axis : x y z
#
# Youngs Moduli (GPa) = 49.18592 25.52044 58.72250
#
# Poissons Ratio (x) = 0.18544 0.00915
# Poissons Ratio (y) = 0.35740 0.04470
# Poissons Ratio (z) = 0.00766 0.01943
#
# Static dielectric constant tensor:
#      x y z
#    x 1.794160 0.004400 -0.005790 
#    y 0.004400 1.778270 0.011960 
#    z -0.005790 0.011960 1.788270 
# 
# From -- ./inp_files/389789.got.cif
#   From: 2010.05.17/outbox.cif.g08.bks.cpg/sg2_195_cif.got.tgz:389789.got - 2010.06.03 11:33:40.
