data_PCOD9016884
_publ_section_title
;
Structure prediction by ZEFSAII (Michael W. Deem and Ramdas Pophale) SiO2 
 PCOD9016884
Probable space group: P -1
;
_chemical_formula_sum "Si O2"
_cell_formula_units_Z 16
_cell_length_a 7.888388
_cell_length_b 17.829786
_cell_length_c 22.076110
_cell_angle_alpha 17.011191
_cell_angle_beta 45.950769
_cell_angle_gamma 46.516723
_cell_volume 648.878600
_symmetry_space_group_name_H-M "P -1"
_symmetry_group_IT_number 2
_symmetry_cell_setting 'triclinic'
loop_
_space_group_symop_operation_xyz
x,y,z
-x,-y,-z
loop_
_atom_site_type_symbol
_atom_site_label
_atom_site_fract_x
_atom_site_fract_y
_atom_site_fract_z
Si Si1 0.038712 0.361408 0.319942
Si Si2 0.317277 0.201222 0.666388
Si Si3 0.617467 0.641346 0.026566
Si Si4 0.979267 0.980577 0.731447
Si Si5 0.935491 0.923258 0.925293
Si Si6 0.458409 0.484216 0.734270
Si Si7 0.462357 0.703028 0.799021
Si Si8 0.742905 0.928694 0.092446
O O1 0.281765 0.211509 0.349701
O O2 0.816333 0.417561 0.286725
O O3 0.939852 0.226125 0.507546
O O4 0.102796 0.651430 0.090356
O O5 0.405897 0.386931 0.451573
O O6 0.465661 0.918743 0.839552
O O7 0.053594 0.154734 0.747752
O O8 0.330364 0.256193 0.692482
O O9 0.855977 0.744708 0.914408
O O10 0.502769 0.475598 0.235388
O O11 0.641804 0.454625 0.108081
O O12 0.892438 0.007026 0.801861
O O13 0.262522 0.915862 0.708946
O O14 0.759819 0.844999 0.082717
O O15 0.555059 0.182230 0.940987
O O16 0.500000 0.500000 0.000000
O O17 0.000000 0.000000 0.000000
#
# Coordination Sequence:
#
# PCOD9016884 Si02
#       8
#     2   2   2   2   2   2   2   2
#     4  12  25  43  65  99 138 177 225 272 334 399
#     4  10  21  42  69  98 135 177 222 273 338 400
#     4  11  22  44  68  98 134 178 222 276 333 396
#     4  12  25  43  68  99 136 178 229 277 333 394
#     4  11  23  44  67  97 138 176 224 281 333 394
#     4  11  23  43  70  99 140 176 221 275 340 398
#     4  12  24  47  70  97 136 177 223 281 335 393
#     4   9  23  42  70 102 134 174 227 276 334 400
#
# _framework density 24.657923
#
# number of rings (size 3 to 8) (size 9 to 14) (size 15 to 20)
#    0.000    1.000    5.000    0.750    1.750    3.500 
#    2.250    2.500    0.000    0.000    0.000    0.000 
#    0.000    0.000    0.000    0.000    0.000    0.000 
#
# Total GULP energy -89282.955607 kJ/mol
# GULP energy per Si atom -5580.184725 kJ/mol
# Density = 2.460180 g / cm^3
# Si number density = 24.657923 Si / 1000 Ang^3
#
#
#
# Elastic Constant Matrix: (Units=GPa)
#
#
# Indices 1 2 3 4 5 6 
#
# 1 72.8813 31.3391 43.1182 19.0600 19.3697 16.7476
# 2 31.3391 91.1899 30.4278 35.6936 14.8478 25.4816
# 3 43.1182 30.4278 137.8094 52.3779 30.5477 20.1751
# 4 19.0600 35.6936 52.3779 46.4282 5.2566 18.4670
# 5 19.3697 14.8478 30.5477 5.2566 41.6605 12.5532
# 6 16.7476 25.4816 20.1751 18.4670 12.5532 36.2318
#
#
#
# Elastic Compliance Matrix: (Units=1/GPa)
#
#
# Indices 1 2 3 4 5 6 
#
# 1 0.019554 -0.004784 -0.005036 0.003008 -0.003066 -0.003340
# 2 -0.004784 0.019370 0.005352 -0.016771 -0.005277 -0.004015
# 3 -0.005036 0.005352 0.018325 -0.023039 -0.011307 0.004020
# 4 0.003008 -0.016771 -0.023039 0.063206 0.018092 -0.015251
# 5 -0.003066 -0.005277 -0.011307 0.018092 0.036461 -0.010429
# 6 -0.003340 -0.004015 0.004020 -0.015251 -0.010429 0.041116
#
#
# Mechanical properties :
#
#
# Convention : Reuss Voigt Hill
#
# Bulk Modulus (GPa) = 20.69921 56.85010 38.77465
# Shear Modulus (GPa) = 22.41424 37.99712 30.20568
#
# Velocity S-wave (km/s) = 3.01825 3.92978 3.50378
# Velocity P-wave (km/s) = 4.53422 6.61033 5.66814
#
# Compressibility (1/GPa) = 0.04831103
#
# Stress axis : x y z
#
# Youngs Moduli (GPa) = 51.14152 51.62550 54.57049
#
# Poissons Ratio (x) = 0.24700 0.27483
# Poissons Ratio (y) = 0.24468 -0.29205
# Poissons Ratio (z) = 0.25757 -0.27629
#
# Static dielectric constant tensor:
#      x y z
#    x 2.070040 -0.036980 -0.072190 
#    y -0.036980 2.003460 0.029310 
#    z -0.072190 0.029310 1.976620 
# 
# From -- ./inp_files/591178.got.cif
#   From: 2010.05.17/outbox.cif.g08.bks.cpg/sg2_296_cif.got.tgz:591178.got - 2010.06.03 11:33:40.
