data_PCOD9016165
_publ_section_title
;
Structure prediction by ZEFSAII (Michael W. Deem and Ramdas Pophale) SiO2 
 PCOD9016165
Probable space group: P -1
;
_chemical_formula_sum "Si O2"
_cell_formula_units_Z 15
_cell_length_a 11.249993
_cell_length_b 11.144271
_cell_length_c 8.325462
_cell_angle_alpha 72.515130
_cell_angle_beta 36.850992
_cell_angle_gamma 76.079268
_cell_volume 597.073784
_symmetry_space_group_name_H-M "P -1"
_symmetry_group_IT_number 2
_symmetry_cell_setting 'triclinic'
loop_
_space_group_symop_operation_xyz
x,y,z
-x,-y,-z
loop_
_atom_site_type_symbol
_atom_site_label
_atom_site_fract_x
_atom_site_fract_y
_atom_site_fract_z
Si Si1 0.139767 0.441967 0.239984
Si Si2 0.362972 0.999745 0.494341
Si Si3 0.382425 0.639391 0.377417
Si Si4 0.109618 0.156080 0.498004
Si Si5 0.234383 0.394564 0.817787
Si Si6 0.236561 0.005975 0.115122
Si Si7 0.943899 0.196145 0.173915
Si Si8 0.500000 0.500000 0.000000
O O1 0.157678 0.296191 0.333623
O O2 0.000000 0.500000 0.500000
O O3 0.104624 0.445270 0.088234
O O4 0.339749 0.519580 0.023803
O O5 0.204879 0.887529 0.734321
O O6 0.500000 0.000000 0.500000
O O7 0.224722 0.119173 0.551248
O O8 0.533953 0.988224 0.178669
O O9 0.317745 0.505546 0.576472
O O10 0.581440 0.670252 0.256271
O O11 0.211664 0.740020 0.559561
O O12 0.406647 0.614969 0.171648
O O13 0.875731 0.124503 0.754041
O O14 0.198277 0.054006 0.317200
O O15 0.088896 0.305019 0.911129
O O16 0.103445 0.104080 0.118367
#
# Coordination Sequence:
#
# PCOD9016165 Si02
#       8
#     2   2   2   2   2   2   2   1
#     4  11  23  43  65 105 142 178 228 289 340 413
#     4  11  26  47  66 103 138 178 232 294 348 407
#     4  10  22  42  66 101 137 187 228 284 349 418
#     4  10  23  44  73  98 131 186 228 287 347 407
#     4  10  21  42  66  97 138 184 238 269 347 420
#     4  10  22  45  72 101 127 178 240 283 345 412
#     4  11  21  39  74  96 135 181 232 287 343 416
#     4  10  24  40  64  98 144 176 226 284 342 414
#
# _framework density 25.122525
#
# number of rings (size 3 to 8) (size 9 to 14) (size 15 to 20)
#    0.000    1.600    1.333    2.400    1.867    3.200 
#   16.800    0.000    0.000    0.000    0.000    0.000 
#    0.000    0.000    0.000    0.000    0.000    0.000 
#
# Total GULP energy -83511.186049 kJ/mol
# GULP energy per Si atom -5567.412403 kJ/mol
# Density = 2.506534 g / cm^3
# Si number density = 25.122525 Si / 1000 Ang^3
#
#
#
# Elastic Constant Matrix: (Units=GPa)
#
#
# Indices 1 2 3 4 5 6 
#
# 1 138.2898 40.6821 24.7500 -19.8190 -34.5815 17.4390
# 2 40.6821 88.6509 40.7828 -15.8320 -8.5077 -1.6088
# 3 24.7500 40.7828 91.9455 -7.9889 -20.4483 15.1505
# 4 -19.8190 -15.8320 -7.9889 40.1880 3.9570 -5.5137
# 5 -34.5815 -8.5077 -20.4483 3.9570 40.1892 -3.3001
# 6 17.4390 -1.6088 15.1505 -5.5137 -3.3001 26.5382
#
#
#
# Elastic Compliance Matrix: (Units=1/GPa)
#
#
# Indices 1 2 3 4 5 6 
#
# 1 0.012293 -0.005873 0.003115 0.002216 0.010003 -0.008508
# 2 -0.005873 0.018742 -0.009272 0.004626 -0.005391 0.010580
# 3 0.003115 -0.009272 0.018042 -0.001066 0.009016 -0.012009
# 4 0.002216 0.004626 -0.001066 0.028316 -0.000008 0.005315
# 5 0.010003 -0.005391 0.009016 -0.000008 0.036318 -0.007532
# 6 -0.008508 0.010580 -0.012009 0.005315 -0.007532 0.050938
#
#
# Mechanical properties :
#
#
# Convention : Reuss Voigt Hill
#
# Bulk Modulus (GPa) = 39.97464 59.03510 49.50487
# Shear Modulus (GPa) = 25.37449 35.56117 30.46783
#
# Velocity S-wave (km/s) = 3.18154 3.76641 3.48626
# Velocity P-wave (km/s) = 5.42611 6.51647 5.99612
#
# Compressibility (1/GPa) = 0.02501586
#
# Stress axis : x y z
#
# Youngs Moduli (GPa) = 81.34488 53.35641 55.42727
#
# Poissons Ratio (x) = 0.31338 -0.17266
# Poissons Ratio (y) = 0.47776 0.51394
# Poissons Ratio (z) = -0.25340 0.49474
#
# Static dielectric constant tensor:
#      x y z
#    x 1.898690 -0.031340 -0.144030 
#    y -0.031340 2.035350 -0.025860 
#    z -0.144030 -0.025860 2.028190 
# 
# From -- ./inp_files/257805.got.cif
#   From: 2010.05.17/outbox.cif.g08.bks.cpg/sg2_129_cif.got.tgz:257805.got - 2010.06.03 11:33:40.
