data_PCOD9016349
_publ_section_title
;
Structure prediction by ZEFSAII (Michael W. Deem and Ramdas Pophale) SiO2 
 PCOD9016349
Probable space group: P -1
;
_chemical_formula_sum "Si O2"
_cell_formula_units_Z 15
_cell_length_a 14.600990
_cell_length_b 7.329860
_cell_length_c 15.120258
_cell_angle_alpha 94.303854
_cell_angle_beta 27.077360
_cell_angle_gamma 79.309288
_cell_volume 610.573925
_symmetry_space_group_name_H-M "P -1"
_symmetry_group_IT_number 2
_symmetry_cell_setting 'triclinic'
loop_
_space_group_symop_operation_xyz
x,y,z
-x,-y,-z
loop_
_atom_site_type_symbol
_atom_site_label
_atom_site_fract_x
_atom_site_fract_y
_atom_site_fract_z
Si Si1 0.408280 0.274533 0.898836
Si Si2 0.500000 0.000000 0.500000
Si Si3 0.983829 0.400133 0.148834
Si Si4 0.028184 0.775701 0.031206
Si Si5 0.398158 0.710642 0.936288
Si Si6 0.212674 0.456378 0.252793
Si Si7 0.030112 0.056426 0.577260
Si Si8 0.496794 0.234225 0.335669
O O1 0.374945 0.510513 0.917177
O O2 0.692721 0.095101 0.639085
O O3 0.222123 0.259815 0.997244
O O4 0.329430 0.278035 0.068357
O O5 0.494322 0.068868 0.401591
O O6 0.242778 0.019540 0.709313
O O7 0.951568 0.275717 0.092446
O O8 0.739998 0.533026 0.420325
O O9 0.020932 0.578282 0.075223
O O10 0.252731 0.781307 0.868040
O O11 0.571993 0.604257 0.867914
O O12 0.519299 0.768793 0.756791
O O13 0.150943 0.929549 0.191758
O O14 0.000000 0.500000 0.500000
O O15 0.080334 0.686468 0.324157
O O16 0.000000 0.000000 0.500000
#
# Coordination Sequence:
#
# PCOD9016349 Si02
#       8
#     2   1   2   2   2   2   2   2
#     4  11  21  43  66  98 140 177 235 285 334 422
#     4  10  24  42  68  96 136 172 234 286 348 412
#     4  10  22  40  66  96 128 177 230 276 347 415
#     4  10  21  42  67  94 132 175 222 286 348 410
#     4  11  22  41  68  99 135 186 227 281 359 407
#     4  11  23  40  66  96 142 183 223 287 347 409
#     4  11  21  42  69  95 134 183 231 281 343 411
#     4  11  22  43  67  95 138 180 228 283 353 414
#
# _framework density 24.567049000000001
#
# number of rings (size 3 to 8) (size 9 to 14) (size 15 to 20)
#    0.000    1.333    4.000    2.400    0.000    1.600 
#    7.200    0.000    0.000    0.000    0.000    0.000 
#    0.000    0.000    0.000    0.000    0.000    0.000 
#
# Total GULP energy -83563.433080 kJ/mol
# GULP energy per Si atom -5570.895539 kJ/mol
# Density = 2.451113 g / cm^3
# Si number density = 24.567049 Si / 1000 Ang^3
#
#
#
# Elastic Constant Matrix: (Units=GPa)
#
#
# Indices 1 2 3 4 5 6 
#
# 1 103.2723 9.0367 43.4668 -5.3680 -7.8495 -22.5312
# 2 9.0367 75.7667 25.9961 -18.4236 7.9179 -17.7272
# 3 43.4668 25.9961 218.6791 -11.5962 -1.4989 -14.1671
# 4 -5.3680 -18.4236 -11.5962 36.4953 -13.4741 3.6803
# 5 -7.8495 7.9179 -1.4989 -13.4741 45.5116 -11.8402
# 6 -22.5312 -17.7272 -14.1671 3.6803 -11.8402 32.0925
#
#
#
# Elastic Compliance Matrix: (Units=1/GPa)
#
#
# Indices 1 2 3 4 5 6 
#
# 1 0.013451 0.001943 -0.001944 0.003362 0.005891 0.011447
# 2 0.001943 0.017730 -0.001336 0.008678 0.002507 0.010497
# 3 -0.001944 -0.001336 0.005177 0.000795 0.000361 0.000224
# 4 0.003362 0.008678 0.000795 0.036105 0.011793 0.007716
# 5 0.005891 0.002507 0.000361 0.011793 0.030068 0.015421
# 6 0.011447 0.010497 0.000224 0.007716 0.015421 0.049899
#
#
# Mechanical properties :
#
#
# Convention : Reuss Voigt Hill
#
# Bulk Modulus (GPa) = 29.68891 61.63524 45.66207
# Shear Modulus (GPa) = 30.06019 44.10111 37.08065
#
# Velocity S-wave (km/s) = 3.50179 4.24150 3.88927
# Velocity P-wave (km/s) = 5.33490 7.00929 6.22861
#
# Compressibility (1/GPa) = 0.03368261
#
# Stress axis : x y z
#
# Youngs Moduli (GPa) = 74.34131 56.40304 193.14463
#
# Poissons Ratio (x) = -0.10959 0.37556
# Poissons Ratio (y) = -0.14444 0.25812
# Poissons Ratio (z) = 0.14455 0.07538
#
# Static dielectric constant tensor:
#      x y z
#    x 1.798390 0.105390 -0.113810 
#    y 0.105390 2.018980 0.064230 
#    z -0.113810 0.064230 1.904860 
# 
# From -- ./inp_files/529729.got.cif
#   From: 2010.05.17/outbox.cif.g08.bks.cpg/sg2_265_cif.got.tgz:529729.got - 2010.06.03 11:33:40.
