data_PCOD9016312
_publ_section_title
;
Structure prediction by ZEFSAII (Michael W. Deem and Ramdas Pophale) SiO2 
 PCOD9016312
Probable space group: P -1
;
_chemical_formula_sum "Si O2"
_cell_formula_units_Z 16
_cell_length_a 22.081958
_cell_length_b 8.565107
_cell_length_c 14.872924
_cell_angle_alpha 78.356059
_cell_angle_beta 161.411641
_cell_angle_gamma 109.675333
_cell_volume 777.192138
_symmetry_space_group_name_H-M "P -1"
_symmetry_group_IT_number 2
_symmetry_cell_setting 'triclinic'
loop_
_space_group_symop_operation_xyz
x,y,z
-x,-y,-z
loop_
_atom_site_type_symbol
_atom_site_label
_atom_site_fract_x
_atom_site_fract_y
_atom_site_fract_z
Si Si1 0.019293 0.670079 0.885710
Si Si2 0.882641 0.716210 0.050875
Si Si3 0.239000 0.454978 0.284635
Si Si4 0.659964 0.934648 0.691517
Si Si5 0.924886 0.303099 0.376050
Si Si6 0.263840 0.838261 0.690954
Si Si7 0.398625 0.653815 0.207574
Si Si8 0.252238 0.459988 0.667915
O O1 0.859181 0.566925 0.752959
O O2 0.890079 0.610617 0.616314
O O3 0.214122 0.618875 0.183327
O O4 0.117679 0.881476 0.019993
O O5 0.111862 0.845036 0.398317
O O6 0.885449 0.697252 0.949383
O O7 0.719091 0.792079 0.839334
O O8 0.789545 0.515822 0.984969
O O9 0.453502 0.436104 0.603907
O O10 0.546279 0.825556 0.455183
O O11 0.500000 0.000000 0.500000
O O12 0.854404 0.174602 0.378563
O O13 0.000000 0.500000 0.500000
O O14 0.109668 0.321900 0.563407
O O15 0.713198 0.273519 0.028142
O O16 0.270682 0.651629 0.702126
O O17 0.500000 0.000000 0.000000
O O18 0.500000 0.500000 0.000000
#
# Coordination Sequence:
#
# PCOD9016312 Si02
#       8
#     2   2   2   2   2   2   2   2
#     4  11  23  41  60  94 134 162 213 270 325 388
#     4  11  21  41  64  89 130 162 216 264 318 395
#     4  10  22  38  64  91 126 173 206 260 335 386
#     4  11  23  36  63  93 121 162 209 265 326 377
#     4  10  21  42  67  93 126 169 223 261 318 395
#     4  11  25  43  69  95 126 175 220 267 321 388
#     4  11  21  40  68  89 124 171 217 263 328 397
#     4  11  24  43  69  93 132 175 215 270 329 382
#
# _framework density 20.586929000000001
#
# number of rings (size 3 to 8) (size 9 to 14) (size 15 to 20)
#    0.000    1.250    3.750    3.750    5.250    3.000 
#    0.000    0.625    0.000    0.000    0.000    0.000 
#    0.000    0.000    0.000    0.000    0.000    0.000 
#
# Total GULP energy -89092.210882 kJ/mol
# GULP energy per Si atom -5568.263180 kJ/mol
# Density = 2.054007 g / cm^3
# Si number density = 20.586929 Si / 1000 Ang^3
#
#
#
# Elastic Constant Matrix: (Units=GPa)
#
#
# Indices 1 2 3 4 5 6 
#
# 1 95.9906 10.6106 33.7157 3.6863 5.0716 -2.6067
# 2 10.6106 61.6783 9.5107 3.4862 -2.9352 -15.0770
# 3 33.7157 9.5107 108.3167 0.9084 -3.5538 -9.8589
# 4 3.6863 3.4862 0.9084 42.8508 -9.9053 6.9537
# 5 5.0716 -2.9352 -3.5538 -9.9053 26.5779 -3.9862
# 6 -2.6067 -15.0770 -9.8589 6.9537 -3.9862 20.2426
#
#
#
# Elastic Compliance Matrix: (Units=1/GPa)
#
#
# Indices 1 2 3 4 5 6 
#
# 1 0.012240 -0.002166 -0.003945 -0.001335 -0.003941 -0.002276
# 2 -0.002166 0.021261 0.000602 -0.003480 0.004226 0.017878
# 3 -0.003945 0.000602 0.011059 -0.000197 0.003126 0.006010
# 4 -0.001335 -0.003480 -0.000197 0.027419 0.008471 -0.010611
# 5 -0.003941 0.004226 0.003126 0.008471 0.043904 0.009898
# 6 -0.002276 0.017878 0.006010 -0.010611 0.009898 0.070944
#
#
# Mechanical properties :
#
#
# Convention : Reuss Voigt Hill
#
# Bulk Modulus (GPa) = 29.81287 41.51774 35.66530
# Shear Modulus (GPa) = 23.92058 32.07751 27.99904
#
# Velocity S-wave (km/s) = 3.41241 3.95162 3.69187
# Velocity P-wave (km/s) = 5.48078 6.40556 5.96113
#
# Compressibility (1/GPa) = 0.03354256
#
# Stress axis : x y z
#
# Youngs Moduli (GPa) = 81.69602 47.03495 90.42799
#
# Poissons Ratio (x) = 0.10187 0.35676
# Poissons Ratio (y) = 0.17694 -0.05448
# Poissons Ratio (z) = 0.32231 -0.02834
#
# Static dielectric constant tensor:
#      x y z
#    x 1.761600 0.014930 0.040640 
#    y 0.014930 1.775970 -0.060230 
#    z 0.040640 -0.060230 1.670830 
# 
# From -- ./inp_files/540263.got.cif
#   From: 2010.05.17/outbox.cif.g08.bks.cpg/sg2_271_cif.got.tgz:540263.got - 2010.06.03 11:33:40.
