data_PCOD9016488
_publ_section_title
;
Structure prediction by ZEFSAII (Michael W. Deem and Ramdas Pophale) SiO2 
 PCOD9016488
Probable space group: P -1
;
_chemical_formula_sum "Si O2"
_cell_formula_units_Z 15
_cell_length_a 21.097061
_cell_length_b 8.584630
_cell_length_c 15.973488
_cell_angle_alpha 28.585543
_cell_angle_beta 26.504530
_cell_angle_gamma 41.432901
_cell_volume 608.840300
_symmetry_space_group_name_H-M "P -1"
_symmetry_group_IT_number 2
_symmetry_cell_setting 'triclinic'
loop_
_space_group_symop_operation_xyz
x,y,z
-x,-y,-z
loop_
_atom_site_type_symbol
_atom_site_label
_atom_site_fract_x
_atom_site_fract_y
_atom_site_fract_z
Si Si1 0.535742 0.021670 0.256039
Si Si2 0.703545 0.183965 0.823428
Si Si3 0.872411 0.678926 0.802919
Si Si4 0.311030 0.564621 0.460595
Si Si5 0.021120 0.670276 0.010065
Si Si6 0.997291 0.585328 0.365714
Si Si7 0.500000 0.000000 0.500000
Si Si8 0.695039 0.390772 0.374041
O O1 0.630472 0.724948 0.283205
O O2 0.374261 0.862405 0.495132
O O3 0.534313 0.140780 0.295619
O O4 0.600160 0.225507 0.003036
O O5 0.657164 0.288195 0.737970
O O6 0.854534 0.393632 0.578809
O O7 0.736535 0.813860 0.938653
O O8 0.868139 0.539211 0.780498
O O9 0.909161 0.385127 0.955846
O O10 0.000000 0.000000 0.500000
O O11 0.373801 0.227831 0.550007
O O12 0.358450 0.749182 0.405100
O O13 0.139180 0.519331 0.696712
O O14 0.133582 0.539863 0.875824
O O15 0.005951 0.034011 0.827638
O O16 0.000000 0.500000 0.500000
#
# Coordination Sequence:
#
# PCOD9016488 Si02
#       8
#     2   2   2   2   2   2   1   2
#     4  10  23  48  69  99 140 187 237 294 353 429
#     4  11  24  46  70 101 146 189 238 297 355 425
#     4  10  21  42  68 101 142 184 225 292 355 421
#     4  11  25  44  72 104 139 190 237 290 369 417
#     4  12  23  43  75 105 145 182 235 300 353 430
#     4  11  27  40  63 111 150 185 239 290 368 416
#     4  10  26  46  68  98 142 188 234 290 362 422
#     4  10  24  42  71 103 133 188 245 281 357 430
#
# _framework density 24.637003
#
# number of rings (size 3 to 8) (size 9 to 14) (size 15 to 20)
#    0.000    1.333    4.000    0.800    7.467    1.067 
#    2.400    0.000    0.000    0.000    0.000    0.000 
#    0.000    0.000    0.000    0.000    0.000    0.000 
#
# Total GULP energy -83536.856255 kJ/mol
# GULP energy per Si atom -5569.123750 kJ/mol
# Density = 2.458093 g / cm^3
# Si number density = 24.637003 Si / 1000 Ang^3
#
#
#
# Elastic Constant Matrix: (Units=GPa)
#
#
# Indices 1 2 3 4 5 6 
#
# 1 101.7783 39.6187 44.4908 7.4277 56.4916 5.4866
# 2 39.6187 75.7662 25.5332 17.2051 12.6288 -7.0488
# 3 44.4908 25.5332 97.7552 22.4180 39.4709 7.4591
# 4 7.4277 17.2051 22.4180 45.4658 2.0120 14.3754
# 5 56.4916 12.6288 39.4709 2.0120 62.6025 13.9024
# 6 5.4866 -7.0488 7.4591 14.3754 13.9024 32.3739
#
#
#
# Elastic Compliance Matrix: (Units=1/GPa)
#
#
# Indices 1 2 3 4 5 6 
#
# 1 0.025341 -0.009060 -0.000715 -0.000440 -0.021294 0.003237
# 2 -0.009060 0.020608 -0.001197 -0.008651 0.003094 0.008811
# 3 -0.000715 -0.001197 0.016647 -0.008517 -0.010272 0.004218
# 4 -0.000440 -0.008651 -0.008517 0.035466 0.010873 -0.020264
# 5 -0.021294 0.003094 -0.010272 0.010873 0.044534 -0.017303
# 6 0.003237 0.008811 0.004218 -0.020264 -0.017303 0.047716
#
#
# Mechanical properties :
#
#
# Convention : Reuss Voigt Hill
#
# Bulk Modulus (GPa) = 24.59957 54.95389 39.77673
# Shear Modulus (GPa) = 22.14297 39.13224 30.63760
#
# Velocity S-wave (km/s) = 3.00120 3.98974 3.53024
# Velocity P-wave (km/s) = 4.69213 6.60135 5.72686
#
# Compressibility (1/GPa) = 0.04065111
#
# Stress axis : x y z
#
# Youngs Moduli (GPa) = 39.46164 48.52589 60.07162
#
# Poissons Ratio (x) = 0.43963 0.04297
# Poissons Ratio (y) = 0.35751 0.07192
# Poissons Ratio (z) = 0.02823 0.05810
#
# Static dielectric constant tensor:
#      x y z
#    x 2.014570 0.001180 -0.043580 
#    y 0.001180 1.946830 -0.002270 
#    z -0.043580 -0.002270 2.009630 
# 
# From -- ./inp_files/540154.got.cif
#   From: 2010.05.17/outbox.cif.g08.bks.cpg/sg2_271_cif.got.tgz:540154.got - 2010.06.03 11:33:40.
