data_PCOD9016406
_publ_section_title
;
Structure prediction by ZEFSAII (Michael W. Deem and Ramdas Pophale) SiO2 
 PCOD9016406
Probable space group: P -1
;
_chemical_formula_sum "Si O2"
_cell_formula_units_Z 16
_cell_length_a 15.678693
_cell_length_b 14.629742
_cell_length_c 14.826198
_cell_angle_alpha 152.419993
_cell_angle_beta 30.860163
_cell_angle_gamma 150.715951
_cell_volume 713.393860
_symmetry_space_group_name_H-M "P -1"
_symmetry_group_IT_number 2
_symmetry_cell_setting 'triclinic'
loop_
_space_group_symop_operation_xyz
x,y,z
-x,-y,-z
loop_
_atom_site_type_symbol
_atom_site_label
_atom_site_fract_x
_atom_site_fract_y
_atom_site_fract_z
Si Si1 0.667342 0.861894 0.909076
Si Si2 0.996340 0.220045 0.016120
Si Si3 0.798963 0.806295 0.546959
Si Si4 0.409048 0.004527 0.183487
Si Si5 0.049931 0.797081 0.759825
Si Si6 0.012449 0.556160 0.142903
Si Si7 0.315549 0.642198 0.318364
Si Si8 0.412649 0.446996 0.886362
O O1 0.750802 0.874293 0.745550
O O2 0.530729 0.610361 0.842222
O O3 0.547348 0.998135 0.128434
O O4 0.839151 0.973047 0.919136
O O5 0.936521 0.281942 0.219630
O O6 0.999733 0.369202 0.059276
O O7 0.208642 0.266205 0.879550
O O8 0.833409 0.598406 0.353505
O O9 0.648704 0.798512 0.602910
O O10 0.000000 0.000000 0.500000
O O11 0.211564 0.776310 0.172241
O O12 0.500000 0.000000 0.000000
O O13 0.233198 0.816402 0.558771
O O14 0.866163 0.598065 0.708376
O O15 0.000000 0.000000 0.000000
O O16 0.000000 0.500000 0.000000
O O17 0.475815 0.662411 0.259309
O O18 0.381947 0.607625 0.128576
#
# Coordination Sequence:
#
# PCOD9016406 Si02
#       8
#     2   2   2   2   2   2   2   2
#     4  11  21  40  65  89 131 162 216 266 323 382
#     4  11  23  39  63  96 127 168 221 264 319 398
#     4   9  20  37  62  87 123 173 209 264 328 372
#     4   9  18  37  59  86 120 167 207 258 323 372
#     4  10  21  42  68 100 132 174 223 266 341 399
#     4  11  21  39  61  89 131 166 215 269 313 379
#     4   9  21  42  68  92 139 170 211 281 336 389
#     4  10  21  42  67  97 129 173 215 271 332 386
#
# _framework density 22.428004000000001
#
# number of rings (size 3 to 8) (size 9 to 14) (size 15 to 20)
#    0.000    2.000    1.250    3.000    1.750    0.000 
#    2.250   20.625    2.750    0.000    0.000    0.000 
#    0.000    0.000    0.000    0.000    0.000    0.000 
#
# Total GULP energy -89292.271739 kJ/mol
# GULP energy per Si atom -5580.766984 kJ/mol
# Density = 2.237696 g / cm^3
# Si number density = 22.428004 Si / 1000 Ang^3
#
#
#
# Elastic Constant Matrix: (Units=GPa)
#
#
# Indices 1 2 3 4 5 6 
#
# 1 106.1253 22.7551 33.5942 -2.8827 -15.5043 16.6979
# 2 22.7551 77.5252 17.7518 -12.1692 -5.3579 10.5597
# 3 33.5942 17.7518 109.5945 -8.8191 -26.0933 8.1620
# 4 -2.8827 -12.1692 -8.8191 25.4144 -4.6735 0.2354
# 5 -15.5043 -5.3579 -26.0933 -4.6735 24.3368 -6.2326
# 6 16.6979 10.5597 8.1620 0.2354 -6.2326 40.4060
#
#
#
# Elastic Compliance Matrix: (Units=1/GPa)
#
#
# Indices 1 2 3 4 5 6 
#
# 1 0.011624 -0.002185 -0.001976 0.000361 0.004053 -0.003210
# 2 -0.002185 0.015326 -0.000508 0.007335 0.002151 -0.002710
# 3 -0.001976 -0.000508 0.013939 0.007133 0.015050 0.000414
# 4 0.000361 0.007335 0.007133 0.048811 0.018632 -0.000918
# 5 0.004053 0.002151 0.015050 0.018632 0.065050 0.004648
# 6 -0.003210 -0.002710 0.000414 -0.000918 0.004648 0.027423
#
#
# Mechanical properties :
#
#
# Convention : Reuss Voigt Hill
#
# Bulk Modulus (GPa) = 31.69577 49.04967 40.37272
# Shear Modulus (GPa) = 24.74898 32.64104 28.69501
#
# Velocity S-wave (km/s) = 3.32548 3.81907 3.58079
# Velocity P-wave (km/s) = 5.37661 6.43151 5.92758
#
# Compressibility (1/GPa) = 0.03154995
#
# Stress axis : x y z
#
# Youngs Moduli (GPa) = 86.02947 65.24809 71.74082
#
# Poissons Ratio (x) = 0.14258 0.14176
# Poissons Ratio (y) = 0.18800 0.03646
# Poissons Ratio (z) = 0.17000 0.03316
#
# Static dielectric constant tensor:
#      x y z
#    x 1.835850 0.000220 -0.032960 
#    y 0.000220 1.858950 0.041010 
#    z -0.032960 0.041010 1.935020 
# 
# From -- ./inp_files/534543.got.cif
#   From: 2010.05.17/outbox.cif.g08.bks.cpg/sg2_268_cif.got.tgz:534543.got - 2010.06.03 11:33:40.
