data_PCOD9016753
_publ_section_title
;
Structure prediction by ZEFSAII (Michael W. Deem and Ramdas Pophale) SiO2 
 PCOD9016753
Probable space group: P -1
;
_chemical_formula_sum "Si O2"
_cell_formula_units_Z 14
_cell_length_a 29.340330
_cell_length_b 8.514742
_cell_length_c 23.218105
_cell_angle_alpha 143.309472
_cell_angle_beta 10.344808
_cell_angle_gamma 142.140130
_cell_volume 622.335924
_symmetry_space_group_name_H-M "P -1"
_symmetry_group_IT_number 2
_symmetry_cell_setting 'triclinic'
loop_
_space_group_symop_operation_xyz
x,y,z
-x,-y,-z
loop_
_atom_site_type_symbol
_atom_site_label
_atom_site_fract_x
_atom_site_fract_y
_atom_site_fract_z
Si Si1 0.834178 0.231683 0.636777
Si Si2 0.194736 0.968853 0.196191
Si Si3 0.403550 0.544990 0.893222
Si Si4 0.996750 0.084279 0.276356
Si Si5 0.114137 0.740638 0.751108
Si Si6 0.355123 0.960446 0.401273
Si Si7 0.326144 0.656330 0.805819
O O1 0.000000 0.500000 0.500000
O O2 0.787184 0.138179 0.602619
O O3 0.621822 0.301451 0.968490
O O4 0.004980 0.006330 0.388885
O O5 0.355269 0.727333 0.951861
O O6 0.419856 0.168652 0.954822
O O7 0.000000 0.000000 0.500000
O O8 0.670754 0.396397 0.517396
O O9 0.166814 0.341669 0.128586
O O10 0.870965 0.986614 0.345644
O O11 0.187149 0.878230 0.006820
O O12 0.251488 0.803942 0.538763
O O13 0.883810 0.542335 0.967782
O O14 0.000000 0.000000 0.000000
O O15 0.498908 0.207178 0.323812
O O16 0.500000 0.500000 0.500000
#
# Coordination Sequence:
#
# PCOD9016753 Si02
#       7
#     2   2   2   2   2   2   2
#     4   9  18  40  68 100 148 189 234 299 355 428
#     4  10  21  42  69 104 146 187 239 294 354 432
#     4  10  21  43  71 106 143 192 249 294 363 433
#     4  11  23  43  71 106 145 192 239 303 365 434
#     4  12  25  50  76 103 141 196 242 306 367 425
#     4  12  25  45  71 107 144 185 246 292 368 431
#     4  12  25  49  73 100 146 188 244 310 362 434
#
# _framework density 22.495889999999999
#
# number of rings (size 3 to 8) (size 9 to 14) (size 15 to 20)
#    0.000    1.143    4.286    1.714    2.000    0.571 
#    5.143   10.714    0.000    0.000    0.000    0.000 
#    0.000    0.000    0.000    0.000    0.000    0.000 
#
# Total GULP energy -78129.594054 kJ/mol
# GULP energy per Si atom -5580.685290 kJ/mol
# Density = 2.244469 g / cm^3
# Si number density = 22.495890 Si / 1000 Ang^3
#
#
#
# Elastic Constant Matrix: (Units=GPa)
#
#
# Indices 1 2 3 4 5 6 
#
# 1 151.1413 63.8964 59.3980 -2.0633 -22.4662 -12.5016
# 2 63.8964 95.6558 45.0154 -9.4142 -3.7243 -12.0951
# 3 59.3980 45.0154 116.4751 -2.4974 5.9972 -7.8974
# 4 -2.0633 -9.4142 -2.4974 54.3547 -11.2375 0.2202
# 5 -22.4662 -3.7243 5.9972 -11.2375 39.6557 -16.7459
# 6 -12.5016 -12.0951 -7.8974 0.2202 -16.7459 34.8848
#
#
#
# Elastic Compliance Matrix: (Units=1/GPa)
#
#
# Indices 1 2 3 4 5 6 
#
# 1 0.012715 -0.004815 -0.004671 0.001661 0.010908 0.007055
# 2 -0.004815 0.016191 -0.003568 0.002810 0.001783 0.003919
# 3 -0.004671 -0.003568 0.012433 -0.001598 -0.006711 -0.003308
# 4 0.001661 0.002810 -0.001598 0.020878 0.009804 0.005782
# 5 0.010908 0.001783 -0.006711 0.009804 0.045907 0.024983
# 6 0.007055 0.003919 -0.003308 0.005782 0.024983 0.043760
#
#
# Mechanical properties :
#
#
# Convention : Reuss Voigt Hill
#
# Bulk Modulus (GPa) = 65.65197 77.76577 71.70887
# Shear Modulus (GPa) = 27.31181 38.77652 33.04416
#
# Velocity S-wave (km/s) = 3.48814 4.15627 3.83678
# Velocity P-wave (km/s) = 6.74316 7.59452 7.18147
#
# Compressibility (1/GPa) = 0.01523184
#
# Stress axis : x y z
#
# Youngs Moduli (GPa) = 78.64520 61.76197 80.42789
#
# Poissons Ratio (x) = 0.29740 0.37568
# Poissons Ratio (y) = 0.37869 0.28696
# Poissons Ratio (z) = 0.36735 0.22036
#
# Static dielectric constant tensor:
#      x y z
#    x 1.833240 0.020440 0.062460 
#    y 0.020440 1.869780 0.003270 
#    z 0.062460 0.003270 1.890570 
# 
# From -- ./inp_files/614482.got.cif
#   From: 2010.05.17/outbox.cif.g08.bks.cpg/sg2_308_cif.got.tgz:614482.got - 2010.06.03 11:33:40.
