data_PCOD9016041
_publ_section_title
;
Structure prediction by ZEFSAII (Michael W. Deem and Ramdas Pophale) SiO2 
 PCOD9016041
Probable space group: P -1
;
_chemical_formula_sum "Si O2"
_cell_formula_units_Z 16
_cell_length_a 14.446123
_cell_length_b 9.258180
_cell_length_c 5.955354
_cell_angle_alpha 85.816148
_cell_angle_beta 74.579282
_cell_angle_gamma 83.613037
_cell_volume 762.274955
_symmetry_space_group_name_H-M "P -1"
_symmetry_group_IT_number 2
_symmetry_cell_setting 'triclinic'
loop_
_space_group_symop_operation_xyz
x,y,z
-x,-y,-z
loop_
_atom_site_type_symbol
_atom_site_label
_atom_site_fract_x
_atom_site_fract_y
_atom_site_fract_z
Si Si1 0.597039 0.010081 0.653599
Si Si2 0.953440 0.857067 0.623803
Si Si3 0.551069 0.502816 0.215262
Si Si4 0.402422 0.185052 0.720644
Si Si5 0.247019 0.033339 0.054033
Si Si6 0.299884 0.766430 0.755966
Si Si7 0.105858 0.642646 0.829054
Si Si8 0.029715 0.383792 0.687855
O O1 0.492764 0.086286 0.785715
O O2 0.641461 0.131809 0.453283
O O3 0.579625 0.862568 0.545592
O O4 0.678791 0.973934 0.786822
O O5 0.859169 0.904710 0.821580
O O6 0.925218 0.763011 0.438649
O O7 0.030654 0.751770 0.725216
O O8 0.000000 0.000000 0.500000
O O9 0.500000 0.500000 0.500000
O O10 0.595502 0.655798 0.200042
O O11 0.627067 0.361838 0.181436
O O12 0.500000 0.500000 0.000000
O O13 0.297745 0.134092 0.837378
O O14 0.252187 0.873315 0.964563
O O15 0.210959 0.692171 0.714031
O O16 0.097368 0.474354 0.787751
O O17 0.064415 0.651144 0.107860
O O18 0.000000 0.500000 0.500000
#
# Coordination Sequence:
#
# PCOD9016041 Si02
#       8
#     2   2   2   2   2   2   2   2
#     4  10  21  42  66  92 132 168 227 271 340 400
#     4  11  23  40  63  97 133 168 221 281 341 406
#     4  12  27  47  70 103 141 182 231 289 350 414
#     4  10  23  41  66  95 127 176 222 280 338 404
#     4  11  24  39  65  96 130 177 223 276 341 413
#     4  11  24  41  67  96 127 178 223 275 343 411
#     4  10  22  42  66  90 131 171 220 274 337 411
#     4   9  21  41  63  88 126 169 217 276 340 395
#
# _framework density 20.989801
#
# number of rings (size 3 to 8) (size 9 to 14) (size 15 to 20)
#    0.000    1.500    1.250    2.625    1.750    9.000 
#    0.000    0.000    0.000    0.000    0.000    0.000 
#    0.000    0.000    0.000    0.000    0.000    0.000 
#
# Total GULP energy -89237.741124 kJ/mol
# GULP energy per Si atom -5577.358820 kJ/mol
# Density = 2.094203 g / cm^3
# Si number density = 20.989801 Si / 1000 Ang^3
#
#
#
# Elastic Constant Matrix: (Units=GPa)
#
#
# Indices 1 2 3 4 5 6 
#
# 1 92.2337 21.6526 22.6095 4.8159 -20.9749 1.4882
# 2 21.6526 119.1295 35.3756 30.8916 -12.0187 13.0369
# 3 22.6095 35.3756 67.1700 6.4757 -15.8667 -1.0827
# 4 4.8159 30.8916 6.4757 28.7428 -4.9708 1.0485
# 5 -20.9749 -12.0187 -15.8667 -4.9708 33.4823 -2.0064
# 6 1.4882 13.0369 -1.0827 1.0485 -2.0064 32.6279
#
#
#
# Elastic Compliance Matrix: (Units=1/GPa)
#
#
# Indices 1 2 3 4 5 6 
#
# 1 0.013210 -0.001299 -0.002211 0.000866 0.006904 0.000240
# 2 -0.001299 0.014652 -0.006233 -0.014083 -0.000934 -0.005607
# 3 -0.002211 -0.006233 0.020212 0.003544 0.006695 0.003560
# 4 0.000866 -0.014083 0.003544 0.049653 0.004802 0.004405
# 5 0.006904 -0.000934 0.006695 0.004802 0.037889 0.002456
# 6 0.000240 -0.005607 0.003560 0.004405 0.002456 0.033006
#
#
# Mechanical properties :
#
#
# Convention : Reuss Voigt Hill
#
# Bulk Modulus (GPa) = 34.97943 48.64541 41.81242
# Shear Modulus (GPa) = 25.29887 32.23029 28.76458
#
# Velocity S-wave (km/s) = 3.47550 3.92282 3.70592
# Velocity P-wave (km/s) = 5.72771 6.61393 6.18671
#
# Compressibility (1/GPa) = 0.02858823
#
# Stress axis : x y z
#
# Youngs Moduli (GPa) = 75.70052 68.24843 49.47609
#
# Poissons Ratio (x) = 0.08862 0.10941
# Poissons Ratio (y) = 0.09830 0.30839
# Poissons Ratio (z) = 0.16740 0.42540
#
# Static dielectric constant tensor:
#      x y z
#    x 1.710810 0.017830 -0.190100 
#    y 0.017830 1.741780 -0.089740 
#    z -0.190100 -0.089740 0.129710 
# 
# From -- ./inp_files/85182.got.cif
#   From: 2010.05.17/outbox.cif.g08.bks.cpg/sg2_43_cif.got.tgz:85182.got - 2010.06.03 11:33:40.
