data_PCOD9016298
_publ_section_title
;
Structure prediction by ZEFSAII (Michael W. Deem and Ramdas Pophale) SiO2 
 PCOD9016298
Probable space group: P -1
;
_chemical_formula_sum "Si O2"
_cell_formula_units_Z 14
_cell_length_a 13.984678
_cell_length_b 7.533434
_cell_length_c 12.156293
_cell_angle_alpha 120.955763
_cell_angle_beta 130.167470
_cell_angle_gamma 33.516804
_cell_volume 539.567205
_symmetry_space_group_name_H-M "P -1"
_symmetry_group_IT_number 2
_symmetry_cell_setting 'triclinic'
loop_
_space_group_symop_operation_xyz
x,y,z
-x,-y,-z
loop_
_atom_site_type_symbol
_atom_site_label
_atom_site_fract_x
_atom_site_fract_y
_atom_site_fract_z
Si Si1 0.149284 0.066034 0.543916
Si Si2 0.814185 0.718819 0.169838
Si Si3 0.274127 0.572642 0.662932
Si Si4 0.383941 0.414018 0.088113
Si Si5 0.297629 0.977277 0.184140
Si Si6 0.213406 0.840249 0.281692
Si Si7 0.123237 0.058420 0.883477
O O1 0.171484 0.257250 0.682412
O O2 0.917078 0.324308 0.447175
O O3 0.238529 0.778804 0.601407
O O4 0.237074 0.909955 0.440204
O O5 0.590671 0.075849 0.093449
O O6 0.949814 0.706587 0.200414
O O7 0.791906 0.515770 0.047172
O O8 0.488521 0.200618 0.695474
O O9 0.262359 0.720917 0.813460
O O10 0.335366 0.690122 0.083208
O O11 0.382522 0.486092 0.238056
O O12 0.190340 0.157691 0.048503
O O13 0.193638 0.056768 0.248549
O O14 0.042419 0.886456 0.177405
#
# Coordination Sequence:
#
# PCOD9016298 Si02
#       7
#     2   2   2   2   2   2   2
#     4   9  16  31  49  75  98 125 167 206 237 287
#     4  10  19  34  51  76  98 132 160 205 244 296
#     4   9  17  27  48  73  97 125 165 204 237 278
#     4   9  20  32  48  79 101 124 164 199 260 278
#     4  10  18  31  48  80  97 129 163 208 238 291
#     4   9  19  30  50  78  99 127 160 211 243 283
#     4  10  17  30  51  74 101 125 169 203 240 286
#
# _framework density 25.946722999999999
#
# number of rings (size 3 to 8) (size 9 to 14) (size 15 to 20)
#    0.857    1.714    2.857    1.714    0.000    2.857 
#    0.000    0.000    0.000    3.429    7.429    4.000 
#    0.000    0.000    0.000    0.000    0.000    0.000 
#
# Total GULP energy -78009.241228 kJ/mol
# GULP energy per Si atom -5572.088659 kJ/mol
# Density = 2.588767 g / cm^3
# Si number density = 25.946723 Si / 1000 Ang^3
#
#
#
# Elastic Constant Matrix: (Units=GPa)
#
#
# Indices 1 2 3 4 5 6 
#
# 1 50.5021 13.5609 4.6276 7.1292 -13.4036 -15.5814
# 2 13.5609 39.9626 8.7385 2.4980 -8.8010 -13.4909
# 3 4.6276 8.7385 135.5624 18.4436 -17.0321 -9.3123
# 4 7.1292 2.4980 18.4436 34.7093 -4.0716 0.6951
# 5 -13.4036 -8.8010 -17.0321 -4.0716 48.2276 0.6681
# 6 -15.5814 -13.4909 -9.3123 0.6951 0.6681 28.5529
#
#
#
# Elastic Compliance Matrix: (Units=1/GPa)
#
#
# Indices 1 2 3 4 5 6 
#
# 1 0.027536 -0.003044 0.001926 -0.005913 0.007082 0.014194
# 2 -0.003044 0.031621 -0.000298 -0.001223 0.004534 0.013106
# 3 0.001926 -0.000298 0.008609 -0.004663 0.003075 0.003759
# 4 -0.005913 -0.001223 -0.004663 0.032634 -0.000674 -0.006104
# 5 0.007082 0.004534 0.003075 -0.000674 0.024470 0.006454
# 6 0.014194 0.013106 0.003759 -0.006104 0.006454 0.050185
#
#
# Mechanical properties :
#
#
# Convention : Reuss Voigt Hill
#
# Bulk Modulus (GPa) = 15.40047 31.09791 23.24919
# Shear Modulus (GPa) = 25.05853 35.57129 30.31491
#
# Velocity S-wave (km/s) = 3.11105 3.70663 3.42182
# Velocity P-wave (km/s) = 4.34202 5.50728 4.95900
#
# Compressibility (1/GPa) = 0.06493310
#
# Stress axis : x y z
#
# Youngs Moduli (GPa) = 36.31645 31.62459 116.15405
#
# Poissons Ratio (x) = 0.09626 -0.22366
# Poissons Ratio (y) = 0.11055 0.03462
# Poissons Ratio (z) = -0.06993 0.00943
#
# Static dielectric constant tensor:
#      x y z
#    x 2.110070 0.063470 -0.106250 
#    y 0.063470 2.240050 -0.083240 
#    z -0.106250 -0.083240 2.214680 
# 
# From -- ./inp_files/464040.got.cif
#   From: 2010.05.17/outbox.cif.g08.bks.cpg/sg2_233_cif.got.tgz:464040.got - 2010.06.03 11:33:40.
