data_PCOD9016084
_publ_section_title
;
Structure prediction by ZEFSAII (Michael W. Deem and Ramdas Pophale) SiO2 
 PCOD9016084
Probable space group: P -1
;
_chemical_formula_sum "Si O2"
_cell_formula_units_Z 16
_cell_length_a 19.030461
_cell_length_b 8.070001
_cell_length_c 5.402312
_cell_angle_alpha 119.453653
_cell_angle_beta 94.409250
_cell_angle_gamma 60.119296
_cell_volume 610.674565
_symmetry_space_group_name_H-M "P -1"
_symmetry_group_IT_number 2
_symmetry_cell_setting 'triclinic'
loop_
_space_group_symop_operation_xyz
x,y,z
-x,-y,-z
loop_
_atom_site_type_symbol
_atom_site_label
_atom_site_fract_x
_atom_site_fract_y
_atom_site_fract_z
Si Si1 0.918495 0.750402 0.687922
Si Si2 0.685343 0.191172 0.949757
Si Si3 0.256056 0.586073 0.565427
Si Si4 0.569275 0.149303 0.265985
Si Si5 0.413888 0.478651 0.203395
Si Si6 0.297917 0.187112 0.640669
Si Si7 0.028517 0.163138 0.726137
Si Si8 0.150244 0.466030 0.185575
O O1 0.850038 0.701247 0.734456
O O2 0.000000 0.500000 0.500000
O O3 0.910252 0.848696 0.483624
O O4 0.938585 0.863213 0.005224
O O5 0.615625 0.444399 0.027719
O O6 0.708667 0.020229 0.607659
O O7 0.755676 0.221703 0.109579
O O8 0.642045 0.115190 0.077464
O O9 0.328521 0.547224 0.370324
O O10 0.289993 0.353340 0.547443
O O11 0.173189 0.632380 0.444584
O O12 0.487569 0.239454 0.144800
O O13 0.555296 0.353358 0.586769
O O14 0.612664 0.927622 0.282364
O O15 0.223062 0.332031 0.912972
O O16 0.940100 0.403515 0.867134
O O17 0.000000 0.000000 0.500000
#
# Coordination Sequence:
#
# PCOD9016084 Si02
#       8
#     2   2   2   2   2   2   2   2
#     4  10  23  47  77 103 138 186 228 281 351 423
#     4  10  21  42  66  94 134 176 242 282 346 414
#     4  11  24  42  64 100 137 181 229 285 349 417
#     4   9  19  39  65  93 132 178 236 288 347 405
#     4   9  19  39  64  95 132 179 231 295 342 404
#     4  11  24  42  64  99 136 182 227 284 351 415
#     4  11  25  50  76 111 138 178 239 289 348 424
#     4  11  25  45  68  95 141 179 218 281 345 419
#
# _framework density 26.200536
#
# number of rings (size 3 to 8) (size 9 to 14) (size 15 to 20)
#    0.000    1.750    0.000    3.750    5.250    1.500 
#   11.250    4.375    0.000    0.000    0.000    0.000 
#    0.000    0.000    0.000    0.000    0.000    0.000 
#
# Total GULP energy -89597.725138 kJ/mol
# GULP energy per Si atom -5599.857821 kJ/mol
# Density = 2.614090 g / cm^3
# Si number density = 26.200536 Si / 1000 Ang^3
#
#
#
# Elastic Constant Matrix: (Units=GPa)
#
#
# Indices 1 2 3 4 5 6 
#
# 1 98.2969 13.7560 37.6409 -2.5093 23.9105 -5.0569
# 2 13.7560 99.1217 2.9254 -7.9853 -5.3872 -15.4301
# 3 37.6409 2.9254 135.3124 5.4194 26.9534 -0.4492
# 4 -2.5093 -7.9853 5.4194 32.5922 6.4931 6.5925
# 5 23.9105 -5.3872 26.9534 6.4931 44.8423 -12.9399
# 6 -5.0569 -15.4301 -0.4492 6.5925 -12.9399 47.6689
#
#
#
# Elastic Compliance Matrix: (Units=1/GPa)
#
#
# Indices 1 2 3 4 5 6 
#
# 1 0.012944 -0.002106 -0.002363 0.002460 -0.006506 -0.001437
# 2 -0.002106 0.011367 -0.000458 0.001047 0.003870 0.004357
# 3 -0.002363 -0.000458 0.008978 -0.000589 -0.004528 -0.001462
# 4 0.002460 0.001047 -0.000589 0.033968 -0.007524 -0.006146
# 5 -0.006506 0.003870 -0.004528 -0.007524 0.033088 0.010542
# 6 -0.001437 0.004357 -0.001462 -0.006146 0.010542 0.025934
#
#
# Mechanical properties :
#
#
# Convention : Reuss Voigt Hill
#
# Bulk Modulus (GPa) = 42.66873 49.04174 45.85523
# Shear Modulus (GPa) = 34.73559 43.58126 39.15842
#
# Velocity S-wave (km/s) = 3.64505 4.08287 3.87016
# Velocity P-wave (km/s) = 5.83403 6.40195 6.12458
#
# Compressibility (1/GPa) = 0.02343637
#
# Stress axis : x y z
#
# Youngs Moduli (GPa) = 77.25563 87.97144 111.38061
#
# Poissons Ratio (x) = 0.18524 0.26315
# Poissons Ratio (y) = 0.16268 0.05104
# Poissons Ratio (z) = 0.18253 0.04032
#
# Static dielectric constant tensor:
#      x y z
#    x 2.051140 -0.042250 0.024840 
#    y -0.042250 2.121360 0.007950 
#    z 0.024840 0.007950 2.076980 
# 
# From -- ./inp_files/107636.got.cif
#   From: 2010.05.17/outbox.cif.g08.bks.cpg/sg2_54_cif.got.tgz:107636.got - 2010.06.03 11:33:40.
