data_PCOD9016685
_publ_section_title
;
Structure prediction by ZEFSAII (Michael W. Deem and Ramdas Pophale) SiO2 
 PCOD9016685
Probable space group: P -1
;
_chemical_formula_sum "Si O2"
_cell_formula_units_Z 16
_cell_length_a 8.988497
_cell_length_b 12.204645
_cell_length_c 20.953723
_cell_angle_alpha 139.572209
_cell_angle_beta 131.914217
_cell_angle_gamma 26.919959
_cell_volume 674.435574
_symmetry_space_group_name_H-M "P -1"
_symmetry_group_IT_number 2
_symmetry_cell_setting 'triclinic'
loop_
_space_group_symop_operation_xyz
x,y,z
-x,-y,-z
loop_
_atom_site_type_symbol
_atom_site_label
_atom_site_fract_x
_atom_site_fract_y
_atom_site_fract_z
Si Si1 0.247305 0.945584 0.762118
Si Si2 0.456635 0.678754 0.270670
Si Si3 0.366057 0.780742 0.092112
Si Si4 0.839737 0.626399 0.248565
Si Si5 0.183194 0.342437 0.549572
Si Si6 0.588718 0.014394 0.916117
Si Si7 0.671636 0.181002 0.128032
Si Si8 0.706679 0.514411 0.595694
O O1 0.246167 0.149394 0.862898
O O2 0.404433 0.784417 0.803748
O O3 0.433650 0.796404 0.682868
O O4 0.928766 0.041176 0.707989
O O5 0.633183 0.671834 0.265146
O O6 0.655404 0.589916 0.351885
O O7 0.481589 0.465033 0.169081
O O8 0.588787 0.780323 0.186777
O O9 0.325991 0.878391 0.053165
O O10 0.500000 0.500000 0.000000
O O11 0.050645 0.974926 0.132679
O O12 0.131437 0.306878 0.167097
O O13 0.003103 0.683033 0.352947
O O14 0.000000 0.500000 0.500000
O O15 0.897036 0.477434 0.576249
O O16 0.500000 0.000000 0.500000
O O17 0.610457 0.057462 0.013898
O O18 0.500000 0.500000 0.500000
#
# Coordination Sequence:
#
# PCOD9016685 Si02
#       8
#     2   2   2   2   2   2   2   2
#     4  11  26  45  65 102 147 185 238 296 376 439
#     4  11  24  42  69 104 140 190 239 301 366 446
#     4  12  22  39  72  97 137 192 247 296 358 434
#     4  10  21  42  68  99 133 186 238 293 355 431
#     4  11  27  52  84 111 144 193 254 308 377 452
#     4  11  24  42  63 101 138 183 245 297 357 427
#     4  12  24  40  70  97 145 189 242 296 363 449
#     4  10  24  48  74 104 142 182 242 307 375 443
#
# _framework density 23.723541999999998
#
# number of rings (size 3 to 8) (size 9 to 14) (size 15 to 20)
#    0.000    1.000    3.750    2.250    3.500    2.500 
#    2.250    1.250    0.000    0.000    0.000    0.000 
#    0.000    0.000    0.000    0.000    0.000    0.000 
#
# Total GULP energy -89173.771624 kJ/mol
# GULP energy per Si atom -5573.360727 kJ/mol
# Density = 2.366955 g / cm^3
# Si number density = 23.723542 Si / 1000 Ang^3
#
#
#
# Elastic Constant Matrix: (Units=GPa)
#
#
# Indices 1 2 3 4 5 6 
#
# 1 132.6036 46.5627 43.3709 -11.5746 -1.0509 -15.5018
# 2 46.5627 59.3026 43.6750 -27.5487 -5.6058 -16.0707
# 3 43.3709 43.6750 134.3234 -46.1459 2.0397 -15.0931
# 4 -11.5746 -27.5487 -46.1459 50.5279 -9.0100 6.9918
# 5 -1.0509 -5.6058 2.0397 -9.0100 41.0196 -11.3263
# 6 -15.5018 -16.0707 -15.0931 6.9918 -11.3263 35.3163
#
#
#
# Elastic Compliance Matrix: (Units=1/GPa)
#
#
# Indices 1 2 3 4 5 6 
#
# 1 0.011224 -0.009835 -0.002174 -0.005134 -0.002114 -0.000139
# 2 -0.009835 0.039107 -0.002267 0.017441 0.012658 0.013117
# 3 -0.002174 -0.002267 0.012371 0.009593 0.001661 0.001935
# 4 -0.005134 0.017441 0.009593 0.038160 0.011819 0.006019
# 5 -0.002114 0.012658 0.001661 0.011819 0.032313 0.013565
# 6 -0.000139 0.013117 0.001935 0.006019 0.013565 0.038209
#
#
# Mechanical properties :
#
#
# Convention : Reuss Voigt Hill
#
# Bulk Modulus (GPa) = 29.28005 65.93852 47.60928
# Shear Modulus (GPa) = 23.66075 38.21416 30.93746
#
# Velocity S-wave (km/s) = 3.16152 4.01785 3.61513
# Velocity P-wave (km/s) = 5.06911 7.02702 6.12678
#
# Compressibility (1/GPa) = 0.03415295
#
# Stress axis : x y z
#
# Youngs Moduli (GPa) = 89.09111 25.57066 80.83120
#
# Poissons Ratio (x) = 0.25148 0.17570
# Poissons Ratio (y) = 0.87619 0.18323
# Poissons Ratio (z) = 0.19365 0.05796
#
# Static dielectric constant tensor:
#      x y z
#    x 1.926700 -0.074580 0.005540 
#    y -0.074580 2.131100 0.019850 
#    z 0.005540 0.019850 1.961980 
# 
# From -- ./inp_files/589641.got.cif
#   From: 2010.05.17/outbox.cif.g08.bks.cpg/sg2_295_cif.got.tgz:589641.got - 2010.06.03 11:33:40.
