data_PCOD9016418
_publ_section_title
;
Structure prediction by ZEFSAII (Michael W. Deem and Ramdas Pophale) SiO2 
 PCOD9016418
Probable space group: P -1
;
_chemical_formula_sum "Si O2"
_cell_formula_units_Z 15
_cell_length_a 13.509119
_cell_length_b 9.128675
_cell_length_c 9.324651
_cell_angle_alpha 81.055764
_cell_angle_beta 31.640717
_cell_angle_gamma 90.739379
_cell_volume 572.009759
_symmetry_space_group_name_H-M "P -1"
_symmetry_group_IT_number 2
_symmetry_cell_setting 'triclinic'
loop_
_space_group_symop_operation_xyz
x,y,z
-x,-y,-z
loop_
_atom_site_type_symbol
_atom_site_label
_atom_site_fract_x
_atom_site_fract_y
_atom_site_fract_z
Si Si1 0.669472 0.664799 0.441376
Si Si2 0.898316 0.262902 0.474281
Si Si3 0.649989 0.933803 0.228660
Si Si4 0.329499 0.061682 0.130869
Si Si5 0.000000 0.500000 0.500000
Si Si6 0.481033 0.663696 0.954291
Si Si7 0.789936 0.375345 0.292152
Si Si8 0.934022 0.249990 0.876668
O O1 0.680304 0.777115 0.278557
O O2 0.513845 0.692293 0.742317
O O3 0.645419 0.483127 0.473724
O O4 0.872402 0.725923 0.269868
O O5 0.084832 0.387254 0.288422
O O6 0.826873 0.278427 0.398612
O O7 0.860576 0.085386 0.589969
O O8 0.744697 0.337177 0.741116
O O9 0.500000 0.000000 0.500000
O O10 0.608530 0.906943 0.115162
O O11 0.850233 0.073266 0.962996
O O12 0.360746 0.213203 0.164758
O O13 0.500000 0.000000 0.000000
O O14 0.986282 0.368088 0.663667
O O15 0.500000 0.500000 0.000000
O O16 0.772454 0.286004 0.179034
O O17 0.000000 0.500000 0.000000
#
# Coordination Sequence:
#
# PCOD9016418 Si02
#       8
#     2   2   2   2   1   2   2   2
#     4  11  24  46  66 106 141 185 237 292 358 420
#     4  11  21  41  69  99 136 186 238 285 354 423
#     4  12  26  45  70 104 144 188 236 293 362 423
#     4  10  24  43  66 100 134 185 233 292 349 420
#     4  12  20  42  72 104 138 184 246 276 358 414
#     4  11  22  43  69  95 142 182 236 290 353 414
#     4  10  21  42  67  97 135 182 227 287 352 412
#     4  11  25  45  73 101 144 190 234 297 350 430
#
# _framework density 26.223329
#
# number of rings (size 3 to 8) (size 9 to 14) (size 15 to 20)
#    0.000    1.067    5.333    2.000    5.600    0.000 
#    4.800    2.000    0.000    0.000    0.000    0.000 
#    0.000    0.000    0.000    0.000    0.000    0.000 
#
# Total GULP energy -83775.573334 kJ/mol
# GULP energy per Si atom -5585.038222 kJ/mol
# Density = 2.616364 g / cm^3
# Si number density = 26.223329 Si / 1000 Ang^3
#
#
#
# Elastic Constant Matrix: (Units=GPa)
#
#
# Indices 1 2 3 4 5 6 
#
# 1 149.8525 57.2727 43.5914 -18.5988 52.9445 -14.7491
# 2 57.2727 144.6262 32.6781 -21.9596 24.8889 6.8034
# 3 43.5914 32.6781 95.9477 -3.7438 45.5172 -13.8214
# 4 -18.5988 -21.9596 -3.7438 46.0926 -5.7261 6.0286
# 5 52.9445 24.8889 45.5172 -5.7261 66.8259 -10.5582
# 6 -14.7491 6.8034 -13.8214 6.0286 -10.5582 47.3315
#
#
#
# Elastic Compliance Matrix: (Units=1/GPa)
#
#
# Indices 1 2 3 4 5 6 
#
# 1 0.010613 -0.002778 -0.000371 0.001855 -0.006666 0.001875
# 2 -0.002778 0.009194 -0.002247 0.003516 0.000092 -0.003271
# 3 -0.000371 -0.002247 0.016295 -0.001485 -0.009621 0.003009
# 4 0.001855 0.003516 -0.001485 0.024431 -0.000231 -0.003524
# 5 -0.006666 0.000092 -0.009621 -0.000231 0.026924 0.001136
# 6 0.001875 -0.003271 0.003009 -0.003524 0.001136 0.023763
#
#
# Mechanical properties :
#
#
# Convention : Reuss Voigt Hill
#
# Bulk Modulus (GPa) = 39.50803 73.05676 56.28240
# Shear Modulus (GPa) = 38.32939 49.17561 43.75250
#
# Velocity S-wave (km/s) = 3.82730 4.33513 4.08911
# Velocity P-wave (km/s) = 5.88470 7.27858 6.61844
#
# Compressibility (1/GPa) = 0.02531131
#
# Stress axis : x y z
#
# Youngs Moduli (GPa) = 94.22547 108.76473 61.36686
#
# Poissons Ratio (x) = 0.30219 0.02275
# Poissons Ratio (y) = 0.26179 0.13786
# Poissons Ratio (z) = 0.03493 0.24434
#
# Static dielectric constant tensor:
#      x y z
#    x 1.766370 0.040940 0.095280 
#    y 0.040940 2.313780 0.098460 
#    z 0.095280 0.098460 2.089490 
# 
# From -- ./inp_files/298124.got.cif
#   From: 2010.05.17/outbox.cif.g08.bks.cpg/sg2_150_cif.got.tgz:298124.got - 2010.06.03 11:33:40.
