data_PCOD9016669
_publ_section_title
;
Structure prediction by ZEFSAII (Michael W. Deem and Ramdas Pophale) SiO2 
 PCOD9016669
Probable space group: P -1
;
_chemical_formula_sum "Si O2"
_cell_formula_units_Z 16
_cell_length_a 9.561948
_cell_length_b 11.369224
_cell_length_c 14.100847
_cell_angle_alpha 54.089324
_cell_angle_beta 150.045349
_cell_angle_gamma 113.937505
_cell_volume 599.716767
_symmetry_space_group_name_H-M "P -1"
_symmetry_group_IT_number 2
_symmetry_cell_setting 'triclinic'
loop_
_space_group_symop_operation_xyz
x,y,z
-x,-y,-z
loop_
_atom_site_type_symbol
_atom_site_label
_atom_site_fract_x
_atom_site_fract_y
_atom_site_fract_z
Si Si1 0.546030 0.000067 0.658690
Si Si2 0.452826 0.765518 0.221785
Si Si3 0.268436 0.493529 0.252046
Si Si4 0.936238 0.774525 0.643800
Si Si5 0.897817 0.677935 0.371491
Si Si6 0.318471 0.302929 0.208207
Si Si7 0.102097 0.088437 0.904726
Si Si8 0.603177 0.332907 0.177558
O O1 0.572594 0.874712 0.652347
O O2 0.214494 0.092345 0.435854
O O3 0.687015 0.913857 0.880086
O O4 0.769067 0.105536 0.731445
O O5 0.430627 0.611848 0.334818
O O6 0.706082 0.812941 0.405206
O O7 0.583667 0.719417 0.217147
O O8 0.198385 0.917154 0.002682
O O9 0.116175 0.380579 0.271067
O O10 0.450411 0.393796 0.321087
O O11 0.016244 0.630351 0.994533
O O12 0.246792 0.758232 0.784908
O O13 0.883521 0.784151 0.222046
O O14 0.000000 0.500000 0.500000
O O15 0.137030 0.704890 0.574029
O O16 0.343829 0.341357 0.095467
O O17 0.500000 0.500000 0.000000
#
# Coordination Sequence:
#
# PCOD9016669 Si02
#       8
#     2   2   2   2   2   2   2   2
#     4  10  23  42  68  99 136 182 221 289 340 398
#     4  10  21  42  68  98 135 175 224 287 341 393
#     4  11  22  41  66 102 131 180 233 277 332 412
#     4  10  23  41  69  99 133 179 234 277 338 404
#     4  11  25  40  69 104 131 179 229 282 334 409
#     4  11  24  41  65  93 139 181 223 274 349 399
#     4  10  22  43  67  99 138 171 229 281 346 400
#     4  11  24  45  64  97 142 179 223 280 342 408
#
# _framework density 26.679262000000001
#
# number of rings (size 3 to 8) (size 9 to 14) (size 15 to 20)
#    0.000    1.500    2.500    1.500    5.250    1.000 
#    0.000    0.000    0.000    0.000    0.000    0.000 
#    0.000    0.000    0.000    0.000    0.000    0.000 
#
# Total GULP energy -89208.333263 kJ/mol
# GULP energy per Si atom -5575.520829 kJ/mol
# Density = 2.661854 g / cm^3
# Si number density = 26.679262 Si / 1000 Ang^3
#
#
#
# Elastic Constant Matrix: (Units=GPa)
#
#
# Indices 1 2 3 4 5 6 
#
# 1 143.5055 31.2389 47.1478 -38.6563 11.9016 3.6690
# 2 31.2389 81.8202 29.7481 -43.6415 11.3159 -22.5141
# 3 47.1478 29.7481 112.5172 -37.5812 1.0765 -6.6708
# 4 -38.6563 -43.6415 -37.5812 48.5832 -3.0716 -1.2490
# 5 11.9016 11.3159 1.0765 -3.0716 54.0078 -26.0465
# 6 3.6690 -22.5141 -6.6708 -1.2490 -26.0465 45.4327
#
#
#
# Elastic Compliance Matrix: (Units=1/GPa)
#
#
# Indices 1 2 3 4 5 6 
#
# 1 0.009540 -0.000468 -0.002316 0.005106 -0.003106 -0.002983
# 2 -0.000468 0.034842 0.003850 0.034796 0.005230 0.021824
# 3 -0.002316 0.003850 0.013259 0.012227 0.003104 0.006158
# 4 0.005106 0.034796 0.012227 0.066423 0.006885 0.024399
# 5 -0.003106 0.005230 0.003104 0.006885 0.027804 0.019428
# 6 -0.002983 0.021824 0.006158 0.024399 0.019428 0.045779
#
#
# Mechanical properties :
#
#
# Convention : Reuss Voigt Hill
#
# Bulk Modulus (GPa) = 16.72962 61.56807 39.14884
# Shear Modulus (GPa) = 23.20834 44.91861 34.06347
#
# Velocity S-wave (km/s) = 2.95261 4.10769 3.57708
# Velocity P-wave (km/s) = 4.23180 6.75460 5.63617
#
# Compressibility (1/GPa) = 0.05977422
#
# Stress axis : x y z
#
# Youngs Moduli (GPa) = 104.81741 28.70083 75.41946
#
# Poissons Ratio (x) = 0.01344 0.17464
# Poissons Ratio (y) = 0.04909 -0.29037
# Poissons Ratio (z) = 0.24271 -0.11050
#
# Static dielectric constant tensor:
#      x y z
#    x 2.204220 0.033880 -0.092460 
#    y 0.033880 2.494530 0.037470 
#    z -0.092460 0.037470 2.159580 
# 
# From -- ./inp_files/500107.got.cif
#   From: 2010.05.17/outbox.cif.g08.bks.cpg/sg2_251_cif.got.tgz:500107.got - 2010.06.03 11:33:40.
