data_PCOD9016114
_publ_section_title
;
Structure prediction by ZEFSAII (Michael W. Deem and Ramdas Pophale) SiO2 
 PCOD9016114
Probable space group: P -1
;
_chemical_formula_sum "Si O2"
_cell_formula_units_Z 12
_cell_length_a 6.676854
_cell_length_b 7.599483
_cell_length_c 12.237999
_cell_angle_alpha 105.063826
_cell_angle_beta 105.579877
_cell_angle_gamma 62.248118
_cell_volume 522.680930
_symmetry_space_group_name_H-M "P -1"
_symmetry_group_IT_number 2
_symmetry_cell_setting 'triclinic'
loop_
_space_group_symop_operation_xyz
x,y,z
-x,-y,-z
loop_
_atom_site_type_symbol
_atom_site_label
_atom_site_fract_x
_atom_site_fract_y
_atom_site_fract_z
Si Si1 0.730975 0.517839 0.024607
Si Si2 0.606936 0.959728 0.131119
Si Si3 0.377013 0.858948 0.500591
Si Si4 0.135691 0.373674 0.398033
Si Si5 0.024312 0.988032 0.672553
Si Si6 0.830521 0.662557 0.836066
O O1 0.945603 0.329185 0.075660
O O2 0.691837 0.721545 0.117113
O O3 0.500000 0.500000 0.000000
O O4 0.766296 0.551215 0.907473
O O5 0.831076 0.994311 0.200179
O O6 0.385405 0.125661 0.188659
O O7 0.500000 0.000000 0.000000
O O8 0.600691 0.673952 0.545517
O O9 0.203408 0.949177 0.591609
O O10 0.500000 0.000000 0.500000
O O11 0.218295 0.838367 0.377168
O O12 0.092044 0.459226 0.283774
O O13 0.000000 0.500000 0.500000
O O14 0.051835 0.193467 0.352142
#
# Coordination Sequence:
#
# PCOD9016114 Si02
#       6
#     2   2   2   2   2   2
#     4  10  24  45  70 100 133 181 227 288 348 402
#     4  10  22  44  70  96 134 178 225 279 346 404
#     4   9  20  40  65  91 130 169 229 274 333 398
#     4  11  24  42  65  99 138 182 229 280 341 411
#     4  10  21  42  66  95 134 176 228 279 341 408
#     4  10  23  45  65 102 140 167 241 276 337 423
#
# _framework density 22.958555
#
# number of rings (size 3 to 8) (size 9 to 14) (size 15 to 20)
#    0.000    2.000    1.667    0.000    4.667    5.333 
#    9.000    1.667    0.000    0.000    0.000    0.000 
#    0.000    0.000    0.000    0.000    0.000    0.000 
#
# Total GULP energy -66870.510858 kJ/mol
# GULP energy per Si atom -5572.542571 kJ/mol
# Density = 2.290630 g / cm^3
# Si number density = 22.958555 Si / 1000 Ang^3
#
#
#
# Elastic Constant Matrix: (Units=GPa)
#
#
# Indices 1 2 3 4 5 6 
#
# 1 160.1753 35.4018 73.8161 -14.2610 33.5214 -22.9199
# 2 35.4018 54.7434 46.8697 -14.2479 18.0832 -8.3565
# 3 73.8161 46.8697 154.8932 -18.7727 20.6387 -15.8860
# 4 -14.2610 -14.2479 -18.7727 33.7947 -6.2168 15.0878
# 5 33.5214 18.0832 20.6387 -6.2168 51.6513 1.2926
# 6 -22.9199 -8.3565 -15.8860 15.0878 1.2926 33.4038
#
#
#
# Elastic Compliance Matrix: (Units=1/GPa)
#
#
# Indices 1 2 3 4 5 6 
#
# 1 0.009721 -0.001582 -0.003129 -0.001776 -0.004863 0.005777
# 2 -0.001582 0.028216 -0.006212 0.006649 -0.005575 0.000232
# 3 -0.003129 -0.006212 0.009996 0.001530 0.000386 0.000347
# 4 -0.001776 0.006649 0.001530 0.040948 0.003580 -0.017462
# 5 -0.004863 -0.005575 0.000386 0.003580 0.024924 -0.007129
# 6 0.005777 0.000232 0.000347 -0.017462 -0.007129 0.042287
#
#
# Mechanical properties :
#
#
# Convention : Reuss Voigt Hill
#
# Bulk Modulus (GPa) = 38.33097 75.77635 57.05366
# Shear Modulus (GPa) = 26.79073 38.01825 32.40449
#
# Velocity S-wave (km/s) = 3.41972 4.07375 3.76098
# Velocity P-wave (km/s) = 5.68548 7.42998 6.61549
#
# Compressibility (1/GPa) = 0.02608857
#
# Stress axis : x y z
#
# Youngs Moduli (GPa) = 102.87140 35.44137 100.03723
#
# Poissons Ratio (x) = 0.05605 0.31300
# Poissons Ratio (y) = 0.16270 0.62140
# Poissons Ratio (z) = 0.32187 0.22015
#
# Static dielectric constant tensor:
#      x y z
#    x 1.842320 -0.009630 -0.020690 
#    y -0.009630 1.998850 0.024950 
#    z -0.020690 0.024950 1.871470 
# 
# From -- ./inp_files/23752.got.cif
#   From: 2010.05.17/outbox.cif.g08.bks.cpg/sg2_12_cif.got.tgz:23752.got - 2010.06.03 11:33:40.
