data_PCOD9016348
_publ_section_title
;
Structure prediction by ZEFSAII (Michael W. Deem and Ramdas Pophale) SiO2 
 PCOD9016348
Probable space group: P -1
;
_chemical_formula_sum "Si O2"
_cell_formula_units_Z 16
_cell_length_a 27.360444
_cell_length_b 5.614233
_cell_length_c 10.942535
_cell_angle_alpha 83.991581
_cell_angle_beta 157.129805
_cell_angle_gamma 95.988970
_cell_volume 649.533229
_symmetry_space_group_name_H-M "P -1"
_symmetry_group_IT_number 2
_symmetry_cell_setting 'triclinic'
loop_
_space_group_symop_operation_xyz
x,y,z
-x,-y,-z
loop_
_atom_site_type_symbol
_atom_site_label
_atom_site_fract_x
_atom_site_fract_y
_atom_site_fract_z
Si Si1 0.854315 0.055380 0.165520
Si Si2 0.446182 0.945299 0.179387
Si Si3 0.609790 0.190202 0.200757
Si Si4 0.994584 0.678188 0.127996
Si Si5 0.098615 0.823490 0.101054
Si Si6 0.642605 0.327389 0.525798
Si Si7 0.763208 0.284341 0.180026
Si Si8 0.660789 0.660945 0.778472
O O1 0.832241 0.239579 0.214488
O O2 0.788884 0.810088 0.070485
O O3 0.000000 0.000000 0.500000
O O4 0.763890 0.154802 0.841813
O O5 0.547501 0.840473 0.510156
O O6 0.515269 0.184132 0.279516
O O7 0.425730 0.769822 0.023885
O O8 0.310221 0.949736 0.926972
O O9 0.756342 0.112343 0.534968
O O10 0.622799 0.376635 0.333811
O O11 0.500000 0.000000 0.000000
O O12 0.009451 0.754715 0.016266
O O13 0.135106 0.623168 0.496244
O O14 0.912098 0.437721 0.975646
O O15 0.952926 0.926098 0.083837
O O16 0.659229 0.539740 0.647698
O O17 0.659155 0.474279 0.894252
#
# Coordination Sequence:
#
# PCOD9016348 Si02
#       8
#     2   2   2   2   2   2   2   2
#     4  10  24  41  62  89 126 168 216 271 331 408
#     4  10  21  43  62  94 128 162 221 277 333 404
#     4  10  21  42  67  94 131 175 225 277 344 402
#     4  10  23  41  69  97 138 174 225 279 349 396
#     4  10  22  45  63 101 137 176 221 286 334 415
#     4   9  22  41  61  91 126 168 218 272 337 396
#     4  11  23  39  66  97 124 176 213 275 335 406
#     4  10  23  41  62  91 126 167 221 272 335 397
#
# _framework density 24.633075999999999
#
# number of rings (size 3 to 8) (size 9 to 14) (size 15 to 20)
#    0.000    2.000    1.250    0.375    3.500    9.000 
#    9.000    0.000    0.000    0.000    0.000    0.000 
#    0.000    0.000    0.000    0.000    0.000    0.000 
#
# Total GULP energy -89228.423470 kJ/mol
# GULP energy per Si atom -5576.776467 kJ/mol
# Density = 2.457701 g / cm^3
# Si number density = 24.633076 Si / 1000 Ang^3
#
#
#
# Elastic Constant Matrix: (Units=GPa)
#
#
# Indices 1 2 3 4 5 6 
#
# 1 57.1260 19.4537 30.1278 -1.1645 -1.5575 3.2417
# 2 19.4537 80.8904 10.5808 12.3253 2.8900 -8.6417
# 3 30.1278 10.5808 106.3366 18.3619 16.4717 8.1123
# 4 -1.1645 12.3253 18.3619 36.3554 8.1834 3.2528
# 5 -1.5575 2.8900 16.4717 8.1834 42.2837 13.1872
# 6 3.2417 -8.6417 8.1123 3.2528 13.1872 20.5571
#
#
#
# Elastic Compliance Matrix: (Units=1/GPa)
#
#
# Indices 1 2 3 4 5 6 
#
# 1 0.024739 -0.007066 -0.007676 0.006528 0.005802 -0.008597
# 2 -0.007066 0.016200 0.001290 -0.006443 -0.004067 0.011044
# 3 -0.007676 0.001290 0.013208 -0.006398 -0.004394 0.000372
# 4 0.006528 -0.006443 -0.006398 0.034004 -0.001689 -0.005510
# 5 0.005802 -0.004067 -0.004394 -0.001689 0.032971 -0.021774
# 6 -0.008597 0.011044 0.000372 -0.005510 -0.021774 0.069336
#
#
# Mechanical properties :
#
#
# Convention : Reuss Voigt Hill
#
# Bulk Modulus (GPa) = 36.70791 40.51975 38.61383
# Shear Modulus (GPa) = 22.08063 32.11861 27.09962
#
# Velocity S-wave (km/s) = 2.99721 3.61485 3.32042
# Velocity P-wave (km/s) = 5.18767 5.82305 5.51452
#
# Compressibility (1/GPa) = 0.02724208
#
# Stress axis : x y z
#
# Youngs Moduli (GPa) = 40.42208 61.72916 75.71354
#
# Poissons Ratio (x) = 0.43618 0.58120
# Poissons Ratio (y) = 0.28562 -0.09767
# Poissons Ratio (z) = 0.31029 -0.07963
#
# Static dielectric constant tensor:
#      x y z
#    x 2.064660 -0.032270 0.000010 
#    y -0.032270 2.016810 -0.055990 
#    z 0.000010 -0.055990 1.924560 
# 
# From -- ./inp_files/477385.got.cif
#   From: 2010.05.17/outbox.cif.g08.bks.cpg/sg2_239_cif.got.tgz:477385.got - 2010.06.03 11:33:40.
