data_PCOD9016221
_publ_section_title
;
Structure prediction by ZEFSAII (Michael W. Deem and Ramdas Pophale) SiO2 
 PCOD9016221
Probable space group: P -1
;
_chemical_formula_sum "Si O2"
_cell_formula_units_Z 14
_cell_length_a 20.025394
_cell_length_b 11.430785
_cell_length_c 14.544351
_cell_angle_alpha 45.575065
_cell_angle_beta 29.623701
_cell_angle_gamma 23.906791
_cell_volume 587.611336
_symmetry_space_group_name_H-M "P -1"
_symmetry_group_IT_number 2
_symmetry_cell_setting 'triclinic'
loop_
_space_group_symop_operation_xyz
x,y,z
-x,-y,-z
loop_
_atom_site_type_symbol
_atom_site_label
_atom_site_fract_x
_atom_site_fract_y
_atom_site_fract_z
Si Si1 0.453392 0.477873 0.210496
Si Si2 0.678992 0.588834 0.913803
Si Si3 0.336995 0.239890 0.969499
Si Si4 0.578624 0.850780 0.590508
Si Si5 0.823144 0.535296 0.157218
Si Si6 0.062986 0.248808 0.467919
Si Si7 0.060648 0.884588 0.625580
O O1 0.553894 0.192653 0.216954
O O2 0.246887 0.644847 0.447957
O O3 0.642914 0.429725 0.039932
O O4 0.253439 0.767755 0.215358
O O5 0.872044 0.440658 0.680810
O O6 0.388599 0.989183 0.033439
O O7 0.771897 0.558640 0.918898
O O8 0.173534 0.473909 0.950434
O O9 0.652530 0.962868 0.739733
O O10 0.882576 0.500729 0.458434
O O11 0.500000 0.000000 0.500000
O O12 0.467516 0.101507 0.656769
O O13 0.895175 0.291134 0.252057
O O14 0.000000 0.500000 0.000000
O O15 0.146341 0.975528 0.499545
#
# Coordination Sequence:
#
# PCOD9016221 Si02
#       7
#     2   2   2   2   2   2   2
#     4  10  21  42  67 101 133 182 225 277 343 406
#     4  11  23  41  72  98 133 179 234 275 334 417
#     4  11  25  46  70  99 137 182 229 287 340 409
#     4  11  24  42  71 102 136 178 231 280 336 403
#     4  12  26  44  67 103 137 177 229 291 344 401
#     4  11  24  45  72 101 135 189 226 277 346 409
#     4  10  22  40  68  97 140 178 223 283 344 401
#
# _framework density 23.82527
#
# number of rings (size 3 to 8) (size 9 to 14) (size 15 to 20)
#    0.000    1.143    4.286    1.286    2.000    4.000 
#    0.000    0.714    0.000    0.000    0.000    0.000 
#    0.000    0.000    0.000    0.000    0.000    0.000 
#
# Total GULP energy -78247.751263 kJ/mol
# GULP energy per Si atom -5589.125090 kJ/mol
# Density = 2.377104 g / cm^3
# Si number density = 23.825270 Si / 1000 Ang^3
#
#
#
# Elastic Constant Matrix: (Units=GPa)
#
#
# Indices 1 2 3 4 5 6 
#
# 1 120.5499 41.4824 22.2553 -17.7101 5.1543 -13.2171
# 2 41.4824 132.2329 15.8091 -37.1848 -3.0935 -10.8047
# 3 22.2553 15.8091 70.7800 3.7261 -5.5858 -9.4553
# 4 -17.7101 -37.1848 3.7261 38.8889 9.0323 8.4681
# 5 5.1543 -3.0935 -5.5858 9.0323 45.1219 -8.3518
# 6 -13.2171 -10.8047 -9.4553 8.4681 -8.3518 47.0896
#
#
#
# Elastic Compliance Matrix: (Units=1/GPa)
#
#
# Indices 1 2 3 4 5 6 
#
# 1 0.010188 -0.001826 -0.003050 0.003529 -0.002225 0.000799
# 2 -0.001826 0.011440 -0.002781 0.010915 -0.001667 -0.000704
# 3 -0.003050 -0.002781 0.017017 -0.007629 0.004551 0.004102
# 4 0.003529 0.010915 -0.007629 0.042579 -0.010522 -0.007560
# 5 -0.002225 -0.001667 0.004551 -0.010522 0.026163 0.006439
# 6 0.000799 -0.000704 0.004102 -0.007560 0.006439 0.024624
#
#
# Mechanical properties :
#
#
# Convention : Reuss Voigt Hill
#
# Bulk Modulus (GPa) = 42.86174 53.62848 48.24511
# Shear Modulus (GPa) = 32.23658 42.48781 37.36219
#
# Velocity S-wave (km/s) = 3.68236 4.22751 3.96432
# Velocity P-wave (km/s) = 6.00906 6.81080 6.42245
#
# Compressibility (1/GPa) = 0.02333083
#
# Stress axis : x y z
#
# Youngs Moduli (GPa) = 98.15599 87.40938 58.76368
#
# Poissons Ratio (x) = 0.15959 0.17924
# Poissons Ratio (y) = 0.17921 0.16345
# Poissons Ratio (z) = 0.29940 0.24312
#
# Static dielectric constant tensor:
#      x y z
#    x 1.940570 0.043010 0.059290 
#    y 0.043010 1.979090 0.089010 
#    z 0.059290 0.089010 2.091810 
# 
# From -- ./inp_files/216321.got.cif
#   From: 2010.05.17/outbox.cif.g08.bks.cpg/sg2_109_cif.got.tgz:216321.got - 2010.06.03 11:33:40.
