data_PCOD9016466
_publ_section_title
;
Structure prediction by ZEFSAII (Michael W. Deem and Ramdas Pophale) SiO2 
 PCOD9016466
Probable space group: P -1
;
_chemical_formula_sum "Si O2"
_cell_formula_units_Z 12
_cell_length_a 5.538972
_cell_length_b 14.567943
_cell_length_c 9.267337
_cell_angle_alpha 97.041321
_cell_angle_beta 122.112853
_cell_angle_gamma 116.962502
_cell_volume 494.741681
_symmetry_space_group_name_H-M "P -1"
_symmetry_group_IT_number 2
_symmetry_cell_setting 'triclinic'
loop_
_space_group_symop_operation_xyz
x,y,z
-x,-y,-z
loop_
_atom_site_type_symbol
_atom_site_label
_atom_site_fract_x
_atom_site_fract_y
_atom_site_fract_z
Si Si1 0.457471 0.208829 0.611254
Si Si2 0.789932 0.553179 0.474274
Si Si3 0.571420 0.406537 0.865967
Si Si4 0.153977 0.240161 0.947919
Si Si5 0.515009 0.223271 0.309032
Si Si6 0.805976 0.998520 0.673293
O O1 0.392920 0.284250 0.700380
O O2 0.593480 0.268600 0.508127
O O3 0.135936 0.075719 0.433037
O O4 0.774327 0.214919 0.791993
O O5 0.500000 0.500000 0.500000
O O6 0.593524 0.541160 0.261487
O O7 0.000000 0.500000 0.500000
O O8 0.106634 0.691085 0.635473
O O9 0.448472 0.359803 0.979485
O O10 0.000000 0.500000 0.000000
O O11 0.245171 0.236740 0.141272
O O12 0.118884 0.130311 0.844396
O O13 0.358839 0.089099 0.257872
O O14 0.500000 0.000000 0.500000
#
# Coordination Sequence:
#
# PCOD9016466 Si02
#       6
#     2   2   2   2   2   2
#     4   9  22  42  65  96 141 177 234 291 359 419
#     4  12  26  45  71 103 144 193 243 298 364 432
#     4  12  26  44  67 103 143 187 241 298 358 430
#     4  11  21  41  70  99 137 181 237 291 359 431
#     4  10  21  42  68 100 137 182 234 292 361 422
#     4   8  17  39  70  96 136 181 230 290 356 425
#
# _framework density 24.255081000000001
#
# number of rings (size 3 to 8) (size 9 to 14) (size 15 to 20)
#    1.000    0.667    1.667    2.500    2.333    1.333 
#    3.000    0.000    0.000    4.000    0.000    0.000 
#    0.000    0.000    0.000    0.000    0.000    0.000 
#
# Total GULP energy -66995.376539 kJ/mol
# GULP energy per Si atom -5582.948045 kJ/mol
# Density = 2.419988 g / cm^3
# Si number density = 24.255081 Si / 1000 Ang^3
#
#
#
# Elastic Constant Matrix: (Units=GPa)
#
#
# Indices 1 2 3 4 5 6 
#
# 1 80.6041 62.8555 31.3275 -8.5247 -3.6601 -10.2523
# 2 62.8555 158.0289 53.9855 -29.0554 -1.8387 18.0390
# 3 31.3275 53.9855 136.8316 -42.5229 15.5974 -8.4043
# 4 -8.5247 -29.0554 -42.5229 55.9495 -12.8596 -5.0257
# 5 -3.6601 -1.8387 15.5974 -12.8596 31.7655 0.1086
# 6 -10.2523 18.0390 -8.4043 -5.0257 0.1086 47.1618
#
#
#
# Elastic Compliance Matrix: (Units=1/GPa)
#
#
# Indices 1 2 3 4 5 6 
#
# 1 0.020774 -0.008851 -0.001474 -0.001418 0.002005 0.007483
# 2 -0.008851 0.012002 -0.002453 0.002901 0.002076 -0.006648
# 3 -0.001474 -0.002453 0.011233 0.006612 -0.003162 0.003331
# 4 -0.001418 0.002901 0.006612 0.026096 0.007314 0.002524
# 5 0.002005 0.002076 -0.003162 0.007314 0.036346 -0.000226
# 6 0.007483 -0.006648 0.003331 0.002524 -0.000226 0.026236
#
#
# Mechanical properties :
#
#
# Convention : Reuss Voigt Hill
#
# Bulk Modulus (GPa) = 54.18669 74.64461 64.41565
# Shear Modulus (GPa) = 30.41465 42.12845 36.27155
#
# Velocity S-wave (km/s) = 3.54496 4.17212 3.87126
# Velocity P-wave (km/s) = 6.25655 7.35190 6.82623
#
# Compressibility (1/GPa) = 0.01845472
#
# Stress axis : x y z
#
# Youngs Moduli (GPa) = 48.13726 83.31600 89.02264
#
# Poissons Ratio (x) = 0.73742 0.13121
# Poissons Ratio (y) = 0.42606 0.21834
# Poissons Ratio (z) = 0.07095 0.20434
#
# Static dielectric constant tensor:
#      x y z
#    x 2.029460 -0.004560 -0.057430 
#    y -0.004560 2.014740 0.013660 
#    z -0.057430 0.013660 1.932940 
# 
# From -- ./inp_files/133179.got.cif
#   From: 2010.05.17/outbox.cif.g08.bks.cpg/sg2_67_cif.got.tgz:133179.got - 2010.06.03 11:33:40.
