data_PCOD9016121
_publ_section_title
;
Structure prediction by ZEFSAII (Michael W. Deem and Ramdas Pophale) SiO2 
 PCOD9016121
Probable space group: P -1
;
_chemical_formula_sum "Si O2"
_cell_formula_units_Z 16
_cell_length_a 12.998953
_cell_length_b 14.313677
_cell_length_c 9.580814
_cell_angle_alpha 29.830618
_cell_angle_beta 118.440883
_cell_angle_gamma 107.213505
_cell_volume 751.207160
_symmetry_space_group_name_H-M "P -1"
_symmetry_group_IT_number 2
_symmetry_cell_setting 'triclinic'
loop_
_space_group_symop_operation_xyz
x,y,z
-x,-y,-z
loop_
_atom_site_type_symbol
_atom_site_label
_atom_site_fract_x
_atom_site_fract_y
_atom_site_fract_z
Si Si1 0.967949 0.613910 0.190505
Si Si2 0.644011 0.781766 0.388317
Si Si3 0.022774 0.956916 0.404711
Si Si4 0.466921 0.439151 0.904371
Si Si5 0.701340 0.211584 0.180152
Si Si6 0.313693 0.228957 0.246862
Si Si7 0.907952 0.634415 0.660063
Si Si8 0.389903 0.764664 0.211752
O O1 0.000000 0.500000 0.500000
O O2 0.055851 0.476167 0.316417
O O3 0.827278 0.647996 0.009281
O O4 0.986723 0.829306 0.937381
O O5 0.633873 0.756375 0.582229
O O6 0.771196 0.649790 0.592317
O O7 0.531798 0.731090 0.306447
O O8 0.643093 0.006084 0.066981
O O9 0.158540 0.815527 0.654635
O O10 0.931701 0.846917 0.420151
O O11 0.000000 0.000000 0.500000
O O12 0.389275 0.617198 0.528569
O O13 0.500000 0.500000 0.000000
O O14 0.592751 0.347980 0.021960
O O15 0.387764 0.291069 0.088005
O O16 0.685051 0.995464 0.471181
O O17 0.683781 0.258114 0.943745
O O18 0.000000 0.500000 0.000000
#
# Coordination Sequence:
#
# PCOD9016121 Si02
#       8
#     2   2   2   2   2   2   2   2
#     4  11  26  44  64 103 136 172 222 285 336 394
#     4  10  21  42  66  96 128 173 221 265 327 397
#     4  11  23  44  73 100 134 175 230 278 329 409
#     4  12  24  38  62  94 126 168 214 262 325 386
#     4  10  24  42  66  94 129 174 217 265 332 391
#     4  10  21  43  63  88 136 167 209 269 333 391
#     4  12  23  42  76  96 129 186 227 270 340 399
#     4  10  22  41  65  95 131 165 220 274 316 395
#
# _framework density 21.299050999999999
#
# number of rings (size 3 to 8) (size 9 to 14) (size 15 to 20)
#    0.000    1.250    3.750    2.250    3.500    3.500 
#    4.500    0.000    0.000    0.000    0.000    0.000 
#    0.000    0.000    0.000    0.000    0.000    0.000 
#
# Total GULP energy -89443.841866 kJ/mol
# GULP energy per Si atom -5590.240117 kJ/mol
# Density = 2.125057 g / cm^3
# Si number density = 21.299051 Si / 1000 Ang^3
#
#
#
# Elastic Constant Matrix: (Units=GPa)
#
#
# Indices 1 2 3 4 5 6 
#
# 1 71.5957 1.5489 29.4013 -8.0294 5.0301 -7.2670
# 2 1.5489 45.0590 21.6165 -5.2031 -5.0587 -2.6700
# 3 29.4013 21.6165 148.0455 5.7337 -21.0615 -10.1945
# 4 -8.0294 -5.2031 5.7337 27.9681 -3.7268 -2.4920
# 5 5.0301 -5.0587 -21.0615 -3.7268 35.5892 -0.1096
# 6 -7.2670 -2.6700 -10.1945 -2.4920 -0.1096 39.4094
#
#
#
# Elastic Compliance Matrix: (Units=1/GPa)
#
#
# Indices 1 2 3 4 5 6 
#
# 1 0.016843 0.001808 -0.004231 0.005725 -0.004021 0.002484
# 2 0.001808 0.025012 -0.003925 0.006322 0.001644 0.001417
# 3 -0.004231 -0.003925 0.009089 -0.003027 0.005106 0.001128
# 4 0.005725 0.006322 -0.003027 0.039813 0.002477 0.003225
# 5 -0.004021 0.001644 0.005106 0.002477 0.032184 0.000937
# 6 0.002484 0.001417 0.001128 0.003225 0.000937 0.026427
#
#
# Mechanical properties :
#
#
# Convention : Reuss Voigt Hill
#
# Bulk Modulus (GPa) = 26.14527 41.09265 33.61896
# Shear Modulus (GPa) = 28.60190 34.73558 31.66874
#
# Velocity S-wave (km/s) = 3.66850 4.04276 3.86017
# Velocity P-wave (km/s) = 5.49962 6.41303 5.97381
#
# Compressibility (1/GPa) = 0.03824784
#
# Stress axis : x y z
#
# Youngs Moduli (GPa) = 59.37344 39.98043 110.01898
#
# Poissons Ratio (x) = -0.07228 0.46554
# Poissons Ratio (y) = -0.10734 0.43178
# Poissons Ratio (z) = 0.25124 0.15691
#
# Static dielectric constant tensor:
#      x y z
#    x 1.751760 0.013240 -0.000220 
#    y 0.013240 1.721840 -0.041970 
#    z -0.000220 -0.041970 1.769250 
# 
# From -- ./inp_files/271399.got.cif
#   From: 2010.05.17/outbox.cif.g08.bks.cpg/sg2_136_cif.got.tgz:271399.got - 2010.06.03 11:33:40.
