data_PCOD9016300
_publ_section_title
;
Structure prediction by ZEFSAII (Michael W. Deem and Ramdas Pophale) SiO2 
 PCOD9016300
Probable space group: P -1
;
_chemical_formula_sum "Si O2"
_cell_formula_units_Z 16
_cell_length_a 10.992910
_cell_length_b 8.874898
_cell_length_c 14.176596
_cell_angle_alpha 122.887906
_cell_angle_beta 121.238086
_cell_angle_gamma 104.208509
_cell_volume 674.357490
_symmetry_space_group_name_H-M "P -1"
_symmetry_group_IT_number 2
_symmetry_cell_setting 'triclinic'
loop_
_space_group_symop_operation_xyz
x,y,z
-x,-y,-z
loop_
_atom_site_type_symbol
_atom_site_label
_atom_site_fract_x
_atom_site_fract_y
_atom_site_fract_z
Si Si1 0.246235 0.944140 0.819904
Si Si2 0.030679 0.858961 0.032170
Si Si3 0.597948 0.313501 0.236387
Si Si4 0.546074 0.848838 0.669075
Si Si5 0.913137 0.535614 0.701111
Si Si6 0.989237 0.934485 0.582036
Si Si7 0.211762 0.902184 0.398444
Si Si8 0.328077 0.697525 0.225427
O O1 0.326891 0.823755 0.780775
O O2 0.037233 0.716651 0.721622
O O3 0.187777 0.019134 0.736173
O O4 0.424699 0.183665 0.042410
O O5 0.039355 0.715896 0.904829
O O6 0.845494 0.617644 0.943689
O O7 0.000000 0.000000 0.000000
O O8 0.247604 0.070948 0.247791
O O9 0.501577 0.253680 0.279510
O O10 0.796244 0.620519 0.405764
O O11 0.329031 0.621539 0.448298
O O12 0.613825 0.122127 0.778868
O O13 0.885838 0.297440 0.619831
O O14 0.931415 0.059460 0.660245
O O15 0.000000 0.000000 0.500000
O O16 0.246030 0.780570 0.291382
O O17 0.450421 0.177873 0.610751
#
# Coordination Sequence:
#
# PCOD9016300 Si02
#       8
#     2   2   2   2   2   2   2   2
#     4  11  24  44  68  97 133 172 222 277 337 402
#     4  11  24  39  63  98 134 168 222 274 330 390
#     4  11  25  44  69  97 132 179 224 266 341 403
#     4  11  22  41  67  93 124 180 224 262 328 397
#     4  10  21  42  67  92 129 174 219 263 330 398
#     4  12  26  42  71 103 134 170 223 283 338 392
#     4   9  21  41  65  98 133 173 222 271 327 392
#     4   9  21  41  65  94 135 181 216 268 326 391
#
# _framework density 23.726288
#
# number of rings (size 3 to 8) (size 9 to 14) (size 15 to 20)
#    0.000    1.500    2.500    2.250    5.250    2.000 
#    0.000    5.000    0.000    0.000    0.000    0.000 
#    0.000    0.000    0.000    0.000    0.000    0.000 
#
# Total GULP energy -89411.143832 kJ/mol
# GULP energy per Si atom -5588.196489 kJ/mol
# Density = 2.367229 g / cm^3
# Si number density = 23.726288 Si / 1000 Ang^3
#
#
#
# Elastic Constant Matrix: (Units=GPa)
#
#
# Indices 1 2 3 4 5 6 
#
# 1 42.8531 14.3658 20.3434 -13.6292 9.2903 -8.1677
# 2 14.3658 101.1969 29.5710 -29.9927 10.8195 -5.9396
# 3 20.3434 29.5710 90.2407 -18.5221 22.8821 -17.2681
# 4 -13.6292 -29.9927 -18.5221 24.3364 -2.0391 8.5074
# 5 9.2903 10.8195 22.8821 -2.0391 27.3836 -8.9471
# 6 -8.1677 -5.9396 -17.2681 8.5074 -8.9471 36.5176
#
#
#
# Elastic Compliance Matrix: (Units=1/GPa)
#
#
# Indices 1 2 3 4 5 6 
#
# 1 0.031085 0.002472 -0.001876 0.018270 -0.008557 0.000115
# 2 0.002472 0.016844 -0.000494 0.022547 -0.006651 -0.003823
# 3 -0.001876 -0.000494 0.017122 0.009513 -0.011967 0.002448
# 4 0.018270 0.022547 0.009513 0.089385 -0.020871 -0.013685
# 5 -0.008557 -0.006651 -0.011967 -0.020871 0.053542 0.009326
# 6 0.000115 -0.003823 0.002448 -0.013685 0.009326 0.033419
#
#
# Mechanical properties :
#
#
# Convention : Reuss Voigt Hill
#
# Bulk Modulus (GPa) = 15.32452 40.31680 27.82066
# Shear Modulus (GPa) = 19.01535 28.98155 23.99845
#
# Velocity S-wave (km/s) = 2.83405 3.49878 3.18381
# Velocity P-wave (km/s) = 4.14512 5.77506 5.02660
#
# Compressibility (1/GPa) = 0.06525492
#
# Stress axis : x y z
#
# Youngs Moduli (GPa) = 32.16960 59.36706 58.40484
#
# Poissons Ratio (x) = -0.14675 0.10956
# Poissons Ratio (y) = -0.07952 0.02887
# Poissons Ratio (z) = 0.06035 0.02935
#
# Static dielectric constant tensor:
#      x y z
#    x 1.955210 0.015950 -0.034400 
#    y 0.015950 1.951460 -0.002100 
#    z -0.034400 -0.002100 1.918050 
# 
# From -- ./inp_files/516138.got.cif
#   From: 2010.05.17/outbox.cif.g08.bks.cpg/sg2_259_cif.got.tgz:516138.got - 2010.06.03 11:33:40.
