data_PCOD9016280
_publ_section_title
;
Structure prediction by ZEFSAII (Michael W. Deem and Ramdas Pophale) SiO2 
 PCOD9016280
Probable space group: P -1
;
_chemical_formula_sum "Si O2"
_cell_formula_units_Z 16
_cell_length_a 5.613072
_cell_length_b 5.240441
_cell_length_c 28.064647
_cell_angle_alpha 126.697544
_cell_angle_beta 108.334587
_cell_angle_gamma 85.196216
_cell_volume 622.382098
_symmetry_space_group_name_H-M "P -1"
_symmetry_group_IT_number 2
_symmetry_cell_setting 'triclinic'
loop_
_space_group_symop_operation_xyz
x,y,z
-x,-y,-z
loop_
_atom_site_type_symbol
_atom_site_label
_atom_site_fract_x
_atom_site_fract_y
_atom_site_fract_z
Si Si1 0.807695 0.612132 0.039493
Si Si2 0.674221 0.233857 0.072875
Si Si3 0.904837 0.174857 0.558891
Si Si4 0.693564 0.788319 0.595800
Si Si5 0.773041 0.661393 0.781060
Si Si6 0.100490 0.171802 0.725022
Si Si7 0.365951 0.278587 0.653185
Si Si8 0.562576 0.290562 0.822249
O O1 0.862168 0.455469 0.075343
O O2 0.823947 0.994553 0.084792
O O3 0.500000 0.500000 0.000000
O O4 0.000000 0.500000 0.000000
O O5 0.501921 0.447796 0.114689
O O6 0.500000 0.000000 0.000000
O O7 0.157340 0.397085 0.619397
O O8 0.700678 0.410048 0.558767
O O9 0.000000 0.000000 0.500000
O O10 0.817971 0.934164 0.570353
O O11 0.437408 0.945647 0.599660
O O12 0.845361 0.941662 0.669632
O O13 0.612606 0.526797 0.708412
O O14 0.666510 0.477306 0.801930
O O15 0.034665 0.524050 0.773778
O O16 0.732510 0.029373 0.821385
O O17 0.244880 0.201075 0.687908
O O18 0.288509 0.087842 0.768253
#
# Coordination Sequence:
#
# PCOD9016280 Si02
#       8
#     2   2   2   2   2   2   2   2
#     4  10  21  42  67  91 125 169 219 262 315 391
#     4  10  22  42  63  92 127 166 210 259 324 393
#     4  11  23  38  58  89 123 157 204 247 296 365
#     4  10  22  39  61  87 116 162 201 246 309 357
#     4  10  22  39  63  90 120 158 203 257 313 370
#     4   9  21  40  62  91 116 156 207 253 310 366
#     4   9  21  39  63  84 123 158 200 254 304 366
#     4  11  22  41  62  89 126 156 204 257 313 372
#
# _framework density 25.707681000000001
#
# number of rings (size 3 to 8) (size 9 to 14) (size 15 to 20)
#    0.000    2.000    0.000    2.250    0.000   14.000 
#   13.500    0.000    0.000    0.000    0.000    0.000 
#    0.000    0.000    0.000    0.000    0.000    0.000 
#
# Total GULP energy -89504.882275 kJ/mol
# GULP energy per Si atom -5594.055142 kJ/mol
# Density = 2.564917 g / cm^3
# Si number density = 25.707681 Si / 1000 Ang^3
#
#
#
# Elastic Constant Matrix: (Units=GPa)
#
#
# Indices 1 2 3 4 5 6 
#
# 1 75.4165 19.6998 21.7826 -5.9058 -16.9222 -17.4206
# 2 19.6998 185.0526 34.9061 8.9271 -19.1875 -7.0485
# 3 21.7826 34.9061 121.0153 4.2198 -30.1945 -7.9184
# 4 -5.9058 8.9271 4.2198 33.4978 -4.5221 -16.0829
# 5 -16.9222 -19.1875 -30.1945 -4.5221 49.1543 2.8802
# 6 -17.4206 -7.0485 -7.9184 -16.0829 2.8802 38.6735
#
#
#
# Elastic Compliance Matrix: (Units=1/GPa)
#
#
# Indices 1 2 3 4 5 6 
#
# 1 0.018665 -0.001233 -0.001234 0.010147 0.005432 0.011746
# 2 -0.001233 0.005934 -0.001209 -0.001764 0.001018 -0.000531
# 3 -0.001234 -0.001209 0.010224 -0.000028 0.005328 0.000909
# 4 0.010147 -0.001764 -0.000028 0.043354 0.005495 0.021864
# 5 0.005432 0.001018 0.005328 0.005495 0.026152 0.004061
# 6 0.011746 -0.000531 0.000909 0.021864 0.004061 0.040028
#
#
# Mechanical properties :
#
#
# Convention : Reuss Voigt Hill
#
# Bulk Modulus (GPa) = 36.40276 59.36237 47.88257
# Shear Modulus (GPa) = 31.08201 44.60484 37.84343
#
# Velocity S-wave (km/s) = 3.48092 4.16995 3.84091
# Velocity P-wave (km/s) = 5.50879 6.80632 6.19164
#
# Compressibility (1/GPa) = 0.02747045
#
# Stress axis : x y z
#
# Youngs Moduli (GPa) = 53.57709 168.53251 97.80897
#
# Poissons Ratio (x) = 0.20783 0.12070
# Poissons Ratio (y) = 0.06607 0.11823
# Poissons Ratio (z) = 0.06611 0.20372
#
# Static dielectric constant tensor:
#      x y z
#    x 1.837100 0.146510 -0.044660 
#    y 0.146510 1.994510 0.119150 
#    z -0.044660 0.119150 1.941780 
# 
# From -- ./inp_files/11372.got.cif
#   From: 2010.05.17/outbox.cif.g08.bks.cpg/sg2_6_cif.got.tgz:11372.got - 2010.06.03 11:33:40.
