data_PCOD9016590
_publ_section_title
;
Structure prediction by ZEFSAII (Michael W. Deem and Ramdas Pophale) SiO2 
 PCOD9016590
Probable space group: P -1
;
_chemical_formula_sum "Si O2"
_cell_formula_units_Z 16
_cell_length_a 9.539953
_cell_length_b 8.612383
_cell_length_c 20.109105
_cell_angle_alpha 56.956312
_cell_angle_beta 59.853372
_cell_angle_gamma 106.403751
_cell_volume 767.923823
_symmetry_space_group_name_H-M "P -1"
_symmetry_group_IT_number 2
_symmetry_cell_setting 'triclinic'
loop_
_space_group_symop_operation_xyz
x,y,z
-x,-y,-z
loop_
_atom_site_type_symbol
_atom_site_label
_atom_site_fract_x
_atom_site_fract_y
_atom_site_fract_z
Si Si1 0.837776 0.112150 0.471773
Si Si2 0.781200 0.679155 0.391860
Si Si3 0.521832 0.814115 0.008069
Si Si4 0.028069 0.891036 0.418731
Si Si5 0.984169 0.606009 0.261482
Si Si6 0.255827 0.625035 0.764974
Si Si7 0.069151 0.307899 0.137130
Si Si8 0.390052 0.497423 0.884909
O O1 0.977833 0.384455 0.329396
O O2 0.896121 0.965257 0.458712
O O3 0.955066 0.217073 0.493535
O O4 0.538613 0.888954 0.604642
O O5 0.500000 0.500000 0.500000
O O6 0.773168 0.510290 0.379272
O O7 0.874435 0.688838 0.438901
O O8 0.946021 0.004193 0.256889
O O9 0.285123 0.548459 0.082908
O O10 0.585893 0.703899 0.068712
O O11 0.500000 0.000000 0.000000
O O12 0.772617 0.070313 0.845585
O O13 0.318225 0.178659 0.259711
O O14 0.928351 0.589456 0.201716
O O15 0.273937 0.481119 0.849507
O O16 0.141178 0.712990 0.803813
O O17 0.218109 0.415011 0.006809
#
# Coordination Sequence:
#
# PCOD9016590 Si02
#       8
#     2   2   2   2   2   2   2   2
#     4  10  22  42  68  94 130 173 225 275 330 391
#     4  12  24  40  67  95 132 173 218 271 337 389
#     4  12  23  42  68  95 128 174 221 268 327 395
#     4  10  21  42  68  95 126 175 224 276 329 391
#     4  12  23  40  62  98 129 173 223 270 326 396
#     4  11  24  42  67  96 137 175 222 276 330 387
#     4  12  23  45  66  96 136 174 222 272 331 403
#     4  11  23  43  68  98 132 179 219 275 330 387
#
# _framework density 20.835401999999998
#
# number of rings (size 3 to 8) (size 9 to 14) (size 15 to 20)
#    0.000    0.750    3.750    4.875    0.000    1.000 
#    0.000    2.500    0.000    0.000    0.000    0.000 
#    0.000    0.000    0.000    0.000    0.000    0.000 
#
# Total GULP energy -89342.271051 kJ/mol
# GULP energy per Si atom -5583.891941 kJ/mol
# Density = 2.078798 g / cm^3
# Si number density = 20.835402 Si / 1000 Ang^3
#
#
#
# Elastic Constant Matrix: (Units=GPa)
#
#
# Indices 1 2 3 4 5 6 
#
# 1 121.6719 45.4164 38.9655 -1.0705 5.7044 1.1857
# 2 45.4164 91.1378 20.8520 13.0392 6.4847 2.9749
# 3 38.9655 20.8520 82.1552 -0.8741 -4.9823 18.5135
# 4 -1.0705 13.0392 -0.8741 35.3598 -7.1471 -2.2408
# 5 5.7044 6.4847 -4.9823 -7.1471 35.7767 9.9273
# 6 1.1857 2.9749 18.5135 -2.2408 9.9273 28.6877
#
#
#
# Elastic Compliance Matrix: (Units=1/GPa)
#
#
# Indices 1 2 3 4 5 6 
#
# 1 0.011945 -0.004869 -0.005652 0.001757 -0.002778 0.004757
# 2 -0.004869 0.015003 -0.001942 -0.006430 -0.003684 0.000671
# 3 -0.005652 -0.001942 0.019184 0.001777 0.008358 -0.014699
# 4 0.001757 -0.006430 0.001777 0.032276 0.007782 -0.000724
# 5 -0.002778 -0.003684 0.008358 0.007782 0.036473 -0.016910
# 6 0.004757 0.000671 -0.014699 -0.000724 -0.016910 0.049873
#
#
# Mechanical properties :
#
#
# Convention : Reuss Voigt Hill
#
# Bulk Modulus (GPa) = 47.15294 56.15918 51.65606
# Shear Modulus (GPa) = 25.41333 32.61358 29.01345
#
# Velocity S-wave (km/s) = 3.49624 3.96067 3.73568
# Velocity P-wave (km/s) = 6.24328 6.92302 6.59192
#
# Compressibility (1/GPa) = 0.02120758
#
# Stress axis : x y z
#
# Youngs Moduli (GPa) = 83.71384 66.65290 52.12796
#
# Poissons Ratio (x) = 0.32451 0.29461
# Poissons Ratio (y) = 0.40758 0.10123
# Poissons Ratio (z) = 0.47312 0.12943
#
# Static dielectric constant tensor:
#      x y z
#    x 1.812610 -0.080050 -0.082150 
#    y -0.080050 1.781460 0.080700 
#    z -0.082150 0.080700 1.887260 
# 
# From -- ./inp_files/216455.got.cif
#   From: 2010.05.17/outbox.cif.g08.bks.cpg/sg2_109_cif.got.tgz:216455.got - 2010.06.03 11:33:40.
