data_PCOD9016046
_publ_section_title
;
Structure prediction by ZEFSAII (Michael W. Deem and Ramdas Pophale) SiO2 
 PCOD9016046
Probable space group: P -1
;
_chemical_formula_sum "Si O2"
_cell_formula_units_Z 15
_cell_length_a 11.120121
_cell_length_b 7.317326
_cell_length_c 12.886969
_cell_angle_alpha 85.450635
_cell_angle_beta 45.219368
_cell_angle_gamma 107.727798
_cell_volume 638.527525
_symmetry_space_group_name_H-M "P -1"
_symmetry_group_IT_number 2
_symmetry_cell_setting 'triclinic'
loop_
_space_group_symop_operation_xyz
x,y,z
-x,-y,-z
loop_
_atom_site_type_symbol
_atom_site_label
_atom_site_fract_x
_atom_site_fract_y
_atom_site_fract_z
Si Si1 0.775206 0.905735 0.679720
Si Si2 0.806244 0.326429 0.568918
Si Si3 0.309906 0.218418 0.606518
Si Si4 0.433995 0.728607 0.745430
Si Si5 0.000000 0.500000 0.000000
Si Si6 0.904551 0.534323 0.291975
Si Si7 0.385949 0.139557 0.797151
Si Si8 0.123779 0.016498 0.160395
O O1 0.596468 0.735759 0.725180
O O2 0.753325 0.108841 0.664643
O O3 0.768430 0.856579 0.807518
O O4 0.000000 0.000000 0.500000
O O5 0.860655 0.359302 0.412775
O O6 0.601345 0.321532 0.695325
O O7 0.000000 0.500000 0.500000
O O8 0.466288 0.227198 0.430235
O O9 0.275888 0.418429 0.605048
O O10 0.337763 0.189221 0.711036
O O11 0.095239 0.022748 0.712472
O O12 0.386923 0.917776 0.790169
O O13 0.218831 0.523415 0.888216
O O14 0.953037 0.482930 0.153491
O O15 0.079489 0.771625 0.208869
O O16 0.232632 0.099696 0.982053
#
# Coordination Sequence:
#
# PCOD9016046 Si02
#       8
#     2   2   2   2   1   2   2   2
#     4  11  22  45  69  97 129 172 230 267 327 393
#     4  11  23  41  68  95 131 172 223 269 329 402
#     4  10  21  42  66  92 137 169 224 262 337 395
#     4  11  23  39  68  97 129 181 212 281 320 399
#     4  12  24  42  60  98 140 162 226 264 340 384
#     4  10  23  43  65  94 132 179 211 275 333 387
#     4  11  23  39  65 103 125 175 223 268 335 387
#     4  10  21  42  69  92 133 170 223 270 329 388
#
# _framework density 23.491548999999999
#
# number of rings (size 3 to 8) (size 9 to 14) (size 15 to 20)
#    0.800    0.533    4.000    1.600    0.000    6.400 
#    2.400    0.000    0.000    1.600    0.000    0.000 
#    0.000    0.000    0.000    0.000    0.000    0.000 
#
# Total GULP energy -83507.449235 kJ/mol
# GULP energy per Si atom -5567.163282 kJ/mol
# Density = 2.343808 g / cm^3
# Si number density = 23.491549 Si / 1000 Ang^3
#
#
#
# Elastic Constant Matrix: (Units=GPa)
#
#
# Indices 1 2 3 4 5 6 
#
# 1 140.7476 12.5921 43.6821 2.7903 5.8878 12.9505
# 2 12.5921 38.0428 9.9184 7.7239 5.5745 -5.7182
# 3 43.6821 9.9184 169.3994 24.3633 0.1904 1.4168
# 4 2.7903 7.7239 24.3633 23.6037 7.7333 -2.5904
# 5 5.8878 5.5745 0.1904 7.7333 33.0462 -3.8888
# 6 12.9505 -5.7182 1.4168 -2.5904 -3.8888 20.0951
#
#
#
# Elastic Compliance Matrix: (Units=1/GPa)
#
#
# Indices 1 2 3 4 5 6 
#
# 1 0.008812 -0.003473 -0.002385 0.002603 -0.002359 -0.006620
# 2 -0.003473 0.030732 0.000215 -0.008326 -0.001488 0.009607
# 3 -0.002385 0.000215 0.007721 -0.008492 0.002381 0.000420
# 4 0.002603 -0.008326 -0.008492 0.057767 -0.012339 0.001611
# 5 -0.002359 -0.001488 0.002381 -0.012339 0.034514 0.006017
# 6 -0.006620 0.009607 0.000420 0.001611 0.006017 0.058106
#
#
# Mechanical properties :
#
#
# Convention : Reuss Voigt Hill
#
# Bulk Modulus (GPa) = 27.79433 53.39723 40.59578
# Shear Modulus (GPa) = 22.63148 34.14882 28.39015
#
# Velocity S-wave (km/s) = 3.10722 3.81683 3.48016
# Velocity P-wave (km/s) = 4.97296 6.49646 5.78508
#
# Compressibility (1/GPa) = 0.03597856
#
# Stress axis : x y z
#
# Youngs Moduli (GPa) = 113.48017 32.53926 129.52027
#
# Poissons Ratio (x) = 0.11300 0.30895
# Poissons Ratio (y) = 0.39409 -0.02784
# Poissons Ratio (z) = 0.27069 -0.00699
#
# Static dielectric constant tensor:
#      x y z
#    x 1.956360 0.044270 -0.062820 
#    y 0.044270 2.022670 -0.053490 
#    z -0.062820 -0.053490 1.829910 
# 
# From -- ./inp_files/417295.got.cif
#   From: 2010.05.17/outbox.cif.g08.bks.cpg/sg2_209_cif.got.tgz:417295.got - 2010.06.03 11:33:40.
