data_PCOD9016255
_publ_section_title
;
Structure prediction by ZEFSAII (Michael W. Deem and Ramdas Pophale) SiO2 
 PCOD9016255
Probable space group: P -1
;
_chemical_formula_sum "Si O2"
_cell_formula_units_Z 14
_cell_length_a 7.181665
_cell_length_b 13.174398
_cell_length_c 12.753522
_cell_angle_alpha 60.224986
_cell_angle_beta 35.940097
_cell_angle_gamma 81.312957
_cell_volume 534.934352
_symmetry_space_group_name_H-M "P -1"
_symmetry_group_IT_number 2
_symmetry_cell_setting 'triclinic'
loop_
_space_group_symop_operation_xyz
x,y,z
-x,-y,-z
loop_
_atom_site_type_symbol
_atom_site_label
_atom_site_fract_x
_atom_site_fract_y
_atom_site_fract_z
Si Si1 0.640296 0.580639 0.502959
Si Si2 0.547284 0.181705 0.494810
Si Si3 0.174194 0.769465 0.437718
Si Si4 0.477233 0.497540 0.172390
Si Si5 0.526837 0.254521 0.018206
Si Si6 0.435708 0.742485 0.766840
Si Si7 0.766902 0.938863 0.927736
O O1 0.500000 0.500000 0.500000
O O2 0.505717 0.689638 0.522036
O O3 0.525274 0.490306 0.707034
O O4 0.078802 0.670692 0.255500
O O5 0.748334 0.172986 0.510363
O O6 0.712223 0.212626 0.285997
O O7 0.161677 0.046193 0.732171
O O8 0.937111 0.608211 0.620337
O O9 0.544988 0.827329 0.175154
O O10 0.500000 0.000000 0.000000
O O11 0.695054 0.417072 0.090152
O O12 0.593557 0.631634 0.987251
O O13 0.593177 0.218318 0.122856
O O14 0.252441 0.130642 0.137950
O O15 0.868341 0.802711 0.514390
#
# Coordination Sequence:
#
# PCOD9016255 Si02
#       7
#     2   2   2   2   2   2   2
#     4  11  22  37  63  94 121 154 210 256 292 358
#     4  11  22  43  61  90 125 162 201 250 301 356
#     4  10  21  42  67  84 123 161 201 251 304 351
#     4   9  20  41  60  88 126 153 200 250 306 349
#     4  12  21  38  66  90 120 166 197 246 313 355
#     4   9  22  41  62  89 126 161 191 253 306 362
#     4  12  21  41  64  88 122 162 207 251 295 354
#
# _framework density 26.171434999999999
#
# number of rings (size 3 to 8) (size 9 to 14) (size 15 to 20)
#    0.857    0.571    4.286    2.143    2.000    0.571 
#    2.571    2.857    0.000    0.000    0.000    0.000 
#    0.000    0.000    0.000    0.000    0.000    0.000 
#
# Total GULP energy -78405.730080 kJ/mol
# GULP energy per Si atom -5600.409291 kJ/mol
# Density = 2.611187 g / cm^3
# Si number density = 26.171435 Si / 1000 Ang^3
#
#
#
# Elastic Constant Matrix: (Units=GPa)
#
#
# Indices 1 2 3 4 5 6 
#
# 1 132.2000 45.7495 13.1305 -4.8412 4.2088 45.4416
# 2 45.7495 105.5630 39.3670 -2.5461 11.1802 45.5002
# 3 13.1305 39.3670 78.6430 -1.2560 -4.1441 31.2082
# 4 -4.8412 -2.5461 -1.2560 42.0757 16.0133 3.3116
# 5 4.2088 11.1802 -4.1441 16.0133 29.3775 9.0480
# 6 45.4416 45.5002 31.2082 3.3116 9.0480 59.1070
#
#
#
# Elastic Compliance Matrix: (Units=1/GPa)
#
#
# Indices 1 2 3 4 5 6 
#
# 1 0.010986 -0.002286 0.002775 0.001263 0.001607 -0.008468
# 2 -0.002286 0.016275 -0.005145 0.003528 -0.006269 -0.007292
# 3 0.002775 -0.005145 0.018911 -0.001759 0.008049 -0.009291
# 4 0.001263 0.003528 -0.001759 0.031142 -0.018219 -0.001714
# 5 0.001607 -0.006269 0.008049 -0.018219 0.049483 -0.007213
# 6 -0.008468 -0.007292 -0.009291 -0.001714 -0.007213 0.035149
#
#
# Mechanical properties :
#
#
# Convention : Reuss Voigt Hill
#
# Bulk Modulus (GPa) = 27.12957 56.98890 42.05923
# Shear Modulus (GPa) = 27.24164 40.65598 33.94881
#
# Velocity S-wave (km/s) = 3.22979 3.94566 3.60553
# Velocity P-wave (km/s) = 4.92923 6.52534 5.78262
#
# Compressibility (1/GPa) = 0.03686015
#
# Stress axis : x y z
#
# Youngs Moduli (GPa) = 91.02808 61.44561 52.87907
#
# Poissons Ratio (x) = 0.14044 -0.14676
# Poissons Ratio (y) = 0.20805 0.27208
# Poissons Ratio (z) = -0.25264 0.31616
#
# Static dielectric constant tensor:
#      x y z
#    x 2.034280 -0.033500 0.000280 
#    y -0.033500 2.081520 0.008510 
#    z 0.000280 0.008510 2.088500 
# 
# From -- ./inp_files/397160.got.cif
#   From: 2010.05.17/outbox.cif.g08.bks.cpg/sg2_199_cif.got.tgz:397160.got - 2010.06.03 11:33:40.
