data_PCOD9016635
_publ_section_title
;
Structure prediction by ZEFSAII (Michael W. Deem and Ramdas Pophale) SiO2 
 PCOD9016635
Probable space group: P -1
;
_chemical_formula_sum "Si O2"
_cell_formula_units_Z 14
_cell_length_a 12.190128
_cell_length_b 5.944111
_cell_length_c 14.236454
_cell_angle_alpha 64.366072
_cell_angle_beta 139.637517
_cell_angle_gamma 116.101511
_cell_volume 591.461369
_symmetry_space_group_name_H-M "P -1"
_symmetry_group_IT_number 2
_symmetry_cell_setting 'triclinic'
loop_
_space_group_symop_operation_xyz
x,y,z
-x,-y,-z
loop_
_atom_site_type_symbol
_atom_site_label
_atom_site_fract_x
_atom_site_fract_y
_atom_site_fract_z
Si Si1 0.406978 0.711285 0.954236
Si Si2 0.109055 0.206580 0.323519
Si Si3 0.300318 0.907830 0.380145
Si Si4 0.262532 0.479316 0.099490
Si Si5 0.348714 0.442035 0.600225
Si Si6 0.842831 0.975259 0.329432
Si Si7 0.905789 0.288946 0.883336
O O1 0.265500 0.798430 0.776863
O O2 0.500000 0.500000 0.000000
O O3 0.322506 0.579419 0.017488
O O4 0.500000 0.000000 0.000000
O O5 0.266703 0.258717 0.493161
O O6 0.059478 0.466457 0.210203
O O7 0.942906 0.016795 0.288719
O O8 0.185246 0.102253 0.301256
O O9 0.265745 0.683164 0.475793
O O10 0.258394 0.850348 0.255615
O O11 0.500000 0.000000 0.500000
O O12 0.444840 0.475489 0.271705
O O13 0.167327 0.656239 0.072362
O O14 0.101873 0.241194 0.024717
O O15 0.278896 0.290375 0.676010
O O16 0.000000 0.000000 0.500000
#
# Coordination Sequence:
#
# PCOD9016635 Si02
#       7
#     2   2   2   2   2   2   2
#     4  12  27  51  76 110 154 203 254 319 384 459
#     4  10  21  42  68  96 143 179 249 293 376 431
#     4  11  23  41  67 101 138 195 241 312 369 447
#     4  11  22  44  67  98 140 189 237 299 373 448
#     4  10  22  41  66  98 141 183 245 298 373 444
#     4  10  22  45  70 107 142 196 250 312 378 454
#     4  10  23  43  64  97 140 182 242 299 363 448
#
# _framework density 23.670186999999999
#
# number of rings (size 3 to 8) (size 9 to 14) (size 15 to 20)
#    0.000    1.429    2.857    1.714    0.000    6.286 
#    5.143    3.571    0.000    0.000    0.000    0.000 
#    0.000    0.000    0.000    0.000    0.000    0.000 
#
# Total GULP energy -77959.263499 kJ/mol
# GULP energy per Si atom -5568.518821 kJ/mol
# Density = 2.361631 g / cm^3
# Si number density = 23.670187 Si / 1000 Ang^3
#
#
#
# Elastic Constant Matrix: (Units=GPa)
#
#
# Indices 1 2 3 4 5 6 
#
# 1 123.8874 31.2808 45.7322 9.6082 3.0898 16.3879
# 2 31.2808 49.4974 43.4830 10.9655 7.4956 11.9338
# 3 45.7322 43.4830 176.1690 -1.8518 11.8861 5.0360
# 4 9.6082 10.9655 -1.8518 47.5607 5.3852 -4.2315
# 5 3.0898 7.4956 11.8861 5.3852 42.1387 -0.8331
# 6 16.3879 11.9338 5.0360 -4.2315 -0.8331 21.8198
#
#
#
# Elastic Compliance Matrix: (Units=1/GPa)
#
#
# Indices 1 2 3 4 5 6 
#
# 1 0.010502 -0.003179 -0.001819 -0.002054 0.000450 -0.006110
# 2 -0.003179 0.035115 -0.007236 -0.008888 -0.003172 -0.016992
# 3 -0.001819 -0.007236 0.007924 0.002824 -0.001096 0.004001
# 4 -0.002054 -0.008888 0.002824 0.024761 -0.002022 0.010477
# 5 0.000450 -0.003172 -0.001096 -0.002022 0.024874 0.002207
# 6 -0.006110 -0.016992 0.004001 0.010477 0.002207 0.060906
#
#
# Mechanical properties :
#
#
# Convention : Reuss Voigt Hill
#
# Bulk Modulus (GPa) = 34.39529 65.61621 50.00575
# Shear Modulus (GPa) = 25.22194 37.57438 31.39816
#
# Velocity S-wave (km/s) = 3.26783 3.98856 3.64605
# Velocity P-wave (km/s) = 5.36665 6.99948 6.23673
#
# Compressibility (1/GPa) = 0.02907375
#
# Stress axis : x y z
#
# Youngs Moduli (GPa) = 95.21638 28.47790 126.20208
#
# Poissons Ratio (x) = 0.09053 0.22956
# Poissons Ratio (y) = 0.30270 0.91315
# Poissons Ratio (z) = 0.17319 0.20606
#
# Static dielectric constant tensor:
#      x y z
#    x 1.822160 -0.024330 0.015080 
#    y -0.024330 1.916950 0.115520 
#    z 0.015080 0.115520 1.939420 
# 
# From -- ./inp_files/510857.got.cif
#   From: 2010.05.17/outbox.cif.g08.bks.cpg/sg2_256_cif.got.tgz:510857.got - 2010.06.03 11:33:40.
