data_PCOD9016767
_publ_section_title
;
Structure prediction by ZEFSAII (Michael W. Deem and Ramdas Pophale) SiO2 
 PCOD9016767
Probable space group: P -1
;
_chemical_formula_sum "Si O2"
_cell_formula_units_Z 16
_cell_length_a 20.977917
_cell_length_b 9.555459
_cell_length_c 6.550799
_cell_angle_alpha 58.494214
_cell_angle_beta 138.119329
_cell_angle_gamma 123.793804
_cell_volume 714.452538
_symmetry_space_group_name_H-M "P -1"
_symmetry_group_IT_number 2
_symmetry_cell_setting 'triclinic'
loop_
_space_group_symop_operation_xyz
x,y,z
-x,-y,-z
loop_
_atom_site_type_symbol
_atom_site_label
_atom_site_fract_x
_atom_site_fract_y
_atom_site_fract_z
Si Si1 0.701648 0.926952 0.522439
Si Si2 0.022981 0.888215 0.329298
Si Si3 0.238737 0.559713 0.563404
Si Si4 0.911423 0.783669 0.535739
Si Si5 0.103237 0.765202 0.259875
Si Si6 0.396675 0.414753 0.203524
Si Si7 0.386422 0.867615 0.552621
Si Si8 0.411681 0.178996 0.061478
O O1 0.670777 0.755319 0.713408
O O2 0.813419 0.051011 0.714742
O O3 0.633714 0.045652 0.350040
O O4 0.675490 0.866527 0.276518
O O5 0.070233 0.760076 0.421116
O O6 0.932736 0.794995 0.335444
O O7 0.093056 0.032267 0.534078
O O8 0.000000 0.000000 0.000000
O O9 0.183465 0.368047 0.508188
O O10 0.156846 0.624212 0.437577
O O11 0.290084 0.704249 0.411432
O O12 0.331454 0.545610 0.930750
O O13 0.008603 0.751528 0.899666
O O14 0.500000 0.500000 0.500000
O O15 0.417656 0.344773 0.085726
O O16 0.485036 0.807458 0.819681
O O17 0.394930 0.016182 0.295086
#
# Coordination Sequence:
#
# PCOD9016767 Si02
#       8
#     2   2   2   2   2   2   2   2
#     4  10  22  39  66  92 129 171 221 261 327 397
#     4   9  21  40  66  93 128 171 217 258 323 391
#     4  11  24  41  67  96 136 172 210 278 330 373
#     4  10  22  42  68  93 136 166 212 275 320 381
#     4  10  23  42  64  99 128 172 219 263 319 393
#     4  11  26  43  61  96 136 169 218 278 329 386
#     4   9  21  41  64  96 125 166 228 268 328 384
#     4  10  21  42  69  88 125 181 216 269 326 396
#
# _framework density 22.394767999999999
#
# number of rings (size 3 to 8) (size 9 to 14) (size 15 to 20)
#    0.000    2.000    0.000    1.500    7.000    9.500 
#    0.000    6.250    0.000    0.000    0.000    0.000 
#    0.000    0.000    0.000    0.000    0.000    0.000 
#
# Total GULP energy -89395.240017 kJ/mol
# GULP energy per Si atom -5587.202501 kJ/mol
# Density = 2.234380 g / cm^3
# Si number density = 22.394768 Si / 1000 Ang^3
#
#
#
# Elastic Constant Matrix: (Units=GPa)
#
#
# Indices 1 2 3 4 5 6 
#
# 1 66.1816 16.3811 23.7516 10.9541 5.6862 -1.2749
# 2 16.3811 73.0415 10.1883 4.0689 -4.9763 15.9127
# 3 23.7516 10.1883 70.4276 14.2687 11.5172 -14.6389
# 4 10.9541 4.0689 14.2687 27.7538 -4.9181 7.2762
# 5 5.6862 -4.9763 11.5172 -4.9181 27.2456 -4.0170
# 6 -1.2749 15.9127 -14.6389 7.2762 -4.0170 32.5142
#
#
#
# Elastic Compliance Matrix: (Units=1/GPa)
#
#
# Indices 1 2 3 4 5 6 
#
# 1 0.018781 -0.004157 -0.003300 -0.006416 -0.004116 0.002213
# 2 -0.004157 0.018288 -0.006194 0.006538 0.006148 -0.012605
# 3 -0.003300 -0.006194 0.025003 -0.017043 -0.011650 0.016533
# 4 -0.006416 0.006538 -0.017043 0.054893 0.016495 -0.021371
# 5 -0.004116 0.006148 -0.011650 0.016495 0.045634 -0.006469
# 6 0.002213 -0.012605 0.016533 -0.021371 -0.006469 0.048439
#
#
# Mechanical properties :
#
#
# Convention : Reuss Voigt Hill
#
# Bulk Modulus (GPa) = 28.75944 34.47695 31.61819
# Shear Modulus (GPa) = 20.00574 28.12469 24.06522
#
# Velocity S-wave (km/s) = 2.99209 3.54766 3.28165
# Velocity P-wave (km/s) = 4.98064 5.67536 5.33931
#
# Compressibility (1/GPa) = 0.03477119
#
# Stress axis : x y z
#
# Youngs Moduli (GPa) = 53.24440 54.68102 39.99597
#
# Poissons Ratio (x) = 0.22730 0.13197
# Poissons Ratio (y) = 0.22133 0.24773
# Poissons Ratio (z) = 0.17569 0.33868
#
# Static dielectric constant tensor:
#      x y z
#    x 1.861790 -0.010280 0.011010 
#    y -0.010280 1.834700 -0.020300 
#    z 0.011010 -0.020300 1.830290 
# 
# From -- ./inp_files/116771.got.cif
#   From: 2010.05.17/outbox.cif.g08.bks.cpg/sg2_59_cif.got.tgz:116771.got - 2010.06.03 11:33:40.
