data_PCOD9016228
_publ_section_title
;
Structure prediction by ZEFSAII (Michael W. Deem and Ramdas Pophale) SiO2 
 PCOD9016228
Probable space group: P -1
;
_chemical_formula_sum "Si O2"
_cell_formula_units_Z 14
_cell_length_a 7.630988
_cell_length_b 7.805782
_cell_length_c 12.094957
_cell_angle_alpha 113.247136
_cell_angle_beta 81.533115
_cell_angle_gamma 117.487007
_cell_volume 586.689896
_symmetry_space_group_name_H-M "P -1"
_symmetry_group_IT_number 2
_symmetry_cell_setting 'triclinic'
loop_
_space_group_symop_operation_xyz
x,y,z
-x,-y,-z
loop_
_atom_site_type_symbol
_atom_site_label
_atom_site_fract_x
_atom_site_fract_y
_atom_site_fract_z
Si Si1 0.581265 0.709581 0.252414
Si Si2 0.396562 0.210900 0.153681
Si Si3 0.299849 0.987657 0.882263
Si Si4 0.958683 0.328379 0.333230
Si Si5 0.068979 0.266108 0.630249
Si Si6 0.727229 0.873412 0.613469
Si Si7 0.664433 0.296493 0.523721
O O1 0.475413 0.457948 0.190505
O O2 0.587103 0.825815 0.168049
O O3 0.798830 0.758682 0.290722
O O4 0.474510 0.784620 0.376225
O O5 0.271037 0.145382 0.260809
O O6 0.573076 0.141717 0.140538
O O7 0.283398 0.084982 0.024278
O O8 0.097895 0.839741 0.800386
O O9 0.900666 0.502396 0.331541
O O10 0.811424 0.227286 0.425575
O O11 0.177920 0.473735 0.393497
O O12 0.147540 0.202577 0.496728
O O13 0.839405 0.118558 0.637271
O O14 0.502348 0.739684 0.561694
#
# Coordination Sequence:
#
# PCOD9016228 Si02
#       7
#     2   2   2   2   2   2   2
#     4  11  23  44  68  99 130 178 221 276 327 396
#     4  11  23  46  68  94 138 177 222 272 321 399
#     4  11  25  42  69  99 132 180 222 269 328 393
#     4  11  22  41  62 105 137 171 218 281 327 402
#     4  10  22  39  69  98 140 168 221 276 338 388
#     4  10  21  42  67 102 130 184 213 272 340 391
#     4  10  23  37  70  98 138 170 219 279 339 384
#
# _framework density 23.862691000000002
#
# number of rings (size 3 to 8) (size 9 to 14) (size 15 to 20)
#    0.000    1.429    2.857    1.286    2.000   11.429 
#    0.000    5.000    0.000    0.000    0.000    0.000 
#    0.000    0.000    0.000    0.000    0.000    0.000 
#
# Total GULP energy -78258.503070 kJ/mol
# GULP energy per Si atom -5589.893076 kJ/mol
# Density = 2.380838 g / cm^3
# Si number density = 23.862691 Si / 1000 Ang^3
#
#
#
# Elastic Constant Matrix: (Units=GPa)
#
#
# Indices 1 2 3 4 5 6 
#
# 1 110.5990 33.1852 35.3615 8.0591 19.0385 20.4934
# 2 33.1852 133.4989 58.8724 2.5057 16.5020 13.3229
# 3 35.3615 58.8724 199.1961 -0.2551 34.8343 13.3423
# 4 8.0591 2.5057 -0.2551 33.8319 -0.0480 1.5470
# 5 19.0385 16.5020 34.8343 -0.0480 30.8472 8.2604
# 6 20.4934 13.3229 13.3423 1.5470 8.2604 40.1203
#
#
#
# Elastic Compliance Matrix: (Units=1/GPa)
#
#
# Indices 1 2 3 4 5 6 
#
# 1 0.011394 -0.001604 -0.000484 -0.002418 -0.004533 -0.004100
# 2 -0.001604 0.009095 -0.002119 -0.000252 -0.001148 -0.001250
# 3 -0.000484 -0.002119 0.006832 0.000317 -0.006271 -0.000042
# 4 -0.002418 -0.000252 0.000317 0.030168 0.001379 -0.000234
# 5 -0.004533 -0.001148 -0.006271 0.001379 0.044077 -0.004346
# 6 -0.004100 -0.001250 -0.000042 -0.000234 -0.004346 0.028352
#
#
# Mechanical properties :
#
#
# Convention : Reuss Voigt Hill
#
# Bulk Modulus (GPa) = 52.89091 77.57023 65.23057
# Shear Modulus (GPa) = 34.56953 42.01822 38.29388
#
# Velocity S-wave (km/s) = 3.81029 4.20078 4.01029
# Velocity P-wave (km/s) = 6.44752 7.49041 6.98845
#
# Compressibility (1/GPa) = 0.01890684
#
# Stress axis : x y z
#
# Youngs Moduli (GPa) = 87.76571 109.94604 146.36206
#
# Poissons Ratio (x) = 0.17633 0.07090
# Poissons Ratio (y) = 0.14076 0.31017
# Poissons Ratio (z) = 0.04252 0.23300
#
# Static dielectric constant tensor:
#      x y z
#    x 1.992580 -0.035450 -0.007730 
#    y -0.035450 1.963400 0.027000 
#    z -0.007730 0.027000 1.857870 
# 
# From -- ./inp_files/383190.got.cif
#   From: 2010.05.17/outbox.cif.g08.bks.cpg/sg2_192_cif.got.tgz:383190.got - 2010.06.03 11:33:40.
