data_PCOD9016522
_publ_section_title
;
Structure prediction by ZEFSAII (Michael W. Deem and Ramdas Pophale) SiO2 
 PCOD9016522
Probable space group: P -1
;
_chemical_formula_sum "Si O2"
_cell_formula_units_Z 14
_cell_length_a 4.927785
_cell_length_b 17.920496
_cell_length_c 9.714959
_cell_angle_alpha 44.521616
_cell_angle_beta 72.517813
_cell_angle_gamma 92.556025
_cell_volume 529.069908
_symmetry_space_group_name_H-M "P -1"
_symmetry_group_IT_number 2
_symmetry_cell_setting 'triclinic'
loop_
_space_group_symop_operation_xyz
x,y,z
-x,-y,-z
loop_
_atom_site_type_symbol
_atom_site_label
_atom_site_fract_x
_atom_site_fract_y
_atom_site_fract_z
Si Si1 0.335051 0.808756 0.943314
Si Si2 0.188467 0.568317 0.127361
Si Si3 0.506340 0.449316 0.413918
Si Si4 0.438242 0.843326 0.384165
Si Si5 0.273768 0.186103 0.869384
Si Si6 0.155652 0.909568 0.575433
Si Si7 0.233420 0.275536 0.313744
O O1 0.221796 0.677815 0.075055
O O2 0.615974 0.825596 0.979637
O O3 0.077172 0.828853 0.049402
O O4 0.339403 0.883494 0.707956
O O5 0.251100 0.472822 0.333184
O O6 0.835559 0.517237 0.202274
O O7 0.458395 0.614478 0.911635
O O8 0.500000 0.500000 0.500000
O O9 0.445114 0.316762 0.617391
O O10 0.620959 0.886855 0.159260
O O11 0.357386 0.932499 0.374582
O O12 0.649678 0.800534 0.504626
O O13 0.098960 0.738203 0.557196
O O14 0.881986 0.788046 0.732043
O O15 0.000000 0.000000 0.500000
#
# Coordination Sequence:
#
# PCOD9016522 Si02
#       7
#     2   2   2   2   2   2   2
#     4  12  22  40  68  92 131 165 219 263 325 381
#     4  12  20  39  61  97 121 170 224 274 296 358
#     4  12  22  35  60  93 133 170 226 259 297 388
#     4  10  23  43  65  90 137 171 203 267 332 388
#     4  12  25  41  62  98 133 179 204 264 336 365
#     4  10  24  45  74  98 118 167 223 266 317 399
#     4  10  21  42  68  87 130 168 210 267 330 370
#
# _framework density 26.461532999999999
#
# number of rings (size 3 to 8) (size 9 to 14) (size 15 to 20)
#    0.857    0.000    4.286    4.714    0.000    0.571 
#    0.000    5.714    0.000    0.000    0.000    0.000 
#    0.000    0.000    0.000    0.000    0.000    0.000 
#
# Total GULP energy -78409.575443 kJ/mol
# GULP energy per Si atom -5600.683960 kJ/mol
# Density = 2.640131 g / cm^3
# Si number density = 26.461533 Si / 1000 Ang^3
#
#
#
# Elastic Constant Matrix: (Units=GPa)
#
#
# Indices 1 2 3 4 5 6 
#
# 1 140.1635 15.8723 21.5236 4.9427 5.5056 -14.2879
# 2 15.8723 98.3124 29.2026 12.0857 4.0909 -25.3773
# 3 21.5236 29.2026 91.4675 -6.2594 8.7680 -5.4999
# 4 4.9427 12.0857 -6.2594 35.3169 -5.9940 -4.2749
# 5 5.5056 4.0909 8.7680 -5.9940 61.4999 1.6029
# 6 -14.2879 -25.3773 -5.4999 -4.2749 1.6029 30.8485
#
#
#
# Elastic Compliance Matrix: (Units=1/GPa)
#
#
# Indices 1 2 3 4 5 6 
#
# 1 0.007785 0.000324 -0.001747 -0.001210 -0.000677 0.003428
# 2 0.000324 0.014905 -0.004389 -0.004784 -0.001148 0.011026
# 3 -0.001747 -0.004389 0.013002 0.003694 -0.001005 -0.001538
# 4 -0.001210 -0.004784 0.003694 0.031318 0.002943 0.000350
# 5 -0.000677 -0.001148 -0.001005 0.002943 0.016877 -0.001906
# 6 0.003428 0.011026 -0.001538 0.000350 -0.001906 0.042948
#
#
# Mechanical properties :
#
#
# Convention : Reuss Voigt Hill
#
# Bulk Modulus (GPa) = 41.55062 51.46004 46.50533
# Shear Modulus (GPa) = 34.13380 43.08940 38.61160
#
# Velocity S-wave (km/s) = 3.59547 4.03970 3.82404
# Velocity P-wave (km/s) = 5.74220 6.42247 6.09184
#
# Compressibility (1/GPa) = 0.02406703
#
# Stress axis : x y z
#
# Youngs Moduli (GPa) = 128.45497 67.09084 76.91113
#
# Poissons Ratio (x) = -0.02173 0.13437
# Poissons Ratio (y) = -0.04161 0.33759
# Poissons Ratio (z) = 0.22442 0.29448
#
# Static dielectric constant tensor:
#      x y z
#    x 2.044450 0.019130 -0.134800 
#    y 0.019130 2.189720 -0.003770 
#    z -0.134800 -0.003770 2.061610 
# 
# From -- ./inp_files/140448.got.cif
#   From: 2010.05.17/outbox.cif.g08.bks.cpg/sg2_71_cif.got.tgz:140448.got - 2010.06.03 11:33:40.
