data_PCOD9016093
_publ_section_title
;
Structure prediction by ZEFSAII (Michael W. Deem and Ramdas Pophale) SiO2 
 PCOD9016093
Probable space group: P -1
;
_chemical_formula_sum "Si O2"
_cell_formula_units_Z 16
_cell_length_a 13.865273
_cell_length_b 14.267978
_cell_length_c 14.936511
_cell_angle_alpha 28.914977
_cell_angle_beta 27.036578
_cell_angle_gamma 31.212184
_cell_volume 609.834068
_symmetry_space_group_name_H-M "P -1"
_symmetry_group_IT_number 2
_symmetry_cell_setting 'triclinic'
loop_
_space_group_symop_operation_xyz
x,y,z
-x,-y,-z
loop_
_atom_site_type_symbol
_atom_site_label
_atom_site_fract_x
_atom_site_fract_y
_atom_site_fract_z
Si Si1 0.712942 0.802571 0.636421
Si Si2 0.303437 0.849467 0.839469
Si Si3 0.910308 0.064884 0.620133
Si Si4 0.010892 0.726038 0.307538
Si Si5 0.405255 0.004702 0.269431
Si Si6 0.222473 0.306990 0.876932
Si Si7 0.211828 0.592601 0.971666
Si Si8 0.548237 0.627269 0.201264
O O1 0.568610 0.800913 0.667773
O O2 0.949533 0.796650 0.401736
O O3 0.515201 0.972023 0.716614
O O4 0.754450 0.597528 0.831040
O O5 0.231339 0.770786 0.870973
O O6 0.157275 0.090557 0.766488
O O7 0.246038 0.723390 0.074442
O O8 0.703677 0.277351 0.629411
O O9 0.000000 0.000000 0.500000
O O10 0.147121 0.056881 0.471288
O O11 0.827088 0.886744 0.875397
O O12 0.000000 0.500000 0.500000
O O13 0.541552 0.790947 0.289582
O O14 0.414543 0.180618 0.044966
O O15 0.273932 0.432359 0.813126
O O16 0.018496 0.387227 0.908985
O O17 0.394553 0.543417 0.780541
#
# Coordination Sequence:
#
# PCOD9016093 Si02
#       8
#     2   2   2   2   2   2   2   2
#     4  11  25  46  70 100 147 191 247 305 372 450
#     4  11  26  49  73 103 152 193 245 311 375 439
#     4  11  19  40  69  97 135 188 251 302 366 438
#     4  11  25  46  76 104 139 194 245 311 377 436
#     4  10  22  38  68 101 131 187 243 298 372 438
#     4  11  22  40  66  98 145 185 239 306 373 433
#     4  11  25  43  68 106 144 197 247 304 373 440
#     4  10  21  42  66  94 142 192 234 303 369 437
#
# _framework density 26.236643999999998
#
# number of rings (size 3 to 8) (size 9 to 14) (size 15 to 20)
#    0.000    1.250    3.750    1.875    5.250    2.000 
#    0.000    4.375    0.000    0.000    0.000    0.000 
#    0.000    0.000    0.000    0.000    0.000    0.000 
#
# Total GULP energy -89372.887087 kJ/mol
# GULP energy per Si atom -5585.805443 kJ/mol
# Density = 2.617693 g / cm^3
# Si number density = 26.236644 Si / 1000 Ang^3
#
#
#
# Elastic Constant Matrix: (Units=GPa)
#
#
# Indices 1 2 3 4 5 6 
#
# 1 86.4126 29.4513 3.5811 16.4360 30.8949 2.3209
# 2 29.4513 100.8136 20.9628 20.3611 15.1132 9.6511
# 3 3.5811 20.9628 98.9123 21.8782 20.1515 9.1857
# 4 16.4360 20.3611 21.8782 51.5591 4.3548 4.4906
# 5 30.8949 15.1132 20.1515 4.3548 30.5000 10.6417
# 6 2.3209 9.6511 9.1857 4.4906 10.6417 39.4175
#
#
#
# Elastic Compliance Matrix: (Units=1/GPa)
#
#
# Indices 1 2 3 4 5 6 
#
# 1 0.023441 -0.003204 0.006454 -0.007155 -0.027546 0.006152
# 2 -0.003204 0.012026 -0.001486 -0.002876 -0.000656 -0.001905
# 3 0.006454 -0.001486 0.014550 -0.006500 -0.014966 0.001374
# 4 -0.007155 -0.002876 -0.006500 0.024950 0.010461 -0.003026
# 5 -0.027546 -0.000656 -0.014966 0.010461 0.075056 -0.016185
# 6 0.006152 -0.001905 0.001374 -0.003026 -0.016185 0.029868
#
#
# Mechanical properties :
#
#
# Convention : Reuss Voigt Hill
#
# Bulk Modulus (GPa) = 18.67635 43.79211 31.23423
# Shear Modulus (GPa) = 25.74502 39.77154 32.75828
#
# Velocity S-wave (km/s) = 3.13591 3.89765 3.53734
# Velocity P-wave (km/s) = 4.49953 6.08137 5.34924
#
# Compressibility (1/GPa) = 0.05354364
#
# Stress axis : x y z
#
# Youngs Moduli (GPa) = 42.66018 83.15362 68.72663
#
# Poissons Ratio (x) = 0.26646 -0.44353
# Poissons Ratio (y) = 0.13670 0.10213
# Poissons Ratio (z) = -0.27531 0.12357
#
# Static dielectric constant tensor:
#      x y z
#    x -0.159900 -0.342450 0.522630 
#    y -0.342450 2.028540 0.096060 
#    z 0.522630 0.096060 1.913860 
# 
# From -- ./inp_files/534049.got.cif
#   From: 2010.05.17/outbox.cif.g08.bks.cpg/sg2_268_cif.got.tgz:534049.got - 2010.06.03 11:33:40.
