data_PCOD9016747
_publ_section_title
;
Structure prediction by ZEFSAII (Michael W. Deem and Ramdas Pophale) SiO2 
 PCOD9016747
Probable space group: P -1
;
_chemical_formula_sum "Si O2"
_cell_formula_units_Z 14
_cell_length_a 18.477136
_cell_length_b 8.115549
_cell_length_c 9.333594
_cell_angle_alpha 85.463209
_cell_angle_beta 135.005765
_cell_angle_gamma 59.049362
_cell_volume 579.778954
_symmetry_space_group_name_H-M "P -1"
_symmetry_group_IT_number 2
_symmetry_cell_setting 'triclinic'
loop_
_space_group_symop_operation_xyz
x,y,z
-x,-y,-z
loop_
_atom_site_type_symbol
_atom_site_label
_atom_site_fract_x
_atom_site_fract_y
_atom_site_fract_z
Si Si1 0.668860 0.220035 0.663524
Si Si2 0.624830 0.009276 0.105096
Si Si3 0.892813 0.472426 0.333524
Si Si4 0.700204 0.791219 0.772698
Si Si5 0.291539 0.336088 0.519662
Si Si6 0.694785 0.213194 0.353993
Si Si7 0.979071 0.125810 0.717025
O O1 0.500000 0.500000 0.500000
O O2 0.668432 0.212215 0.488217
O O3 0.710739 0.976522 0.788547
O O4 0.825706 0.137795 0.934072
O O5 0.717418 0.756843 0.151151
O O6 0.610887 0.941428 0.245015
O O7 0.743075 0.007193 0.318595
O O8 0.438108 0.287129 0.750932
O O9 0.974086 0.210234 0.545435
O O10 0.000000 0.500000 0.500000
O O11 0.827919 0.534580 0.078857
O O12 0.749316 0.665469 0.694235
O O13 0.500000 0.000000 0.500000
O O14 0.116366 0.610440 0.336690
O O15 0.848762 0.143928 0.553628
O O16 0.500000 0.500000 0.000000
#
# Coordination Sequence:
#
# PCOD9016747 Si02
#       7
#     2   2   2   2   2   2   2
#     4  12  30  52  70 108 154 196 241 307 372 437
#     4  10  21  42  69 103 141 186 241 295 354 432
#     4  11  24  45  74 108 146 184 244 311 363 425
#     4  12  25  44  77 110 143 190 244 303 374 424
#     4  10  21  42  74 103 138 186 245 299 349 428
#     4  12  26  46  76 106 145 199 244 290 370 448
#     4  11  26  50  76 106 149 195 247 301 364 445
#
# _framework density 24.147134999999999
#
# number of rings (size 3 to 8) (size 9 to 14) (size 15 to 20)
#    0.000    0.857    5.714    0.429    6.000    1.714 
#    2.571    1.429    0.000    0.000    0.000    0.000 
#    0.000    0.000    0.000    0.000    0.000    0.000 
#
# Total GULP energy -78200.609193 kJ/mol
# GULP energy per Si atom -5585.757799 kJ/mol
# Density = 2.409218 g / cm^3
# Si number density = 24.147135 Si / 1000 Ang^3
#
#
#
# Elastic Constant Matrix: (Units=GPa)
#
#
# Indices 1 2 3 4 5 6 
#
# 1 63.8703 13.5698 23.8862 13.5650 7.4848 -5.3691
# 2 13.5698 81.9165 29.9536 21.9237 -4.5323 -6.9081
# 3 23.8862 29.9536 134.1857 24.7708 4.7893 -23.3842
# 4 13.5650 21.9237 24.7708 35.6510 -11.1485 1.6696
# 5 7.4848 -4.5323 4.7893 -11.1485 56.5705 15.4159
# 6 -5.3691 -6.9081 -23.3842 1.6696 15.4159 30.5058
#
#
#
# Elastic Compliance Matrix: (Units=1/GPa)
#
#
# Indices 1 2 3 4 5 6 
#
# 1 0.019036 -0.000421 -0.000247 -0.009040 -0.006127 0.006657
# 2 -0.000421 0.015355 -0.000855 -0.009378 -0.001599 0.004068
# 3 -0.000247 -0.000855 0.012134 -0.010510 -0.006681 0.013016
# 4 -0.009040 -0.009378 -0.010510 0.051252 0.017867 -0.023605
# 5 -0.006127 -0.001599 -0.006681 0.017867 0.028414 -0.021898
# 6 0.006657 0.004068 0.013016 -0.023605 -0.021898 0.057209
#
#
# Mechanical properties :
#
#
# Convention : Reuss Voigt Hill
#
# Bulk Modulus (GPa) = 23.00019 46.08795 34.54407
# Shear Modulus (GPa) = 24.88314 38.71633 31.79974
#
# Velocity S-wave (km/s) = 3.21359 4.00853 3.63287
# Velocity P-wave (km/s) = 4.82859 6.36806 5.65099
#
# Compressibility (1/GPa) = 0.04347791
#
# Stress axis : x y z
#
# Youngs Moduli (GPa) = 52.53150 65.12673 82.41284
#
# Poissons Ratio (x) = 0.02743 0.02035
# Poissons Ratio (y) = 0.02213 0.07049
# Poissons Ratio (z) = 0.01297 0.05570
#
# Static dielectric constant tensor:
#      x y z
#    x 2.113480 0.084790 0.011890 
#    y 0.084790 2.055370 -0.017620 
#    z 0.011890 -0.017620 1.954570 
# 
# From -- ./inp_files/189511.got.cif
#   From: 2010.05.17/outbox.cif.g08.bks.cpg/sg2_95_cif.got.tgz:189511.got - 2010.06.03 11:33:40.
