data_PCOD9016105
_publ_section_title
;
Structure prediction by ZEFSAII (Michael W. Deem and Ramdas Pophale) SiO2 
 PCOD9016105
Probable space group: P -1
;
_chemical_formula_sum "Si O2"
_cell_formula_units_Z 13
_cell_length_a 5.781875
_cell_length_b 17.604486
_cell_length_c 7.573729
_cell_angle_alpha 132.394536
_cell_angle_beta 67.827813
_cell_angle_gamma 114.049641
_cell_volume 513.853347
_symmetry_space_group_name_H-M "P -1"
_symmetry_group_IT_number 2
_symmetry_cell_setting 'triclinic'
loop_
_space_group_symop_operation_xyz
x,y,z
-x,-y,-z
loop_
_atom_site_type_symbol
_atom_site_label
_atom_site_fract_x
_atom_site_fract_y
_atom_site_fract_z
Si Si1 0.000000 0.000000 0.000000
Si Si2 0.790454 0.800843 0.565394
Si Si3 0.511565 0.347064 0.125949
Si Si4 0.902894 0.556324 0.448674
Si Si5 0.557516 0.384934 0.779033
Si Si6 0.545157 0.957953 0.656067
Si Si7 0.731639 0.161624 0.771610
O O1 0.714838 0.009927 0.162856
O O2 0.905691 0.867830 0.806496
O O3 0.611830 0.684546 0.432320
O O4 0.635901 0.881673 0.647958
O O5 0.022496 0.798761 0.359438
O O6 0.702780 0.461876 0.264208
O O7 0.246592 0.359260 0.303066
O O8 0.485442 0.325522 0.891074
O O9 0.642847 0.259578 0.035490
O O10 0.000000 0.500000 0.500000
O O11 0.145403 0.602979 0.331541
O O12 0.500000 0.500000 0.000000
O O13 0.490910 0.897098 0.390634
O O14 0.759531 0.067013 0.745040
#
# Coordination Sequence:
#
# PCOD9016105 Si02
#       7
#     1   2   2   2   2   2   2
#     4  10  24  42  64 100 138 170 240 280 338 416
#     4  11  23  43  68  97 138 181 230 279 352 405
#     4  11  24  46  69 102 140 178 237 287 339 424
#     4  11  25  44  69 102 141 182 231 283 351 419
#     4  12  24  45  74 101 142 187 228 289 350 413
#     4  10  21  42  66  95 130 175 226 284 340 404
#     4  10  22  40  68  95 126 175 230 279 343 406
#
# _framework density 25.299046000000001
#
# number of rings (size 3 to 8) (size 9 to 14) (size 15 to 20)
#    0.000    1.231    3.077    2.308    0.000    2.462 
#    0.000    0.000    0.000    0.000    0.000    0.000 
#    0.000    0.000    0.000    0.000    0.000    0.000 
#
# Total GULP energy -72577.467742 kJ/mol
# GULP energy per Si atom -5582.882134 kJ/mol
# Density = 2.524146 g / cm^3
# Si number density = 25.299046 Si / 1000 Ang^3
#
#
#
# Elastic Constant Matrix: (Units=GPa)
#
#
# Indices 1 2 3 4 5 6 
#
# 1 50.7763 26.7311 37.5955 -7.5544 -21.5686 9.6128
# 2 26.7311 84.7859 56.5456 28.3361 -18.9518 10.4045
# 3 37.5955 56.5456 156.9975 14.2616 -37.8247 16.7316
# 4 -7.5544 28.3361 14.2616 44.0512 2.7441 0.9075
# 5 -21.5686 -18.9518 -37.8247 2.7441 58.1262 -8.6736
# 6 9.6128 10.4045 16.7316 0.9075 -8.6736 35.7356
#
#
#
# Elastic Compliance Matrix: (Units=1/GPa)
#
#
# Indices 1 2 3 4 5 6 
#
# 1 0.032975 -0.011028 -0.003583 0.013647 0.005207 -0.003065
# 2 -0.011028 0.023763 -0.003927 -0.015982 0.001660 -0.001305
# 3 -0.003583 -0.003927 0.009811 -0.001457 0.003609 -0.001574
# 4 0.013647 -0.015982 -0.001457 0.035965 -0.002782 0.000076
# 5 0.005207 0.001660 0.003609 -0.002782 0.022447 0.001945
# 6 -0.003065 -0.001305 -0.001574 0.000076 0.001945 0.030395
#
#
# Mechanical properties :
#
#
# Convention : Reuss Voigt Hill
#
# Bulk Modulus (GPa) = 33.92887 59.36715 46.64801
# Shear Modulus (GPa) = 24.72103 39.02843 31.87473
#
# Velocity S-wave (km/s) = 3.12934 3.93196 3.55338
# Velocity P-wave (km/s) = 5.14755 6.64311 5.94256
#
# Compressibility (1/GPa) = 0.02947342
#
# Stress axis : x y z
#
# Youngs Moduli (GPa) = 30.32571 42.08281 101.92146
#
# Poissons Ratio (x) = 0.46408 0.36520
# Poissons Ratio (y) = 0.33443 0.40025
# Poissons Ratio (z) = 0.10866 0.16526
#
# Static dielectric constant tensor:
#      x y z
#    x 2.067670 -0.060050 0.088010 
#    y -0.060050 2.044260 -0.009840 
#    z 0.088010 -0.009840 2.044490 
# 
# From -- ./inp_files/36636.got.cif
#   From: 2010.05.17/outbox.cif.g08.bks.cpg/sg2_19_cif.got.tgz:36636.got - 2010.06.03 11:33:40.
