data_PCOD9016325
_publ_section_title
;
Structure prediction by ZEFSAII (Michael W. Deem and Ramdas Pophale) SiO2 
 PCOD9016325
Probable space group: P -1
;
_chemical_formula_sum "Si O2"
_cell_formula_units_Z 14
_cell_length_a 12.208189
_cell_length_b 9.426168
_cell_length_c 12.747652
_cell_angle_alpha 56.745050
_cell_angle_beta 44.005449
_cell_angle_gamma 35.939185
_cell_volume 596.074039
_symmetry_space_group_name_H-M "P -1"
_symmetry_group_IT_number 2
_symmetry_cell_setting 'triclinic'
loop_
_space_group_symop_operation_xyz
x,y,z
-x,-y,-z
loop_
_atom_site_type_symbol
_atom_site_label
_atom_site_fract_x
_atom_site_fract_y
_atom_site_fract_z
Si Si1 0.895929 0.601456 0.789615
Si Si2 0.580104 0.707687 0.411647
Si Si3 0.879628 0.767330 0.934786
Si Si4 0.840733 0.776167 0.534335
Si Si5 0.542544 0.546840 0.284785
Si Si6 0.018226 0.804394 0.016281
Si Si7 0.081207 0.937769 0.347591
O O1 0.160600 0.450796 0.679200
O O2 0.759096 0.772169 0.916036
O O3 0.796854 0.761985 0.690877
O O4 0.920164 0.381185 0.863494
O O5 0.548693 0.675726 0.324336
O O6 0.514393 0.591568 0.569509
O O7 0.400972 0.994648 0.442949
O O8 0.816118 0.899328 0.037767
O O9 0.981352 0.851064 0.764446
O O10 0.000000 0.500000 0.000000
O O11 0.000000 0.500000 0.500000
O O12 0.979491 0.845590 0.406238
O O13 0.774003 0.361402 0.139379
O O14 0.348570 0.733300 0.258750
O O15 0.000000 0.000000 0.000000
O O16 0.000000 0.000000 0.500000
#
# Coordination Sequence:
#
# PCOD9016325 Si02
#       7
#     2   2   2   2   2   2   2
#     4  11  23  46  67 101 139 185 239 285 347 429
#     4  11  22  42  75 101 133 183 241 291 354 414
#     4  10  21  42  67  93 134 183 227 281 343 417
#     4  12  27  41  68 107 145 177 233 301 356 409
#     4  11  22  41  73 107 130 184 241 285 355 427
#     4  11  26  43  66  97 146 187 227 287 362 421
#     4  12  21  43  74 103 137 177 239 303 342 418
#
# _framework density 23.487016000000001
#
# number of rings (size 3 to 8) (size 9 to 14) (size 15 to 20)
#    0.000    0.857    5.714    0.857    4.000    1.714 
#    5.143    2.857    0.000    0.000    0.000    0.000 
#    0.000    0.000    0.000    0.000    0.000    0.000 
#
# Total GULP energy -78121.226300 kJ/mol
# GULP energy per Si atom -5580.087593 kJ/mol
# Density = 2.343356 g / cm^3
# Si number density = 23.487016 Si / 1000 Ang^3
#
#
#
# Elastic Constant Matrix: (Units=GPa)
#
#
# Indices 1 2 3 4 5 6 
#
# 1 56.7373 45.1679 10.3367 -9.2070 -1.9191 5.1855
# 2 45.1679 152.6105 43.5792 -23.8760 -7.6525 12.8436
# 3 10.3367 43.5792 85.1115 -33.8440 -5.1991 -1.9336
# 4 -9.2070 -23.8760 -33.8440 45.6865 -1.4189 -12.5558
# 5 -1.9191 -7.6525 -5.1991 -1.4189 34.8409 -3.9181
# 6 5.1855 12.8436 -1.9336 -12.5558 -3.9181 54.6822
#
#
#
# Elastic Compliance Matrix: (Units=1/GPa)
#
#
# Indices 1 2 3 4 5 6 
#
# 1 0.023268 -0.007006 0.001673 0.002277 0.000088 0.000027
# 2 -0.007006 0.010055 -0.004135 0.000347 0.001030 -0.001690
# 3 0.001673 -0.004135 0.019614 0.014179 0.003250 0.004995
# 4 0.002277 0.000347 0.014179 0.035574 0.004746 0.008712
# 5 0.000088 0.001030 0.003250 0.004746 0.029960 0.003101
# 6 0.000027 -0.001690 0.004995 0.008712 0.003101 0.021081
#
#
# Mechanical properties :
#
#
# Convention : Reuss Voigt Hill
#
# Bulk Modulus (GPa) = 29.41126 54.73633 42.07380
# Shear Modulus (GPa) = 29.44275 40.06695 34.75485
#
# Velocity S-wave (km/s) = 3.54443 4.13476 3.85092
# Velocity P-wave (km/s) = 5.41296 6.79342 6.14209
#
# Compressibility (1/GPa) = 0.03400059
#
# Stress axis : x y z
#
# Youngs Moduli (GPa) = 42.97829 99.45186 50.98484
#
# Poissons Ratio (x) = 0.69674 -0.08529
# Poissons Ratio (y) = 0.30110 0.21082
# Poissons Ratio (z) = -0.07190 0.41123
#
# Static dielectric constant tensor:
#      x y z
#    x 2.050950 -0.047250 -0.052930 
#    y -0.047250 1.901190 0.060060 
#    z -0.052930 0.060060 1.932690 
# 
# From -- ./inp_files/206240.got.cif
#   From: 2010.05.17/outbox.cif.g08.bks.cpg/sg2_104_cif.got.tgz:206240.got - 2010.06.03 11:33:40.
