data_PCOD9016757
_publ_section_title
;
Structure prediction by ZEFSAII (Michael W. Deem and Ramdas Pophale) SiO2 
 PCOD9016757
Probable space group: P -1
;
_chemical_formula_sum "Si O2"
_cell_formula_units_Z 14
_cell_length_a 12.301158
_cell_length_b 9.003853
_cell_length_c 12.342386
_cell_angle_alpha 74.185056
_cell_angle_beta 152.998778
_cell_angle_gamma 107.040560
_cell_volume 593.185000
_symmetry_space_group_name_H-M "P -1"
_symmetry_group_IT_number 2
_symmetry_cell_setting 'triclinic'
loop_
_space_group_symop_operation_xyz
x,y,z
-x,-y,-z
loop_
_atom_site_type_symbol
_atom_site_label
_atom_site_fract_x
_atom_site_fract_y
_atom_site_fract_z
Si Si1 0.264485 0.377093 0.310044
Si Si2 0.589072 0.620394 0.962166
Si Si3 0.442340 0.863343 0.127235
Si Si4 0.187195 0.111438 0.736374
Si Si5 0.151569 0.539700 0.961317
Si Si6 0.778391 0.979772 0.719357
Si Si7 0.725941 0.140957 0.432255
O O1 0.500000 0.500000 0.500000
O O2 0.154981 0.423718 0.088260
O O3 0.253385 0.193117 0.324506
O O4 0.113021 0.408788 0.276107
O O5 0.764117 0.541715 0.053883
O O6 0.380428 0.695246 0.696215
O O7 0.500000 0.500000 0.000000
O O8 0.708922 0.766975 0.105283
O O9 0.668222 0.842776 0.253695
O O10 0.328393 0.699224 0.103696
O O11 0.524328 0.993589 0.263299
O O12 0.252400 0.943712 0.867634
O O13 0.906121 0.128607 0.493377
O O14 0.500000 0.000000 0.500000
O O15 0.846348 0.104602 0.659552
O O16 0.000000 0.000000 0.000000
#
# Coordination Sequence:
#
# PCOD9016757 Si02
#       7
#     2   2   2   2   2   2   2
#     4  11  27  48  75 111 145 203 262 320 396 459
#     4  11  24  45  68 108 149 198 247 314 385 462
#     4  10  21  42  69 105 140 198 241 317 379 472
#     4  10  22  41  69 100 147 188 254 305 382 460
#     4  11  24  44  73 100 154 191 249 317 386 460
#     4  12  30  50  82 116 157 204 269 330 394 468
#     4  11  25  43  73 104 147 198 256 311 390 457
#
# _framework density 23.601405
#
# number of rings (size 3 to 8) (size 9 to 14) (size 15 to 20)
#    0.000    1.143    1.429    3.000   12.000    1.714 
#    5.143    0.000    0.000    0.000    0.000    0.000 
#    0.000    0.000    0.000    0.000    0.000    0.000 
#
# Total GULP energy -78222.641140 kJ/mol
# GULP energy per Si atom -5587.331510 kJ/mol
# Density = 2.354769 g / cm^3
# Si number density = 23.601405 Si / 1000 Ang^3
#
#
#
# Elastic Constant Matrix: (Units=GPa)
#
#
# Indices 1 2 3 4 5 6 
#
# 1 157.6873 58.0346 43.7732 -24.5525 20.1010 -13.8232
# 2 58.0346 137.4158 46.7519 -28.1846 7.9098 0.3258
# 3 43.7732 46.7519 93.0675 -4.0620 0.2376 -8.9606
# 4 -24.5525 -28.1846 -4.0620 25.3689 0.5648 -3.6548
# 5 20.1010 7.9098 0.2376 0.5648 44.7653 -7.9453
# 6 -13.8232 0.3258 -8.9606 -3.6548 -7.9453 45.5008
#
#
#
# Elastic Compliance Matrix: (Units=1/GPa)
#
#
# Indices 1 2 3 4 5 6 
#
# 1 0.009599 -0.001035 -0.003422 0.007998 -0.003815 0.002226
# 2 -0.001035 0.011859 -0.005052 0.011289 -0.001891 -0.000818
# 3 -0.003422 -0.005052 0.014789 -0.006347 0.002765 0.001882
# 4 0.007998 0.011289 -0.006347 0.059517 -0.005428 0.004932
# 5 -0.003815 -0.001891 0.002765 -0.005428 0.025032 0.003334
# 6 0.002226 -0.000818 0.001882 0.004932 0.003334 0.024009
#
#
# Mechanical properties :
#
#
# Convention : Reuss Voigt Hill
#
# Bulk Modulus (GPa) = 58.03677 76.14335 67.09006
# Shear Modulus (GPa) = 29.48709 39.10105 34.29407
#
# Velocity S-wave (km/s) = 3.53849 4.07471 3.81603
# Velocity P-wave (km/s) = 6.42949 7.38037 6.92128
#
# Compressibility (1/GPa) = 0.01723046
#
# Stress axis : x y z
#
# Youngs Moduli (GPa) = 104.17413 84.32153 67.61698
#
# Poissons Ratio (x) = 0.08728 0.23137
# Poissons Ratio (y) = 0.10783 0.34159
# Poissons Ratio (z) = 0.35646 0.42598
#
# Static dielectric constant tensor:
#      x y z
#    x 2.047140 0.109680 0.172150 
#    y 0.109680 2.040940 0.147880 
#    z 0.172150 0.147880 2.277630 
# 
# From -- ./inp_files/364112.got.cif
#   From: 2010.05.17/outbox.cif.g08.bks.cpg/sg2_183_cif.got.tgz:364112.got - 2010.06.03 11:33:40.
