data_PCOD9016916
_publ_section_title
;
Structure prediction by ZEFSAII (Michael W. Deem and Ramdas Pophale) SiO2 
 PCOD9016916
Probable space group: P -1
;
_chemical_formula_sum "Si O2"
_cell_formula_units_Z 12
_cell_length_a 9.726703
_cell_length_b 5.625517
_cell_length_c 17.512167
_cell_angle_alpha 51.873661
_cell_angle_beta 130.810989
_cell_angle_gamma 137.896489
_cell_volume 469.394755
_symmetry_space_group_name_H-M "P -1"
_symmetry_group_IT_number 2
_symmetry_cell_setting 'triclinic'
loop_
_space_group_symop_operation_xyz
x,y,z
-x,-y,-z
loop_
_atom_site_type_symbol
_atom_site_label
_atom_site_fract_x
_atom_site_fract_y
_atom_site_fract_z
Si Si1 0.354931 0.534148 0.877767
Si Si2 0.289546 0.503272 0.437921
Si Si3 0.681478 0.897383 0.179703
Si Si4 0.133358 0.319041 0.577135
Si Si5 0.745139 0.150386 0.791982
Si Si6 0.163721 0.412832 0.112772
O O1 0.236986 0.164295 0.858238
O O2 0.229937 0.696377 0.839182
O O3 0.516689 0.839585 0.812905
O O4 0.500000 0.500000 0.000000
O O5 0.500000 0.500000 0.500000
O O6 0.294631 0.553815 0.520058
O O7 0.292108 0.765316 0.323816
O O8 0.054834 0.111290 0.420193
O O9 0.733779 0.691697 0.302019
O O10 0.418217 0.708705 0.117784
O O11 0.000000 0.500000 0.500000
O O12 0.824584 0.492131 0.810922
O O13 0.873242 0.954517 0.864357
O O14 0.000000 0.500000 0.000000
#
# Coordination Sequence:
#
# PCOD9016916 Si02
#       6
#     2   2   2   2   2   2
#     4  10  21  43  72 100 142 198 242 306 372 442
#     4  11  26  49  79 108 152 201 255 321 387 459
#     4  10  23  44  69 101 147 187 248 308 372 445
#     4  11  28  48  76 113 149 201 255 318 392 458
#     4  10  23  42  68 105 141 188 247 306 372 445
#     4  10  21  42  69  99 143 190 248 303 366 443
#
# _framework density 25.564834999999999
#
# number of rings (size 3 to 8) (size 9 to 14) (size 15 to 20)
#    0.000    1.667    0.000    3.000   11.667    0.667 
#   18.000    0.000    0.000    0.000    0.000    0.000 
#    0.000    0.000    0.000    0.000    0.000    0.000 
#
# Total GULP energy -67129.798752 kJ/mol
# GULP energy per Si atom -5594.149896 kJ/mol
# Density = 2.550665 g / cm^3
# Si number density = 25.564835 Si / 1000 Ang^3
#
#
#
# Elastic Constant Matrix: (Units=GPa)
#
#
# Indices 1 2 3 4 5 6 
#
# 1 156.4970 21.5069 -8.3797 -6.3561 -0.9366 -29.6687
# 2 21.5069 129.0006 23.2103 -9.4611 -7.5177 -22.3794
# 3 -8.3797 23.2103 123.0077 -8.7484 -8.4151 -7.9208
# 4 -6.3561 -9.4611 -8.7484 40.5654 2.2022 1.4507
# 5 -0.9366 -7.5177 -8.4151 2.2022 53.2570 -3.3603
# 6 -29.6687 -22.3794 -7.9208 1.4507 -3.3603 57.1261
#
#
#
# Elastic Compliance Matrix: (Units=1/GPa)
#
#
# Indices 1 2 3 4 5 6 
#
# 1 0.007266 -0.000652 0.000952 0.001041 0.000373 0.003646
# 2 -0.000652 0.008787 -0.001328 0.001493 0.001143 0.002949
# 3 0.000952 -0.001328 0.008721 0.001611 0.001217 0.001214
# 4 0.001041 0.001493 0.001611 0.025515 -0.000529 0.000670
# 5 0.000373 0.001143 0.001217 -0.000529 0.019283 0.001958
# 6 0.003646 0.002949 0.001214 0.000670 0.001958 0.020820
#
#
# Mechanical properties :
#
#
# Convention : Reuss Voigt Hill
#
# Bulk Modulus (GPa) = 44.01659 53.46450 48.74055
# Shear Modulus (GPa) = 49.98918 55.00089 52.49504
#
# Velocity S-wave (km/s) = 4.42677 4.64338 4.53637
# Velocity P-wave (km/s) = 6.58661 7.05030 6.82239
#
# Compressibility (1/GPa) = 0.02271871
#
# Stress axis : x y z
#
# Youngs Moduli (GPa) = 137.62319 113.79992 114.66455
#
# Poissons Ratio (x) = 0.07422 -0.10921
# Poissons Ratio (y) = 0.08976 0.15230
# Poissons Ratio (z) = -0.13107 0.15115
#
# Static dielectric constant tensor:
#      x y z
#    x 1.954440 0.001490 -0.091700 
#    y 0.001490 2.140880 0.076710 
#    z -0.091700 0.076710 1.821620 
# 
# From -- ./inp_files/34857.got.cif
#   From: 2010.05.17/outbox.cif.g08.bks.cpg/sg2_18_cif.got.tgz:34857.got - 2010.06.03 11:33:40.
