data_PCOD9016902
_publ_section_title
;
Structure prediction by ZEFSAII (Michael W. Deem and Ramdas Pophale) SiO2 
 PCOD9016902
Probable space group: P -1
;
_chemical_formula_sum "Si O2"
_cell_formula_units_Z 12
_cell_length_a 8.332876
_cell_length_b 12.099550
_cell_length_c 5.052445
_cell_angle_alpha 105.520234
_cell_angle_beta 90.395311
_cell_angle_gamma 110.760684
_cell_volume 456.026708
_symmetry_space_group_name_H-M "P -1"
_symmetry_group_IT_number 2
_symmetry_cell_setting 'triclinic'
loop_
_space_group_symop_operation_xyz
x,y,z
-x,-y,-z
loop_
_atom_site_type_symbol
_atom_site_label
_atom_site_fract_x
_atom_site_fract_y
_atom_site_fract_z
Si Si1 0.954858 0.852197 0.708655
Si Si2 0.838256 0.233566 0.721915
Si Si3 0.748415 0.965567 0.392025
Si Si4 0.521726 0.297436 0.718890
Si Si5 0.653438 0.651141 0.774776
Si Si6 0.957427 0.566828 0.789451
O O1 0.001669 0.751946 0.464886
O O2 0.858630 0.910034 0.540783
O O3 0.814464 0.783917 0.882522
O O4 0.138962 0.964043 0.818442
O O5 0.710289 0.298449 0.661652
O O6 0.739907 0.085548 0.619829
O O7 0.913312 0.292432 0.043293
O O8 0.576259 0.847216 0.288484
O O9 0.430664 0.339230 0.501543
O O10 0.491248 0.367156 0.020201
O O11 0.762497 0.563998 0.758495
O O12 0.000000 0.500000 0.500000
O O13 0.000000 0.500000 0.000000
#
# Coordination Sequence:
#
# PCOD9016902 Si02
#       6
#     2   2   2   2   2   2
#     4   8  17  36  66  97 134 175 218 252 311 392
#     4  10  21  42  69  99 135 173 222 271 324 387
#     4   8  17  38  65  99 140 174 216 251 325 391
#     4  11  23  42  65 105 142 173 199 268 339 404
#     4  11  24  44  67  96 137 172 219 269 331 387
#     4  12  26  47  71  94 119 172 234 282 319 382
#
# _framework density 26.314247000000002
#
# number of rings (size 3 to 8) (size 9 to 14) (size 15 to 20)
#    1.000    1.000    0.000    4.500    0.000    3.333 
#    3.000    9.167    0.000    0.000    0.000    0.000 
#    0.000    0.000    0.000    0.000    0.000    0.000 
#
# Total GULP energy -67015.346324 kJ/mol
# GULP energy per Si atom -5584.612194 kJ/mol
# Density = 2.625435 g / cm^3
# Si number density = 26.314247 Si / 1000 Ang^3
#
#
#
# Elastic Constant Matrix: (Units=GPa)
#
#
# Indices 1 2 3 4 5 6 
#
# 1 152.7570 48.2466 27.0419 -7.4373 -16.9276 -45.6937
# 2 48.2466 111.1375 24.2361 0.9043 -8.5957 -21.6096
# 3 27.0419 24.2361 107.4780 -10.2073 -23.2266 -16.6420
# 4 -7.4373 0.9043 -10.2073 50.1165 1.0988 6.4522
# 5 -16.9276 -8.5957 -23.2266 1.0988 38.0182 4.7242
# 6 -45.6937 -21.6096 -16.6420 6.4522 4.7242 62.3571
#
#
#
# Elastic Compliance Matrix: (Units=1/GPa)
#
#
# Indices 1 2 3 4 5 6 
#
# 1 0.009486 -0.002759 -0.000239 0.000620 0.002733 0.005660
# 2 -0.002759 0.010839 -0.001618 -0.001118 0.000091 0.001411
# 3 -0.000239 -0.001618 0.011540 0.001992 0.006314 0.001660
# 4 0.000620 -0.001118 0.001992 0.020659 0.000842 -0.001603
# 5 0.002733 0.000091 0.006314 0.000842 0.031216 0.001267
# 6 0.005660 0.001411 0.001660 -0.001603 0.001267 0.021186
#
#
# Mechanical properties :
#
#
# Convention : Reuss Voigt Hill
#
# Bulk Modulus (GPa) = 44.18278 63.38021 53.78150
# Shear Modulus (GPa) = 41.08358 48.22154 44.65256
#
# Velocity S-wave (km/s) = 3.95557 4.28545 4.12381
# Velocity P-wave (km/s) = 6.13914 6.97316 6.56939
#
# Compressibility (1/GPa) = 0.02263325
#
# Stress axis : x y z
#
# Youngs Moduli (GPa) = 105.41639 92.25895 86.65628
#
# Poissons Ratio (x) = 0.25456 0.02068
# Poissons Ratio (y) = 0.29086 0.14022
# Poissons Ratio (z) = 0.02516 0.14928
#
# Static dielectric constant tensor:
#      x y z
#    x 2.067280 0.079710 -0.006180 
#    y 0.079710 2.266450 0.088660 
#    z -0.006180 0.088660 2.039450 
# 
# From -- ./inp_files/33805.got.cif
#   From: 2010.05.17/outbox.cif.g08.bks.cpg/sg2_17_cif.got.tgz:33805.got - 2010.06.03 11:33:40.
