data_PCOD9016391
_publ_section_title
;
Structure prediction by ZEFSAII (Michael W. Deem and Ramdas Pophale) SiO2 
 PCOD9016391
Probable space group: P -1
;
_chemical_formula_sum "Si O2"
_cell_formula_units_Z 16
_cell_length_a 9.123427
_cell_length_b 8.313651
_cell_length_c 19.121821
_cell_angle_alpha 150.504792
_cell_angle_beta 120.778797
_cell_angle_gamma 61.921058
_cell_volume 612.414005
_symmetry_space_group_name_H-M "P -1"
_symmetry_group_IT_number 2
_symmetry_cell_setting 'triclinic'
loop_
_space_group_symop_operation_xyz
x,y,z
-x,-y,-z
loop_
_atom_site_type_symbol
_atom_site_label
_atom_site_fract_x
_atom_site_fract_y
_atom_site_fract_z
Si Si1 0.536526 0.636388 0.193447
Si Si2 0.236134 0.699484 0.988984
Si Si3 0.578451 0.337034 0.623048
Si Si4 0.066891 0.628700 0.456541
Si Si5 0.803806 0.635709 0.006476
Si Si6 0.969289 0.346208 0.712281
Si Si7 0.644871 0.751515 0.674560
Si Si8 0.726513 0.372822 0.267266
O O1 0.610855 0.377059 0.056594
O O2 0.670767 0.607028 0.277566
O O3 0.505192 0.988663 0.285132
O O4 0.346756 0.548555 0.138315
O O5 0.242744 0.423492 0.946446
O O6 0.065815 0.636641 0.880661
O O7 0.252173 0.034936 0.162317
O O8 0.777822 0.328006 0.687961
O O9 0.583361 0.436786 0.580594
O O10 0.447652 0.617380 0.728213
O O11 0.500000 0.000000 0.500000
O O12 0.890255 0.502741 0.394987
O O13 0.042349 0.632702 0.366866
O O14 0.228578 0.371803 0.403491
O O15 0.075184 0.001407 0.623071
O O16 0.782741 0.009181 0.119673
O O17 0.000000 0.500000 0.000000
#
# Coordination Sequence:
#
# PCOD9016391 Si02
#       8
#     2   2   2   2   2   2   2   2
#     4  11  23  42  66 101 135 181 233 278 341 415
#     4  11  22  44  69  97 135 180 233 276 338 412
#     4  11  23  41  67  99 141 179 225 284 351 400
#     4  10  21  42  67  96 133 180 227 279 343 402
#     4  11  25  43  65 101 145 176 221 293 349 399
#     4  10  22  42  68  95 137 181 229 281 337 420
#     4  10  23  43  70  97 136 181 230 282 339 412
#     4  12  22  41  68  97 136 180 226 284 345 403
#
# _framework density 26.126116
#
# number of rings (size 3 to 8) (size 9 to 14) (size 15 to 20)
#    0.000    1.250    2.500    4.875    1.750    2.000 
#    4.500    4.375    0.000    0.000    0.000    0.000 
#    0.000    0.000    0.000    0.000    0.000    0.000 
#
# Total GULP energy -89550.904564 kJ/mol
# GULP energy per Si atom -5596.931535 kJ/mol
# Density = 2.606665 g / cm^3
# Si number density = 26.126116 Si / 1000 Ang^3
#
#
#
# Elastic Constant Matrix: (Units=GPa)
#
#
# Indices 1 2 3 4 5 6 
#
# 1 161.3000 24.7407 44.1356 2.5162 3.6847 -49.5031
# 2 24.7407 80.3209 38.8797 27.8846 14.0738 -26.3344
# 3 44.1356 38.8797 135.6893 10.9337 5.4736 -22.7950
# 4 2.5162 27.8846 10.9337 45.9789 -6.5712 -0.0327
# 5 3.6847 14.0738 5.4736 -6.5712 43.1999 3.9368
# 6 -49.5031 -26.3344 -22.7950 -0.0327 3.9368 52.5887
#
#
#
# Elastic Compliance Matrix: (Units=1/GPa)
#
#
# Indices 1 2 3 4 5 6 
#
# 1 0.009260 0.001945 -0.001829 -0.001567 -0.002256 0.009066
# 2 0.001945 0.026453 -0.003962 -0.016935 -0.012157 0.014260
# 3 -0.001829 -0.003962 0.009090 0.000389 0.000335 0.000210
# 4 -0.001567 -0.016935 0.000389 0.033676 0.011694 -0.010641
# 5 -0.002256 -0.012157 0.000335 0.011694 0.029977 -0.010303
# 6 0.009066 0.014260 0.000210 -0.010641 -0.010303 0.035546
#
#
# Mechanical properties :
#
#
# Convention : Reuss Voigt Hill
#
# Bulk Modulus (GPa) = 26.94569 65.86913 46.40741
# Shear Modulus (GPa) = 30.47575 46.32380 38.39977
#
# Velocity S-wave (km/s) = 3.41909 4.21537 3.83794
# Velocity P-wave (km/s) = 5.09146 6.99708 6.11891
#
# Compressibility (1/GPa) = 0.03711169
#
# Stress axis : x y z
#
# Youngs Moduli (GPa) = 107.99075 37.80230 110.00782
#
# Poissons Ratio (x) = -0.07352 0.20120
# Poissons Ratio (y) = -0.21002 0.43583
# Poissons Ratio (z) = 0.19751 0.14977
#
# Static dielectric constant tensor:
#      x y z
#    x 2.075830 0.005800 0.002120 
#    y 0.005800 2.081840 -0.050810 
#    z 0.002120 -0.050810 2.043700 
# 
# From -- ./inp_files/588286.got.cif
#   From: 2010.05.17/outbox.cif.g08.bks.cpg/sg2_295_cif.got.tgz:588286.got - 2010.06.03 11:33:40.
