data_PCOD9016333
_publ_section_title
;
Structure prediction by ZEFSAII (Michael W. Deem and Ramdas Pophale) SiO2 
 PCOD9016333
Probable space group: P -1
;
_chemical_formula_sum "Si O2"
_cell_formula_units_Z 14
_cell_length_a 8.590100
_cell_length_b 8.840518
_cell_length_c 11.077555
_cell_angle_alpha 75.332184
_cell_angle_beta 42.991634
_cell_angle_gamma 73.627536
_cell_volume 548.949255
_symmetry_space_group_name_H-M "P -1"
_symmetry_group_IT_number 2
_symmetry_cell_setting 'triclinic'
loop_
_space_group_symop_operation_xyz
x,y,z
-x,-y,-z
loop_
_atom_site_type_symbol
_atom_site_label
_atom_site_fract_x
_atom_site_fract_y
_atom_site_fract_z
Si Si1 0.516953 0.116285 0.079055
Si Si2 0.944025 0.679946 0.954382
Si Si3 0.745300 0.080583 0.202752
Si Si4 0.631953 0.675932 0.509636
Si Si5 0.518090 0.337587 0.679916
Si Si6 0.976399 0.156966 0.721935
Si Si7 0.997372 0.170781 0.363356
O O1 0.637179 0.037778 0.147255
O O2 0.258392 0.187011 0.250272
O O3 0.713707 0.214033 0.898709
O O4 0.500000 0.000000 0.000000
O O5 0.667460 0.712284 0.112417
O O6 0.028538 0.721251 0.765390
O O7 0.000000 0.500000 0.000000
O O8 0.080204 0.790495 0.936384
O O9 0.535851 0.171020 0.380551
O O10 0.881731 0.939317 0.229720
O O11 0.555312 0.518459 0.639477
O O12 0.598504 0.668230 0.385727
O O13 0.885450 0.698467 0.405153
O O14 0.769626 0.233063 0.555803
O O15 0.998785 0.013286 0.640271
#
# Coordination Sequence:
#
# PCOD9016333 Si02
#       7
#     2   2   2   2   2   2   2
#     4  10  23  43  61  90 134 172 215 266 325 384
#     4  11  20  40  70  97 127 168 219 263 320 383
#     4  11  21  40  68  96 126 167 224 269 315 385
#     4  11  21  38  65  99 128 159 219 272 319 378
#     4  11  21  39  66  97 133 166 206 270 326 381
#     4  10  21  42  67  94 124 168 219 273 319 376
#     4  10  23  44  63  96 134 167 216 265 325 385
#
# _framework density 25.503267999999998
#
# number of rings (size 3 to 8) (size 9 to 14) (size 15 to 20)
#    0.000    1.429    4.286    2.571    0.000    2.286 
#    2.571    5.000    0.000    0.000    0.000    0.000 
#    0.000    0.000    0.000    0.000    0.000    0.000 
#
# Total GULP energy -78408.318628 kJ/mol
# GULP energy per Si atom -5600.594188 kJ/mol
# Density = 2.544522 g / cm^3
# Si number density = 25.503268 Si / 1000 Ang^3
#
#
#
# Elastic Constant Matrix: (Units=GPa)
#
#
# Indices 1 2 3 4 5 6 
#
# 1 118.5643 28.1929 27.8278 -1.9621 -22.3020 -2.2259
# 2 28.1929 90.1232 27.6402 -20.3591 -5.9356 0.2185
# 3 27.8278 27.6402 142.0484 6.1778 -48.0795 6.1074
# 4 -1.9621 -20.3591 6.1778 42.4840 1.5530 -12.3529
# 5 -22.3020 -5.9356 -48.0795 1.5530 59.7777 -3.8293
# 6 -2.2259 0.2185 6.1074 -12.3529 -3.8293 32.8799
#
#
#
# Elastic Compliance Matrix: (Units=1/GPa)
#
#
# Indices 1 2 3 4 5 6 
#
# 1 0.009808 -0.002966 -0.000247 -0.000819 0.003239 0.000799
# 2 -0.002966 0.014937 -0.003738 0.008629 -0.002641 0.003329
# 3 -0.000247 -0.003738 0.010927 -0.004492 0.008266 -0.002747
# 4 -0.000819 0.008629 -0.004492 0.032003 -0.003100 0.012384
# 5 0.003239 -0.002641 0.008266 -0.003100 0.024428 0.000382
# 6 0.000799 0.003329 -0.002747 0.012384 0.000382 0.035653
#
#
# Mechanical properties :
#
#
# Convention : Reuss Voigt Hill
#
# Bulk Modulus (GPa) = 45.93240 57.56197 51.74718
# Shear Modulus (GPa) = 33.57620 44.83332 39.20476
#
# Velocity S-wave (km/s) = 3.63236 4.19733 3.92502
# Velocity P-wave (km/s) = 5.97005 6.79040 6.39340
#
# Compressibility (1/GPa) = 0.02177113
#
# Stress axis : x y z
#
# Youngs Moduli (GPa) = 101.95633 66.94563 91.51834
#
# Poissons Ratio (x) = 0.19857 0.02259
# Poissons Ratio (y) = 0.30241 0.34207
# Poissons Ratio (z) = 0.02517 0.25022
#
# Static dielectric constant tensor:
#      x y z
#    x 2.041830 -0.014350 0.007620 
#    y -0.014350 1.971120 0.011710 
#    z 0.007620 0.011710 2.095490 
# 
# From -- ./inp_files/244102.got.cif
#   From: 2010.05.17/outbox.cif.g08.bks.cpg/sg2_123_cif.got.tgz:244102.got - 2010.06.03 11:33:40.
