data_PCOD9016664
_publ_section_title
;
Structure prediction by ZEFSAII (Michael W. Deem and Ramdas Pophale) SiO2 
 PCOD9016664
Probable space group: P -1
;
_chemical_formula_sum "Si O2"
_cell_formula_units_Z 16
_cell_length_a 18.500429
_cell_length_b 6.729933
_cell_length_c 9.626930
_cell_angle_alpha 55.309785
_cell_angle_beta 102.099339
_cell_angle_gamma 122.773050
_cell_volume 820.223995
_symmetry_space_group_name_H-M "P -1"
_symmetry_group_IT_number 2
_symmetry_cell_setting 'triclinic'
loop_
_space_group_symop_operation_xyz
x,y,z
-x,-y,-z
loop_
_atom_site_type_symbol
_atom_site_label
_atom_site_fract_x
_atom_site_fract_y
_atom_site_fract_z
Si Si1 0.886450 0.317583 0.119751
Si Si2 0.707415 0.754346 0.234090
Si Si3 0.587413 0.799025 0.388007
Si Si4 0.526699 0.179093 0.077195
Si Si5 0.274133 0.796838 0.493537
Si Si6 0.998486 0.108268 0.109167
Si Si7 0.358428 0.178497 0.113945
Si Si8 0.076000 0.508980 0.613978
O O1 0.923981 0.403956 0.258375
O O2 0.935819 0.223110 0.072210
O O3 0.791362 0.047998 0.200258
O O4 0.904968 0.615467 0.943778
O O5 0.629840 0.729516 0.304149
O O6 0.717125 0.480610 0.368326
O O7 0.690902 0.808489 0.047545
O O8 0.500000 0.500000 0.500000
O O9 0.564244 0.036619 0.248346
O O10 0.657953 0.946704 0.480597
O O11 0.441353 0.156802 0.115377
O O12 0.597249 0.502060 0.937516
O O13 0.500000 0.000000 0.000000
O O14 0.175010 0.700564 0.526247
O O15 0.299921 0.929314 0.296947
O O16 0.953625 0.818501 0.289000
O O17 0.000000 0.000000 0.000000
O O18 0.000000 0.500000 0.500000
#
# Coordination Sequence:
#
# PCOD9016664 Si02
#       8
#     2   2   2   2   2   2   2   2
#     4  10  21  42  68  98 131 180 228 272 349 418
#     4  12  24  46  70  99 142 184 231 285 345 414
#     4  12  25  43  72 100 141 189 228 285 351 403
#     4  11  22  44  65  98 139 176 235 287 335 411
#     4  12  26  46  67 103 143 179 233 288 342 415
#     4   9  20  40  68  92 126 171 219 278 338 405
#     4  11  26  41  69 101 135 183 233 282 346 409
#     4  11  24  45  66  99 141 176 227 292 345 412
#
# _framework density 19.506865000000001
#
# number of rings (size 3 to 8) (size 9 to 14) (size 15 to 20)
#    0.000    1.000    5.000    1.500    1.750    4.500 
#    4.500    0.000    0.000    0.000    0.000    0.000 
#    0.000    0.000    0.000    0.000    0.000    0.000 
#
# Total GULP energy -89134.598885 kJ/mol
# GULP energy per Si atom -5570.912430 kJ/mol
# Density = 1.946247 g / cm^3
# Si number density = 19.506865 Si / 1000 Ang^3
#
#
#
# Elastic Constant Matrix: (Units=GPa)
#
#
# Indices 1 2 3 4 5 6 
#
# 1 100.8068 47.1331 60.3132 -10.3687 -7.1448 7.3768
# 2 47.1331 136.4409 55.4393 -12.6804 -0.5064 14.2206
# 3 60.3132 55.4393 113.4539 -6.8570 -12.9708 14.5004
# 4 -10.3687 -12.6804 -6.8570 35.9716 6.9906 -4.9749
# 5 -7.1448 -0.5064 -12.9708 6.9906 29.5619 -2.1973
# 6 7.3768 14.2206 14.5004 -4.9749 -2.1973 34.7776
#
#
#
# Elastic Compliance Matrix: (Units=1/GPa)
#
#
# Indices 1 2 3 4 5 6 
#
# 1 0.015389 -0.002351 -0.006998 0.002384 0.000117 0.000963
# 2 -0.002351 0.010000 -0.003548 0.002423 -0.002670 -0.001933
# 3 -0.006998 -0.003548 0.015165 -0.001826 0.005086 -0.003327
# 4 0.002384 0.002423 -0.001826 0.030845 -0.007238 0.003220
# 5 0.000117 -0.002670 0.005086 -0.007238 0.037775 0.000298
# 6 0.000963 -0.001933 -0.003327 0.003220 0.000298 0.031207
#
#
# Mechanical properties :
#
#
# Convention : Reuss Voigt Hill
#
# Bulk Modulus (GPa) = 67.75607 75.16364 71.45985
# Shear Modulus (GPa) = 29.22361 32.58329 30.90345
#
# Velocity S-wave (km/s) = 3.87475 4.09143 3.98456
# Velocity P-wave (km/s) = 7.40460 7.80610 7.60800
#
# Compressibility (1/GPa) = 0.01475883
#
# Stress axis : x y z
#
# Youngs Moduli (GPa) = 64.98137 100.00131 65.94324
#
# Poissons Ratio (x) = 0.23512 0.46146
# Poissons Ratio (y) = 0.15278 0.23399
# Poissons Ratio (z) = 0.45473 0.35484
#
# Static dielectric constant tensor:
#      x y z
#    x 0.889660 0.265630 -0.774680 
#    y 0.265630 1.637480 0.208430 
#    z -0.774680 0.208430 1.005230 
# 
# From -- ./inp_files/53908.got.cif
#   From: 2010.05.17/outbox.cif.g08.bks.cpg/sg2_27_cif.got.tgz:53908.got - 2010.06.03 11:33:40.
