data_PCOD9016281
_publ_section_title
;
Structure prediction by ZEFSAII (Michael W. Deem and Ramdas Pophale) SiO2 
 PCOD9016281
Probable space group: P -1
;
_chemical_formula_sum "Si O2"
_cell_formula_units_Z 16
_cell_length_a 25.711399
_cell_length_b 5.114203
_cell_length_c 5.744001
_cell_angle_alpha 84.330962
_cell_angle_beta 76.155759
_cell_angle_gamma 112.989024
_cell_volume 659.314613
_symmetry_space_group_name_H-M "P -1"
_symmetry_group_IT_number 2
_symmetry_cell_setting 'triclinic'
loop_
_space_group_symop_operation_xyz
x,y,z
-x,-y,-z
loop_
_atom_site_type_symbol
_atom_site_label
_atom_site_fract_x
_atom_site_fract_y
_atom_site_fract_z
Si Si1 0.826548 0.780880 0.986607
Si Si2 0.371219 0.744629 0.372890
Si Si3 0.768751 0.146524 0.252702
Si Si4 0.342815 0.267253 0.828548
Si Si5 0.068575 0.131189 0.840739
Si Si6 0.742975 0.662603 0.701430
Si Si7 0.035772 0.583262 0.700205
Si Si8 0.430034 0.375869 0.102077
O O1 0.808928 0.042190 0.050467
O O2 0.894099 0.873855 0.974960
O O3 0.794699 0.492322 0.208300
O O4 0.798912 0.660314 0.775762
O O5 0.364780 0.555893 0.625674
O O6 0.304233 0.624317 0.352553
O O7 0.409607 0.623950 0.180607
O O8 0.403015 0.091514 0.321075
O O9 0.701545 0.015419 0.238619
O O10 0.764122 0.949124 0.497056
O O11 0.298937 0.298531 0.062063
O O12 0.397444 0.252094 0.902712
O O13 0.080855 0.438333 0.690850
O O14 0.072170 0.925746 0.653004
O O15 0.000000 0.000000 0.000000
O O16 0.000000 0.500000 0.500000
O O17 0.000000 0.500000 0.000000
O O18 0.500000 0.500000 0.000000
#
# Coordination Sequence:
#
# PCOD9016281 Si02
#       8
#     2   2   2   2   2   2   2   2
#     4  11  22  41  62  90 129 155 207 259 319 379
#     4  10  22  39  61  89 116 164 210 247 315 368
#     4  10  22  39  62  93 119 161 206 257 321 380
#     4   9  21  39  63  85 123 161 204 261 307 375
#     4  10  22  42  64  95 126 169 212 263 327 395
#     4   9  21  40  64  89 121 159 206 259 316 374
#     4  10  21  42  67  91 125 169 219 262 315 391
#     4  11  23  38  58  89 125 162 207 255 306 366
#
# _framework density 24.267628999999999
#
# number of rings (size 3 to 8) (size 9 to 14) (size 15 to 20)
#    0.000    2.000    0.000    2.250    0.000   14.000 
#   13.500    0.000    0.000    0.000    0.000    0.000 
#    0.000    0.000    0.000    0.000    0.000    0.000 
#
# Total GULP energy -89385.727048 kJ/mol
# GULP energy per Si atom -5586.607940 kJ/mol
# Density = 2.421240 g / cm^3
# Si number density = 24.267629 Si / 1000 Ang^3
#
#
#
# Elastic Constant Matrix: (Units=GPa)
#
#
# Indices 1 2 3 4 5 6 
#
# 1 154.8823 23.5108 18.1147 2.6640 21.1783 24.3786
# 2 23.5108 98.9935 -7.9257 -4.4019 -4.1535 -17.2243
# 3 18.1147 -7.9257 64.7154 8.8763 12.4385 19.3474
# 4 2.6640 -4.4019 8.8763 15.4352 7.5376 -1.9933
# 5 21.1783 -4.1535 12.4385 7.5376 28.5157 -1.5793
# 6 24.3786 -17.2243 19.3474 -1.9933 -1.5793 40.9313
#
#
#
# Elastic Compliance Matrix: (Units=1/GPa)
#
#
# Indices 1 2 3 4 5 6 
#
# 1 0.009325 -0.003882 0.000911 -0.000229 -0.008268 -0.007948
# 2 -0.003882 0.012809 -0.001425 0.003919 0.004819 0.008752
# 3 0.000911 -0.001425 0.021721 -0.010617 -0.008231 -0.012244
# 4 -0.000229 0.003919 -0.010617 0.080906 -0.015452 0.010148
# 5 -0.008268 0.004819 -0.008231 -0.015452 0.050251 0.012029
# 6 -0.007948 0.008752 -0.012244 0.010148 0.012029 0.039594
#
#
# Mechanical properties :
#
#
# Convention : Reuss Voigt Hill
#
# Bulk Modulus (GPa) = 28.51957 42.88787 35.70372
# Shear Modulus (GPa) = 21.26885 35.96920 28.61903
#
# Velocity S-wave (km/s) = 2.96367 3.85410 3.43783
# Velocity P-wave (km/s) = 4.84651 6.12508 5.52292
#
# Compressibility (1/GPa) = 0.03506364
#
# Stress axis : x y z
#
# Youngs Moduli (GPa) = 107.24259 78.07135 46.03738
#
# Poissons Ratio (x) = 0.30305 -0.04195
# Poissons Ratio (y) = 0.41628 0.06561
# Poissons Ratio (z) = -0.09772 0.11127
#
# Static dielectric constant tensor:
#      x y z
#    x 1.964490 -0.075640 0.017230 
#    y -0.075640 2.062820 0.060830 
#    z 0.017230 0.060830 1.944460 
# 
# From -- ./inp_files/121456.got.cif
#   From: 2010.05.17/outbox.cif.g08.bks.cpg/sg2_61_cif.got.tgz:121456.got - 2010.06.03 11:33:40.
