data_PCOD9016241
_publ_section_title
;
Structure prediction by ZEFSAII (Michael W. Deem and Ramdas Pophale) SiO2 
 PCOD9016241
Probable space group: P -1
;
_chemical_formula_sum "Si O2"
_cell_formula_units_Z 16
_cell_length_a 8.719328
_cell_length_b 14.706232
_cell_length_c 9.328187
_cell_angle_alpha 54.470537
_cell_angle_beta 114.413884
_cell_angle_gamma 76.014706
_cell_volume 673.415202
_symmetry_space_group_name_H-M "P -1"
_symmetry_group_IT_number 2
_symmetry_cell_setting 'triclinic'
loop_
_space_group_symop_operation_xyz
x,y,z
-x,-y,-z
loop_
_atom_site_type_symbol
_atom_site_label
_atom_site_fract_x
_atom_site_fract_y
_atom_site_fract_z
Si Si1 0.750766 0.856903 0.771483
Si Si2 0.656382 0.706844 0.690996
Si Si3 0.874023 0.605659 0.567257
Si Si4 0.530086 0.602840 0.326493
Si Si5 0.738480 0.050180 0.073007
Si Si6 0.616667 0.553437 0.074360
Si Si7 0.858766 0.038676 0.764288
Si Si8 0.351568 0.127402 0.974386
O O1 0.801623 0.748360 0.767325
O O2 0.500000 0.000000 0.500000
O O3 0.885047 0.909764 0.810413
O O4 0.749728 0.799839 0.979367
O O5 0.791782 0.613165 0.689361
O O6 0.400930 0.835359 0.428576
O O7 0.604123 0.656848 0.857089
O O8 0.783290 0.536163 0.512046
O O9 0.734913 0.762389 0.291005
O O10 0.118350 0.550613 0.704205
O O11 0.500000 0.500000 0.500000
O O12 0.509900 0.602301 0.147198
O O13 0.365466 0.778943 0.143815
O O14 0.689876 0.981199 0.990233
O O15 0.608543 0.049447 0.154757
O O16 0.001421 0.937892 0.302871
O O17 0.500000 0.500000 0.000000
O O18 0.000000 0.000000 0.000000
#
# Coordination Sequence:
#
# PCOD9016241 Si02
#       8
#     2   2   2   2   2   2   2   2
#     4  10  23  39  63  96 144 176 222 290 357 417
#     4  11  25  46  67 105 148 183 232 294 371 416
#     4  11  25  46  77  98 140 196 241 295 352 433
#     4  11  25  48  74 104 139 192 249 284 348 438
#     4  10  22  37  71 100 137 174 235 289 337 416
#     4  12  28  48  70 104 142 185 242 306 361 415
#     4  11  21  39  66 104 136 181 231 278 344 426
#     4  10  21  42  67 103 140 182 237 279 360 425
#
# _framework density 23.759488999999999
#
# number of rings (size 3 to 8) (size 9 to 14) (size 15 to 20)
#    0.000    1.250    1.250    4.500    8.750    3.000 
#    0.000    5.625    0.000    0.000    0.000    0.000 
#    0.000    0.000    0.000    0.000    0.000    0.000 
#
# Total GULP energy -89081.468916 kJ/mol
# GULP energy per Si atom -5567.591807 kJ/mol
# Density = 2.370541 g / cm^3
# Si number density = 23.759489 Si / 1000 Ang^3
#
#
#
# Elastic Constant Matrix: (Units=GPa)
#
#
# Indices 1 2 3 4 5 6 
#
# 1 116.5965 36.0579 35.3698 7.9643 13.4049 23.7621
# 2 36.0579 118.8962 53.6503 34.9836 0.3738 16.1145
# 3 35.3698 53.6503 85.4283 18.3990 -10.1008 4.9549
# 4 7.9643 34.9836 18.3990 32.8951 5.1895 0.8930
# 5 13.4049 0.3738 -10.1008 5.1895 51.7105 8.7044
# 6 23.7621 16.1145 4.9549 0.8930 8.7044 39.1871
#
#
#
# Elastic Compliance Matrix: (Units=1/GPa)
#
#
# Indices 1 2 3 4 5 6 
#
# 1 0.011654 -0.001297 -0.004437 0.001681 -0.003153 -0.005310
# 2 -0.001297 0.016361 -0.006380 -0.013567 0.001190 -0.005090
# 3 -0.004437 -0.006380 0.018759 -0.003455 0.004881 0.001937
# 4 0.001681 -0.013567 -0.003455 0.047258 -0.006664 0.005400
# 5 -0.003153 0.001190 0.004881 -0.006664 0.022448 -0.004029
# 6 -0.005310 -0.005090 0.001937 0.005400 -0.004029 0.031358
#
#
# Mechanical properties :
#
#
# Convention : Reuss Voigt Hill
#
# Bulk Modulus (GPa) = 44.35719 63.45298 53.90509
# Shear Modulus (GPa) = 27.84260 37.81475 32.82868
#
# Velocity S-wave (km/s) = 3.42695 3.99377 3.72117
# Velocity P-wave (km/s) = 5.86246 6.93046 6.41871
#
# Compressibility (1/GPa) = 0.02254426
#
# Stress axis : x y z
#
# Youngs Moduli (GPa) = 85.81038 61.12145 53.30863
#
# Poissons Ratio (x) = 0.07928 0.23655
# Poissons Ratio (y) = 0.11130 0.34011
# Poissons Ratio (z) = 0.38077 0.38996
#
# Static dielectric constant tensor:
#      x y z
#    x 2.059300 -0.022250 -0.025450 
#    y -0.022250 1.972650 -0.031100 
#    z -0.025450 -0.031100 2.096600 
# 
# From -- ./inp_files/206051.got.cif
#   From: 2010.05.17/outbox.cif.g08.bks.cpg/sg2_104_cif.got.tgz:206051.got - 2010.06.03 11:33:40.
