data_PCOD9016215
_publ_section_title
;
Structure prediction by ZEFSAII (Michael W. Deem and Ramdas Pophale) SiO2 
 PCOD9016215
Probable space group: P -1
;
_chemical_formula_sum "Si O2"
_cell_formula_units_Z 14
_cell_length_a 11.637979
_cell_length_b 18.153783
_cell_length_c 17.410949
_cell_angle_alpha 157.561570
_cell_angle_beta 28.599138
_cell_angle_gamma 153.193527
_cell_volume 602.394613
_symmetry_space_group_name_H-M "P -1"
_symmetry_group_IT_number 2
_symmetry_cell_setting 'triclinic'
loop_
_space_group_symop_operation_xyz
x,y,z
-x,-y,-z
loop_
_atom_site_type_symbol
_atom_site_label
_atom_site_fract_x
_atom_site_fract_y
_atom_site_fract_z
Si Si1 0.789625 0.600205 0.469722
Si Si2 0.828551 0.062762 0.100732
Si Si3 0.409794 0.406024 0.251123
Si Si4 0.999056 0.271080 0.775401
Si Si5 0.813140 0.548341 0.844388
Si Si6 0.947208 0.995506 0.394919
Si Si7 0.361390 0.679002 0.422625
O O1 0.500000 0.500000 0.500000
O O2 0.729772 0.601841 0.595307
O O3 0.002409 0.494396 0.239928
O O4 0.922325 0.840055 0.590572
O O5 0.704899 0.184555 0.343932
O O6 0.007796 0.217724 0.075517
O O7 0.601782 0.829807 0.979226
O O8 0.000000 0.000000 0.000000
O O9 0.678034 0.631149 0.318254
O O10 0.290823 0.454637 0.290488
O O11 0.902658 0.137692 0.625832
O O12 0.894029 0.117659 0.763059
O O13 0.000000 0.500000 0.000000
O O14 0.777860 0.378248 0.632770
O O15 0.500000 0.500000 0.000000
O O16 0.673872 0.808090 0.345494
#
# Coordination Sequence:
#
# PCOD9016215 Si02
#       7
#     2   2   2   2   2   2   2
#     4  12  26  49  72 107 161 199 239 316 380 445
#     4  12  24  44  77 107 139 197 255 305 375 441
#     4  11  23  44  73 105 145 196 251 303 374 446
#     4  10  21  42  67 100 140 192 250 302 356 451
#     4  12  29  48  76 114 154 192 253 315 375 444
#     4  10  24  41  71 101 144 192 245 294 382 426
#     4  11  24  49  74 106 147 194 252 311 363 449
#
# _framework density 23.240580000000001
#
# number of rings (size 3 to 8) (size 9 to 14) (size 15 to 20)
#    0.000    0.857    4.286    2.143    4.000    4.000 
#    0.000    1.429    0.000    0.000    0.000    0.000 
#    0.000    0.000    0.000    0.000    0.000    0.000 
#
# Total GULP energy -78039.051514 kJ/mol
# GULP energy per Si atom -5574.217965 kJ/mol
# Density = 2.318768 g / cm^3
# Si number density = 23.240580 Si / 1000 Ang^3
#
#
#
# Elastic Constant Matrix: (Units=GPa)
#
#
# Indices 1 2 3 4 5 6 
#
# 1 105.3487 41.4552 16.6245 1.1139 -17.2450 8.6756
# 2 41.4552 111.1898 21.7851 16.9793 -16.3004 -14.5401
# 3 16.6245 21.7851 90.8985 13.9401 -16.8309 7.2036
# 4 1.1139 16.9793 13.9401 38.6469 2.1221 1.1609
# 5 -17.2450 -16.3004 -16.8309 2.1221 38.1505 18.1222
# 6 8.6756 -14.5401 7.2036 1.1609 18.1222 38.0735
#
#
#
# Elastic Compliance Matrix: (Units=1/GPa)
#
#
# Indices 1 2 3 4 5 6 
#
# 1 0.013718 -0.005505 0.000970 0.001481 0.008770 -0.009631
# 2 -0.005505 0.013017 -0.002122 -0.004956 -0.001043 0.007274
# 3 0.000970 -0.002122 0.014642 -0.004686 0.010325 -0.008573
# 4 0.001481 -0.004956 -0.004686 0.029984 -0.005312 0.000271
# 5 0.008770 -0.001043 0.010325 -0.005312 0.047255 -0.026680
# 6 -0.009631 0.007274 -0.008573 0.000271 -0.026680 0.045551
#
#
# Mechanical properties :
#
#
# Convention : Reuss Voigt Hill
#
# Bulk Modulus (GPa) = 35.63288 51.90739 43.77013
# Shear Modulus (GPa) = 26.76157 38.14567 32.45362
#
# Velocity S-wave (km/s) = 3.39706 4.05574 3.74092
# Velocity P-wave (km/s) = 5.54546 6.65698 6.12648
#
# Compressibility (1/GPa) = 0.02806397
#
# Stress axis : x y z
#
# Youngs Moduli (GPa) = 72.89544 76.82267 68.29486
#
# Poissons Ratio (x) = 0.42288 -0.06626
# Poissons Ratio (y) = 0.40126 0.14495
# Poissons Ratio (z) = -0.07073 0.16305
#
# Static dielectric constant tensor:
#      x y z
#    x 2.030240 0.107780 -0.142700 
#    y 0.107780 1.912820 -0.061650 
#    z -0.142700 -0.061650 1.991720 
# 
# From -- ./inp_files/570396.got.cif
#   From: 2010.05.17/outbox.cif.g08.bks.cpg/sg2_286_cif.got.tgz:570396.got - 2010.06.03 11:33:40.
