data_PCOD9016362
_publ_section_title
;
Structure prediction by ZEFSAII (Michael W. Deem and Ramdas Pophale) SiO2 
 PCOD9016362
Probable space group: P -1
;
_chemical_formula_sum "Si O2"
_cell_formula_units_Z 14
_cell_length_a 10.814921
_cell_length_b 9.157151
_cell_length_c 25.226738
_cell_angle_alpha 127.993254
_cell_angle_beta 24.211834
_cell_angle_gamma 138.117039
_cell_volume 665.400721
_symmetry_space_group_name_H-M "P -1"
_symmetry_group_IT_number 2
_symmetry_cell_setting 'triclinic'
loop_
_space_group_symop_operation_xyz
x,y,z
-x,-y,-z
loop_
_atom_site_type_symbol
_atom_site_label
_atom_site_fract_x
_atom_site_fract_y
_atom_site_fract_z
Si Si1 0.584008 0.083825 0.426898
Si Si2 0.043969 0.942719 0.170412
Si Si3 0.798459 0.042490 0.189798
Si Si4 0.621149 0.635297 0.038986
Si Si5 0.786127 0.376034 0.002135
Si Si6 0.110381 0.603714 0.316139
Si Si7 0.300057 0.168520 0.461945
O O1 0.275757 0.071211 0.508235
O O2 0.925077 0.345892 0.347661
O O3 0.500000 0.000000 0.500000
O O4 0.691093 0.926929 0.324020
O O5 0.001143 0.709596 0.132389
O O6 0.077317 0.035989 0.118681
O O7 0.394093 0.135330 0.109627
O O8 0.662913 0.192410 0.301327
O O9 0.442092 0.790227 0.264948
O O10 0.002877 0.139258 0.076200
O O11 0.302136 0.648071 0.193348
O O12 0.500000 0.500000 0.000000
O O13 0.713402 0.522978 0.024881
O O14 0.000000 0.500000 0.000000
O O15 0.790807 0.646444 0.454979
O O16 0.000000 0.000000 0.500000
#
# Coordination Sequence:
#
# PCOD9016362 Si02
#       7
#     2   2   2   2   2   2   2
#     4  11  23  42  65  92 125 169 216 263 319 381
#     4  10  22  43  63  91 136 165 210 268 315 383
#     4  10  21  42  67  95 129 166 214 266 321 381
#     4  12  22  40  64  98 127 166 213 263 320 382
#     4  11  23  41  65  92 130 173 207 260 326 376
#     4  11  22  40  66  95 129 169 212 266 322 379
#     4   9  21  43  64  90 126 166 211 267 314 378
#
# _framework density 21.039952
#
# number of rings (size 3 to 8) (size 9 to 14) (size 15 to 20)
#    0.000    1.429    2.857    2.571    0.000    2.286 
#    5.143    6.429    0.000    0.000    0.000    0.000 
#    0.000    0.000    0.000    0.000    0.000    0.000 
#
# Total GULP energy -78006.644589 kJ/mol
# GULP energy per Si atom -5571.903185 kJ/mol
# Density = 2.099206 g / cm^3
# Si number density = 21.039952 Si / 1000 Ang^3
#
#
#
# Elastic Constant Matrix: (Units=GPa)
#
#
# Indices 1 2 3 4 5 6 
#
# 1 123.7553 41.2665 17.4986 -7.8419 3.5949 22.6709
# 2 41.2665 71.0782 35.2594 7.3755 -3.7841 18.3354
# 3 17.4986 35.2594 69.5633 21.5569 9.3244 -7.7798
# 4 -7.8419 7.3755 21.5569 43.0113 -1.8885 -7.5890
# 5 3.5949 -3.7841 9.3244 -1.8885 37.5500 -6.8933
# 6 22.6709 18.3354 -7.7798 -7.5890 -6.8933 36.0013
#
#
#
# Elastic Compliance Matrix: (Units=1/GPa)
#
#
# Indices 1 2 3 4 5 6 
#
# 1 0.010952 -0.004919 -0.001322 0.002627 -0.001908 -0.004489
# 2 -0.004919 0.028254 -0.015105 -0.000403 0.004520 -0.013776
# 3 -0.001322 -0.015105 0.027536 -0.009780 -0.006681 0.011135
# 4 0.002627 -0.000403 -0.009780 0.029499 0.004257 0.003471
# 5 -0.001908 0.004520 -0.006681 0.004257 0.029891 0.004076
# 6 -0.004489 -0.013776 0.011135 0.003471 0.004076 0.041538
#
#
# Mechanical properties :
#
#
# Convention : Reuss Voigt Hill
#
# Bulk Modulus (GPa) = 41.58094 50.27174 45.92634
# Shear Modulus (GPa) = 22.89596 34.67067 28.78331
#
# Velocity S-wave (km/s) = 3.30239 4.06377 3.70270
# Velocity P-wave (km/s) = 5.86061 6.77970 6.33684
#
# Compressibility (1/GPa) = 0.02404948
#
# Stress axis : x y z
#
# Youngs Moduli (GPa) = 91.30960 35.39296 36.31590
#
# Poissons Ratio (x) = 0.17409 0.04802
# Poissons Ratio (y) = 0.44913 0.54857
# Poissons Ratio (z) = 0.12073 0.53463
#
# Static dielectric constant tensor:
#      x y z
#    x 1.788260 0.045240 -0.045330 
#    y 0.045240 1.813870 0.025560 
#    z -0.045330 0.025560 1.775990 
# 
# From -- ./inp_files/588009.got.cif
#   From: 2010.05.17/outbox.cif.g08.bks.cpg/sg2_295_cif.got.tgz:588009.got - 2010.06.03 11:33:40.
