data_PCOD9016701
_publ_section_title
;
Structure prediction by ZEFSAII (Michael W. Deem and Ramdas Pophale) SiO2 
 PCOD9016701
Probable space group: P -1
;
_chemical_formula_sum "Si O2"
_cell_formula_units_Z 14
_cell_length_a 12.743770
_cell_length_b 11.741055
_cell_length_c 8.659354
_cell_angle_alpha 138.440041
_cell_angle_beta 58.193939
_cell_angle_gamma 131.054869
_cell_volume 646.522599
_symmetry_space_group_name_H-M "P -1"
_symmetry_group_IT_number 2
_symmetry_cell_setting 'triclinic'
loop_
_space_group_symop_operation_xyz
x,y,z
-x,-y,-z
loop_
_atom_site_type_symbol
_atom_site_label
_atom_site_fract_x
_atom_site_fract_y
_atom_site_fract_z
Si Si1 0.359697 0.418978 0.740007
Si Si2 0.269925 0.958913 0.596930
Si Si3 0.549118 0.229522 0.763728
Si Si4 0.348521 0.546729 0.539516
Si Si5 0.393004 0.956790 0.900061
Si Si6 0.190931 0.101424 0.115141
Si Si7 0.083563 0.034090 0.627659
O O1 0.329542 0.511614 0.703003
O O2 0.488774 0.384362 0.552511
O O3 0.215845 0.242643 0.723344
O O4 0.412453 0.564591 0.989853
O O5 0.316881 0.792851 0.413077
O O6 0.422733 0.149169 0.658441
O O7 0.162780 0.910627 0.490959
O O8 0.207125 0.017026 0.852604
O O9 0.481283 0.083630 0.814551
O O10 0.320354 0.725137 0.696706
O O11 0.259537 0.336139 0.313378
O O12 0.280972 0.036072 0.093183
O O13 0.500000 0.000000 0.000000
O O14 0.032245 0.003449 0.191943
O O15 0.000000 0.000000 0.500000
#
# Coordination Sequence:
#
# PCOD9016701 Si02
#       7
#     2   2   2   2   2   2   2
#     4  11  21  40  66 104 129 170 232 277 324 397
#     4  10  23  45  67  92 138 179 217 279 338 388
#     4  10  21  42  69 100 131 169 233 284 322 387
#     4  11  20  39  70  98 131 171 227 279 327 383
#     4  11  20  36  70  99 130 172 222 283 326 378
#     4  11  24  47  62 100 139 174 222 271 338 405
#     4  12  26  42  67  97 139 179 219 270 344 405
#
# _framework density 21.654309999999999
#
# number of rings (size 3 to 8) (size 9 to 14) (size 15 to 20)
#    0.000    1.143    5.714    2.143    2.000    0.571 
#   10.286    2.143    0.000    0.000    0.000    0.000 
#    0.000    0.000    0.000    0.000    0.000    0.000 
#
# Total GULP energy -78149.878262 kJ/mol
# GULP energy per Si atom -5582.134162 kJ/mol
# Density = 2.160502 g / cm^3
# Si number density = 21.654310 Si / 1000 Ang^3
#
#
#
# Elastic Constant Matrix: (Units=GPa)
#
#
# Indices 1 2 3 4 5 6 
#
# 1 129.4262 24.5473 19.9949 -13.1982 -7.0768 10.6239
# 2 24.5473 115.2815 17.4197 3.9044 -18.4878 19.5779
# 3 19.9949 17.4197 76.0835 11.3331 -14.7471 16.8059
# 4 -13.1982 3.9044 11.3331 25.8889 -5.4678 -2.8813
# 5 -7.0768 -18.4878 -14.7471 -5.4678 28.0846 -3.0521
# 6 10.6239 19.5779 16.8059 -2.8813 -3.0521 34.9573
#
#
#
# Elastic Compliance Matrix: (Units=1/GPa)
#
#
# Indices 1 2 3 4 5 6 
#
# 1 0.009161 -0.001588 -0.002807 0.006365 0.001036 0.000069
# 2 -0.001588 0.010912 0.000643 -0.002066 0.006113 -0.005575
# 3 -0.002807 0.000643 0.018227 -0.009050 0.006608 -0.008439
# 4 0.006365 -0.002066 -0.009050 0.048258 0.005762 0.008054
# 5 0.001036 0.006113 0.006608 0.005762 0.044203 -0.002581
# 6 0.000069 -0.005575 -0.008439 0.008054 -0.002581 0.036203
#
#
# Mechanical properties :
#
#
# Convention : Reuss Voigt Hill
#
# Bulk Modulus (GPa) = 32.47084 49.41279 40.94182
# Shear Modulus (GPa) = 27.06606 35.04146 31.05376
#
# Velocity S-wave (km/s) = 3.53925 4.02708 3.79102
# Velocity P-wave (km/s) = 5.63288 6.67020 6.17337
#
# Compressibility (1/GPa) = 0.03079686
#
# Stress axis : x y z
#
# Youngs Moduli (GPa) = 109.15612 91.63886 54.86450
#
# Poissons Ratio (x) = 0.14551 0.15399
# Poissons Ratio (y) = 0.17332 -0.03526
# Poissons Ratio (z) = 0.30636 -0.05890
#
# Static dielectric constant tensor:
#      x y z
#    x 1.854910 -0.058260 0.014660 
#    y -0.058260 1.811960 -0.018130 
#    z 0.014660 -0.018130 1.842680 
# 
# From -- ./inp_files/263712.got.cif
#   From: 2010.05.17/outbox.cif.g08.bks.cpg/sg2_132_cif.got.tgz:263712.got - 2010.06.03 11:33:40.
