data_PCOD9016961
_publ_section_title
;
Structure prediction by ZEFSAII (Michael W. Deem and Ramdas Pophale) SiO2 
 PCOD9016961
Probable space group: P -1
;
_chemical_formula_sum "Si O2"
_cell_formula_units_Z 11
_cell_length_a 10.716766
_cell_length_b 12.318492
_cell_length_c 9.165289
_cell_angle_alpha 30.635127
_cell_angle_beta 133.069068
_cell_angle_gamma 142.670074
_cell_volume 373.876842
_symmetry_space_group_name_H-M "P -1"
_symmetry_group_IT_number 2
_symmetry_cell_setting 'triclinic'
loop_
_space_group_symop_operation_xyz
x,y,z
-x,-y,-z
loop_
_atom_site_type_symbol
_atom_site_label
_atom_site_fract_x
_atom_site_fract_y
_atom_site_fract_z
Si Si1 0.704440 0.695775 0.135331
Si Si2 0.703427 0.498344 0.652262
Si Si3 0.000000 0.000000 0.500000
Si Si4 0.193520 0.763030 0.415974
Si Si5 0.338898 0.922066 0.681478
Si Si6 0.754690 0.662273 0.876300
O O1 0.751186 0.549013 0.460341
O O2 0.458297 0.577920 0.075377
O O3 0.737345 0.655389 0.041557
O O4 0.821383 0.996334 0.909534
O O5 0.500000 0.500000 0.500000
O O6 0.867154 0.754522 0.568447
O O7 0.681508 0.258993 0.994027
O O8 0.980132 0.781001 0.862440
O O9 0.225480 0.779968 0.601259
O O10 0.000000 0.500000 0.500000
O O11 0.423487 0.869443 0.414497
O O12 0.251390 0.091790 0.472922
#
# Coordination Sequence:
#
# PCOD9016961 Si02
#       6
#     2   2   1   2   2   2
#     4  10  22  47  69 101 145 186 230 289 371 414
#     4  12  24  44  69 104 145 188 229 299 366 419
#     4  12  26  44  72 100 144 190 242 296 348 426
#     4  10  21  42  70 105 145 190 238 292 356 429
#     4  10  23  42  68 105 148 183 239 298 352 426
#     4  10  23  47  72 102 142 195 240 294 354 423
#
# _framework density 29.421457
#
# number of rings (size 3 to 8) (size 9 to 14) (size 15 to 20)
#    0.000    1.455    3.636    0.000    2.545    2.182 
#    6.545    0.000    0.000    1.091    0.000    0.000 
#    0.000    0.000    0.000    0.000    0.000    0.000 
#
# Total GULP energy -61504.324060 kJ/mol
# GULP energy per Si atom -5591.302187 kJ/mol
# Density = 2.935449 g / cm^3
# Si number density = 29.421457 Si / 1000 Ang^3
#
#
#
# Elastic Constant Matrix: (Units=GPa)
#
#
# Indices 1 2 3 4 5 6 
#
# 1 93.0338 31.5491 48.5691 6.8964 -5.4164 8.8532
# 2 31.5491 220.0996 109.5773 -34.7617 -2.2703 -23.5294
# 3 48.5691 109.5773 304.7771 6.6176 -16.2904 -16.3706
# 4 6.8964 -34.7617 6.6176 70.0975 -4.0171 -17.0213
# 5 -5.4164 -2.2703 -16.2904 -4.0171 50.6807 17.2819
# 6 8.8532 -23.5294 -16.3706 -17.0213 17.2819 58.2813
#
#
#
# Elastic Compliance Matrix: (Units=1/GPa)
#
#
# Indices 1 2 3 4 5 6 
#
# 1 0.013053 -0.002224 -0.001351 -0.003320 0.002270 -0.004902
# 2 -0.002224 0.007232 -0.002202 0.005038 -0.001806 0.004646
# 3 -0.001351 -0.002202 0.004367 -0.001352 0.001116 -0.000183
# 4 -0.003320 0.005038 -0.001352 0.019126 -0.001878 0.008301
# 5 0.002270 -0.001806 0.001116 -0.001878 0.022861 -0.008088
# 6 -0.004902 0.004646 -0.000183 0.008301 -0.008088 0.024550
#
#
# Mechanical properties :
#
#
# Convention : Reuss Voigt Hill
#
# Bulk Modulus (GPa) = 76.33947 110.81129 93.57538
# Shear Modulus (GPa) = 46.68166 64.35958 55.52062
#
# Velocity S-wave (km/s) = 3.98760 4.68215 4.34877
# Velocity P-wave (km/s) = 6.87055 8.18384 7.55578
#
# Compressibility (1/GPa) = 0.01309938
#
# Stress axis : x y z
#
# Youngs Moduli (GPa) = 76.61293 138.27048 228.97605
#
# Poissons Ratio (x) = 0.30745 0.30924
# Poissons Ratio (y) = 0.17035 0.50426
# Poissons Ratio (z) = 0.10347 0.30451
#
# Static dielectric constant tensor:
#      x y z
#    x 0.813720 -0.367290 1.511550 
#    y -0.367290 2.193440 0.389850 
#    z 1.511550 0.389850 1.344130 
# 
# From -- ./inp_files/151851.got.cif
#   From: 2010.05.17/outbox.cif.g08.bks.cpg/sg2_76_cif.got.tgz:151851.got - 2010.06.03 11:33:40.
