data_PCOD9016198
_publ_section_title
;
Structure prediction by ZEFSAII (Michael W. Deem and Ramdas Pophale) SiO2 
 PCOD9016198
Probable space group: P -1
;
_chemical_formula_sum "Si O2"
_cell_formula_units_Z 16
_cell_length_a 13.157283
_cell_length_b 8.073040
_cell_length_c 10.565165
_cell_angle_alpha 68.278144
_cell_angle_beta 137.247347
_cell_angle_gamma 120.837705
_cell_volume 654.064637
_symmetry_space_group_name_H-M "P -1"
_symmetry_group_IT_number 2
_symmetry_cell_setting 'triclinic'
loop_
_space_group_symop_operation_xyz
x,y,z
-x,-y,-z
loop_
_atom_site_type_symbol
_atom_site_label
_atom_site_fract_x
_atom_site_fract_y
_atom_site_fract_z
Si Si1 0.642254 0.812267 0.541995
Si Si2 0.379938 0.525637 0.777242
Si Si3 0.270327 0.541496 0.312307
Si Si4 0.083853 0.289733 0.739927
Si Si5 0.802773 0.378832 0.056283
Si Si6 0.252982 0.774037 0.464320
Si Si7 0.116965 0.969054 0.723040
Si Si8 0.431001 0.204087 0.797462
O O1 0.463106 0.672386 0.457463
O O2 0.746522 0.679525 0.660957
O O3 0.624165 0.884661 0.364047
O O4 0.703512 0.013792 0.615061
O O5 0.200530 0.414573 0.700489
O O6 0.391116 0.731883 0.681688
O O7 0.410197 0.409179 0.720267
O O8 0.500000 0.500000 0.000000
O O9 0.203581 0.613696 0.353264
O O10 0.205910 0.599587 0.107668
O O11 0.147295 0.415176 0.888323
O O12 0.093070 0.080678 0.793474
O O13 0.898305 0.261347 0.571549
O O14 0.905862 0.250893 0.219844
O O15 0.619618 0.257091 0.973639
O O16 0.302960 0.082478 0.817539
O O17 0.000000 0.000000 0.500000
#
# Coordination Sequence:
#
# PCOD9016198 Si02
#       8
#     2   2   2   2   2   2   2   2
#     4  10  22  42  72 100 133 180 234 283 339 406
#     4  11  23  40  69 103 139 175 227 282 344 413
#     4  10  24  46  69  99 136 184 237 281 333 411
#     4  11  27  42  67 102 141 181 224 280 347 416
#     4  11  25  45  69  97 137 183 229 284 338 400
#     4  12  25  43  71 100 139 185 226 281 355 402
#     4  11  26  41  67 103 139 176 228 283 351 414
#     4  10  21  42  66  99 137 174 225 289 338 405
#
# _framework density 24.462415
#
# number of rings (size 3 to 8) (size 9 to 14) (size 15 to 20)
#    0.000    1.250    2.500    1.875    7.000    6.500 
#    0.000    1.250    0.000    0.000    0.000    0.000 
#    0.000    0.000    0.000    0.000    0.000    0.000 
#
# Total GULP energy -89449.537183 kJ/mol
# GULP energy per Si atom -5590.596074 kJ/mol
# Density = 2.440674 g / cm^3
# Si number density = 24.462415 Si / 1000 Ang^3
#
#
#
# Elastic Constant Matrix: (Units=GPa)
#
#
# Indices 1 2 3 4 5 6 
#
# 1 101.8623 46.7882 36.5066 -14.4116 15.9171 -26.6414
# 2 46.7882 154.9209 53.6045 -19.2107 11.6306 -22.2166
# 3 36.5066 53.6045 82.1379 -9.4802 2.6930 -2.5840
# 4 -14.4116 -19.2107 -9.4802 33.3278 -4.7816 8.3067
# 5 15.9171 11.6306 2.6930 -4.7816 26.4333 7.5521
# 6 -26.6414 -22.2166 -2.5840 8.3067 7.5521 26.7255
#
#
#
# Elastic Compliance Matrix: (Units=1/GPa)
#
#
# Indices 1 2 3 4 5 6 
#
# 1 0.025344 0.002905 -0.011568 -0.003044 -0.025858 0.034813
# 2 0.002905 0.011014 -0.007658 0.000584 -0.009670 0.013862
# 3 -0.011568 -0.007658 0.021637 0.004211 0.014993 -0.021352
# 4 -0.003044 0.000584 0.004211 0.036249 0.012548 -0.016954
# 5 -0.025858 -0.009670 0.014993 0.012548 0.074798 -0.057401
# 6 0.034813 0.013862 -0.021352 -0.016954 -0.057401 0.103070
#
#
# Mechanical properties :
#
#
# Convention : Reuss Voigt Hill
#
# Bulk Modulus (GPa) = 39.44620 68.07997 53.76308
# Shear Modulus (GPa) = 15.96395 30.76545 23.36470
#
# Velocity S-wave (km/s) = 2.55736 3.55020 3.09386
# Velocity P-wave (km/s) = 4.98802 6.68551 5.89815
#
# Compressibility (1/GPa) = 0.02535098
#
# Stress axis : x y z
#
# Youngs Moduli (GPa) = 39.45717 90.79614 46.21740
#
# Poissons Ratio (x) = -0.26375 0.53466
# Poissons Ratio (y) = -0.11462 0.35395
# Poissons Ratio (z) = 0.45645 0.69534
#
# Static dielectric constant tensor:
#      x y z
#    x 1.935890 0.000910 -0.003110 
#    y 0.000910 2.011780 0.014440 
#    z -0.003110 0.014440 1.965500 
# 
# From -- ./inp_files/447000.got.cif
#   From: 2010.05.17/outbox.cif.g08.bks.cpg/sg2_224_cif.got.tgz:447000.got - 2010.06.03 11:33:40.
