data_PCOD9016035
_publ_section_title
;
Structure prediction by ZEFSAII (Michael W. Deem and Ramdas Pophale) SiO2 
 PCOD9016035
Probable space group: P -1
;
_chemical_formula_sum "Si O2"
_cell_formula_units_Z 16
_cell_length_a 10.976755
_cell_length_b 12.227064
_cell_length_c 6.562820
_cell_angle_alpha 88.287078
_cell_angle_beta 58.055203
_cell_angle_gamma 64.885248
_cell_volume 654.680230
_symmetry_space_group_name_H-M "P -1"
_symmetry_group_IT_number 2
_symmetry_cell_setting 'triclinic'
loop_
_space_group_symop_operation_xyz
x,y,z
-x,-y,-z
loop_
_atom_site_type_symbol
_atom_site_label
_atom_site_fract_x
_atom_site_fract_y
_atom_site_fract_z
Si Si1 0.347783 0.617554 0.889392
Si Si2 0.280989 0.292503 0.164371
Si Si3 0.725753 0.473968 0.645923
Si Si4 0.418098 0.908396 0.848140
Si Si5 0.614431 0.852308 0.298655
Si Si6 0.889690 0.098650 0.921968
Si Si7 0.111953 0.197600 0.622307
Si Si8 0.105898 0.571317 0.906280
O O1 0.542470 0.559567 0.714033
O O2 0.243083 0.759662 0.895631
O O3 0.288475 0.528096 0.836485
O O4 0.297304 0.616345 0.170539
O O5 0.229835 0.430489 0.279233
O O6 0.460042 0.200457 0.106090
O O7 0.167071 0.243795 0.374293
O O8 0.295043 0.269865 0.912258
O O9 0.861061 0.406835 0.357506
O O10 0.473173 0.858244 0.569159
O O11 0.232579 0.945523 0.059643
O O12 0.436055 0.033110 0.818421
O O13 0.734428 0.865648 0.355968
O O14 0.019156 0.118760 0.671693
O O15 0.000000 0.000000 0.000000
O O16 0.994320 0.315138 0.858628
O O17 0.000000 0.500000 0.000000
#
# Coordination Sequence:
#
# PCOD9016035 Si02
#       8
#     2   2   2   2   2   2   2   2
#     4  10  25  43  65  98 128 173 224 265 320 393
#     4  11  22  40  67  95 129 168 215 269 320 383
#     4  11  23  44  67  95 135 171 220 271 317 393
#     4  10  21  42  66  92 128 168 224 261 319 390
#     4  10  22  40  67  94 126 171 217 270 317 382
#     4  11  21  44  69  90 133 173 209 276 327 380
#     4  10  23  40  62  97 128 167 219 258 326 397
#     4  11  23  41  67  94 132 177 208 266 336 379
#
# _framework density 24.439415
#
# number of rings (size 3 to 8) (size 9 to 14) (size 15 to 20)
#    0.000    1.500    3.750    0.750    1.750    2.500 
#    9.000    1.875    0.000    0.000    0.000    0.000 
#    0.000    0.000    0.000    0.000    0.000    0.000 
#
# Total GULP energy -89334.622264 kJ/mol
# GULP energy per Si atom -5583.413892 kJ/mol
# Density = 2.438379 g / cm^3
# Si number density = 24.439415 Si / 1000 Ang^3
#
#
#
# Elastic Constant Matrix: (Units=GPa)
#
#
# Indices 1 2 3 4 5 6 
#
# 1 97.5610 27.7630 31.5929 -10.2058 -21.8003 0.7202
# 2 27.7630 79.5285 16.3531 -8.0437 -6.6574 -12.6730
# 3 31.5929 16.3531 133.9049 6.7159 -14.1517 11.0416
# 4 -10.2058 -8.0437 6.7159 26.5507 8.9655 -1.1281
# 5 -21.8003 -6.6574 -14.1517 8.9655 36.2420 -8.0909
# 6 0.7202 -12.6730 11.0416 -1.1281 -8.0909 42.5100
#
#
#
# Elastic Compliance Matrix: (Units=1/GPa)
#
#
# Indices 1 2 3 4 5 6 
#
# 1 0.013622 -0.003386 -0.002344 0.002766 0.006107 0.000604
# 2 -0.003386 0.015354 -0.001666 0.003878 0.000342 0.005236
# 3 -0.002344 -0.001666 0.008902 -0.004551 0.002340 -0.002444
# 4 0.002766 0.003878 -0.004551 0.044519 -0.010066 0.001557
# 5 0.006107 0.000342 0.002340 -0.010066 0.036070 0.005989
# 6 0.000604 0.005236 -0.002444 0.001557 0.005989 0.026891
#
#
# Mechanical properties :
#
#
# Convention : Reuss Voigt Hill
#
# Bulk Modulus (GPa) = 43.31655 51.37918 47.34786
# Shear Modulus (GPa) = 29.78959 36.74625 33.26792
#
# Velocity S-wave (km/s) = 3.49508 3.88179 3.69350
# Velocity P-wave (km/s) = 5.83524 6.41559 6.13228
#
# Compressibility (1/GPa) = 0.02308587
#
# Stress axis : x y z
#
# Youngs Moduli (GPa) = 73.40981 65.12938 112.33975
#
# Poissons Ratio (x) = 0.22054 0.26327
# Poissons Ratio (y) = 0.24858 0.18719
# Poissons Ratio (z) = 0.17204 0.10852
#
# Static dielectric constant tensor:
#      x y z
#    x 2.058310 -0.032840 -0.016730 
#    y -0.032840 2.025490 -0.004040 
#    z -0.016730 -0.004040 1.923700 
# 
# From -- ./inp_files/77778.got.cif
#   From: 2010.05.17/outbox.cif.g08.bks.cpg/sg2_39_cif.got.tgz:77778.got - 2010.06.03 11:33:40.
