data_PCOD9016677
_publ_section_title
;
Structure prediction by ZEFSAII (Michael W. Deem and Ramdas Pophale) SiO2 
 PCOD9016677
Probable space group: P -1
;
_chemical_formula_sum "Si O2"
_cell_formula_units_Z 16
_cell_length_a 14.829586
_cell_length_b 8.666721
_cell_length_c 8.191972
_cell_angle_alpha 128.770670
_cell_angle_beta 101.018828
_cell_angle_gamma 108.334182
_cell_volume 663.464388
_symmetry_space_group_name_H-M "P -1"
_symmetry_group_IT_number 2
_symmetry_cell_setting 'triclinic'
loop_
_space_group_symop_operation_xyz
x,y,z
-x,-y,-z
loop_
_atom_site_type_symbol
_atom_site_label
_atom_site_fract_x
_atom_site_fract_y
_atom_site_fract_z
Si Si1 0.023574 0.006587 0.273092
Si Si2 0.977272 0.622954 0.263171
Si Si3 0.731405 0.070512 0.220375
Si Si4 0.494382 0.433571 0.141111
Si Si5 0.816760 0.343437 0.740856
Si Si6 0.648791 0.378112 0.360233
Si Si7 0.173261 0.138265 0.097203
Si Si8 0.570635 0.219926 0.547643
O O1 0.041629 0.255120 0.507640
O O2 0.102924 0.054348 0.182162
O O3 0.035467 0.859698 0.321234
O O4 0.897786 0.829511 0.041746
O O5 0.062599 0.540712 0.241902
O O6 0.867538 0.415496 0.989119
O O7 0.759766 0.104572 0.446563
O O8 0.730243 0.294548 0.307606
O O9 0.612776 0.820524 0.009704
O O10 0.809073 0.045864 0.108540
O O11 0.599184 0.429755 0.225597
O O12 0.480542 0.625721 0.350737
O O13 0.500000 0.500000 0.000000
O O14 0.703264 0.342353 0.711279
O O15 0.712748 0.620812 0.649779
O O16 0.559719 0.170565 0.316761
O O17 0.500000 0.000000 0.500000
#
# Coordination Sequence:
#
# PCOD9016677 Si02
#       8
#     2   2   2   2   2   2   2   2
#     4  10  22  41  67 101 138 189 241 297 362 441
#     4  10  21  42  68  98 144 188 243 303 358 427
#     4  11  23  44  73 104 146 191 235 303 364 435
#     4  12  26  46  72 104 141 193 246 302 367 440
#     4  10  22  41  67 103 142 190 241 301 359 424
#     4  11  25  48  70 104 148 192 241 305 365 437
#     4  11  23  44  70 104 143 189 240 300 373 434
#     4  11  24  44  72 105 147 193 243 302 362 442
#
# _framework density 24.115841
#
# number of rings (size 3 to 8) (size 9 to 14) (size 15 to 20)
#    0.000    1.250    2.500    3.750    0.000    3.000 
#    6.750    1.875    0.000    0.000    0.000    0.000 
#    0.000    0.000    0.000    0.000    0.000    0.000 
#
# Total GULP energy -89100.724749 kJ/mol
# GULP energy per Si atom -5568.795297 kJ/mol
# Density = 2.406095 g / cm^3
# Si number density = 24.115841 Si / 1000 Ang^3
#
#
#
# Elastic Constant Matrix: (Units=GPa)
#
#
# Indices 1 2 3 4 5 6 
#
# 1 118.3751 45.7365 27.8845 -11.3350 -23.9235 -15.2028
# 2 45.7365 87.3699 28.2816 -16.7606 1.3288 -7.8671
# 3 27.8845 28.2816 81.0522 0.7819 -5.6111 -16.5847
# 4 -11.3350 -16.7606 0.7819 24.6546 -7.6667 -0.4555
# 5 -23.9235 1.3288 -5.6111 -7.6667 42.6677 0.8356
# 6 -15.2028 -7.8671 -16.5847 -0.4555 0.8356 42.8931
#
#
#
# Elastic Compliance Matrix: (Units=1/GPa)
#
#
# Indices 1 2 3 4 5 6 
#
# 1 0.013510 -0.005393 -0.001606 0.005271 0.008419 0.003070
# 2 -0.005393 0.017420 -0.004555 0.008694 -0.002597 -0.000335
# 3 -0.001606 -0.004555 0.015477 -0.004102 0.000451 0.004527
# 4 0.005271 0.008694 -0.004102 0.052661 0.011564 0.002211
# 5 0.008419 -0.002597 0.000451 0.011564 0.030332 0.002214
# 6 0.003070 -0.000335 0.004527 0.002211 0.002214 0.026071
#
#
# Mechanical properties :
#
#
# Convention : Reuss Voigt Hill
#
# Bulk Modulus (GPa) = 42.92020 54.51137 48.71578
# Shear Modulus (GPa) = 26.83178 34.36940 30.60059
#
# Velocity S-wave (km/s) = 3.33922 3.77925 3.56603
# Velocity P-wave (km/s) = 5.71868 6.45730 6.09918
#
# Compressibility (1/GPa) = 0.02329905
#
# Stress axis : x y z
#
# Youngs Moduli (GPa) = 74.01877 57.40399 64.61269
#
# Poissons Ratio (x) = 0.30957 0.10376
# Poissons Ratio (y) = 0.39918 0.29433
# Poissons Ratio (z) = 0.11887 0.26149
#
# Static dielectric constant tensor:
#      x y z
#    x 2.250530 -0.123220 -0.110480 
#    y -0.123220 2.033410 0.088910 
#    z -0.110480 0.088910 2.070210 
# 
# From -- ./inp_files/299781.got.cif
#   From: 2010.05.17/outbox.cif.g08.bks.cpg/sg2_150_cif.got.tgz:299781.got - 2010.06.03 11:33:40.
