data_PCOD9016373
_publ_section_title
;
Structure prediction by ZEFSAII (Michael W. Deem and Ramdas Pophale) SiO2 
 PCOD9016373
Probable space group: P -1
;
_chemical_formula_sum "Si O2"
_cell_formula_units_Z 14
_cell_length_a 5.727974
_cell_length_b 15.019472
_cell_length_c 8.421082
_cell_angle_alpha 84.145471
_cell_angle_beta 59.203166
_cell_angle_gamma 90.050964
_cell_volume 617.872716
_symmetry_space_group_name_H-M "P -1"
_symmetry_group_IT_number 2
_symmetry_cell_setting 'triclinic'
loop_
_space_group_symop_operation_xyz
x,y,z
-x,-y,-z
loop_
_atom_site_type_symbol
_atom_site_label
_atom_site_fract_x
_atom_site_fract_y
_atom_site_fract_z
Si Si1 0.907849 0.958818 0.371817
Si Si2 0.377747 0.869941 0.556433
Si Si3 0.867288 0.770781 0.904660
Si Si4 0.617769 0.143758 0.824728
Si Si5 0.530048 0.601471 0.906208
Si Si6 0.958139 0.299003 0.824909
Si Si7 0.260692 0.448050 0.490892
O O1 0.693336 0.874186 0.497768
O O2 0.166957 0.929202 0.190797
O O3 0.739988 0.038813 0.346608
O O4 0.000000 0.000000 0.500000
O O5 0.410715 0.869458 0.353077
O O6 0.148357 0.796949 0.710614
O O7 0.737680 0.674692 0.906383
O O8 0.641746 0.846451 0.971382
O O9 0.913741 0.762476 0.078218
O O10 0.779586 0.239704 0.774688
O O11 0.609121 0.593558 0.699779
O O12 0.500000 0.500000 0.000000
O O13 0.241167 0.641650 0.018186
O O14 0.158299 0.367320 0.653075
O O15 0.500000 0.500000 0.500000
O O16 0.000000 0.500000 0.500000
#
# Coordination Sequence:
#
# PCOD9016373 Si02
#       7
#     2   2   2   2   2   2   2
#     4   9  20  40  67  94 132 176 221 280 341 418
#     4  10  21  42  67  95 133 177 225 280 346 406
#     4  11  25  40  68  99 134 179 230 286 343 411
#     4  10  22  42  63  96 135 173 227 279 344 411
#     4  11  24  45  67  96 135 176 229 283 344 410
#     4  11  25  42  66  96 135 176 226 287 344 414
#     4  12  27  45  72 100 134 184 232 290 355 419
#
# _framework density 22.658387999999999
#
# number of rings (size 3 to 8) (size 9 to 14) (size 15 to 20)
#    0.000    1.429    1.429    2.571    4.000    8.571 
#    0.000   10.000    0.000    0.000    0.000    0.000 
#    0.000    0.000    0.000    0.000    0.000    0.000 
#
# Total GULP energy -78104.616075 kJ/mol
# GULP energy per Si atom -5578.901148 kJ/mol
# Density = 2.260682 g / cm^3
# Si number density = 22.658388 Si / 1000 Ang^3
#
#
#
# Elastic Constant Matrix: (Units=GPa)
#
#
# Indices 1 2 3 4 5 6 
#
# 1 82.6330 20.7718 29.1139 10.0417 -4.8745 24.9867
# 2 20.7718 74.4635 25.6769 17.1016 -11.1983 14.7334
# 3 29.1139 25.6769 99.1595 15.6669 -2.5175 22.1351
# 4 10.0417 17.1016 15.6669 46.3217 1.6553 -8.9346
# 5 -4.8745 -11.1983 -2.5175 1.6553 25.2155 4.7256
# 6 24.9867 14.7334 22.1351 -8.9346 4.7256 42.4123
#
#
#
# Elastic Compliance Matrix: (Units=1/GPa)
#
#
# Indices 1 2 3 4 5 6 
#
# 1 0.016942 0.000079 -0.001530 -0.005504 0.005579 -0.010992
# 2 0.000079 0.019318 -0.001315 -0.008851 0.010756 -0.009134
# 3 -0.001530 -0.001315 0.013258 -0.005063 0.002061 -0.006857
# 4 -0.005504 -0.008851 -0.005063 0.031377 -0.010701 0.016762
# 5 0.005579 0.010756 0.002061 -0.010701 0.049394 -0.015857
# 6 -0.010992 -0.009134 -0.006857 0.016762 -0.015857 0.042103
#
#
# Mechanical properties :
#
#
# Convention : Reuss Voigt Hill
#
# Bulk Modulus (GPa) = 22.73431 45.26457 33.99944
# Shear Modulus (GPa) = 25.96243 34.83614 30.39928
#
# Velocity S-wave (km/s) = 3.38867 3.92529 3.66681
# Velocity P-wave (km/s) = 5.03647 6.36900 5.74152
#
# Compressibility (1/GPa) = 0.04398638
#
# Stress axis : x y z
#
# Youngs Moduli (GPa) = 59.02338 51.76413 75.42891
#
# Poissons Ratio (x) = -0.00411 0.11541
# Poissons Ratio (y) = -0.00468 0.09921
# Poissons Ratio (z) = 0.09031 0.06808
#
# Static dielectric constant tensor:
#      x y z
#    x 1.976610 -0.068460 -0.047710 
#    y -0.068460 1.866880 -0.001160 
#    z -0.047710 -0.001160 1.793060 
# 
# From -- ./inp_files/44468.got.cif
#   From: 2010.05.17/outbox.cif.g08.bks.cpg/sg2_23_cif.got.tgz:44468.got - 2010.06.03 11:33:40.
