data_PCOD9016464
_publ_section_title
;
Structure prediction by ZEFSAII (Michael W. Deem and Ramdas Pophale) SiO2 
 PCOD9016464
Probable space group: P -1
;
_chemical_formula_sum "Si O2"
_cell_formula_units_Z 16
_cell_length_a 8.927041
_cell_length_b 7.161882
_cell_length_c 14.761375
_cell_angle_alpha 125.383021
_cell_angle_beta 112.096730
_cell_angle_gamma 55.922465
_cell_volume 635.445060
_symmetry_space_group_name_H-M "P -1"
_symmetry_group_IT_number 2
_symmetry_cell_setting 'triclinic'
loop_
_space_group_symop_operation_xyz
x,y,z
-x,-y,-z
loop_
_atom_site_type_symbol
_atom_site_label
_atom_site_fract_x
_atom_site_fract_y
_atom_site_fract_z
Si Si1 0.047363 0.771450 0.824431
Si Si2 0.666683 0.829644 0.759356
Si Si3 0.422307 0.159161 0.936660
Si Si4 0.154949 0.941028 0.736987
Si Si5 0.792313 0.080671 0.456852
Si Si6 0.536326 0.902693 0.378126
Si Si7 0.274463 0.686126 0.301030
Si Si8 0.103252 0.626366 0.998950
O O1 0.865764 0.760900 0.752163
O O2 0.103251 0.615297 0.886213
O O3 0.175817 0.728165 0.756126
O O4 0.989918 0.071812 0.917544
O O5 0.681648 0.608552 0.769381
O O6 0.575234 0.081859 0.872901
O O7 0.553079 0.874093 0.655083
O O8 0.271931 0.081361 0.838022
O O9 0.313534 0.456430 0.021767
O O10 0.500000 0.000000 0.000000
O O11 0.936796 0.133404 0.726443
O O12 0.234729 0.821365 0.624392
O O13 0.702292 0.262206 0.572799
O O14 0.744506 0.839907 0.387512
O O15 0.000000 0.000000 0.500000
O O16 0.421579 0.743457 0.297297
O O17 0.500000 0.000000 0.500000
O O18 0.000000 0.500000 0.000000
#
# Coordination Sequence:
#
# PCOD9016464 Si02
#       8
#     2   2   2   2   2   2   2   2
#     4  11  25  43  75 100 130 190 237 285 363 420
#     4  12  25  44  66 106 138 181 238 284 359 420
#     4  12  27  43  68  99 147 182 232 296 347 416
#     4  11  21  45  69 103 137 183 238 289 350 421
#     4   9  20  41  72 100 141 181 228 291 350 418
#     4  10  21  42  68 100 136 181 231 285 351 422
#     4  10  23  44  75  96 142 189 229 295 354 420
#     4  11  24  48  72  96 139 184 237 296 351 415
#
# _framework density 25.179200999999999
#
# number of rings (size 3 to 8) (size 9 to 14) (size 15 to 20)
#    0.000    1.250    3.750    1.500    3.500    2.500 
#    2.250    0.625    0.000    0.000    0.000    0.000 
#    0.000    0.000    0.000    0.000    0.000    0.000 
#
# Total GULP energy -89364.299476 kJ/mol
# GULP energy per Si atom -5585.268717 kJ/mol
# Density = 2.512189 g / cm^3
# Si number density = 25.179201 Si / 1000 Ang^3
#
#
#
# Elastic Constant Matrix: (Units=GPa)
#
#
# Indices 1 2 3 4 5 6 
#
# 1 126.8248 36.7596 16.7952 -7.9838 2.5535 29.2990
# 2 36.7596 115.5996 26.8802 -22.4107 -1.3247 15.4882
# 3 16.7952 26.8802 119.5655 -46.6010 -12.3726 7.7437
# 4 -7.9838 -22.4107 -46.6010 40.5113 11.7571 -2.6015
# 5 2.5535 -1.3247 -12.3726 11.7571 43.2022 -2.1008
# 6 29.2990 15.4882 7.7437 -2.6015 -2.1008 42.3380
#
#
#
# Elastic Compliance Matrix: (Units=1/GPa)
#
#
# Indices 1 2 3 4 5 6 
#
# 1 0.010045 -0.002259 -0.000665 -0.000099 -0.001121 -0.006065
# 2 -0.002259 0.010742 0.000254 0.006002 -0.001200 -0.002103
# 3 -0.000665 0.000254 0.015340 0.017695 -0.000442 -0.001373
# 4 -0.000099 0.006002 0.017695 0.050684 -0.008666 -0.002679
# 5 -0.001121 -0.001200 -0.000442 -0.008666 0.025507 0.002029
# 6 -0.006065 -0.002103 -0.001373 -0.002679 0.002029 0.028773
#
#
# Mechanical properties :
#
#
# Convention : Reuss Voigt Hill
#
# Bulk Modulus (GPa) = 32.48180 58.09555 45.28867
# Shear Modulus (GPa) = 31.90948 43.98061 37.94505
#
# Velocity S-wave (km/s) = 3.56377 4.18389 3.88622
# Velocity P-wave (km/s) = 5.46463 6.81637 6.17758
#
# Compressibility (1/GPa) = 0.03078647
#
# Stress axis : x y z
#
# Youngs Moduli (GPa) = 99.54919 93.09625 65.18920
#
# Poissons Ratio (x) = 0.21031 0.04335
# Poissons Ratio (y) = 0.22489 -0.01655
# Poissons Ratio (z) = 0.06620 -0.02364
#
# Static dielectric constant tensor:
#      x y z
#    x 2.057890 -0.085670 0.038330 
#    y -0.085670 2.239410 -0.137760 
#    z 0.038330 -0.137760 2.313050 
# 
# From -- ./inp_files/488575.got.cif
#   From: 2010.05.17/outbox.cif.g08.bks.cpg/sg2_245_cif.got.tgz:488575.got - 2010.06.03 11:33:40.
