data_PCOD9016112
_publ_section_title
;
Structure prediction by ZEFSAII (Michael W. Deem and Ramdas Pophale) SiO2 
 PCOD9016112
Probable space group: P -1
;
_chemical_formula_sum "Si O2"
_cell_formula_units_Z 16
_cell_length_a 9.304919
_cell_length_b 15.014266
_cell_length_c 11.325565
_cell_angle_alpha 139.859368
_cell_angle_beta 112.222603
_cell_angle_gamma 50.485103
_cell_volume 768.057304
_symmetry_space_group_name_H-M "P -1"
_symmetry_group_IT_number 2
_symmetry_cell_setting 'triclinic'
loop_
_space_group_symop_operation_xyz
x,y,z
-x,-y,-z
loop_
_atom_site_type_symbol
_atom_site_label
_atom_site_fract_x
_atom_site_fract_y
_atom_site_fract_z
Si Si1 0.045238 0.358042 0.652991
Si Si2 0.522334 0.410286 0.646058
Si Si3 0.602906 0.656358 0.229059
Si Si4 0.207530 0.007108 0.458430
Si Si5 0.135442 0.989916 0.684799
Si Si6 0.674270 0.624252 0.939832
Si Si7 0.663600 0.855769 0.988694
Si Si8 0.829839 0.523860 0.546001
O O1 0.199088 0.394133 0.704858
O O2 0.895252 0.490367 0.836726
O O3 0.926410 0.370927 0.515317
O O4 0.168603 0.171740 0.554363
O O5 0.472319 0.420912 0.781391
O O6 0.569122 0.545146 0.771320
O O7 0.343337 0.449019 0.554264
O O8 0.705107 0.215971 0.478039
O O9 0.427150 0.854088 0.377587
O O10 0.647276 0.621242 0.068308
O O11 0.073209 0.963886 0.307590
O O12 0.129630 0.051059 0.611886
O O13 0.202527 0.083427 0.878555
O O14 0.608005 0.802951 0.039795
O O15 0.757566 0.686109 0.769942
O O16 0.500000 0.000000 0.000000
O O17 0.000000 0.500000 0.500000
#
# Coordination Sequence:
#
# PCOD9016112 Si02
#       8
#     2   2   2   2   2   2   2   2
#     4  11  22  41  66  98 132 174 213 272 324 395
#     4  11  22  44  70  93 136 175 215 271 323 394
#     4  11  23  40  67  99 136 171 213 277 326 383
#     4  10  22  39  66  97 130 174 216 267 325 384
#     4  10  21  42  66  95 133 170 218 265 326 388
#     4  11  25  41  65 105 130 169 222 269 331 388
#     4  11  24  42  69  93 132 176 215 271 324 390
#     4  11  24  42  65  97 129 172 216 264 329 385
#
# _framework density 20.831776999999999
#
# number of rings (size 3 to 8) (size 9 to 14) (size 15 to 20)
#    0.000    1.250    3.750    1.875    0.000    7.000 
#    0.000    0.000    0.000    3.000    0.000    0.000 
#    0.000    0.000    0.000    0.000    0.000    0.000 
#
# Total GULP energy -89291.317804 kJ/mol
# GULP energy per Si atom -5580.707363 kJ/mol
# Density = 2.078436 g / cm^3
# Si number density = 20.831777 Si / 1000 Ang^3
#
#
#
# Elastic Constant Matrix: (Units=GPa)
#
#
# Indices 1 2 3 4 5 6 
#
# 1 56.2734 2.9939 22.8622 7.9751 -9.5236 -3.7253
# 2 2.9939 82.5712 10.9640 -4.5873 -2.9427 -5.6849
# 3 22.8622 10.9640 32.7979 -13.0403 9.3900 -4.9752
# 4 7.9751 -4.5873 -13.0403 27.0458 -0.1045 5.8729
# 5 -9.5236 -2.9427 9.3900 -0.1045 32.5946 -2.4375
# 6 -3.7253 -5.6849 -4.9752 5.8729 -2.4375 28.3282
#
#
#
# Elastic Compliance Matrix: (Units=1/GPa)
#
#
# Indices 1 2 3 4 5 6 
#
# 1 0.076679 0.009041 -0.097465 -0.070901 0.052116 0.013964
# 2 0.009041 0.014060 -0.016598 -0.009063 0.008944 0.003744
# 3 -0.097465 -0.016598 0.167988 0.110154 -0.079237 -0.016299
# 4 -0.070901 -0.009063 0.110154 0.113594 -0.054402 -0.020027
# 5 0.052116 0.008944 -0.079237 -0.054402 0.070269 0.012057
# 6 0.013964 0.003744 -0.016299 -0.020027 0.012057 0.040215
#
#
# Mechanical properties :
#
#
# Convention : Reuss Voigt Hill
#
# Bulk Modulus (GPa) = 20.54149 27.25365 23.89757
# Shear Modulus (GPa) = 7.05142 26.58188 16.81665
#
# Velocity S-wave (km/s) = 1.84181 3.57603 2.84431
# Velocity P-wave (km/s) = 3.79541 5.49197 4.72053
#
# Compressibility (1/GPa) = 0.04868195
#
# Stress axis : x y z
#
# Youngs Moduli (GPa) = 13.04134 71.12422 5.95282
#
# Poissons Ratio (x) = -0.64305 0.58019
# Poissons Ratio (y) = -0.11791 0.09881
# Poissons Ratio (z) = 1.27108 1.18054
#
# Static dielectric constant tensor:
#      x y z
#    x 1.767080 0.009620 0.010790 
#    y 0.009620 1.815440 -0.011520 
#    z 0.010790 -0.011520 1.764230 
# 
# From -- ./inp_files/176044.got.cif
#   From: 2010.05.17/outbox.cif.g08.bks.cpg/sg2_89_cif.got.tgz:176044.got - 2010.06.03 11:33:40.
