data_PCOD9016193
_publ_section_title
;
Structure prediction by ZEFSAII (Michael W. Deem and Ramdas Pophale) SiO2 
 PCOD9016193
Probable space group: P -1
;
_chemical_formula_sum "Si O2"
_cell_formula_units_Z 12
_cell_length_a 9.291389
_cell_length_b 5.153249
_cell_length_c 14.528614
_cell_angle_alpha 117.937762
_cell_angle_beta 127.343978
_cell_angle_gamma 93.267768
_cell_volume 427.061421
_symmetry_space_group_name_H-M "P -1"
_symmetry_group_IT_number 2
_symmetry_cell_setting 'triclinic'
loop_
_space_group_symop_operation_xyz
x,y,z
-x,-y,-z
loop_
_atom_site_type_symbol
_atom_site_label
_atom_site_fract_x
_atom_site_fract_y
_atom_site_fract_z
Si Si1 0.045525 0.715408 0.181556
Si Si2 0.300901 0.879820 0.972644
Si Si3 0.620397 0.821213 0.479159
Si Si4 0.742335 0.001681 0.353232
Si Si5 0.746312 0.770070 0.811281
Si Si6 0.166004 0.566225 0.700995
O O1 0.159458 0.996014 0.353938
O O2 0.150240 0.470886 0.183879
O O3 0.800981 0.469038 0.065227
O O4 0.889520 0.091177 0.857689
O O5 0.129968 0.757155 0.802832
O O6 0.500000 0.000000 0.000000
O O7 0.295957 0.134525 0.087533
O O8 0.623334 0.879276 0.381125
O O9 0.500000 0.000000 0.500000
O O10 0.529471 0.575758 0.637544
O O11 0.690496 0.167149 0.275557
O O12 0.961186 0.297724 0.524870
O O13 0.750959 0.675193 0.267954
#
# Coordination Sequence:
#
# PCOD9016193 Si02
#       6
#     2   2   2   2   2   2
#     4  11  25  49  71 102 141 192 235 288 351 423
#     4  12  26  47  72 109 144 189 236 292 357 424
#     4  10  22  43  72 102 133 183 237 287 339 420
#     4  10  21  42  66  99 132 172 227 280 341 400
#     4  11  26  46  73 102 145 184 235 291 357 421
#     4  10  23  41  67  95 135 178 218 282 344 409
#
# _framework density 28.099001999999999
#
# number of rings (size 3 to 8) (size 9 to 14) (size 15 to 20)
#    0.000    1.333    1.667    2.500    0.000   10.667 
#    0.000    6.667    0.000    0.000    0.000    0.000 
#    0.000    0.000    0.000    0.000    0.000    0.000 
#
# Total GULP energy -67115.113837 kJ/mol
# GULP energy per Si atom -5592.926153 kJ/mol
# Density = 2.803505 g / cm^3
# Si number density = 28.099002 Si / 1000 Ang^3
#
#
#
# Elastic Constant Matrix: (Units=GPa)
#
#
# Indices 1 2 3 4 5 6 
#
# 1 178.0410 64.4629 67.4344 12.4565 -27.4759 33.5138
# 2 64.4629 134.6477 55.2285 0.3624 0.0717 24.1434
# 3 67.4344 55.2285 156.7600 33.5210 -32.9663 6.2245
# 4 12.4565 0.3624 33.5210 40.4706 10.8352 8.4783
# 5 -27.4759 0.0717 -32.9663 10.8352 59.2904 6.1972
# 6 33.5138 24.1434 6.2245 8.4783 6.1972 41.2461
#
#
#
# Elastic Compliance Matrix: (Units=1/GPa)
#
#
# Indices 1 2 3 4 5 6 
#
# 1 0.008999 -0.002612 -0.001552 -0.001342 0.004172 -0.005899
# 2 -0.002612 0.011814 -0.005617 0.007756 -0.005269 -0.004748
# 3 -0.001552 -0.005617 0.013834 -0.014222 0.009160 0.004008
# 4 -0.001342 0.007756 -0.014222 0.042607 -0.015517 -0.007730
# 5 0.004172 -0.005269 0.009160 -0.015517 0.027002 -0.002555
# 6 -0.005899 -0.004748 0.004008 -0.007730 -0.002555 0.033185
#
#
# Mechanical properties :
#
#
# Convention : Reuss Voigt Hill
#
# Bulk Modulus (GPa) = 66.29021 93.74448 80.01734
# Shear Modulus (GPa) = 30.85839 47.02296 38.94068
#
# Velocity S-wave (km/s) = 3.31751 4.09525 3.72672
# Velocity P-wave (km/s) = 6.19010 7.46968 6.85979
#
# Compressibility (1/GPa) = 0.01508518
#
# Stress axis : x y z
#
# Youngs Moduli (GPa) = 111.12878 84.64218 72.28603
#
# Poissons Ratio (x) = 0.22111 0.11219
# Poissons Ratio (y) = 0.29030 0.40600
# Poissons Ratio (z) = 0.17248 0.47540
#
# Static dielectric constant tensor:
#      x y z
#    x 2.270400 0.049390 0.123890 
#    y 0.049390 2.192870 0.056000 
#    z 0.123890 0.056000 2.294230 
# 
# From -- ./inp_files/488012.got.cif
#   From: 2010.05.17/outbox.cif.g08.bks.cpg/sg2_245_cif.got.tgz:488012.got - 2010.06.03 11:33:40.
