data_PCOD9016914
_publ_section_title
;
Structure prediction by ZEFSAII (Michael W. Deem and Ramdas Pophale) SiO2 
 PCOD9016914
Probable space group: P -1
;
_chemical_formula_sum "Si O2"
_cell_formula_units_Z 12
_cell_length_a 9.433754
_cell_length_b 19.071214
_cell_length_c 5.327349
_cell_angle_alpha 132.787691
_cell_angle_beta 106.203518
_cell_angle_gamma 49.449913
_cell_volume 511.247970
_symmetry_space_group_name_H-M "P -1"
_symmetry_group_IT_number 2
_symmetry_cell_setting 'triclinic'
loop_
_space_group_symop_operation_xyz
x,y,z
-x,-y,-z
loop_
_atom_site_type_symbol
_atom_site_label
_atom_site_fract_x
_atom_site_fract_y
_atom_site_fract_z
Si Si1 0.798779 0.528932 0.012657
Si Si2 0.941120 0.164651 0.770608
Si Si3 0.134483 0.997870 0.859227
Si Si4 0.555918 0.680033 0.762969
Si Si5 0.291840 0.635960 0.292310
Si Si6 0.381606 0.957126 0.272864
O O1 0.698897 0.606138 0.412108
O O2 0.659698 0.605514 0.890253
O O3 0.824855 0.403071 0.739542
O O4 0.000000 0.500000 0.000000
O O5 0.836851 0.104667 0.558020
O O6 0.813198 0.286503 0.829000
O O7 0.010579 0.137982 0.028935
O O8 0.160432 0.067789 0.527550
O O9 0.337130 0.951013 0.945781
O O10 0.000000 0.000000 0.000000
O O11 0.370290 0.690979 0.633587
O O12 0.489294 0.817592 0.083141
O O13 0.500000 0.500000 0.000000
O O14 0.500000 0.000000 0.500000
#
# Coordination Sequence:
#
# PCOD9016914 Si02
#       6
#     2   2   2   2   2   2
#     4  11  26  49  75 107 147 194 243 307 371 431
#     4  10  21  42  69  99 141 182 241 297 367 428
#     4   9  20  40  66  97 134 184 235 293 362 424
#     4  11  25  48  74 104 147 190 252 301 362 446
#     4  10  23  45  74 106 139 193 247 300 360 442
#     4  11  25  42  66 104 144 190 238 304 370 433
#
# _framework density 23.471979000000001
#
# number of rings (size 3 to 8) (size 9 to 14) (size 15 to 20)
#    0.000    1.667    1.667    1.000    4.667    4.667 
#   12.000    0.000    3.667    0.000    0.000    0.000 
#    0.000    0.000    0.000    0.000    0.000    0.000 
#
# Total GULP energy -66972.494135 kJ/mol
# GULP energy per Si atom -5581.041178 kJ/mol
# Density = 2.341856 g / cm^3
# Si number density = 23.471979 Si / 1000 Ang^3
#
#
#
# Elastic Constant Matrix: (Units=GPa)
#
#
# Indices 1 2 3 4 5 6 
#
# 1 156.5700 59.6018 50.3578 5.7951 41.6840 -1.5307
# 2 59.6018 251.6755 42.2355 6.1251 22.3610 34.3168
# 3 50.3578 42.2355 82.7017 9.9070 21.6715 15.3752
# 4 5.7951 6.1251 9.9070 44.6686 4.7397 1.9109
# 5 41.6840 22.3610 21.6715 4.7397 53.9174 2.2264
# 6 -1.5307 34.3168 15.3752 1.9109 2.2264 30.6067
#
#
#
# Elastic Compliance Matrix: (Units=1/GPa)
#
#
# Indices 1 2 3 4 5 6 
#
# 1 0.010119 -0.001848 -0.004857 0.000356 -0.005358 0.005386
# 2 -0.001848 0.005304 -0.000395 -0.000113 -0.000362 -0.005808
# 3 -0.004857 -0.000395 0.017826 -0.002627 -0.002668 -0.008397
# 4 0.000356 -0.000113 -0.002627 0.023062 -0.001204 0.000112
# 5 -0.005358 -0.000362 -0.002668 -0.001204 0.024025 -0.000194
# 6 0.005386 -0.005808 -0.008397 0.000112 -0.000194 0.043679
#
#
# Mechanical properties :
#
#
# Convention : Reuss Voigt Hill
#
# Bulk Modulus (GPa) = 52.50140 88.37081 70.43610
# Shear Modulus (GPa) = 34.58624 48.42201 41.50412
#
# Velocity S-wave (km/s) = 3.84280 4.54692 4.20961
# Velocity P-wave (km/s) = 6.48889 8.08067 7.32813
#
# Compressibility (1/GPa) = 0.01904711
#
# Stress axis : x y z
#
# Youngs Moduli (GPa) = 98.82763 188.52903 56.09736
#
# Poissons Ratio (x) = 0.34843 0.27249
# Poissons Ratio (y) = 0.18265 0.02217
# Poissons Ratio (z) = 0.48005 0.07452
#
# Static dielectric constant tensor:
#      x y z
#    x 1.923000 0.068300 -0.206190 
#    y 0.068300 1.979020 -0.138910 
#    z -0.206190 -0.138910 2.401210 
# 
# From -- ./inp_files/38539.got.cif
#   From: 2010.05.17/outbox.cif.g08.bks.cpg/sg2_20_cif.got.tgz:38539.got - 2010.06.03 11:33:40.
