data_PCOD9016159
_publ_section_title
;
Structure prediction by ZEFSAII (Michael W. Deem and Ramdas Pophale) SiO2 
 PCOD9016159
Probable space group: P -1
;
_chemical_formula_sum "Si O2"
_cell_formula_units_Z 14
_cell_length_a 12.211058
_cell_length_b 5.967623
_cell_length_c 24.727180
_cell_angle_alpha 118.251025
_cell_angle_beta 27.795809
_cell_angle_gamma 99.672537
_cell_volume 586.333122
_symmetry_space_group_name_H-M "P -1"
_symmetry_group_IT_number 2
_symmetry_cell_setting 'triclinic'
loop_
_space_group_symop_operation_xyz
x,y,z
-x,-y,-z
loop_
_atom_site_type_symbol
_atom_site_label
_atom_site_fract_x
_atom_site_fract_y
_atom_site_fract_z
Si Si1 0.789533 0.785239 0.583947
Si Si2 0.899558 0.869730 0.077068
Si Si3 0.805331 0.514354 0.344246
Si Si4 0.037826 0.063689 0.570883
Si Si5 0.345030 0.509747 0.122802
Si Si6 0.044101 0.869628 0.132727
Si Si7 0.416359 0.202340 0.642898
O O1 0.922124 0.708217 0.456737
O O2 0.000000 0.500000 0.500000
O O3 0.454780 0.919826 0.746213
O O4 0.822016 0.044276 0.624810
O O5 0.989102 0.949866 0.102911
O O6 0.000000 0.500000 0.000000
O O7 0.000000 0.000000 0.000000
O O8 0.623773 0.815058 0.498065
O O9 0.137508 0.410683 0.186875
O O10 0.640569 0.645277 0.373563
O O11 0.867102 0.176648 0.285580
O O12 0.383549 0.767876 0.399374
O O13 0.886359 0.159769 0.706586
O O14 0.500000 0.500000 0.000000
O O15 0.614362 0.311255 0.024225
O O16 0.900336 0.688167 0.185735
#
# Coordination Sequence:
#
# PCOD9016159 Si02
#       7
#     2   2   2   2   2   2   2
#     4  11  26  46  74 106 144 198 258 318 380 458
#     4  12  31  51  79 114 155 199 256 323 388 452
#     4  10  23  40  65  96 136 180 236 297 364 442
#     4  10  24  45  70  97 148 187 253 303 388 443
#     4  11  23  44  65 101 143 191 238 313 372 457
#     4  12  24  41  71  97 142 185 243 299 376 441
#     4  10  21  42  66  97 135 182 238 296 366 441
#
# _framework density 23.877212
#
# number of rings (size 3 to 8) (size 9 to 14) (size 15 to 20)
#    0.000    1.143    2.857    1.714   10.000    1.143 
#    5.143    0.000    0.000    0.000    0.000    0.000 
#    0.000    0.000    0.000    0.000    0.000    0.000 
#
# Total GULP energy -78019.042427 kJ/mol
# GULP energy per Si atom -5572.788745 kJ/mol
# Density = 2.382287 g / cm^3
# Si number density = 23.877212 Si / 1000 Ang^3
#
#
#
# Elastic Constant Matrix: (Units=GPa)
#
#
# Indices 1 2 3 4 5 6 
#
# 1 134.6900 22.8009 26.3470 -11.5830 -33.7867 -17.2582
# 2 22.8009 76.9065 49.4460 -15.9208 -2.2163 -1.8038
# 3 26.3470 49.4460 95.4983 -17.5134 -32.3557 3.5533
# 4 -11.5830 -15.9208 -17.5134 42.6526 1.2484 3.2871
# 5 -33.7867 -2.2163 -32.3557 1.2484 65.5821 -3.3016
# 6 -17.2582 -1.8038 3.5533 3.2871 -3.3016 35.3839
#
#
#
# Elastic Compliance Matrix: (Units=1/GPa)
#
#
# Indices 1 2 3 4 5 6 
#
# 1 0.009931 -0.002814 0.000672 0.001372 0.005580 0.005026
# 2 -0.002814 0.022328 -0.012693 0.002552 -0.006998 0.000151
# 3 0.000672 -0.012693 0.021092 0.003951 0.010155 -0.001857
# 4 0.001372 0.002552 0.003951 0.026473 0.002145 -0.001857
# 5 0.005580 -0.006998 0.010155 0.002145 0.023021 0.003294
# 6 0.005026 0.000151 -0.001857 -0.001857 0.003294 0.031387
#
#
# Mechanical properties :
#
#
# Convention : Reuss Voigt Hill
#
# Bulk Modulus (GPa) = 42.22716 56.03140 49.12928
# Shear Modulus (GPa) = 29.10436 42.62375 35.86406
#
# Velocity S-wave (km/s) = 3.49509 4.22965 3.87980
# Velocity P-wave (km/s) = 5.83190 6.88264 6.37894
#
# Compressibility (1/GPa) = 0.02368144
#
# Stress axis : x y z
#
# Youngs Moduli (GPa) = 100.69564 44.78681 47.41056
#
# Poissons Ratio (x) = 0.12601 -0.03186
# Poissons Ratio (y) = 0.28332 0.60179
# Poissons Ratio (z) = -0.06767 0.56849
#
# Static dielectric constant tensor:
#      x y z
#    x 1.970980 0.059580 -0.009530 
#    y 0.059580 1.959410 -0.044270 
#    z -0.009530 -0.044270 1.916320 
# 
# From -- ./inp_files/47137.got.cif
#   From: 2010.05.17/outbox.cif.g08.bks.cpg/sg2_24_cif.got.tgz:47137.got - 2010.06.03 11:33:40.
