data_PCOD9016614
_publ_section_title
;
Structure prediction by ZEFSAII (Michael W. Deem and Ramdas Pophale) SiO2 
 PCOD9016614
Probable space group: P -1
;
_chemical_formula_sum "Si O2"
_cell_formula_units_Z 16
_cell_length_a 8.671304
_cell_length_b 13.850343
_cell_length_c 12.392815
_cell_angle_alpha 100.116902
_cell_angle_beta 107.181015
_cell_angle_gamma 30.924197
_cell_volume 721.534143
_symmetry_space_group_name_H-M "P -1"
_symmetry_group_IT_number 2
_symmetry_cell_setting 'triclinic'
loop_
_space_group_symop_operation_xyz
x,y,z
-x,-y,-z
loop_
_atom_site_type_symbol
_atom_site_label
_atom_site_fract_x
_atom_site_fract_y
_atom_site_fract_z
Si Si1 0.866092 0.312296 0.544692
Si Si2 0.279388 0.212512 0.477397
Si Si3 0.838191 0.868646 0.022643
Si Si4 0.227139 0.526692 0.758107
Si Si5 0.781257 0.529580 0.013320
Si Si6 0.899932 0.179834 0.724181
Si Si7 0.122933 0.008247 0.384649
Si Si8 0.881165 0.195807 0.141878
O O1 0.500000 0.500000 0.500000
O O2 0.955298 0.243814 0.672019
O O3 0.017423 0.332778 0.537215
O O4 0.961331 0.174925 0.456056
O O5 0.091011 0.316053 0.347117
O O6 0.500000 0.000000 0.500000
O O7 0.515879 0.176473 0.541401
O O8 0.923581 0.894572 0.143733
O O9 0.068400 0.654620 0.021847
O O10 0.892904 0.901942 0.931779
O O11 0.500000 0.000000 0.000000
O O12 0.222212 0.466197 0.855257
O O13 0.537856 0.350125 0.715722
O O14 0.247154 0.629614 0.819202
O O15 0.421072 0.712461 0.933363
O O16 0.000000 0.500000 0.000000
O O17 0.010894 0.030817 0.645673
O O18 0.071623 0.060865 0.258689
#
# Coordination Sequence:
#
# PCOD9016614 Si02
#       8
#     2   2   2   2   2   2   2   2
#     4  11  22  43  68  93 130 176 229 271 335 399
#     4  10  21  42  68  96 126 176 230 270 335 395
#     4  11  26  42  69 100 131 181 222 279 347 402
#     4  11  20  46  71  94 136 185 217 284 345 401
#     4  11  25  45  71 102 130 179 236 278 336 407
#     4  12  24  43  64  99 141 173 225 281 340 400
#     4  11  26  41  66 101 135 180 220 282 336 396
#     4  11  21  47  70  93 138 180 226 274 345 406
#
# _framework density 22.174973000000001
#
# number of rings (size 3 to 8) (size 9 to 14) (size 15 to 20)
#    0.000    1.000    6.250    1.125    3.500    3.000 
#    2.250    0.000    0.000    0.000    0.000    0.000 
#    0.000    0.000    0.000    0.000    0.000    0.000 
#
# Total GULP energy -89379.472577 kJ/mol
# GULP energy per Si atom -5586.217036 kJ/mol
# Density = 2.212450 g / cm^3
# Si number density = 22.174973 Si / 1000 Ang^3
#
#
#
# Elastic Constant Matrix: (Units=GPa)
#
#
# Indices 1 2 3 4 5 6 
#
# 1 90.6465 17.5408 51.6767 -8.7742 -2.2049 -24.1478
# 2 17.5408 56.8465 35.0431 -6.8593 17.7237 -25.8647
# 3 51.6767 35.0431 157.4786 -17.4226 -6.7714 -21.2418
# 4 -8.7742 -6.8593 -17.4226 30.2248 -0.8729 5.6595
# 5 -2.2049 17.7237 -6.7714 -0.8729 38.2376 -1.4780
# 6 -24.1478 -25.8647 -21.2418 5.6595 -1.4780 33.9738
#
#
#
# Elastic Compliance Matrix: (Units=1/GPa)
#
#
# Indices 1 2 3 4 5 6 
#
# 1 0.015836 0.003007 -0.004384 0.000735 -0.000829 0.010646
# 2 0.003007 0.038339 -0.006702 0.000270 -0.017761 0.026317
# 3 -0.004384 -0.006702 0.009482 0.003297 0.004506 -0.002643
# 4 0.000735 0.000270 0.003297 0.035883 0.001199 -0.003136
# 5 -0.000829 -0.017761 0.004506 0.001199 0.034776 -0.009980
# 6 0.010646 0.026317 -0.002643 -0.003136 -0.009980 0.055472
#
#
# Mechanical properties :
#
#
# Convention : Reuss Voigt Hill
#
# Bulk Modulus (GPa) = 21.05327 57.05475 39.05401
# Shear Modulus (GPa) = 22.54480 33.86798 28.20639
#
# Velocity S-wave (km/s) = 3.19200 3.91232 3.57037
# Velocity P-wave (km/s) = 4.80624 6.79658 5.88614
#
# Compressibility (1/GPa) = 0.04749856
#
# Stress axis : x y z
#
# Youngs Moduli (GPa) = 63.14607 26.08302 105.46165
#
# Poissons Ratio (x) = -0.07843 0.46236
# Poissons Ratio (y) = -0.18986 0.70682
# Poissons Ratio (z) = 0.27684 0.17481
#
# Static dielectric constant tensor:
#      x y z
#    x 1.857050 0.023320 -0.037040 
#    y 0.023320 1.872980 -0.008400 
#    z -0.037040 -0.008400 1.821750 
# 
# From -- ./inp_files/215159.got.cif
#   From: 2010.05.17/outbox.cif.g08.bks.cpg/sg2_108_cif.got.tgz:215159.got - 2010.06.03 11:33:40.
