data_PCOD9016561
_publ_section_title
;
Structure prediction by ZEFSAII (Michael W. Deem and Ramdas Pophale) SiO2 
 PCOD9016561
Probable space group: P -1
;
_chemical_formula_sum "Si O2"
_cell_formula_units_Z 16
_cell_length_a 26.234854
_cell_length_b 7.481772
_cell_length_c 12.845910
_cell_angle_alpha 55.797502
_cell_angle_beta 23.076809
_cell_angle_gamma 45.283791
_cell_volume 668.653418
_symmetry_space_group_name_H-M "P -1"
_symmetry_group_IT_number 2
_symmetry_cell_setting 'triclinic'
loop_
_space_group_symop_operation_xyz
x,y,z
-x,-y,-z
loop_
_atom_site_type_symbol
_atom_site_label
_atom_site_fract_x
_atom_site_fract_y
_atom_site_fract_z
Si Si1 0.841408 0.892236 0.685448
Si Si2 0.850881 0.441983 0.684584
Si Si3 0.877974 0.584117 0.366147
Si Si4 0.467005 0.352330 0.695917
Si Si5 0.634998 0.185672 0.642725
Si Si6 0.863915 0.324955 0.141637
Si Si7 0.341794 0.212809 0.790395
Si Si8 0.639900 0.488482 0.800358
O O1 0.842008 0.695826 0.665095
O O2 0.020046 0.787653 0.408266
O O3 0.744445 0.186372 0.734984
O O4 0.770747 0.872904 0.933583
O O5 0.900695 0.412720 0.481062
O O6 0.689222 0.468422 0.999245
O O7 0.767560 0.549444 0.507002
O O8 0.763017 0.883126 0.526295
O O9 0.038600 0.556554 0.041024
O O10 0.500000 0.500000 0.500000
O O11 0.606364 0.200553 0.567126
O O12 0.418459 0.204587 0.760416
O O13 0.713607 0.343906 0.469142
O O14 0.469566 0.300258 0.973073
O O15 0.774327 0.504852 0.144794
O O16 0.000000 0.000000 0.000000
O O17 0.500000 0.000000 0.500000
O O18 0.500000 0.500000 0.000000
#
# Coordination Sequence:
#
# PCOD9016561 Si02
#       8
#     2   2   2   2   2   2   2   2
#     4  10  23  39  65  96 133 170 224 281 342 398
#     4  10  21  42  68  93 130 178 229 274 338 408
#     4  11  23  43  69  95 131 181 229 279 344 406
#     4  11  23  40  66 101 131 178 229 268 343 407
#     4  11  23  43  72  96 135 181 228 283 337 415
#     4  10  22  43  68  97 138 183 227 278 343 411
#     4  11  22  40  68  99 137 177 224 284 335 398
#     4  12  26  43  65 102 135 172 232 289 350 399
#
# _framework density 23.92869
#
# number of rings (size 3 to 8) (size 9 to 14) (size 15 to 20)
#    0.000    1.250    3.750    1.875    3.500    0.500 
#    2.250    0.625    0.000    0.000    0.000    0.000 
#    0.000    0.000    0.000    0.000    0.000    0.000 
#
# Total GULP energy -89128.064609 kJ/mol
# GULP energy per Si atom -5570.504038 kJ/mol
# Density = 2.387423 g / cm^3
# Si number density = 23.928690 Si / 1000 Ang^3
#
#
#
# Elastic Constant Matrix: (Units=GPa)
#
#
# Indices 1 2 3 4 5 6 
#
# 1 99.2510 17.5177 32.6937 0.4529 -26.7582 -4.1651
# 2 17.5177 93.4280 19.8636 7.3679 -15.8780 -10.3023
# 3 32.6937 19.8636 116.8288 -18.6259 -28.7768 -4.3454
# 4 0.4529 7.3679 -18.6259 40.9195 3.5830 -7.5735
# 5 -26.7582 -15.8780 -28.7768 3.5830 33.8611 0.0492
# 6 -4.1651 -10.3023 -4.3454 -7.5735 0.0492 21.4049
#
#
#
# Elastic Compliance Matrix: (Units=1/GPa)
#
#
# Indices 1 2 3 4 5 6 
#
# 1 0.013159 -0.000318 -0.001537 -0.001283 0.009077 0.001621
# 2 -0.000318 0.012550 -0.000973 -0.002217 0.005034 0.004985
# 3 -0.001537 -0.000973 0.012197 0.005724 0.008084 0.003715
# 4 -0.001283 -0.002217 0.005724 0.029380 -0.000313 0.010241
# 5 0.009077 0.005034 0.008084 -0.000313 0.045961 0.005614
# 6 0.001621 0.004985 0.003715 0.010241 0.005614 0.053798
#
#
# Mechanical properties :
#
#
# Convention : Reuss Voigt Hill
#
# Bulk Modulus (GPa) = 31.00755 49.96197 40.48476
# Shear Modulus (GPa) = 27.25543 35.19928 31.22736
#
# Velocity S-wave (km/s) = 3.37861 3.83953 3.61642
# Velocity P-wave (km/s) = 5.31097 6.37031 5.86461
#
# Compressibility (1/GPa) = 0.03225021
#
# Stress axis : x y z
#
# Youngs Moduli (GPa) = 75.99486 79.68129 81.98786
#
# Poissons Ratio (x) = 0.02535 0.12600
# Poissons Ratio (y) = 0.02417 0.07976
# Poissons Ratio (z) = 0.11679 0.07752
#
# Static dielectric constant tensor:
#      x y z
#    x 1.790210 -0.001070 0.165250 
#    y -0.001070 1.914940 0.005130 
#    z 0.165250 0.005130 1.875720 
# 
# From -- ./inp_files/544870.got.cif
#   From: 2010.05.17/outbox.cif.g08.bks.cpg/sg2_273_cif.got.tgz:544870.got - 2010.06.03 11:33:40.
