data_PCOD9016625
_publ_section_title
;
Structure prediction by ZEFSAII (Michael W. Deem and Ramdas Pophale) SiO2 
 PCOD9016625
Probable space group: P -1
;
_chemical_formula_sum "Si O2"
_cell_formula_units_Z 16
_cell_length_a 5.673581
_cell_length_b 14.440800
_cell_length_c 13.703689
_cell_angle_alpha 50.995497
_cell_angle_beta 48.217532
_cell_angle_gamma 75.842648
_cell_volume 620.301042
_symmetry_space_group_name_H-M "P -1"
_symmetry_group_IT_number 2
_symmetry_cell_setting 'triclinic'
loop_
_space_group_symop_operation_xyz
x,y,z
-x,-y,-z
loop_
_atom_site_type_symbol
_atom_site_label
_atom_site_fract_x
_atom_site_fract_y
_atom_site_fract_z
Si Si1 0.522907 0.641618 0.371364
Si Si2 0.287105 0.006878 0.146533
Si Si3 0.546490 0.317551 0.169026
Si Si4 0.623970 0.747916 0.940733
Si Si5 0.865789 0.336213 0.370991
Si Si6 0.377666 0.858647 0.587891
Si Si7 0.749809 0.912036 0.207179
Si Si8 0.285864 0.438942 0.832228
O O1 0.500000 0.500000 0.500000
O O2 0.176126 0.648901 0.510926
O O3 0.744892 0.768873 0.278763
O O4 0.644604 0.641041 0.226681
O O5 0.406052 0.936745 0.249195
O O6 0.912809 0.956582 0.239970
O O7 0.408765 0.152036 0.041038
O O8 0.500000 0.000000 0.000000
O O9 0.548961 0.241882 0.119091
O O10 0.430041 0.221802 0.353335
O O11 0.247453 0.376875 0.206008
O O12 0.919503 0.405214 0.004151
O O13 0.011761 0.799853 0.774468
O O14 0.515980 0.608391 0.106185
O O15 0.697068 0.198349 0.462940
O O16 0.675033 0.424059 0.311383
O O17 0.500000 0.000000 0.500000
O O18 0.000000 0.000000 0.000000
#
# Coordination Sequence:
#
# PCOD9016625 Si02
#       8
#     2   2   2   2   2   2   2   2
#     4  10  23  44  68 100 143 183 228 292 365 428
#     4  10  22  36  63  98 135 176 229 290 352 412
#     4  10  23  40  68  94 128 172 230 279 347 411
#     4  10  23  38  64  99 128 173 228 289 339 415
#     4  10  23  43  64  95 133 179 220 283 352 426
#     4  10  24  42  62  92 130 174 224 281 346 417
#     4  10  22  40  66  98 136 185 237 289 353 427
#     4  10  21  42  68  96 133 170 229 281 349 426
#
# _framework density 25.793927
#
# number of rings (size 3 to 8) (size 9 to 14) (size 15 to 20)
#    0.000    2.000    0.000    1.875    8.750    8.500 
#    0.000    0.625    0.000    0.000    0.000    0.000 
#    0.000    0.000    0.000    0.000    0.000    0.000 
#
# Total GULP energy -89073.104822 kJ/mol
# GULP energy per Si atom -5567.069051 kJ/mol
# Density = 2.573522 g / cm^3
# Si number density = 25.793927 Si / 1000 Ang^3
#
#
#
# Elastic Constant Matrix: (Units=GPa)
#
#
# Indices 1 2 3 4 5 6 
#
# 1 123.8231 42.7778 27.9591 -13.0844 27.9636 16.0202
# 2 42.7778 171.0857 34.9737 -3.2888 5.7939 26.6820
# 3 27.9591 34.9737 85.9530 -12.0176 6.5705 0.7160
# 4 -13.0844 -3.2888 -12.0176 49.5717 -9.0776 -0.4379
# 5 27.9636 5.7939 6.5705 -9.0776 35.9649 -4.6395
# 6 16.0202 26.6820 0.7160 -0.4379 -4.6395 32.1163
#
#
#
# Elastic Compliance Matrix: (Units=1/GPa)
#
#
# Indices 1 2 3 4 5 6 
#
# 1 0.012074 -0.001172 -0.002582 0.000712 -0.009364 -0.006334
# 2 -0.001172 0.007605 -0.002699 -0.000644 -0.000730 -0.005787
# 3 -0.002582 -0.002699 0.013844 0.002716 0.001038 0.003409
# 4 0.000712 -0.000644 0.002716 0.021849 0.004710 0.001097
# 5 -0.009364 -0.000730 0.001038 0.004710 0.037589 0.010748
# 6 -0.006334 -0.005787 0.003409 0.001097 0.010748 0.040596
#
#
# Mechanical properties :
#
#
# Convention : Reuss Voigt Hill
#
# Bulk Modulus (GPa) = 48.50667 65.80924 57.15796
# Shear Modulus (GPa) = 32.60819 41.87399 37.24109
#
# Velocity S-wave (km/s) = 3.55939 4.03352 3.80385
# Velocity P-wave (km/s) = 5.97818 6.87468 6.44204
#
# Compressibility (1/GPa) = 0.02061572
#
# Stress axis : x y z
#
# Youngs Moduli (GPa) = 82.82487 131.49612 72.23153
#
# Poissons Ratio (x) = 0.15416 0.18651
# Poissons Ratio (y) = 0.09710 0.19496
# Poissons Ratio (z) = 0.21387 0.35491
#
# Static dielectric constant tensor:
#      x y z
#    x 2.242850 -0.016100 -0.016850 
#    y -0.016100 2.039930 0.053400 
#    z -0.016850 0.053400 2.174520 
# 
# From -- ./inp_files/484325.got.cif
#   From: 2010.05.17/outbox.cif.g08.bks.cpg/sg2_243_cif.got.tgz:484325.got - 2010.06.03 11:33:40.
