data_PCOD9016748
_publ_section_title
;
Structure prediction by ZEFSAII (Michael W. Deem and Ramdas Pophale) SiO2 
 PCOD9016748
Probable space group: P -1
;
_chemical_formula_sum "Si O2"
_cell_formula_units_Z 14
_cell_length_a 18.180183
_cell_length_b 24.734463
_cell_length_c 5.445214
_cell_angle_alpha 119.047820
_cell_angle_beta 52.468919
_cell_angle_gamma 161.793883
_cell_volume 562.171751
_symmetry_space_group_name_H-M "P -1"
_symmetry_group_IT_number 2
_symmetry_cell_setting 'triclinic'
loop_
_space_group_symop_operation_xyz
x,y,z
-x,-y,-z
loop_
_atom_site_type_symbol
_atom_site_label
_atom_site_fract_x
_atom_site_fract_y
_atom_site_fract_z
Si Si1 0.290048 0.246884 0.727148
Si Si2 0.277432 0.116511 0.747936
Si Si3 0.255277 0.618471 0.311100
Si Si4 0.782585 0.546242 0.009931
Si Si5 0.267815 0.021309 0.168749
Si Si6 0.267976 0.361274 0.881322
Si Si7 0.630294 0.052588 0.098273
O O1 0.357508 0.234896 0.755685
O O2 0.488480 0.360741 0.342188
O O3 0.331698 0.346637 0.913211
O O4 0.958000 0.025279 0.876746
O O5 0.555347 0.253525 0.551202
O O6 0.122403 0.975324 0.556732
O O7 0.000000 0.500000 0.500000
O O8 0.157268 0.486612 0.244348
O O9 0.488734 0.781748 0.995259
O O10 0.772268 0.590179 0.909227
O O11 0.035335 0.725672 0.071410
O O12 0.034920 0.851145 0.076541
O O13 0.400034 0.040826 0.045114
O O14 0.500000 0.500000 0.500000
O O15 0.500000 0.000000 0.500000
O O16 0.500000 0.000000 0.000000
#
# Coordination Sequence:
#
# PCOD9016748 Si02
#       7
#     2   2   2   2   2   2   2
#     4  10  21  42  69 103 147 184 241 314 376 461
#     4  11  25  41  71 110 140 192 249 308 391 453
#     4  12  26  44  70 100 148 193 252 308 381 454
#     4  10  23  44  70 110 143 194 250 313 379 457
#     4  11  24  44  70 101 145 190 246 310 372 458
#     4   9  20  41  69  97 139 186 230 295 382 447
#     4  11  27  49  76 105 152 206 258 314 379 455
#
# _framework density 24.903420000000001
#
# number of rings (size 3 to 8) (size 9 to 14) (size 15 to 20)
#    0.000    1.429    2.857    0.857    4.000    8.571 
#    0.000   11.429    0.000    0.000    0.000    0.000 
#    0.000    0.000    0.000    0.000    0.000    0.000 
#
# Total GULP energy -78155.591425 kJ/mol
# GULP energy per Si atom -5582.542245 kJ/mol
# Density = 2.484674 g / cm^3
# Si number density = 24.903420 Si / 1000 Ang^3
#
#
#
# Elastic Constant Matrix: (Units=GPa)
#
#
# Indices 1 2 3 4 5 6 
#
# 1 223.8166 52.8300 45.1997 6.0622 -28.0740 -18.7843
# 2 52.8300 85.7235 33.8740 2.8137 -9.8186 -16.6369
# 3 45.1997 33.8740 77.3310 -7.0496 -9.0721 -9.3709
# 4 6.0622 2.8137 -7.0496 39.7120 -8.6670 -15.6264
# 5 -28.0740 -9.8186 -9.0721 -8.6670 44.2185 -1.0057
# 6 -18.7843 -16.6369 -9.3709 -15.6264 -1.0057 53.4141
#
#
#
# Elastic Compliance Matrix: (Units=1/GPa)
#
#
# Indices 1 2 3 4 5 6 
#
# 1 0.005849 -0.002306 -0.001959 -0.000058 0.002811 0.001031
# 2 -0.002306 0.015849 -0.005102 -0.000192 0.001043 0.003193
# 3 -0.001959 -0.005102 0.017320 0.005129 0.002235 0.002303
# 4 -0.000058 -0.000192 0.005129 0.031772 0.007433 0.010254
# 5 0.002811 0.001043 0.002235 0.007433 0.026647 0.004382
# 6 0.001031 0.003193 0.002303 0.010254 0.004382 0.023565
#
#
# Mechanical properties :
#
#
# Convention : Reuss Voigt Hill
#
# Bulk Modulus (GPa) = 49.30428 72.29761 60.80095
# Shear Modulus (GPa) = 34.13037 44.46674 39.29856
#
# Velocity S-wave (km/s) = 3.70606 4.23018 3.97676
# Velocity P-wave (km/s) = 6.17692 7.27691 6.74936
#
# Compressibility (1/GPa) = 0.02028221
#
# Stress axis : x y z
#
# Youngs Moduli (GPa) = 170.97971 63.09692 57.73595
#
# Poissons Ratio (x) = 0.14553 0.11309
# Poissons Ratio (y) = 0.39436 0.29459
# Poissons Ratio (z) = 0.33491 0.32195
#
# Static dielectric constant tensor:
#      x y z
#    x 2.072860 0.077290 0.023570 
#    y 0.077290 2.003060 0.032100 
#    z 0.023570 0.032100 2.102780 
# 
# From -- ./inp_files/81277.got.cif
#   From: 2010.05.17/outbox.cif.g08.bks.cpg/sg2_41_cif.got.tgz:81277.got - 2010.06.03 11:33:40.
