data_PCOD9016774
_publ_section_title
;
Structure prediction by ZEFSAII (Michael W. Deem and Ramdas Pophale) SiO2 
 PCOD9016774
Probable space group: P -1
;
_chemical_formula_sum "Si O2"
_cell_formula_units_Z 16
_cell_length_a 15.115408
_cell_length_b 8.693325
_cell_length_c 8.858205
_cell_angle_alpha 130.287697
_cell_angle_beta 78.289797
_cell_angle_gamma 70.922824
_cell_volume 686.724652
_symmetry_space_group_name_H-M "P -1"
_symmetry_group_IT_number 2
_symmetry_cell_setting 'triclinic'
loop_
_space_group_symop_operation_xyz
x,y,z
-x,-y,-z
loop_
_atom_site_type_symbol
_atom_site_label
_atom_site_fract_x
_atom_site_fract_y
_atom_site_fract_z
Si Si1 0.353509 0.283840 0.974571
Si Si2 0.364015 0.479100 0.386027
Si Si3 0.441170 0.245764 0.527457
Si Si4 0.769639 0.933334 0.176702
Si Si5 0.311627 0.703257 0.060534
Si Si6 0.749314 0.834258 0.455760
Si Si7 0.105683 0.016138 0.095420
Si Si8 0.870089 0.412278 0.364711
O O1 0.283910 0.554217 0.086012
O O2 0.449407 0.047453 0.687091
O O3 0.274642 0.201042 0.983111
O O4 0.412640 0.314341 0.113438
O O5 0.439833 0.329840 0.409921
O O6 0.328150 0.761506 0.574837
O O7 0.243493 0.522323 0.477148
O O8 0.420418 0.466913 0.781676
O O9 0.329040 0.257340 0.586626
O O10 0.862327 0.908826 0.021741
O O11 0.798060 0.825592 0.269240
O O12 0.210558 0.883852 0.091098
O O13 0.325679 0.880135 0.270307
O O14 0.841461 0.654007 0.438087
O O15 0.100090 0.790335 0.905361
O O16 0.979816 0.263510 0.340760
#
# Coordination Sequence:
#
# PCOD9016774 Si02
#       8
#     2   2   2   2   2   2   2   2
#     4  12  25  40  65  90 127 168 205 258 308 360
#     4  10  22  43  62  95 123 158 209 258 306 371
#     4  11  24  44  61  91 128 166 208 252 312 365
#     4  11  22  40  62  91 129 157 209 257 302 362
#     4  12  23  41  63  91 127 166 208 249 309 370
#     4  11  23  40  65  90 128 165 205 257 302 371
#     4  10  21  42  69  91 122 166 202 256 313 369
#     4   9  20  42  70  88 126 162 202 252 321 363
#
# _framework density 23.299005999999999
#
# number of rings (size 3 to 8) (size 9 to 14) (size 15 to 20)
#    0.000    1.250    6.250    0.750    3.500    3.000 
#    0.000    1.875    0.000    0.000    0.000    0.000 
#    0.000    0.000    0.000    0.000    0.000    0.000 
#
# Total GULP energy -89397.873850 kJ/mol
# GULP energy per Si atom -5587.367116 kJ/mol
# Density = 2.324598 g / cm^3
# Si number density = 23.299006 Si / 1000 Ang^3
#
#
#
# Elastic Constant Matrix: (Units=GPa)
#
#
# Indices 1 2 3 4 5 6 
#
# 1 40.9568 16.0124 18.6969 3.6003 2.3057 6.9836
# 2 16.0124 109.6452 12.9678 12.3176 3.5829 10.8369
# 3 18.6969 12.9678 73.8599 13.8830 27.2891 5.6834
# 4 3.6003 12.3176 13.8830 31.4327 -3.9436 1.7156
# 5 2.3057 3.5829 27.2891 -3.9436 43.9387 9.2992
# 6 6.9836 10.8369 5.6834 1.7156 9.2992 29.1218
#
#
#
# Elastic Compliance Matrix: (Units=1/GPa)
#
#
# Indices 1 2 3 4 5 6 
#
# 1 0.030515 -0.003247 -0.009553 0.003129 0.006236 -0.006421
# 2 -0.003247 0.010272 0.000074 -0.003597 -0.000465 -0.002698
# 3 -0.009553 0.000074 0.023804 -0.011651 -0.016061 0.003433
# 4 0.003129 -0.003597 -0.011651 0.039639 0.011595 -0.003176
# 5 0.006236 -0.000465 -0.016061 0.011595 0.035656 -0.010257
# 6 -0.006421 -0.002698 0.003433 -0.003176 -0.010257 0.039674
#
#
# Mechanical properties :
#
#
# Convention : Reuss Voigt Hill
#
# Bulk Modulus (GPa) = 25.54973 35.53512 30.54243
# Shear Modulus (GPa) = 22.92961 32.68430 27.80696
#
# Velocity S-wave (km/s) = 3.14051 3.74949 3.45843
# Velocity P-wave (km/s) = 4.91327 5.83350 5.39305
#
# Compressibility (1/GPa) = 0.03913935
#
# Stress axis : x y z
#
# Youngs Moduli (GPa) = 32.77082 97.35473 42.00937
#
# Poissons Ratio (x) = 0.31614 0.40130
# Poissons Ratio (y) = 0.10642 -0.00312
# Poissons Ratio (z) = 0.31305 -0.00722
#
# Static dielectric constant tensor:
#      x y z
#    x 1.901660 -0.003100 -0.025590 
#    y -0.003100 1.898860 -0.032430 
#    z -0.025590 -0.032430 1.895530 
# 
# From -- ./inp_files/217614.got.cif
#   From: 2010.05.17/outbox.cif.g08.bks.cpg/sg2_109_cif.got.tgz:217614.got - 2010.06.03 11:33:40.
