data_PCOD9016069
_publ_section_title
;
Structure prediction by ZEFSAII (Michael W. Deem and Ramdas Pophale) SiO2 
 PCOD9016069
Probable space group: P -1
;
_chemical_formula_sum "Si O2"
_cell_formula_units_Z 14
_cell_length_a 13.955066
_cell_length_b 8.433014
_cell_length_c 5.032734
_cell_angle_alpha 88.100095
_cell_angle_beta 114.553315
_cell_angle_gamma 90.800366
_cell_volume 538.416532
_symmetry_space_group_name_H-M "P -1"
_symmetry_group_IT_number 2
_symmetry_cell_setting 'triclinic'
loop_
_space_group_symop_operation_xyz
x,y,z
-x,-y,-z
loop_
_atom_site_type_symbol
_atom_site_label
_atom_site_fract_x
_atom_site_fract_y
_atom_site_fract_z
Si Si1 0.545660 0.859195 0.244403
Si Si2 0.120532 0.938834 0.576866
Si Si3 0.327624 0.452688 0.793474
Si Si4 0.853986 0.629436 0.766590
Si Si5 0.403409 0.620254 0.374118
Si Si6 0.941688 0.374822 0.252212
Si Si7 0.242817 0.065424 0.205486
O O1 0.595628 0.703281 0.152035
O O2 0.451755 0.784233 0.318658
O O3 0.639959 0.925294 0.536634
O O4 0.500000 0.000000 0.000000
O O5 0.114915 0.751355 0.625434
O O6 0.166157 0.985612 0.341012
O O7 0.000000 0.000000 0.500000
O O8 0.209010 0.995199 0.888749
O O9 0.214471 0.395183 0.572427
O O10 0.355830 0.594902 0.610037
O O11 0.333117 0.537066 0.075028
O O12 0.790224 0.751333 0.862552
O O13 0.964883 0.704807 0.807056
O O14 0.876669 0.468955 0.954265
O O15 0.500000 0.500000 0.500000
O O16 0.000000 0.500000 0.500000
#
# Coordination Sequence:
#
# PCOD9016069 Si02
#       7
#     2   2   2   2   2   2   2
#     4  10  23  43  68  98 138 168 223 278 325 388
#     4  12  25  45  71  97 139 173 224 272 333 404
#     4  10  23  42  69  94 128 179 220 263 332 391
#     4  10  24  41  64  99 134 171 227 271 326 401
#     4  10  21  42  66  94 126 174 215 269 325 384
#     4  11  25  41  67  97 135 174 217 284 328 382
#     4  11  26  45  69 101 130 188 216 267 342 398
#
# _framework density 26.002175999999999
#
# number of rings (size 3 to 8) (size 9 to 14) (size 15 to 20)
#    0.000    1.429    1.429    3.000    6.000    9.143 
#    0.000   10.000    0.000    0.000    0.000    0.000 
#    0.000    0.000    0.000    0.000    0.000    0.000 
#
# Total GULP energy -78437.906852 kJ/mol
# GULP energy per Si atom -5602.707632 kJ/mol
# Density = 2.594299 g / cm^3
# Si number density = 26.002176 Si / 1000 Ang^3
#
#
#
# Elastic Constant Matrix: (Units=GPa)
#
#
# Indices 1 2 3 4 5 6 
#
# 1 73.9916 33.4969 24.0788 -11.7694 9.7762 9.9717
# 2 33.4969 136.8813 39.3071 -32.0818 17.8392 19.9160
# 3 24.0788 39.3071 121.3893 -13.2008 14.3254 2.8346
# 4 -11.7694 -32.0818 -13.2008 55.6923 9.5841 -7.0142
# 5 9.7762 17.8392 14.3254 9.5841 34.5415 -6.6517
# 6 9.9717 19.9160 2.8346 -7.0142 -6.6517 36.8856
#
#
#
# Elastic Compliance Matrix: (Units=1/GPa)
#
#
# Indices 1 2 3 4 5 6 
#
# 1 0.016353 -0.001893 -0.001811 0.002207 -0.004205 -0.003598
# 2 -0.001893 0.011604 -0.001633 0.006493 -0.007695 -0.005781
# 3 -0.001811 -0.001633 0.009635 0.001523 -0.002990 0.000381
# 4 0.002207 0.006493 0.001523 0.024320 -0.011686 -0.001702
# 5 -0.004205 -0.007695 -0.002990 -0.011686 0.040644 0.010628
# 6 -0.003598 -0.005781 0.000381 -0.001702 0.010628 0.032769
#
#
# Mechanical properties :
#
#
# Convention : Reuss Voigt Hill
#
# Bulk Modulus (GPa) = 37.14853 58.44755 47.79804
# Shear Modulus (GPa) = 32.26436 41.11584 36.69010
#
# Velocity S-wave (km/s) = 3.52637 3.98080 3.76046
# Velocity P-wave (km/s) = 5.55860 6.60725 6.10548
#
# Compressibility (1/GPa) = 0.02691896
#
# Stress axis : x y z
#
# Youngs Moduli (GPa) = 61.15177 86.18087 103.78477
#
# Poissons Ratio (x) = 0.16316 0.18790
# Poissons Ratio (y) = 0.11577 0.16944
# Poissons Ratio (z) = 0.11072 0.14070
#
# Static dielectric constant tensor:
#      x y z
#    x 2.166020 0.000570 -0.055310 
#    y 0.000570 2.044570 0.049270 
#    z -0.055310 0.049270 1.573750 
# 
# From -- ./inp_files/104842.got.cif
#   From: 2010.05.17/outbox.cif.g08.bks.cpg/sg2_53_cif.got.tgz:104842.got - 2010.06.03 11:33:40.
