data_PCOD9016570
_publ_section_title
;
Structure prediction by ZEFSAII (Michael W. Deem and Ramdas Pophale) SiO2 
 PCOD9016570
Probable space group: P -1
;
_chemical_formula_sum "Si O2"
_cell_formula_units_Z 16
_cell_length_a 7.959078
_cell_length_b 22.956014
_cell_length_c 18.118034
_cell_angle_alpha 22.673697
_cell_angle_beta 134.730928
_cell_angle_gamma 146.511225
_cell_volume 669.605843
_symmetry_space_group_name_H-M "P -1"
_symmetry_group_IT_number 2
_symmetry_cell_setting 'triclinic'
loop_
_space_group_symop_operation_xyz
x,y,z
-x,-y,-z
loop_
_atom_site_type_symbol
_atom_site_label
_atom_site_fract_x
_atom_site_fract_y
_atom_site_fract_z
Si Si1 0.638938 0.796580 0.114652
Si Si2 0.374432 0.559662 0.717492
Si Si3 0.163899 0.435970 0.956836
Si Si4 0.283915 0.763200 0.186480
Si Si5 0.717418 0.462629 0.879160
Si Si6 0.585173 0.617375 0.516455
Si Si7 0.752942 0.978575 0.394620
Si Si8 0.299632 0.027184 0.229693
O O1 0.435201 0.775024 0.142589
O O2 0.574712 0.589987 0.334994
O O3 0.585910 0.848327 0.957908
O O4 0.000000 0.000000 0.000000
O O5 0.657268 0.555889 0.817776
O O6 0.573290 0.799277 0.487965
O O7 0.093686 0.387339 0.775242
O O8 0.202705 0.520805 0.787992
O O9 0.500000 0.500000 0.000000
O O10 0.940333 0.194072 0.162961
O O11 0.015083 0.490644 0.906995
O O12 0.351443 0.659875 0.387515
O O13 0.500000 0.000000 0.000000
O O14 0.662624 0.563653 0.679151
O O15 0.442621 0.221057 0.097549
O O16 0.925555 0.830327 0.344920
O O17 0.484814 0.952302 0.389343
O O18 0.000000 0.000000 0.500000
#
# Coordination Sequence:
#
# PCOD9016570 Si02
#       8
#     2   2   2   2   2   2   2   2
#     4  11  23  39  66  96 129 188 238 275 345 415
#     4  12  26  46  71 103 143 183 236 287 351 416
#     4  11  24  49  75  99 142 182 234 299 352 416
#     4  12  26  43  67 105 147 185 232 285 348 416
#     4  10  25  44  69 105 137 184 233 286 349 421
#     4  11  23  42  68  98 139 188 230 282 344 414
#     4  11  23  42  70 102 131 181 232 289 353 410
#     4  10  21  42  68  93 140 177 235 289 341 414
#
# _framework density 23.894655
#
# number of rings (size 3 to 8) (size 9 to 14) (size 15 to 20)
#    0.000    1.000    2.500    4.875    3.500    4.000 
#    0.000    0.625    0.000    0.000    0.000    0.000 
#    0.000    0.000    0.000    0.000    0.000    0.000 
#
# Total GULP energy -89150.301172 kJ/mol
# GULP energy per Si atom -5571.893823 kJ/mol
# Density = 2.384027 g / cm^3
# Si number density = 23.894655 Si / 1000 Ang^3
#
#
#
# Elastic Constant Matrix: (Units=GPa)
#
#
# Indices 1 2 3 4 5 6 
#
# 1 82.9635 12.2900 43.0708 -12.6455 13.7343 29.5543
# 2 12.2900 94.5586 38.9879 -2.0260 8.9899 34.4955
# 3 43.0708 38.9879 148.4785 -17.4552 19.5069 13.6949
# 4 -12.6455 -2.0260 -17.4552 47.5135 -2.6254 2.4864
# 5 13.7343 8.9899 19.5069 -2.6254 41.4792 0.3796
# 6 29.5543 34.4955 13.6949 2.4864 0.3796 34.2710
#
#
#
# Elastic Compliance Matrix: (Units=1/GPa)
#
#
# Indices 1 2 3 4 5 6 
#
# 1 0.028617 0.012822 -0.006446 0.007183 -0.008444 -0.035436
# 2 0.012822 0.024039 -0.005715 0.003730 -0.006228 -0.033171
# 3 -0.006446 -0.005715 0.009720 0.001161 -0.001192 0.007356
# 4 0.007183 0.003730 0.001161 0.024063 -0.002099 -0.012135
# 5 -0.008444 -0.006228 -0.001192 -0.002099 0.028555 0.013863
# 6 -0.035436 -0.033171 0.007356 -0.012135 0.013863 0.090914
#
#
# Mechanical properties :
#
#
# Convention : Reuss Voigt Hill
#
# Bulk Modulus (GPa) = 15.69917 57.18866 36.44392
# Shear Modulus (GPa) = 22.14176 40.09621 31.11899
#
# Velocity S-wave (km/s) = 3.04738 4.10083 3.61271
# Velocity P-wave (km/s) = 4.35505 6.81235 5.71728
#
# Compressibility (1/GPa) = 0.06369764
#
# Stress axis : x y z
#
# Youngs Moduli (GPa) = 34.94477 41.59985 102.87942
#
# Poissons Ratio (x) = -0.53341 0.66314
# Poissons Ratio (y) = -0.44807 0.58799
# Poissons Ratio (z) = 0.22525 0.23776
#
# Static dielectric constant tensor:
#      x y z
#    x 2.172110 0.084420 -0.074300 
#    y 0.084420 2.220800 -0.027000 
#    z -0.074300 -0.027000 1.867580 
# 
# From -- ./inp_files/592116.got.cif
#   From: 2010.05.17/outbox.cif.g08.bks.cpg/sg2_297_cif.got.tgz:592116.got - 2010.06.03 11:33:40.
