data_PCOD9016252
_publ_section_title
;
Structure prediction by ZEFSAII (Michael W. Deem and Ramdas Pophale) SiO2 
 PCOD9016252
Probable space group: P -1
;
_chemical_formula_sum "Si O2"
_cell_formula_units_Z 12
_cell_length_a 11.130012
_cell_length_b 14.414568
_cell_length_c 8.491982
_cell_angle_alpha 137.520268
_cell_angle_beta 122.608243
_cell_angle_gamma 32.944742
_cell_volume 488.339265
_symmetry_space_group_name_H-M "P -1"
_symmetry_group_IT_number 2
_symmetry_cell_setting 'triclinic'
loop_
_space_group_symop_operation_xyz
x,y,z
-x,-y,-z
loop_
_atom_site_type_symbol
_atom_site_label
_atom_site_fract_x
_atom_site_fract_y
_atom_site_fract_z
Si Si1 0.674252 0.009889 0.982269
Si Si2 0.831857 0.170349 0.456646
Si Si3 0.531491 0.400514 0.060944
Si Si4 0.102055 0.427952 0.304336
Si Si5 0.367682 0.225733 0.766543
Si Si6 0.930450 0.245515 0.311074
O O1 0.744392 0.823166 0.897154
O O2 0.848258 0.890668 0.806860
O O3 0.431018 0.179128 0.937733
O O4 0.718952 0.116874 0.240463
O O5 0.642544 0.409962 0.696683
O O6 0.957690 0.161790 0.398123
O O7 0.000000 0.000000 0.500000
O O8 0.776233 0.254332 0.117480
O O9 0.500000 0.500000 0.000000
O O10 0.472336 0.287586 0.851528
O O11 0.196995 0.511697 0.463383
O O12 0.000000 0.500000 0.500000
O O13 0.894354 0.577691 0.221667
O O14 0.500000 0.000000 0.500000
#
# Coordination Sequence:
#
# PCOD9016252 Si02
#       6
#     2   2   2   2   2   2
#     4  11  24  45  75 106 142 188 234 286 358 424
#     4  12  26  46  70 104 145 185 238 295 350 420
#     4  12  27  45  73 100 138 185 242 294 353 414
#     4  10  21  42  67 107 144 182 234 285 346 424
#     4  12  23  41  74 101 142 184 232 284 355 415
#     4  11  23  44  71 103 143 181 233 293 347 416
#
# _framework density 24.573079
#
# number of rings (size 3 to 8) (size 9 to 14) (size 15 to 20)
#    0.000    0.667    5.000    5.000    2.333    0.000 
#    0.000    5.833    0.000    0.000    0.000    0.000 
#    0.000    0.000    0.000    0.000    0.000    0.000 
#
# Total GULP energy -67265.523551 kJ/mol
# GULP energy per Si atom -5605.460296 kJ/mol
# Density = 2.451715 g / cm^3
# Si number density = 24.573079 Si / 1000 Ang^3
#
#
#
# Elastic Constant Matrix: (Units=GPa)
#
#
# Indices 1 2 3 4 5 6 
#
# 1 130.0138 50.9449 59.1615 8.1794 6.3933 31.4768
# 2 50.9449 155.2255 35.1479 -14.6833 -0.8096 15.7403
# 3 59.1615 35.1479 151.6738 7.6355 28.5868 14.3160
# 4 8.1794 -14.6833 7.6355 47.4883 6.9709 3.3896
# 5 6.3933 -0.8096 28.5868 6.9709 55.6523 8.6284
# 6 31.4768 15.7403 14.3160 3.3896 8.6284 54.4970
#
#
#
# Elastic Compliance Matrix: (Units=1/GPa)
#
#
# Indices 1 2 3 4 5 6 
#
# 1 0.011704 -0.002688 -0.003643 -0.002122 0.001550 -0.005140
# 2 -0.002688 0.007917 -0.000993 0.003026 0.000674 -0.000768
# 3 -0.003643 -0.000993 0.009007 -0.000554 -0.004267 0.000735
# 4 -0.002122 0.003026 -0.000554 0.022811 -0.002196 -0.000574
# 5 0.001550 0.000674 -0.004267 -0.002196 0.020751 -0.003118
# 6 -0.005140 -0.000768 0.000735 -0.000574 -0.003118 0.021877
#
#
# Mechanical properties :
#
#
# Convention : Reuss Voigt Hill
#
# Bulk Modulus (GPa) = 71.52679 80.82462 76.17571
# Shear Modulus (GPa) = 44.10183 50.97144 47.53663
#
# Velocity S-wave (km/s) = 4.24101 4.55937 4.40307
# Velocity P-wave (km/s) = 7.29058 7.78974 7.54429
#
# Compressibility (1/GPa) = 0.01398078
#
# Stress axis : x y z
#
# Youngs Moduli (GPa) = 85.44126 126.31112 111.02733
#
# Poissons Ratio (x) = 0.33950 0.40442
# Poissons Ratio (y) = 0.22965 0.11026
# Poissons Ratio (z) = 0.31122 0.12544
#
# Static dielectric constant tensor:
#      x y z
#    x 1.931980 -0.045210 -0.086110 
#    y -0.045210 2.005280 0.097410 
#    z -0.086110 0.097410 1.991460 
# 
# From -- ./inp_files/274748.got.cif
#   From: 2010.05.17/outbox.cif.g08.bks.cpg/sg2_138_cif.got.tgz:274748.got - 2010.06.03 11:33:40.
