data_PCOD9016708
_publ_section_title
;
Structure prediction by ZEFSAII (Michael W. Deem and Ramdas Pophale) SiO2 
 PCOD9016708
Probable space group: P -1
;
_chemical_formula_sum "Si O2"
_cell_formula_units_Z 14
_cell_length_a 6.831378
_cell_length_b 11.455598
_cell_length_c 10.455579
_cell_angle_alpha 103.176580
_cell_angle_beta 105.425315
_cell_angle_gamma 124.377534
_cell_volume 572.758561
_symmetry_space_group_name_H-M "P -1"
_symmetry_group_IT_number 2
_symmetry_cell_setting 'triclinic'
loop_
_space_group_symop_operation_xyz
x,y,z
-x,-y,-z
loop_
_atom_site_type_symbol
_atom_site_label
_atom_site_fract_x
_atom_site_fract_y
_atom_site_fract_z
Si Si1 0.342881 0.763229 0.368989
Si Si2 0.112758 0.421362 0.564796
Si Si3 0.356154 0.017702 0.290051
Si Si4 0.768434 0.865541 0.076041
Si Si5 0.286563 0.342946 0.177307
Si Si6 0.169065 0.835333 0.758719
Si Si7 0.694152 0.422898 0.904608
O O1 0.525332 0.846487 0.548206
O O2 0.398186 0.669647 0.270630
O O3 0.034564 0.643655 0.339246
O O4 0.398483 0.900812 0.324956
O O5 0.436476 0.548015 0.666451
O O6 0.000000 0.500000 0.500000
O O7 0.004319 0.266431 0.423792
O O8 0.535543 0.097881 0.212483
O O9 0.040923 0.914789 0.192849
O O10 0.498686 0.707616 0.055161
O O11 0.784262 0.010179 0.153117
O O12 0.765021 0.812231 0.918406
O O13 0.318723 0.440937 0.085080
O O14 0.023785 0.289667 0.193885
O O15 0.000000 0.500000 0.000000
#
# Coordination Sequence:
#
# PCOD9016708 Si02
#       7
#     2   2   2   2   2   2   2
#     4  10  21  42  69 100 138 188 231 295 349 410
#     4  11  25  47  72 105 146 185 240 296 352 429
#     4  10  23  44  69 105 141 178 243 296 345 416
#     4  12  26  46  73 104 143 186 242 294 347 433
#     4  12  27  45  72 106 144 192 234 290 370 413
#     4  11  26  46  73 106 141 187 240 296 350 428
#     4  12  25  46  73 105 145 188 238 293 357 427
#
# _framework density 24.443110000000001
#
# number of rings (size 3 to 8) (size 9 to 14) (size 15 to 20)
#    0.000    0.857    1.429    4.714    6.000    1.143 
#    0.000    0.000    0.000    0.000    0.000    0.000 
#    0.000    0.000    0.000    0.000    0.000    0.000 
#
# Total GULP energy -78401.888163 kJ/mol
# GULP energy per Si atom -5600.134869 kJ/mol
# Density = 2.438748 g / cm^3
# Si number density = 24.443110 Si / 1000 Ang^3
#
#
#
# Elastic Constant Matrix: (Units=GPa)
#
#
# Indices 1 2 3 4 5 6 
#
# 1 87.0660 19.9544 46.8386 7.6786 12.0657 14.0353
# 2 19.9544 68.6725 1.0060 4.6107 17.2314 13.6074
# 3 46.8386 1.0060 73.6029 24.6517 -1.1076 -8.2357
# 4 7.6786 4.6107 24.6517 35.7373 5.0352 -8.8058
# 5 12.0657 17.2314 -1.1076 5.0352 55.3504 4.9977
# 6 14.0353 13.6074 -8.2357 -8.8058 4.9977 54.7197
#
#
#
# Elastic Compliance Matrix: (Units=1/GPa)
#
#
# Indices 1 2 3 4 5 6 
#
# 1 0.022870 -0.004693 -0.017512 0.006886 -0.003972 -0.005864
# 2 -0.004693 0.017669 0.003706 -0.004019 -0.003773 -0.002935
# 3 -0.017512 0.003706 0.031216 -0.017635 0.004439 0.005025
# 4 0.006886 -0.004019 -0.017635 0.040713 -0.004627 0.003553
# 5 -0.003972 -0.003773 0.004439 -0.004627 0.020617 -0.000003
# 6 -0.005864 -0.002935 0.005025 0.003553 -0.000003 0.021837
#
#
# Mechanical properties :
#
#
# Convention : Reuss Voigt Hill
#
# Bulk Modulus (GPa) = 28.77117 40.54884 34.66000
# Shear Modulus (GPa) = 24.56916 39.93097 32.25007
#
# Velocity S-wave (km/s) = 3.17386 4.04620 3.63629
# Velocity P-wave (km/s) = 5.02269 6.20114 5.64276
#
# Compressibility (1/GPa) = 0.03475702
#
# Stress axis : x y z
#
# Youngs Moduli (GPa) = 43.72453 56.59549 32.03521
#
# Poissons Ratio (x) = 0.26559 0.56101
# Poissons Ratio (y) = 0.20519 -0.11872
# Poissons Ratio (z) = 0.76571 -0.20973
#
# Static dielectric constant tensor:
#      x y z
#    x 1.902260 0.010280 -0.021460 
#    y 0.010280 1.949000 0.011840 
#    z -0.021460 0.011840 1.931540 
# 
# From -- ./inp_files/118772.got.cif
#   From: 2010.05.17/outbox.cif.g08.bks.cpg/sg2_60_cif.got.tgz:118772.got - 2010.06.03 11:33:40.
