data_PCOD9016810
_publ_section_title
;
Structure prediction by ZEFSAII (Michael W. Deem and Ramdas Pophale) SiO2 
 PCOD9016810
Probable space group: P -1
;
_chemical_formula_sum "Si O2"
_cell_formula_units_Z 13
_cell_length_a 9.092120
_cell_length_b 8.456848
_cell_length_c 15.847798
_cell_angle_alpha 38.010448
_cell_angle_beta 111.957473
_cell_angle_gamma 124.633905
_cell_volume 610.822859
_symmetry_space_group_name_H-M "P -1"
_symmetry_group_IT_number 2
_symmetry_cell_setting 'triclinic'
loop_
_space_group_symop_operation_xyz
x,y,z
-x,-y,-z
loop_
_atom_site_type_symbol
_atom_site_label
_atom_site_fract_x
_atom_site_fract_y
_atom_site_fract_z
Si Si1 0.762794 0.635207 0.027591
Si Si2 0.524220 0.529370 0.295870
Si Si3 0.856571 0.240672 0.884863
Si Si4 0.798346 0.446814 0.495780
Si Si5 0.500000 0.000000 0.000000
Si Si6 0.177182 0.302816 0.428551
Si Si7 0.412187 0.227794 0.216791
O O1 0.718845 0.691675 0.900008
O O2 0.781719 0.912312 0.970472
O O3 0.592403 0.348317 0.148082
O O4 0.949770 0.640157 0.081447
O O5 0.698943 0.504811 0.371884
O O6 0.558342 0.857979 0.154036
O O7 0.358385 0.348760 0.400511
O O8 0.467548 0.401131 0.243447
O O9 0.862425 0.446003 0.723673
O O10 0.709844 0.214453 0.931282
O O11 0.796734 0.647918 0.487179
O O12 0.000000 0.500000 0.500000
O O13 0.679887 0.111980 0.640208
O O14 0.000000 0.000000 0.500000
#
# Coordination Sequence:
#
# PCOD9016810 Si02
#       7
#     2   2   2   2   1   2   2
#     4  10  22  39  72  95 133 168 228 278 320 385
#     4  11  25  44  68  96 138 175 215 279 330 402
#     4  10  21  42  69  94 130 179 213 283 317 400
#     4  12  27  43  72  97 133 178 226 278 329 392
#     4  10  22  42  66  92 136 172 222 260 346 388
#     4  11  25  46  64  98 134 174 221 269 345 399
#     4  11  23  42  68 104 129 172 233 270 333 385
#
# _framework density 21.282765000000001
#
# number of rings (size 3 to 8) (size 9 to 14) (size 15 to 20)
#    0.000    1.231    3.077    1.846    6.462    0.000 
#    2.769    1.538    0.000    0.000    0.000    0.000 
#    0.000    0.000    0.000    0.000    0.000    0.000 
#
# Total GULP energy -72425.649301 kJ/mol
# GULP energy per Si atom -5571.203792 kJ/mol
# Density = 2.123432 g / cm^3
# Si number density = 21.282765 Si / 1000 Ang^3
#
#
#
# Elastic Constant Matrix: (Units=GPa)
#
#
# Indices 1 2 3 4 5 6 
#
# 1 69.3367 43.3813 36.7849 6.9836 20.1930 27.1391
# 2 43.3813 51.6266 5.7214 52.6659 -5.0562 27.0882
# 3 36.7849 5.7214 80.0951 7.6384 -2.0670 26.1913
# 4 6.9836 52.6659 7.6384 31.8157 8.5414 -4.5707
# 5 20.1930 -5.0562 -2.0670 8.5414 15.7667 16.8768
# 6 27.1391 27.0882 26.1913 -4.5707 16.8768 35.1033
#
#
#
# Elastic Compliance Matrix: (Units=1/GPa)
#
#
# Indices 1 2 3 4 5 6 
#
# 1 0.023154 0.003739 -0.003505 -0.012723 -0.001645 -0.019037
# 2 0.003739 0.001549 -0.007275 0.006304 -0.022613 0.013034
# 3 -0.003505 -0.007275 0.014150 0.009142 0.000362 -0.001218
# 4 -0.012723 0.006304 0.009142 0.012566 0.026652 -0.013027
# 5 -0.001645 -0.022613 0.000362 0.026652 0.042079 0.001691
# 6 -0.019037 0.013034 -0.001218 -0.013027 0.001691 0.031546
#
#
# Mechanical properties :
#
#
# Convention : Reuss Voigt Hill
#
# Bulk Modulus (GPa) = 40.36785 41.42597 40.89691
# Shear Modulus (GPa) = 33.92474 24.21518 29.06996
#
# Velocity S-wave (km/s) = 3.99682 3.37676 3.69981
# Velocity P-wave (km/s) = 6.34886 5.89154 6.12447
#
# Compressibility (1/GPa) = 0.02477219
#
# Stress axis : x y z
#
# Youngs Moduli (GPa) = 43.18820 645.44101 70.66996
#
# Poissons Ratio (x) = -2.41330 0.24770
# Poissons Ratio (y) = -0.16148 0.51411
# Poissons Ratio (z) = 0.15138 4.69549
#
# Static dielectric constant tensor:
#      x y z
#    x 1.817590 -0.055570 0.051670 
#    y -0.055570 1.780380 -0.032340 
#    z 0.051670 -0.032340 1.760160 
# 
# From -- ./inp_files/150023.got.cif
#   From: 2010.05.17/outbox.cif.g08.bks.cpg/sg2_76_cif.got.tgz:150023.got - 2010.06.03 11:33:40.
