data_PCOD9016080
_publ_section_title
;
Structure prediction by ZEFSAII (Michael W. Deem and Ramdas Pophale) SiO2 
 PCOD9016080
Probable space group: P -1
;
_chemical_formula_sum "Si O2"
_cell_formula_units_Z 16
_cell_length_a 5.312235
_cell_length_b 22.908356
_cell_length_c 9.999964
_cell_angle_alpha 35.567712
_cell_angle_beta 106.560194
_cell_angle_gamma 116.965505
_cell_volume 622.591220
_symmetry_space_group_name_H-M "P -1"
_symmetry_group_IT_number 2
_symmetry_cell_setting 'triclinic'
loop_
_space_group_symop_operation_xyz
x,y,z
-x,-y,-z
loop_
_atom_site_type_symbol
_atom_site_label
_atom_site_fract_x
_atom_site_fract_y
_atom_site_fract_z
Si Si1 0.299838 0.422248 0.227944
Si Si2 0.774526 0.640669 0.235797
Si Si3 0.362634 0.645864 0.376109
Si Si4 0.397666 0.847389 0.644154
Si Si5 0.155418 0.222056 0.438743
Si Si6 0.586476 0.370840 0.027302
Si Si7 0.696156 0.963121 0.195187
Si Si8 0.761849 0.856821 0.921380
O O1 0.502739 0.382635 0.420916
O O2 0.068020 0.307378 0.351560
O O3 0.500000 0.500000 0.000000
O O4 0.197860 0.505809 0.138175
O O5 0.507662 0.401548 0.636031
O O6 0.027542 0.609822 0.382207
O O7 0.674432 0.614365 0.118303
O O8 0.877385 0.772418 0.025041
O O9 0.512458 0.776089 0.129569
O O10 0.345706 0.717714 0.883217
O O11 0.534093 0.906107 0.415304
O O12 0.606910 0.899153 0.703890
O O13 0.074608 0.837503 0.600910
O O14 0.446056 0.302646 0.264348
O O15 0.215176 0.127108 0.696681
O O16 0.984280 0.058603 0.113056
O O17 0.500000 0.000000 0.000000
#
# Coordination Sequence:
#
# PCOD9016080 Si02
#       8
#     2   2   2   2   2   2   2   2
#     4  10  23  44  63  97 135 185 226 281 347 418
#     4   9  21  40  69  98 139 171 233 286 347 402
#     4  10  22  41  68 100 140 179 228 292 341 412
#     4  10  21  42  66  94 133 170 233 286 345 412
#     4  10  23  40  65  95 134 178 232 281 343 419
#     4   9  20  42  64  96 132 173 227 282 351 404
#     4  11  25  40  65  97 135 182 226 281 353 414
#     4   9  22  41  66 100 131 182 224 293 343 411
#
# _framework density 25.699044000000001
#
# number of rings (size 3 to 8) (size 9 to 14) (size 15 to 20)
#    0.750    1.500    0.000    1.125    3.500    3.500 
#    9.000    0.000    0.000    0.000    0.000    0.000 
#    0.000    0.000    0.000    0.000    0.000    0.000 
#
# Total GULP energy -89364.379248 kJ/mol
# GULP energy per Si atom -5585.273703 kJ/mol
# Density = 2.564055 g / cm^3
# Si number density = 25.699044 Si / 1000 Ang^3
#
#
#
# Elastic Constant Matrix: (Units=GPa)
#
#
# Indices 1 2 3 4 5 6 
#
# 1 74.3734 32.2060 27.8480 3.3751 4.2199 29.6635
# 2 32.2060 165.7710 76.1259 -1.3499 13.5063 27.7302
# 3 27.8480 76.1259 134.5043 19.7473 6.3676 14.6179
# 4 3.3751 -1.3499 19.7473 53.5981 0.2764 8.6114
# 5 4.2199 13.5063 6.3676 0.2764 30.1161 7.9546
# 6 29.6635 27.7302 14.6179 8.6114 7.9546 35.8787
#
#
#
# Elastic Compliance Matrix: (Units=1/GPa)
#
#
# Indices 1 2 3 4 5 6 
#
# 1 0.021305 0.000001 -0.002991 0.002562 0.002248 -0.017510
# 2 0.000001 0.009486 -0.005126 0.003034 -0.001722 -0.005591
# 3 -0.002991 -0.005126 0.011322 -0.004595 -0.000432 0.003021
# 4 0.002562 0.003034 -0.004595 0.021549 0.001173 -0.008024
# 5 0.002248 -0.001722 -0.000432 0.001173 0.036019 -0.008619
# 6 -0.017510 -0.005591 0.003021 -0.008024 -0.008619 0.049276
#
#
# Mechanical properties :
#
#
# Convention : Reuss Voigt Hill
#
# Bulk Modulus (GPa) = 38.63692 71.88984 55.26338
# Shear Modulus (GPa) = 28.76608 39.81649 34.29129
#
# Velocity S-wave (km/s) = 3.34929 3.94043 3.65683
# Velocity P-wave (km/s) = 5.47942 6.98120 6.27539
#
# Compressibility (1/GPa) = 0.02588198
#
# Stress axis : x y z
#
# Youngs Moduli (GPa) = 46.93678 105.41584 88.32511
#
# Poissons Ratio (x) = -0.00015 0.26422
# Poissons Ratio (y) = -0.00007 0.45272
# Poissons Ratio (z) = 0.14041 0.54032
#
# Static dielectric constant tensor:
#      x y z
#    x 2.068170 -0.096050 0.035840 
#    y -0.096050 2.099530 -0.054650 
#    z 0.035840 -0.054650 2.062540 
# 
# From -- ./inp_files/371421.got.cif
#   From: 2010.05.17/outbox.cif.g08.bks.cpg/sg2_186_cif.got.tgz:371421.got - 2010.06.03 11:33:40.
