data_PCOD9016463
_publ_section_title
;
Structure prediction by ZEFSAII (Michael W. Deem and Ramdas Pophale) SiO2 
 PCOD9016463
Probable space group: P -1
;
_chemical_formula_sum "Si O2"
_cell_formula_units_Z 16
_cell_length_a 13.678008
_cell_length_b 9.316142
_cell_length_c 9.100483
_cell_angle_alpha 36.881009
_cell_angle_beta 82.706541
_cell_angle_gamma 93.286785
_cell_volume 665.292474
_symmetry_space_group_name_H-M "P -1"
_symmetry_group_IT_number 2
_symmetry_cell_setting 'triclinic'
loop_
_space_group_symop_operation_xyz
x,y,z
-x,-y,-z
loop_
_atom_site_type_symbol
_atom_site_label
_atom_site_fract_x
_atom_site_fract_y
_atom_site_fract_z
Si Si1 0.221442 0.726410 0.308411
Si Si2 0.783429 0.479703 0.211916
Si Si3 0.620474 0.743685 0.131494
Si Si4 0.015537 0.223484 0.194301
Si Si5 0.094097 0.937335 0.954053
Si Si6 0.336335 0.949180 0.593058
Si Si7 0.307891 0.316711 0.533347
Si Si8 0.492085 0.742282 0.892078
O O1 0.179834 0.594412 0.577325
O O2 0.292244 0.587094 0.320839
O O3 0.297070 0.990950 0.120171
O O4 0.129739 0.737957 0.209027
O O5 0.760059 0.245339 0.299249
O O6 0.677961 0.549916 0.210483
O O7 0.866723 0.708992 0.938874
O O8 0.520133 0.723476 0.071584
O O9 0.610255 0.705368 0.339853
O O10 0.941072 0.129290 0.149348
O O11 0.000000 0.000000 0.500000
O O12 0.000000 0.500000 0.000000
O O13 0.198103 0.156357 0.747446
O O14 0.000000 0.000000 0.000000
O O15 0.387936 0.806810 0.818519
O O16 0.321403 0.190358 0.481384
O O17 0.417279 0.038797 0.373797
O O18 0.500000 0.500000 0.000000
#
# Coordination Sequence:
#
# PCOD9016463 Si02
#       8
#     2   2   2   2   2   2   2   2
#     4  10  22  43  73 100 138 191 236 296 365 437
#     4  11  23  44  74  99 140 193 246 299 365 443
#     4  10  21  42  68 100 134 182 240 290 361 433
#     4  12  30  47  70 109 150 192 245 312 373 434
#     4  11  25  47  72 103 141 189 250 297 362 438
#     4  11  24  43  70 106 137 186 237 300 362 436
#     4  10  24  41  66 104 143 181 234 297 366 426
#     4  11  23  42  71 102 139 181 241 292 366 439
#
# _framework density 24.049575000000001
#
# number of rings (size 3 to 8) (size 9 to 14) (size 15 to 20)
#    0.000    1.250    2.500    3.000    5.250    4.500 
#    0.000    1.250    0.000    0.000    0.000    0.000 
#    0.000    0.000    0.000    0.000    0.000    0.000 
#
# Total GULP energy -89539.573948 kJ/mol
# GULP energy per Si atom -5596.223372 kJ/mol
# Density = 2.399484 g / cm^3
# Si number density = 24.049575 Si / 1000 Ang^3
#
#
#
# Elastic Constant Matrix: (Units=GPa)
#
#
# Indices 1 2 3 4 5 6 
#
# 1 73.1934 40.8490 43.1110 23.7374 19.5133 18.8515
# 2 40.8490 159.3231 54.6934 6.4801 25.8077 21.0919
# 3 43.1110 54.6934 141.0544 24.5471 8.4637 12.1972
# 4 23.7374 6.4801 24.5471 40.0586 1.6041 8.9878
# 5 19.5133 25.8077 8.4637 1.6041 46.0653 4.3656
# 6 18.8515 21.0919 12.1972 8.9878 4.3656 46.3546
#
#
#
# Elastic Compliance Matrix: (Units=1/GPa)
#
#
# Indices 1 2 3 4 5 6 
#
# 1 0.023636 -0.002620 -0.003625 -0.009986 -0.007070 -0.004864
# 2 -0.002620 0.008524 -0.002532 0.002368 -0.003063 -0.002317
# 3 -0.003625 -0.002532 0.009668 -0.003564 0.001240 0.000657
# 4 -0.009986 0.002368 -0.003564 0.033195 0.002664 -0.002766
# 5 -0.007070 -0.003063 0.001240 0.002664 0.026006 0.000977
# 6 -0.004864 -0.002317 0.000657 -0.002766 0.000977 0.024877
#
#
# Mechanical properties :
#
#
# Convention : Reuss Voigt Hill
#
# Bulk Modulus (GPa) = 41.19812 72.31977 56.75894
# Shear Modulus (GPa) = 32.99141 42.15688 37.57414
#
# Velocity S-wave (km/s) = 3.70781 4.19133 3.95696
# Velocity P-wave (km/s) = 5.95803 7.31843 6.67299
#
# Compressibility (1/GPa) = 0.02427295
#
# Stress axis : x y z
#
# Youngs Moduli (GPa) = 42.30770 117.31056 103.42973
#
# Poissons Ratio (x) = 0.30740 0.37497
# Poissons Ratio (y) = 0.11086 0.26192
# Poissons Ratio (z) = 0.15338 0.29707
#
# Static dielectric constant tensor:
#      x y z
#    x 1.904650 -0.029610 0.004030 
#    y -0.029610 1.906290 -0.004820 
#    z 0.004030 -0.004820 1.986370 
# 
# From -- ./inp_files/53810.got.cif
#   From: 2010.05.17/outbox.cif.g08.bks.cpg/sg2_27_cif.got.tgz:53810.got - 2010.06.03 11:33:40.
