data_PCOD9016794
_publ_section_title
;
Structure prediction by ZEFSAII (Michael W. Deem and Ramdas Pophale) SiO2 
 PCOD9016794
Probable space group: P -1
;
_chemical_formula_sum "Si O2"
_cell_formula_units_Z 16
_cell_length_a 9.377005
_cell_length_b 6.597437
_cell_length_c 12.220856
_cell_angle_alpha 109.019594
_cell_angle_beta 91.988115
_cell_angle_gamma 92.909860
_cell_volume 712.786118
_symmetry_space_group_name_H-M "P -1"
_symmetry_group_IT_number 2
_symmetry_cell_setting 'triclinic'
loop_
_space_group_symop_operation_xyz
x,y,z
-x,-y,-z
loop_
_atom_site_type_symbol
_atom_site_label
_atom_site_fract_x
_atom_site_fract_y
_atom_site_fract_z
Si Si1 0.241477 0.988653 0.972120
Si Si2 0.895414 0.312635 0.907314
Si Si3 0.658629 0.422526 0.185312
Si Si4 0.852071 0.821415 0.219374
Si Si5 0.412038 0.150042 0.444477
Si Si6 0.610341 0.545661 0.908621
Si Si7 0.676867 0.376226 0.412355
Si Si8 0.837299 0.053491 0.486376
O O1 0.347613 0.803130 0.916233
O O2 0.168180 0.033773 0.862073
O O3 0.136431 0.880550 0.041320
O O4 0.321066 0.211524 0.049200
O O5 0.742907 0.397725 0.887568
O O6 0.984263 0.237923 0.792384
O O7 0.000000 0.500000 0.000000
O O8 0.752973 0.605517 0.157870
O O9 0.497927 0.494655 0.203243
O O10 0.738616 0.395141 0.296489
O O11 0.802145 0.918009 0.349006
O O12 0.534551 0.211356 0.369260
O O13 0.372221 0.387913 0.521223
O O14 0.500000 0.000000 0.500000
O O15 0.257461 0.022991 0.424559
O O16 0.500000 0.500000 0.000000
O O17 0.786151 0.285461 0.487142
O O18 0.000000 0.000000 0.500000
#
# Coordination Sequence:
#
# PCOD9016794 Si02
#       8
#     2   2   2   2   2   2   2   2
#     4  12  22  41  69  88 138 173 218 262 337 383
#     4  12  24  42  62  96 136 180 220 268 328 398
#     4  12  23  41  68  95 125 175 227 265 328 405
#     4  12  24  43  66  92 132 179 220 271 337 404
#     4   9  20  42  67  92 125 161 215 277 332 392
#     4  12  24  41  62  98 133 171 221 276 319 394
#     4  10  21  42  69  93 122 175 216 270 342 394
#     4  11  24  44  66  97 131 172 224 281 338 406
#
# _framework density 22.447126999999998
#
# number of rings (size 3 to 8) (size 9 to 14) (size 15 to 20)
#    0.000    0.750    7.500    0.750    0.000    0.500 
#    9.000    0.000    0.000    0.000    0.000    0.000 
#    0.000    0.000    0.000    0.000    0.000    0.000 
#
# Total GULP energy -89174.384625 kJ/mol
# GULP energy per Si atom -5573.399039 kJ/mol
# Density = 2.239604 g / cm^3
# Si number density = 22.447127 Si / 1000 Ang^3
#
#
#
# Elastic Constant Matrix: (Units=GPa)
#
#
# Indices 1 2 3 4 5 6 
#
# 1 151.8907 51.3283 2.7878 -0.0070 2.3165 -15.1675
# 2 51.3283 147.9748 13.5697 -2.6972 0.9725 -4.1635
# 3 2.7878 13.5697 15.8695 2.3310 -0.4930 -4.6784
# 4 -0.0070 -2.6972 2.3310 20.6093 -5.0042 -4.2271
# 5 2.3165 0.9725 -0.4930 -5.0042 27.9001 1.1092
# 6 -15.1675 -4.1635 -4.6784 -4.2271 1.1092 36.7472
#
#
#
# Elastic Compliance Matrix: (Units=1/GPa)
#
#
# Indices 1 2 3 4 5 6 
#
# 1 0.007820 -0.002799 0.001947 -0.000095 -0.000660 0.003168
# 2 -0.002799 0.008396 -0.007214 0.001764 0.000166 -0.000925
# 3 0.001947 -0.007214 0.072393 -0.007493 -0.000307 0.008350
# 4 -0.000095 0.001764 -0.007493 0.052835 0.009091 0.005010
# 5 -0.000660 0.000166 -0.000307 0.009091 0.037532 -0.000380
# 6 0.003168 -0.000925 0.008350 0.005010 -0.000380 0.030067
#
#
# Mechanical properties :
#
#
# Convention : Reuss Voigt Hill
#
# Bulk Modulus (GPa) = 13.79749 50.12296 31.96023
# Shear Modulus (GPa) = 20.05348 33.58793 26.82071
#
# Velocity S-wave (km/s) = 2.99216 3.87242 3.46039
# Velocity P-wave (km/s) = 4.25410 6.50938 5.49861
#
# Compressibility (1/GPa) = 0.07247695
#
# Stress axis : x y z
#
# Youngs Moduli (GPa) = 127.87158 119.11098 13.81350
#
# Poissons Ratio (x) = 0.33345 -0.02690
# Poissons Ratio (y) = 0.35797 0.09965
# Poissons Ratio (z) = -0.24899 0.85923
#
# Static dielectric constant tensor:
#      x y z
#    x 1.896190 -0.033530 0.001610 
#    y -0.033530 1.870830 -0.014540 
#    z 0.001610 -0.014540 1.859700 
# 
# From -- ./inp_files/105146.got.cif
#   From: 2010.05.17/outbox.cif.g08.bks.cpg/sg2_53_cif.got.tgz:105146.got - 2010.06.03 11:33:40.
