data_PCOD9016980
_publ_section_title
;
Structure prediction by ZEFSAII (Michael W. Deem and Ramdas Pophale) SiO2 
 PCOD9016980
Probable space group: P -1
;
_chemical_formula_sum "Si O2"
_cell_formula_units_Z 15
_cell_length_a 8.152702
_cell_length_b 10.270759
_cell_length_c 11.232161
_cell_angle_alpha 93.636822
_cell_angle_beta 39.840643
_cell_angle_gamma 89.734165
_cell_volume 599.237465
_symmetry_space_group_name_H-M "P -1"
_symmetry_group_IT_number 2
_symmetry_cell_setting 'triclinic'
loop_
_space_group_symop_operation_xyz
x,y,z
-x,-y,-z
loop_
_atom_site_type_symbol
_atom_site_label
_atom_site_fract_x
_atom_site_fract_y
_atom_site_fract_z
Si Si1 0.500000 0.500000 0.000000
Si Si2 0.731670 0.252663 0.745267
Si Si3 0.755981 0.089476 0.298576
Si Si4 0.003542 0.189858 0.370659
Si Si5 0.716343 0.905796 0.114524
Si Si6 0.419736 0.821619 0.925988
Si Si7 0.910636 0.456652 0.299040
Si Si8 0.493398 0.658265 0.646506
O O1 0.647012 0.405394 0.810770
O O2 0.789753 0.531185 0.890734
O O3 0.970938 0.200348 0.529874
O O4 0.498529 0.186393 0.806523
O O5 0.751960 0.208361 0.868358
O O6 0.843404 0.086990 0.385794
O O7 0.535200 0.202157 0.398507
O O8 0.719748 0.950062 0.252513
O O9 0.001953 0.141823 0.092761
O O10 0.904913 0.330027 0.380409
O O11 0.300562 0.162823 0.174464
O O12 0.660908 0.045725 0.088159
O O13 0.455474 0.698858 0.808615
O O14 0.759102 0.578252 0.458574
O O15 0.734015 0.425437 0.281976
#
# Coordination Sequence:
#
# PCOD9016980 Si02
#       8
#     1   2   2   2   2   2   2   2
#     4  12  24  42  70  96 134 176 232 272 334 404
#     4  12  25  38  65 101 131 181 223 273 342 406
#     4   9  19  41  70  94 126 181 220 289 335 394
#     4  11  23  40  68  97 141 173 226 278 345 398
#     4  10  21  42  70  92 135 176 230 276 340 395
#     4  11  22  42  66  99 136 175 223 284 330 408
#     4  10  21  43  70  97 135 182 225 283 339 400
#     4   9  20  39  72  95 134 179 226 279 341 395
#
# _framework density 25.031814000000001
#
# number of rings (size 3 to 8) (size 9 to 14) (size 15 to 20)
#    0.000    1.600    2.667    2.000    1.867    2.133 
#    0.000    0.667   49.867    0.000    0.000    0.000 
#    0.000    0.000    0.000    0.000    0.000    0.000 
#
# Total GULP energy -83700.444425 kJ/mol
# GULP energy per Si atom -5580.029628 kJ/mol
# Density = 2.497484 g / cm^3
# Si number density = 25.031814 Si / 1000 Ang^3
#
#
#
# Elastic Constant Matrix: (Units=GPa)
#
#
# Indices 1 2 3 4 5 6 
#
# 1 100.1565 13.7811 29.8157 7.4807 11.7582 18.1421
# 2 13.7811 40.6955 30.6381 20.4623 6.6968 6.0815
# 3 29.8157 30.6381 99.2857 22.6915 10.3236 -2.5835
# 4 7.4807 20.4623 22.6915 35.6309 8.4415 -2.9045
# 5 11.7582 6.6968 10.3236 8.4415 56.0207 11.9422
# 6 18.1421 6.0815 -2.5835 -2.9045 11.9422 38.6736
#
#
#
# Elastic Compliance Matrix: (Units=1/GPa)
#
#
# Indices 1 2 3 4 5 6 
#
# 1 0.012238 -0.000242 -0.003581 -0.000488 -0.000569 -0.005803
# 2 -0.000242 0.042375 -0.008891 -0.019728 0.001536 -0.009100
# 3 -0.003581 -0.008891 0.014808 -0.002894 -0.001391 0.004279
# 4 -0.000488 -0.019728 -0.002894 0.043231 -0.005225 0.007998
# 5 -0.000569 0.001536 -0.001391 -0.005225 0.020262 -0.006717
# 6 -0.005803 -0.009100 0.004279 0.007998 -0.006717 0.032971
#
#
# Mechanical properties :
#
#
# Convention : Reuss Voigt Hill
#
# Bulk Modulus (GPa) = 22.73077 43.17861 32.95469
# Shear Modulus (GPa) = 24.27436 37.12524 30.69980
#
# Velocity S-wave (km/s) = 3.11744 3.85531 3.50584
# Velocity P-wave (km/s) = 4.69664 6.09137 5.43890
#
# Compressibility (1/GPa) = 0.04399323
#
# Stress axis : x y z
#
# Youngs Moduli (GPa) = 81.71237 23.59860 67.52904
#
# Poissons Ratio (x) = 0.00572 0.24179
# Poissons Ratio (y) = 0.01980 0.60043
# Poissons Ratio (z) = 0.29258 0.20983
#
# Static dielectric constant tensor:
#      x y z
#    x 2.035120 0.004290 0.047940 
#    y 0.004290 2.030500 -0.022890 
#    z 0.047940 -0.022890 1.976290 
# 
# From -- ./inp_files/387709.got.cif
#   From: 2010.05.17/outbox.cif.g08.bks.cpg/sg2_194_cif.got.tgz:387709.got - 2010.06.03 11:33:40.
