data_PCOD9016678
_publ_section_title
;
Structure prediction by ZEFSAII (Michael W. Deem and Ramdas Pophale) SiO2 
 PCOD9016678
Probable space group: P -1
;
_chemical_formula_sum "Si O2"
_cell_formula_units_Z 12
_cell_length_a 7.220682
_cell_length_b 12.051181
_cell_length_c 8.326311
_cell_angle_alpha 46.547822
_cell_angle_beta 112.336131
_cell_angle_gamma 112.941181
_cell_volume 477.533197
_symmetry_space_group_name_H-M "P -1"
_symmetry_group_IT_number 2
_symmetry_cell_setting 'triclinic'
loop_
_space_group_symop_operation_xyz
x,y,z
-x,-y,-z
loop_
_atom_site_type_symbol
_atom_site_label
_atom_site_fract_x
_atom_site_fract_y
_atom_site_fract_z
Si Si1 0.144409 0.436139 0.328998
Si Si2 0.405616 0.010556 0.733247
Si Si3 0.744551 0.565417 0.003596
Si Si4 0.006861 0.846281 0.261141
Si Si5 0.738955 0.900249 0.736562
Si Si6 0.700273 0.234571 0.819884
O O1 0.202064 0.410687 0.190436
O O2 0.284540 0.594234 0.280014
O O3 0.162147 0.292696 0.592402
O O4 0.906984 0.462546 0.222557
O O5 0.574626 0.922037 0.797621
O O6 0.342247 0.098636 0.471757
O O7 0.495967 0.135604 0.773290
O O8 0.251442 0.875389 0.908076
O O9 0.793525 0.731789 0.944818
O O10 0.500000 0.500000 0.000000
O O11 0.149546 0.762137 0.283161
O O12 0.104860 0.935670 0.363207
O O13 0.000000 0.000000 0.000000
#
# Coordination Sequence:
#
# PCOD9016678 Si02
#       6
#     2   2   2   2   2   2
#     4  11  26  45  71 106 145 187 238 295 355 429
#     4   9  21  39  72 103 138 192 233 301 348 421
#     4  11  26  44  72 108 141 188 237 297 360 422
#     4  11  25  43  67 100 141 192 235 295 360 416
#     4  10  22  41  68  98 142 187 241 287 358 424
#     4  10  21  42  68  98 146 183 234 295 358 413
#
# _framework density 25.129142999999999
#
# number of rings (size 3 to 8) (size 9 to 14) (size 15 to 20)
#    0.000    1.667    0.000    2.500   14.000    0.667 
#    0.000    0.833    0.000    0.000    0.000    0.000 
#    0.000    0.000    0.000    0.000    0.000    0.000 
#
# Total GULP energy -67063.729314 kJ/mol
# GULP energy per Si atom -5588.644109 kJ/mol
# Density = 2.507195 g / cm^3
# Si number density = 25.129143 Si / 1000 Ang^3
#
#
#
# Elastic Constant Matrix: (Units=GPa)
#
#
# Indices 1 2 3 4 5 6 
#
# 1 102.7464 37.8841 50.5662 -26.8826 -6.4274 -9.5410
# 2 37.8841 138.7302 35.0064 -21.6030 -2.9237 -8.4005
# 3 50.5662 35.0064 123.1548 -6.8075 -25.2711 -7.7321
# 4 -26.8826 -21.6030 -6.8075 24.9142 8.2356 1.2904
# 5 -6.4274 -2.9237 -25.2711 8.2356 32.6036 -9.0452
# 6 -9.5410 -8.4005 -7.7321 1.2904 -9.0452 41.7966
#
#
#
# Elastic Compliance Matrix: (Units=1/GPa)
#
#
# Indices 1 2 3 4 5 6 
#
# 1 0.018568 -0.000016 -0.008014 0.020299 -0.007543 0.000494
# 2 -0.000016 0.009154 -0.002804 0.008241 -0.003344 0.000339
# 3 -0.008014 -0.002804 0.014527 -0.011714 0.013372 0.003550
# 4 0.020299 0.008241 -0.011714 0.074087 -0.023984 -0.003355
# 5 -0.007543 -0.003344 0.013372 -0.023984 0.048444 0.011304
# 6 0.000494 0.000339 0.003550 -0.003355 0.011304 0.027313
#
#
# Mechanical properties :
#
#
# Convention : Reuss Voigt Hill
#
# Bulk Modulus (GPa) = 48.59418 67.94944 58.27181
# Shear Modulus (GPa) = 22.66335 35.94117 29.30226
#
# Velocity S-wave (km/s) = 3.00638 3.78598 3.41848
# Velocity P-wave (km/s) = 5.60632 6.79782 6.23062
#
# Compressibility (1/GPa) = 0.02057860
#
# Stress axis : x y z
#
# Youngs Moduli (GPa) = 53.85720 109.24520 68.83852
#
# Poissons Ratio (x) = 0.00180 0.55166
# Poissons Ratio (y) = 0.00089 0.19306
# Poissons Ratio (z) = 0.43160 0.30638
#
# Static dielectric constant tensor:
#      x y z
#    x 2.089370 0.098670 0.129330 
#    y 0.098670 1.971670 0.050840 
#    z 0.129330 0.050840 1.990780 
# 
# From -- ./inp_files/167199.got.cif
#   From: 2010.05.17/outbox.cif.g08.bks.cpg/sg2_84_cif.got.tgz:167199.got - 2010.06.03 11:33:40.
