data_PCOD9016164
_publ_section_title
;
Structure prediction by ZEFSAII (Michael W. Deem and Ramdas Pophale) SiO2 
 PCOD9016164
Probable space group: P -1
;
_chemical_formula_sum "Si O2"
_cell_formula_units_Z 16
_cell_length_a 20.641037
_cell_length_b 18.550399
_cell_length_c 12.071471
_cell_angle_alpha 151.205629
_cell_angle_beta 139.557921
_cell_angle_gamma 20.136303
_cell_volume 711.346611
_symmetry_space_group_name_H-M "P -1"
_symmetry_group_IT_number 2
_symmetry_cell_setting 'triclinic'
loop_
_space_group_symop_operation_xyz
x,y,z
-x,-y,-z
loop_
_atom_site_type_symbol
_atom_site_label
_atom_site_fract_x
_atom_site_fract_y
_atom_site_fract_z
Si Si1 0.450516 0.116011 0.467810
Si Si2 0.077824 0.524303 0.393512
Si Si3 0.815180 0.164427 0.624647
Si Si4 0.627516 0.340570 0.211895
Si Si5 0.348990 0.826815 0.206844
Si Si6 0.225982 0.011359 0.858128
Si Si7 0.353828 0.359366 0.092958
Si Si8 0.220751 0.543023 0.411009
O O1 0.218320 0.386555 0.495319
O O2 0.516995 0.199602 0.658586
O O3 0.500000 0.000000 0.500000
O O4 0.580243 0.854363 0.193813
O O5 0.191060 0.451372 0.337457
O O6 0.082030 0.339049 0.138609
O O7 0.851369 0.881715 0.589777
O O8 0.600942 0.423786 0.756546
O O9 0.803973 0.328064 0.755792
O O10 0.829848 0.005576 0.346221
O O11 0.004335 0.907606 0.605485
O O12 0.631675 0.514284 0.437505
O O13 0.742501 0.143596 0.208281
O O14 0.724828 0.127433 0.949081
O O15 0.500000 0.500000 0.000000
O O16 0.448037 0.795126 0.839725
O O17 0.285041 0.402293 0.183468
#
# Coordination Sequence:
#
# PCOD9016164 Si02
#       8
#     2   2   2   2   2   2   2   2
#     4  11  26  48  74 101 136 183 231 284 338 407
#     4  11  28  45  64 106 141 179 229 284 341 406
#     4  11  21  40  68 102 134 172 227 277 341 406
#     4  11  23  43  69  94 132 180 228 284 330 403
#     4  12  27  48  69  97 139 187 229 277 347 408
#     4  10  21  42  66  97 138 170 223 284 342 394
#     4  10  21  42  69 103 137 172 227 284 337 401
#     4  12  24  40  67 102 135 180 222 279 343 397
#
# _framework density 22.492552
#
# number of rings (size 3 to 8) (size 9 to 14) (size 15 to 20)
#    0.000    1.000    2.500    4.875    1.750    8.500 
#    2.250    0.000    0.000    0.000    0.000    0.000 
#    0.000    0.000    0.000    0.000    0.000    0.000 
#
# Total GULP energy -89580.456013 kJ/mol
# GULP energy per Si atom -5598.778501 kJ/mol
# Density = 2.244136 g / cm^3
# Si number density = 22.492552 Si / 1000 Ang^3
#
#
#
# Elastic Constant Matrix: (Units=GPa)
#
#
# Indices 1 2 3 4 5 6 
#
# 1 85.3158 6.4796 33.7960 8.6368 3.6144 0.6572
# 2 6.4796 58.8413 10.2251 21.7808 2.0314 5.3793
# 3 33.7960 10.2251 112.6806 2.2134 8.1769 -3.9195
# 4 8.6368 21.7808 2.2134 32.8901 -1.7415 -4.0274
# 5 3.6144 2.0314 8.1769 -1.7415 35.3331 3.0330
# 6 0.6572 5.3793 -3.9195 -4.0274 3.0330 20.9412
#
#
#
# Elastic Compliance Matrix: (Units=1/GPa)
#
#
# Indices 1 2 3 4 5 6 
#
# 1 0.013775 0.001031 -0.004180 -0.004320 -0.000522 -0.002235
# 2 0.001031 0.024907 -0.002503 -0.017896 -0.000965 -0.010201
# 3 -0.004180 -0.002503 0.010581 0.002363 -0.002062 0.003508
# 4 -0.004320 -0.017896 0.002363 0.044994 0.001979 0.013542
# 5 -0.000522 -0.000965 -0.002062 0.001979 0.029328 -0.003989
# 6 -0.002235 -0.010201 0.003508 0.013542 -0.003989 0.054282
#
#
# Mechanical properties :
#
#
# Convention : Reuss Voigt Hill
#
# Bulk Modulus (GPa) = 26.34419 39.75988 33.05203
# Shear Modulus (GPa) = 24.77416 31.58869 28.18142
#
# Velocity S-wave (km/s) = 3.32239 3.75161 3.54350
# Velocity P-wave (km/s) = 5.14350 6.03998 5.60968
#
# Compressibility (1/GPa) = 0.03795903
#
# Stress axis : x y z
#
# Youngs Moduli (GPa) = 72.59316 40.14994 94.51196
#
# Poissons Ratio (x) = -0.04139 0.39507
# Poissons Ratio (y) = -0.07484 0.23652
# Poissons Ratio (z) = 0.30345 0.10048
#
# Static dielectric constant tensor:
#      x y z
#    x 1.866720 0.023750 -0.066690 
#    y 0.023750 1.881000 -0.020190 
#    z -0.066690 -0.020190 1.874040 
# 
# From -- ./inp_files/403262.got.cif
#   From: 2010.05.17/outbox.cif.g08.bks.cpg/sg2_202_cif.got.tgz:403262.got - 2010.06.03 11:33:40.
