data_PCOD9016430
_publ_section_title
;
Structure prediction by ZEFSAII (Michael W. Deem and Ramdas Pophale) SiO2 
 PCOD9016430
Probable space group: P -1
;
_chemical_formula_sum "Si O2"
_cell_formula_units_Z 16
_cell_length_a 8.469984
_cell_length_b 15.565443
_cell_length_c 9.026995
_cell_angle_alpha 105.378979
_cell_angle_beta 42.173923
_cell_angle_gamma 109.011175
_cell_volume 754.907376
_symmetry_space_group_name_H-M "P -1"
_symmetry_group_IT_number 2
_symmetry_cell_setting 'triclinic'
loop_
_space_group_symop_operation_xyz
x,y,z
-x,-y,-z
loop_
_atom_site_type_symbol
_atom_site_label
_atom_site_fract_x
_atom_site_fract_y
_atom_site_fract_z
Si Si1 0.535817 0.035090 0.323351
Si Si2 0.982210 0.834821 0.007612
Si Si3 0.589411 0.715479 0.820651
Si Si4 0.921724 0.290382 0.374973
Si Si5 0.571835 0.393637 0.564388
Si Si6 0.530477 0.159017 0.785614
Si Si7 0.282803 0.206737 0.554883
Si Si8 0.720894 0.461533 0.162948
O O1 0.398442 0.117465 0.434281
O O2 0.814246 0.076894 0.121215
O O3 0.500000 0.000000 0.500000
O O4 0.443390 0.944156 0.252670
O O5 0.059160 0.754199 0.821220
O O6 0.722729 0.845522 0.128952
O O7 0.959364 0.816661 0.190902
O O8 0.700887 0.757642 0.607250
O O9 0.374372 0.630337 0.902912
O O10 0.811928 0.686435 0.735921
O O11 0.497823 0.788222 0.020242
O O12 0.798613 0.377279 0.491095
O O13 0.749608 0.214567 0.560951
O O14 0.427466 0.291742 0.587726
O O15 0.646264 0.434699 0.371053
O O16 0.408781 0.459531 0.771973
O O17 0.000000 0.500000 0.000000
#
# Coordination Sequence:
#
# PCOD9016430 Si02
#       8
#     2   2   2   2   2   2   2   2
#     4  12  21  37  65 100 128 176 235 272 312 389
#     4  11  20  37  69  95 124 178 228 274 311 391
#     4  10  27  44  62 101 137 174 210 279 347 385
#     4  11  22  43  66  95 138 172 218 271 334 390
#     4  10  21  42  67  98 125 171 224 271 321 393
#     4  11  23  40  64  95 138 175 216 276 332 381
#     4  11  23  40  65  99 127 175 229 269 330 384
#     4  10  24  43  71  99 129 167 221 271 329 404
#
# _framework density 21.194652999999999
#
# number of rings (size 3 to 8) (size 9 to 14) (size 15 to 20)
#    0.000    1.250    5.000    0.375    1.750    5.000 
#    0.000    2.500    0.000    0.000    0.000    0.000 
#    0.000    0.000    0.000    0.000    0.000    0.000 
#
# Total GULP energy -89382.117077 kJ/mol
# GULP energy per Si atom -5586.382317 kJ/mol
# Density = 2.114641 g / cm^3
# Si number density = 21.194653 Si / 1000 Ang^3
#
#
#
# Elastic Constant Matrix: (Units=GPa)
#
#
# Indices 1 2 3 4 5 6 
#
# 1 59.9360 58.3196 27.2714 12.2044 0.1623 8.4139
# 2 58.3196 136.4540 59.0262 7.1605 -3.5993 0.6135
# 3 27.2714 59.0262 109.0477 3.3672 5.1372 16.8114
# 4 12.2044 7.1605 3.3672 26.1496 7.9966 -6.1720
# 5 0.1623 -3.5993 5.1372 7.9966 26.8803 0.7447
# 6 8.4139 0.6135 16.8114 -6.1720 0.7447 31.2462
#
#
#
# Elastic Compliance Matrix: (Units=1/GPa)
#
#
# Indices 1 2 3 4 5 6 
#
# 1 0.035953 -0.015054 0.001659 -0.016987 0.002883 -0.013702
# 2 -0.015054 0.016382 -0.006599 0.004734 0.001911 0.008172
# 3 0.001659 -0.006599 0.013746 -0.001778 -0.002770 -0.007998
# 4 -0.016987 0.004734 -0.001778 0.053666 -0.015343 0.016404
# 5 0.002883 0.001911 -0.002770 -0.015343 0.042628 -0.003370
# 6 -0.013702 0.008172 -0.007998 0.016404 -0.003370 0.043157
#
#
# Mechanical properties :
#
#
# Convention : Reuss Voigt Hill
#
# Bulk Modulus (GPa) = 38.32643 66.07469 52.20056
# Shear Modulus (GPa) = 19.66825 27.57659 23.62242
#
# Velocity S-wave (km/s) = 3.04958 3.61100 3.34210
# Velocity P-wave (km/s) = 5.52470 6.97342 6.29090
#
# Compressibility (1/GPa) = 0.02609165
#
# Stress axis : x y z
#
# Youngs Moduli (GPa) = 27.81426 61.04168 72.75018
#
# Poissons Ratio (x) = 0.91895 -0.12066
# Poissons Ratio (y) = 0.41873 0.48005
# Poissons Ratio (z) = -0.04613 0.40279
#
# Static dielectric constant tensor:
#      x y z
#    x 1.774920 -0.010190 -0.013180 
#    y -0.010190 1.779170 0.007520 
#    z -0.013180 0.007520 1.797280 
# 
# From -- ./inp_files/55266.got.cif
#   From: 2010.05.17/outbox.cif.g08.bks.cpg/sg2_28_cif.got.tgz:55266.got - 2010.06.03 11:33:40.
