data_PCOD9016321
_publ_section_title
;
Structure prediction by ZEFSAII (Michael W. Deem and Ramdas Pophale) SiO2 
 PCOD9016321
Probable space group: P -1
;
_chemical_formula_sum "Si O2"
_cell_formula_units_Z 12
_cell_length_a 17.315470
_cell_length_b 7.762749
_cell_length_c 9.189356
_cell_angle_alpha 130.382476
_cell_angle_beta 138.412792
_cell_angle_gamma 65.991228
_cell_volume 617.105499
_symmetry_space_group_name_H-M "P -1"
_symmetry_group_IT_number 2
_symmetry_cell_setting 'triclinic'
loop_
_space_group_symop_operation_xyz
x,y,z
-x,-y,-z
loop_
_atom_site_type_symbol
_atom_site_label
_atom_site_fract_x
_atom_site_fract_y
_atom_site_fract_z
Si Si1 0.483306 0.378712 0.064929
Si Si2 0.890206 0.791308 0.835098
Si Si3 0.251730 0.071237 0.571754
Si Si4 0.933553 0.298416 0.196812
Si Si5 0.273246 0.574817 0.403915
Si Si6 0.287495 0.478481 0.043161
O O1 0.608344 0.361621 0.300510
O O2 0.500000 0.500000 0.000000
O O3 0.393507 0.141387 0.789807
O O4 0.409054 0.518516 0.146424
O O5 0.810062 0.852478 0.618642
O O6 0.816547 0.610102 0.736880
O O7 0.997407 0.693222 0.854845
O O8 0.933582 0.037125 0.105050
O O9 0.225944 0.235688 0.757584
O O10 0.223085 0.808709 0.429161
O O11 0.799809 0.342172 0.017064
O O12 0.000000 0.500000 0.500000
O O13 0.304217 0.476660 0.237501
#
# Coordination Sequence:
#
# PCOD9016321 Si02
#       6
#     2   2   2   2   2   2
#     4  10  21  42  67  93 132 172 205 257 322 374
#     4  11  24  41  70  92 126 174 206 266 324 366
#     4  10  22  42  63  96 131 164 208 263 313 376
#     4  11  22  45  67  90 130 167 217 264 314 381
#     4  12  22  43  64  98 131 163 215 261 315 378
#     4  10  23  39  65  95 127 168 214 260 312 376
#
# _framework density 19.445620000000002
#
# number of rings (size 3 to 8) (size 9 to 14) (size 15 to 20)
#    1.000    0.333    5.000    1.000    0.000    2.000 
#    0.000    3.333    0.000    0.000    0.000    0.000 
#    0.000    0.000    0.000    0.000    0.000    0.000 
#
# Total GULP energy -66915.887448 kJ/mol
# GULP energy per Si atom -5576.323954 kJ/mol
# Density = 1.940136 g / cm^3
# Si number density = 19.445620 Si / 1000 Ang^3
#
#
#
# Elastic Constant Matrix: (Units=GPa)
#
#
# Indices 1 2 3 4 5 6 
#
# 1 96.5915 51.5752 7.1167 15.1971 -0.8780 7.1125
# 2 51.5752 98.9487 32.6686 13.0960 -11.9563 18.6353
# 3 7.1167 32.6686 80.0113 15.2386 -13.2322 6.8657
# 4 15.1971 13.0960 15.2386 30.8911 0.8127 1.4753
# 5 -0.8780 -11.9563 -13.2322 0.8127 36.9847 2.7177
# 6 7.1125 18.6353 6.8657 1.4753 2.7177 30.4391
#
#
#
# Elastic Compliance Matrix: (Units=1/GPa)
#
#
# Indices 1 2 3 4 5 6 
#
# 1 0.015565 -0.008804 0.002867 -0.005372 -0.001443 0.001496
# 2 -0.008804 0.018686 -0.005207 -0.000733 0.004616 -0.008585
# 3 0.002867 -0.005207 0.016667 -0.007484 0.004607 -0.001290
# 4 -0.005372 -0.000733 -0.007484 0.039035 -0.004037 0.001861
# 5 -0.001443 0.004616 0.004607 -0.004037 0.030679 -0.006071
# 6 0.001496 -0.008585 -0.001290 0.001861 -0.006071 0.038502
#
#
# Mechanical properties :
#
#
# Convention : Reuss Voigt Hill
#
# Bulk Modulus (GPa) = 34.92950 50.91918 42.92434
# Shear Modulus (GPa) = 26.18266 31.94236 29.06251
#
# Velocity S-wave (km/s) = 3.67339 4.05736 3.87014
# Velocity P-wave (km/s) = 5.99945 6.94203 6.48788
#
# Compressibility (1/GPa) = 0.02862909
#
# Stress axis : x y z
#
# Youngs Moduli (GPa) = 64.24780 53.51603 59.99780
#
# Poissons Ratio (x) = 0.47117 -0.17199
# Poissons Ratio (y) = 0.56566 0.31239
# Poissons Ratio (z) = -0.18417 0.27864
#
# Static dielectric constant tensor:
#      x y z
#    x 1.670060 -0.031010 0.006590 
#    y -0.031010 1.657640 -0.007890 
#    z 0.006590 -0.007890 1.728860 
# 
# From -- ./inp_files/86561.got.cif
#   From: 2010.05.17/outbox.cif.g08.bks.cpg/sg2_44_cif.got.tgz:86561.got - 2010.06.03 11:33:40.
