data_PCOD9016604
_publ_section_title
;
Structure prediction by ZEFSAII (Michael W. Deem and Ramdas Pophale) SiO2 
 PCOD9016604
Probable space group: P -1
;
_chemical_formula_sum "Si O2"
_cell_formula_units_Z 13
_cell_length_a 8.614298
_cell_length_b 14.306932
_cell_length_c 25.168646
_cell_angle_alpha 166.281909
_cell_angle_beta 141.340397
_cell_angle_gamma 42.396586
_cell_volume 455.272241
_symmetry_space_group_name_H-M "P -1"
_symmetry_group_IT_number 2
_symmetry_cell_setting 'triclinic'
loop_
_space_group_symop_operation_xyz
x,y,z
-x,-y,-z
loop_
_atom_site_type_symbol
_atom_site_label
_atom_site_fract_x
_atom_site_fract_y
_atom_site_fract_z
Si Si1 0.989429 0.811899 0.121611
Si Si2 0.272237 0.175121 0.147782
Si Si3 0.000000 0.000000 0.500000
Si Si4 0.829402 0.630530 0.369089
Si Si5 0.731901 0.283483 0.390088
Si Si6 0.470665 0.580720 0.096790
Si Si7 0.611067 0.579790 0.799126
O O1 0.831721 0.622708 0.924895
O O2 0.868602 0.180252 0.315499
O O3 0.000000 0.500000 0.000000
O O4 0.277331 0.895077 0.227869
O O5 0.272730 0.450449 0.246829
O O6 0.462661 0.398433 0.364481
O O7 0.343006 0.748324 0.912769
O O8 0.000000 0.000000 0.000000
O O9 0.953459 0.893976 0.498913
O O10 0.742929 0.725605 0.270364
O O11 0.626840 0.734172 0.417653
O O12 0.057344 0.503449 0.396338
O O13 0.647588 0.847114 0.149989
O O14 0.500000 0.500000 0.000000
O O15 0.500000 0.000000 0.000000
#
# Coordination Sequence:
#
# PCOD9016604 Si02
#       7
#     2   2   1   2   2   2   2
#     4  10  21  42  68  95 135 180 228 279 341 405
#     4  11  25  45  70  97 140 183 231 288 343 412
#     4  12  22  42  70 100 140 178 230 292 352 410
#     4  11  23  42  70  99 135 183 231 282 351 407
#     4  11  22  44  65  98 136 179 232 287 336 409
#     4  11  23  41  66  98 139 179 220 290 346 404
#     4  10  21  45  69  95 138 183 228 280 340 415
#
# _framework density 28.554341999999998
#
# number of rings (size 3 to 8) (size 9 to 14) (size 15 to 20)
#    0.000    1.231    6.154    0.923    2.154    1.231 
#    5.538    2.308    0.000    0.000    0.000    0.000 
#    0.000    0.000    0.000    0.000    0.000    0.000 
#
# Total GULP energy -72479.346632 kJ/mol
# GULP energy per Si atom -5575.334356 kJ/mol
# Density = 2.848935 g / cm^3
# Si number density = 28.554342 Si / 1000 Ang^3
#
#
#
# Elastic Constant Matrix: (Units=GPa)
#
#
# Indices 1 2 3 4 5 6 
#
# 1 176.7783 44.3132 21.7881 -8.9823 49.5049 33.0288
# 2 44.3132 160.0084 48.2764 -45.4835 16.0469 36.9831
# 3 21.7881 48.2764 118.2995 -19.4667 30.4036 17.7715
# 4 -8.9823 -45.4835 -19.4667 70.3854 9.7076 -6.2280
# 5 49.5049 16.0469 30.4036 9.7076 57.3506 -3.7247
# 6 33.0288 36.9831 17.7715 -6.2280 -3.7247 39.9624
#
#
#
# Elastic Compliance Matrix: (Units=1/GPa)
#
#
# Indices 1 2 3 4 5 6 
#
# 1 0.011167 0.001191 0.003356 0.003843 -0.013211 -0.012457
# 2 0.001191 0.011054 -0.000551 0.007007 -0.005691 -0.010408
# 3 0.003356 -0.000551 0.012801 0.004370 -0.010807 -0.008282
# 4 0.003843 0.007007 0.004370 0.021230 -0.011798 -0.009395
# 5 -0.013211 -0.005691 -0.010807 -0.011798 0.039643 0.022848
# 6 -0.012457 -0.010408 -0.008282 -0.009395 0.022848 0.049300
#
#
# Mechanical properties :
#
#
# Convention : Reuss Voigt Hill
#
# Bulk Modulus (GPa) = 23.24811 75.98242 49.61527
# Shear Modulus (GPa) = 32.99455 56.25357 44.62406
#
# Velocity S-wave (km/s) = 3.40295 4.44334 3.95749
# Velocity P-wave (km/s) = 4.85793 7.27956 6.18835
#
# Compressibility (1/GPa) = 0.04301425
#
# Stress axis : x y z
#
# Youngs Moduli (GPa) = 89.55027 90.46355 78.12138
#
# Poissons Ratio (x) = -0.10777 -0.26220
# Poissons Ratio (y) = -0.10668 0.04307
# Poissons Ratio (z) = -0.30055 0.04987
#
# Static dielectric constant tensor:
#      x y z
#    x 2.591290 0.017340 -0.050780 
#    y 0.017340 2.402360 0.171170 
#    z -0.050780 0.171170 2.135350 
# 
# From -- ./inp_files/617167.got.cif
#   From: 2010.05.17/outbox.cif.g08.bks.cpg/sg2_309_cif.got.tgz:617167.got - 2010.06.03 11:33:40.
