data_PCOD9016676
_publ_section_title
;
Structure prediction by ZEFSAII (Michael W. Deem and Ramdas Pophale) SiO2 
 PCOD9016676
Probable space group: P -1
;
_chemical_formula_sum "Si O2"
_cell_formula_units_Z 16
_cell_length_a 7.739920
_cell_length_b 5.620776
_cell_length_c 17.030594
_cell_angle_alpha 101.916980
_cell_angle_beta 91.578953
_cell_angle_gamma 123.695576
_cell_volume 593.883634
_symmetry_space_group_name_H-M "P -1"
_symmetry_group_IT_number 2
_symmetry_cell_setting 'triclinic'
loop_
_space_group_symop_operation_xyz
x,y,z
-x,-y,-z
loop_
_atom_site_type_symbol
_atom_site_label
_atom_site_fract_x
_atom_site_fract_y
_atom_site_fract_z
Si Si1 0.968238 0.550720 0.913245
Si Si2 0.969512 0.482386 0.658564
Si Si3 0.520515 0.959166 0.405637
Si Si4 0.046210 0.079051 0.415245
Si Si5 0.743930 0.031314 0.181008
Si Si6 0.344405 0.034152 0.187420
Si Si7 0.489352 0.411881 0.362692
Si Si8 0.560103 0.568340 0.915593
O O1 0.769940 0.574713 0.908237
O O2 0.172190 0.831356 0.894977
O O3 0.887278 0.264558 0.837696
O O4 0.000000 0.500000 0.000000
O O5 0.715045 0.264995 0.647865
O O6 0.007729 0.688703 0.597319
O O7 0.073732 0.735769 0.743415
O O8 0.024519 0.238160 0.646658
O O9 0.614507 0.765012 0.384353
O O10 0.500000 0.000000 0.500000
O O11 0.608388 0.265791 0.383238
O O12 0.300029 0.285204 0.414660
O O13 0.000000 0.000000 0.500000
O O14 0.535447 0.005868 0.203334
O O15 0.650120 0.686822 0.151280
O O16 0.379878 0.270788 0.267794
O O17 0.379634 0.134702 0.104184
O O18 0.500000 0.500000 0.000000
#
# Coordination Sequence:
#
# PCOD9016676 Si02
#       8
#     2   2   2   2   2   2   2   2
#     4  11  24  45  76 107 147 193 243 304 374 449
#     4  10  23  42  67 101 138 187 245 299 371 439
#     4  10  21  43  69  98 140 189 243 309 370 444
#     4  10  21  42  68  98 139 184 243 307 364 445
#     4  11  26  46  72 104 148 194 246 310 372 449
#     4  11  26  46  72 104 149 192 246 310 370 451
#     4  10  23  42  69  99 140 190 242 302 374 437
#     4  11  26  46  71 111 149 191 246 303 372 450
#
# _framework density 26.941306999999998
#
# number of rings (size 3 to 8) (size 9 to 14) (size 15 to 20)
#    0.000    1.500    0.000    3.750    8.750    5.000 
#   13.500    0.000    0.000    0.000    0.000    0.000 
#    0.000    0.000    0.000    0.000    0.000    0.000 
#
# Total GULP energy -89555.667605 kJ/mol
# GULP energy per Si atom -5597.229225 kJ/mol
# Density = 2.687999 g / cm^3
# Si number density = 26.941307 Si / 1000 Ang^3
#
#
#
# Elastic Constant Matrix: (Units=GPa)
#
#
# Indices 1 2 3 4 5 6 
#
# 1 105.3338 22.0045 9.7237 10.0794 3.5852 -14.5317
# 2 22.0045 156.1157 1.0771 2.7678 -1.6917 -3.4759
# 3 9.7237 1.0771 95.8202 -0.5152 2.8213 0.6447
# 4 10.0794 2.7678 -0.5152 50.9802 9.1835 -0.0991
# 5 3.5852 -1.6917 2.8213 9.1835 38.4967 -1.5553
# 6 -14.5317 -3.4759 0.6447 -0.0991 -1.5553 51.4416
#
#
#
# Elastic Compliance Matrix: (Units=1/GPa)
#
#
# Indices 1 2 3 4 5 6 
#
# 1 0.010472 -0.001375 -0.001066 -0.001932 -0.000381 0.002863
# 2 -0.001375 0.006608 0.000050 -0.000169 0.000458 0.000071
# 3 -0.001066 0.000050 0.010573 0.000458 -0.000801 -0.000453
# 4 -0.001932 -0.000169 0.000458 0.020887 -0.004871 -0.000670
# 5 -0.000381 0.000458 -0.000801 -0.004871 0.027283 0.000749
# 6 0.002863 0.000071 -0.000453 -0.000670 0.000749 0.020280
#
#
# Mechanical properties :
#
#
# Convention : Reuss Voigt Hill
#
# Bulk Modulus (GPa) = 43.71924 46.98671 45.35297
# Shear Modulus (GPa) = 46.07927 49.81464 47.94696
#
# Velocity S-wave (km/s) = 4.14013 4.30467 4.22320
# Velocity P-wave (km/s) = 6.25437 6.49501 6.37582
#
# Compressibility (1/GPa) = 0.02287323
#
# Stress axis : x y z
#
# Youngs Moduli (GPa) = 95.49162 151.32087 94.58149
#
# Poissons Ratio (x) = 0.20804 0.10079
# Poissons Ratio (y) = 0.13128 -0.00476
# Poissons Ratio (z) = 0.10176 -0.00762
#
# Static dielectric constant tensor:
#      x y z
#    x 2.165610 -0.063550 -0.016430 
#    y -0.063550 2.083530 0.032470 
#    z -0.016430 0.032470 2.105150 
# 
# From -- ./inp_files/553631.got.cif
#   From: 2010.05.17/outbox.cif.g08.bks.cpg/sg2_277_cif.got.tgz:553631.got - 2010.06.03 11:33:40.
