data_PCOD9016564
_publ_section_title
;
Structure prediction by ZEFSAII (Michael W. Deem and Ramdas Pophale) SiO2 
 PCOD9016564
Probable space group: P -1
;
_chemical_formula_sum "Si O2"
_cell_formula_units_Z 14
_cell_length_a 16.758184
_cell_length_b 8.795029
_cell_length_c 9.779671
_cell_angle_alpha 44.987592
_cell_angle_beta 138.432482
_cell_angle_gamma 125.502063
_cell_volume 672.016852
_symmetry_space_group_name_H-M "P -1"
_symmetry_group_IT_number 2
_symmetry_cell_setting 'triclinic'
loop_
_space_group_symop_operation_xyz
x,y,z
-x,-y,-z
loop_
_atom_site_type_symbol
_atom_site_label
_atom_site_fract_x
_atom_site_fract_y
_atom_site_fract_z
Si Si1 0.477514 0.186607 0.953592
Si Si2 0.334730 0.452479 0.054397
Si Si3 0.276161 0.444134 0.522641
Si Si4 0.804510 0.723708 0.754356
Si Si5 0.972899 0.476834 0.709057
Si Si6 0.480778 0.785672 0.699819
Si Si7 0.133039 0.769763 0.530802
O O1 0.532641 0.168125 0.186956
O O2 0.547793 0.397623 0.837424
O O3 0.339179 0.227137 0.771698
O O4 0.500000 0.000000 0.000000
O O5 0.271617 0.300854 0.186858
O O6 0.395919 0.328493 0.090668
O O7 0.239958 0.615096 0.783176
O O8 0.262084 0.429319 0.350106
O O9 0.144489 0.459744 0.404834
O O10 0.367232 0.634775 0.586544
O O11 0.824668 0.975308 0.576334
O O12 0.932003 0.631595 0.006278
O O13 0.931462 0.302294 0.648669
O O14 0.040791 0.686667 0.586280
O O15 0.500000 0.000000 0.500000
#
# Coordination Sequence:
#
# PCOD9016564 Si02
#       7
#     2   2   2   2   2   2   2
#     4  11  24  43  69  97 131 176 221 272 340 390
#     4  10  23  41  67  95 138 167 225 266 334 393
#     4  11  24  42  65  92 143 170 221 278 330 390
#     4  11  24  40  67 102 130 181 220 275 323 399
#     4  10  22  42  64  95 135 173 224 272 325 394
#     4  11  26  43  68 101 130 176 224 272 335 400
#     4  10  21  42  68  93 132 176 221 277 327 388
#
# _framework density 20.832811
#
# number of rings (size 3 to 8) (size 9 to 14) (size 15 to 20)
#    0.000    1.429    0.000    5.143    8.000    1.714 
#    2.571    0.000    0.000    0.000    0.000    0.000 
#    0.000    0.000    0.000    0.000    0.000    0.000 
#
# Total GULP energy -78173.230987 kJ/mol
# GULP energy per Si atom -5583.802213 kJ/mol
# Density = 2.078539 g / cm^3
# Si number density = 20.832811 Si / 1000 Ang^3
#
#
#
# Elastic Constant Matrix: (Units=GPa)
#
#
# Indices 1 2 3 4 5 6 
#
# 1 127.8580 65.5792 43.8847 2.0825 4.6206 1.2333
# 2 65.5792 104.8775 53.1658 -3.7649 -10.9194 -14.4775
# 3 43.8847 53.1658 101.4668 11.5888 0.2302 -5.9717
# 4 2.0825 -3.7649 11.5888 37.8774 0.8326 -6.0818
# 5 4.6206 -10.9194 0.2302 0.8326 29.4182 2.0438
# 6 1.2333 -14.4775 -5.9717 -6.0818 2.0438 30.1536
#
#
#
# Elastic Compliance Matrix: (Units=1/GPa)
#
#
# Indices 1 2 3 4 5 6 
#
# 1 0.012990 -0.008889 -0.001020 -0.001991 -0.004923 -0.005069
# 2 -0.008889 0.021374 -0.007516 0.006304 0.008527 0.009831
# 3 -0.001020 -0.007516 0.014766 -0.005405 -0.002483 -0.001564
# 4 -0.001991 0.006304 -0.005405 0.030049 0.001288 0.008011
# 5 -0.004923 0.008527 -0.002483 0.001288 0.037810 0.001501
# 6 -0.005069 0.009831 -0.001564 0.008011 0.001501 0.039295
#
#
# Mechanical properties :
#
#
# Convention : Reuss Voigt Hill
#
# Bulk Modulus (GPa) = 70.02948 73.27351 71.65150
# Shear Modulus (GPa) = 25.52404 30.92802 28.22603
#
# Velocity S-wave (km/s) = 3.50406 3.85721 3.68487
# Velocity P-wave (km/s) = 7.07525 7.42199 7.25069
#
# Compressibility (1/GPa) = 0.01427970
#
# Stress axis : x y z
#
# Youngs Moduli (GPa) = 76.98303 46.78490 67.72467
#
# Poissons Ratio (x) = 0.41588 0.06910
# Poissons Ratio (y) = 0.68431 0.50900
# Poissons Ratio (z) = 0.07854 0.35162
#
# Static dielectric constant tensor:
#      x y z
#    x 1.765380 0.000990 0.028860 
#    y 0.000990 1.752890 0.012550 
#    z 0.028860 0.012550 1.779270 
# 
# From -- ./inp_files/294339.got.cif
#   From: 2010.05.17/outbox.cif.g08.bks.cpg/sg2_148_cif.got.tgz:294339.got - 2010.06.03 11:33:40.
