data_PCOD9016642
_publ_section_title
;
Structure prediction by ZEFSAII (Michael W. Deem and Ramdas Pophale) SiO2 
 PCOD9016642
Probable space group: P -1
;
_chemical_formula_sum "Si O2"
_cell_formula_units_Z 16
_cell_length_a 9.363222
_cell_length_b 20.169570
_cell_length_c 11.298292
_cell_angle_alpha 46.059501
_cell_angle_beta 52.825485
_cell_angle_gamma 31.746276
_cell_volume 807.825276
_symmetry_space_group_name_H-M "P -1"
_symmetry_group_IT_number 2
_symmetry_cell_setting 'triclinic'
loop_
_space_group_symop_operation_xyz
x,y,z
-x,-y,-z
loop_
_atom_site_type_symbol
_atom_site_label
_atom_site_fract_x
_atom_site_fract_y
_atom_site_fract_z
Si Si1 0.251983 0.137212 0.527520
Si Si2 0.585065 0.624717 0.328843
Si Si3 0.043402 0.934043 0.183547
Si Si4 0.904580 0.621356 0.318990
Si Si5 0.440359 0.869189 0.415862
Si Si6 0.903156 0.118666 0.247977
Si Si7 0.287865 0.582313 0.665853
Si Si8 0.635608 0.408319 0.928997
O O1 0.371663 0.152558 0.554425
O O2 0.105071 0.106403 0.695289
O O3 0.025823 0.272038 0.388373
O O4 0.500000 0.000000 0.500000
O O5 0.355789 0.786807 0.215840
O O6 0.840551 0.590515 0.269551
O O7 0.462686 0.607475 0.517131
O O8 0.636952 0.529115 0.322380
O O9 0.952985 0.025061 0.233420
O O10 0.000000 0.000000 0.000000
O O11 0.632517 0.762351 0.345232
O O12 0.000000 0.500000 0.500000
O O13 0.121869 0.617857 0.201953
O O14 0.294230 0.845318 0.595326
O O15 0.191714 0.022004 0.290899
O O16 0.769768 0.258612 0.079654
O O17 0.395388 0.504768 0.833039
O O18 0.500000 0.500000 0.000000
#
# Coordination Sequence:
#
# PCOD9016642 Si02
#       8
#     2   2   2   2   2   2   2   2
#     4  11  24  43  70  96 129 181 227 276 329 398
#     4  10  21  42  68  97 125 179 222 270 325 392
#     4  11  23  41  67  97 140 172 216 275 339 395
#     4  12  23  42  71  98 130 171 229 270 331 409
#     4  11  25  44  71 101 131 180 232 274 328 405
#     4  11  25  45  67  99 142 177 221 282 339 390
#     4  10  23  43  67  97 134 170 227 274 333 399
#     4  12  28  44  67 100 141 176 214 286 345 394
#
# _framework density 19.806263000000001
#
# number of rings (size 3 to 8) (size 9 to 14) (size 15 to 20)
#    0.000    1.000    3.750    2.250    7.000    1.500 
#    0.000    1.250    0.000    0.000    0.000    0.000 
#    0.000    0.000    0.000    0.000    0.000    0.000 
#
# Total GULP energy -89262.518037 kJ/mol
# GULP energy per Si atom -5578.907377 kJ/mol
# Density = 1.976118 g / cm^3
# Si number density = 19.806263 Si / 1000 Ang^3
#
#
#
# Elastic Constant Matrix: (Units=GPa)
#
#
# Indices 1 2 3 4 5 6 
#
# 1 107.7602 34.9516 37.7266 -16.8165 10.9433 -17.7152
# 2 34.9516 100.1086 46.9992 -14.2136 8.6255 -0.1404
# 3 37.7266 46.9992 118.6950 -31.7696 20.5693 -11.5423
# 4 -16.8165 -14.2136 -31.7696 32.7615 0.5130 0.1383
# 5 10.9433 8.6255 20.5693 0.5130 28.8279 -2.6723
# 6 -17.7152 -0.1404 -11.5423 0.1383 -2.6723 27.4104
#
#
#
# Elastic Compliance Matrix: (Units=1/GPa)
#
#
# Indices 1 2 3 4 5 6 
#
# 1 0.012829 -0.003461 -0.000030 0.005071 -0.003168 0.007926
# 2 -0.003461 0.013330 -0.004830 -0.000665 0.000398 -0.004160
# 3 -0.000030 -0.004830 0.016340 0.013865 -0.009911 0.005800
# 4 0.005071 -0.000665 0.013865 0.046433 -0.011728 0.007734
# 5 -0.003168 0.000398 -0.009911 -0.011728 0.042869 -0.001981
# 6 0.007926 -0.004160 0.005800 0.007734 -0.001981 0.043794
#
#
# Mechanical properties :
#
#
# Convention : Reuss Voigt Hill
#
# Bulk Modulus (GPa) = 38.67436 62.87983 50.77710
# Shear Modulus (GPa) = 24.89331 31.59238 28.24284
#
# Velocity S-wave (km/s) = 3.54904 3.99817 3.78028
# Velocity P-wave (km/s) = 6.03017 7.28904 6.68929
#
# Compressibility (1/GPa) = 0.02585693
#
# Stress axis : x y z
#
# Youngs Moduli (GPa) = 77.94797 75.01613 61.20106
#
# Poissons Ratio (x) = 0.25962 0.00185
# Poissons Ratio (y) = 0.26977 0.29560
# Poissons Ratio (z) = 0.00236 0.36233
#
# Static dielectric constant tensor:
#      x y z
#    x 1.562510 0.008250 -0.104090 
#    y 0.008250 1.796550 0.055200 
#    z -0.104090 0.055200 1.598380 
# 
# From -- ./inp_files/319216.got.cif
#   From: 2010.05.17/outbox.cif.g08.bks.cpg/sg2_160_cif.got.tgz:319216.got - 2010.06.03 11:33:40.
