data_PCOD9016631
_publ_section_title
;
Structure prediction by ZEFSAII (Michael W. Deem and Ramdas Pophale) SiO2 
 PCOD9016631
Probable space group: P -1
;
_chemical_formula_sum "Si O2"
_cell_formula_units_Z 16
_cell_length_a 10.467164
_cell_length_b 14.927650
_cell_length_c 11.080885
_cell_angle_alpha 98.689781
_cell_angle_beta 113.569320
_cell_angle_gamma 138.572120
_cell_volume 702.248619
_symmetry_space_group_name_H-M "P -1"
_symmetry_group_IT_number 2
_symmetry_cell_setting 'triclinic'
loop_
_space_group_symop_operation_xyz
x,y,z
-x,-y,-z
loop_
_atom_site_type_symbol
_atom_site_label
_atom_site_fract_x
_atom_site_fract_y
_atom_site_fract_z
Si Si1 0.340789 0.987670 0.861257
Si Si2 0.691345 0.927863 0.588582
Si Si3 0.306872 0.209735 0.230540
Si Si4 0.176548 0.719274 0.490923
Si Si5 0.319398 0.701772 0.774027
Si Si6 0.257346 0.386588 0.591376
Si Si7 0.239777 0.205313 0.704727
Si Si8 0.359971 0.722696 0.163380
O O1 0.537901 0.130846 0.846519
O O2 0.400148 0.106983 0.996413
O O3 0.987136 0.771905 0.642178
O O4 0.500000 0.000000 0.000000
O O5 0.681780 0.828687 0.641335
O O6 0.513592 0.903595 0.592184
O O7 0.514000 0.820419 0.372930
O O8 0.054820 0.144178 0.732733
O O9 0.574060 0.311908 0.280689
O O10 0.432706 0.384003 0.294250
O O11 0.000000 0.000000 0.000000
O O12 0.231688 0.731899 0.656923
O O13 0.978820 0.518412 0.322699
O O14 0.955592 0.678972 0.404844
O O15 0.340318 0.341680 0.678880
O O16 0.509201 0.291791 0.855340
O O17 0.000000 0.000000 0.500000
O O18 0.000000 0.500000 0.000000
#
# Coordination Sequence:
#
# PCOD9016631 Si02
#       8
#     2   2   2   2   2   2   2   2
#     4  12  23  39  71 105 137 175 241 295 349 413
#     4  10  21  42  68  96 139 187 227 285 353 413
#     4  10  24  43  69  99 137 187 240 287 356 412
#     4   9  18  37  64  96 133 182 227 280 341 408
#     4   9  19  35  61  92 138 176 223 284 344 402
#     4  11  22  43  69 105 139 184 237 294 346 421
#     4  10  22  45  64  96 144 185 222 286 359 410
#     4  11  25  44  68  99 143 188 228 281 360 424
#
# _framework density 22.783953
#
# number of rings (size 3 to 8) (size 9 to 14) (size 15 to 20)
#    0.000    1.750    3.750    1.500    3.500    0.500 
#    2.250    3.750    0.000    0.000    0.000    0.000 
#    0.000    0.000    0.000    0.000    0.000    0.000 
#
# Total GULP energy -89194.936445 kJ/mol
# GULP energy per Si atom -5574.683528 kJ/mol
# Density = 2.273210 g / cm^3
# Si number density = 22.783953 Si / 1000 Ang^3
#
#
#
# Elastic Constant Matrix: (Units=GPa)
#
#
# Indices 1 2 3 4 5 6 
#
# 1 56.3978 15.8021 16.6909 -9.1367 12.5779 3.1022
# 2 15.8021 161.2985 61.6602 -15.5941 8.0553 -19.5325
# 3 16.6909 61.6602 93.0033 9.5496 4.2276 2.3189
# 4 -9.1367 -15.5941 9.5496 35.9493 1.3622 6.5321
# 5 12.5779 8.0553 4.2276 1.3622 37.0066 -0.9961
# 6 3.1022 -19.5325 2.3189 6.5321 -0.9961 35.5681
#
#
#
# Elastic Compliance Matrix: (Units=1/GPa)
#
#
# Indices 1 2 3 4 5 6 
#
# 1 0.022083 0.000339 -0.004576 0.007817 -0.007428 -0.003085
# 2 0.000339 0.010272 -0.007508 0.005685 -0.001568 0.005013
# 3 -0.004576 -0.007508 0.017442 -0.008515 0.001423 -0.003258
# 4 0.007817 0.005685 -0.008515 0.035353 -0.004320 -0.003618
# 5 -0.007428 -0.001568 0.001423 -0.004320 0.029920 0.001325
# 6 -0.003085 0.005013 -0.003258 -0.003618 0.001325 0.032051
#
#
# Mechanical properties :
#
#
# Convention : Reuss Voigt Hill
#
# Bulk Modulus (GPa) = 38.01348 55.44509 46.72929
# Shear Modulus (GPa) = 27.87374 36.14121 32.00748
#
# Velocity S-wave (km/s) = 3.50150 3.98711 3.75217
# Velocity P-wave (km/s) = 5.75047 6.75159 6.27104
#
# Compressibility (1/GPa) = 0.02630646
#
# Stress axis : x y z
#
# Youngs Moduli (GPa) = 45.28349 97.35591 57.33192
#
# Poissons Ratio (x) = -0.03299 0.26235
# Poissons Ratio (y) = -0.01535 0.43046
# Poissons Ratio (z) = 0.20721 0.73097
#
# Static dielectric constant tensor:
#      x y z
#    x 1.951340 -0.038400 0.010540 
#    y -0.038400 1.939560 0.055260 
#    z 0.010540 0.055260 1.786620 
# 
# From -- ./inp_files/434060.got.cif
#   From: 2010.05.17/outbox.cif.g08.bks.cpg/sg2_218_cif.got.tgz:434060.got - 2010.06.03 11:33:40.
