data_PCOD9016036
_publ_section_title
;
Structure prediction by ZEFSAII (Michael W. Deem and Ramdas Pophale) SiO2 
 PCOD9016036
Probable space group: P -1
;
_chemical_formula_sum "Si O2"
_cell_formula_units_Z 14
_cell_length_a 6.733623
_cell_length_b 10.343449
_cell_length_c 17.217069
_cell_angle_alpha 133.492392
_cell_angle_beta 56.344626
_cell_angle_gamma 134.872368
_cell_volume 610.996364
_symmetry_space_group_name_H-M "P -1"
_symmetry_group_IT_number 2
_symmetry_cell_setting 'triclinic'
loop_
_space_group_symop_operation_xyz
x,y,z
-x,-y,-z
loop_
_atom_site_type_symbol
_atom_site_label
_atom_site_fract_x
_atom_site_fract_y
_atom_site_fract_z
Si Si1 0.389495 0.144430 0.610449
Si Si2 0.538310 0.724526 0.175792
Si Si3 0.745879 0.858587 0.625510
Si Si4 0.513309 0.446076 0.585689
Si Si5 0.362119 0.985139 0.854049
Si Si6 0.888731 0.451593 0.205670
Si Si7 0.317841 0.613237 0.947238
O O1 0.399831 0.167192 0.709367
O O2 0.574074 0.367851 0.619429
O O3 0.500000 0.000000 0.500000
O O4 0.064041 0.040667 0.612693
O O5 0.720620 0.897910 0.142681
O O6 0.578808 0.530836 0.097902
O O7 0.209266 0.624114 0.186986
O O8 0.749488 0.676542 0.599474
O O9 0.569134 0.731187 0.535061
O O10 0.587728 0.945811 0.745552
O O11 0.243625 0.466491 0.668923
O O12 0.131050 0.755803 0.841610
O O13 0.503857 0.150459 0.961535
O O14 0.700639 0.394252 0.145092
O O15 0.000000 0.500000 0.000000
#
# Coordination Sequence:
#
# PCOD9016036 Si02
#       7
#     2   2   2   2   2   2   2
#     4  12  23  37  63  97 131 170 214 260 323 386
#     4  12  25  43  65  98 131 168 215 272 320 377
#     4  10  22  41  66  92 130 170 213 266 318 380
#     4  10  21  42  66  92 128 171 210 266 324 375
#     4  11  24  43  68  96 126 174 220 261 325 382
#     4  11  24  45  68  95 130 171 217 266 323 386
#     4  12  24  46  68  92 135 171 214 270 322 379
#
# _framework density 22.913391000000001
#
# number of rings (size 3 to 8) (size 9 to 14) (size 15 to 20)
#    0.000    0.857    2.857    4.714    0.000    2.286 
#    2.571    0.000    0.000    0.000    0.000    0.000 
#    0.000    0.000    0.000    0.000    0.000    0.000 
#
# Total GULP energy -78365.506585 kJ/mol
# GULP energy per Si atom -5597.536185 kJ/mol
# Density = 2.286124 g / cm^3
# Si number density = 22.913391 Si / 1000 Ang^3
#
#
#
# Elastic Constant Matrix: (Units=GPa)
#
#
# Indices 1 2 3 4 5 6 
#
# 1 31.5491 6.7155 12.1235 8.3121 -0.6106 -15.5103
# 2 6.7155 113.4332 -5.3755 14.3313 5.9855 -30.5291
# 3 12.1235 -5.3755 105.1826 13.9422 1.9772 1.2285
# 4 8.3121 14.3313 13.9422 30.9214 -2.4835 -1.8178
# 5 -0.6106 5.9855 1.9772 -2.4835 31.6522 -5.8706
# 6 -15.5103 -30.5291 1.2285 -1.8178 -5.8706 28.8867
#
#
#
# Elastic Compliance Matrix: (Units=1/GPa)
#
#
# Indices 1 2 3 4 5 6 
#
# 1 0.054334 0.008355 -0.004582 -0.013679 0.005826 0.038521
# 2 0.008355 0.014590 0.000626 -0.008121 0.000331 0.019435
# 3 -0.004582 0.000626 0.010688 -0.004186 -0.001735 -0.002869
# 4 -0.013679 -0.008121 -0.004186 0.041117 0.002409 -0.012673
# 5 0.005826 0.000331 -0.001735 0.002409 0.033905 0.010593
# 6 0.038521 0.019435 -0.002869 -0.012673 0.010593 0.077319
#
#
# Mechanical properties :
#
#
# Convention : Reuss Voigt Hill
#
# Bulk Modulus (GPa) = 11.31100 30.78798 21.04949
# Shear Modulus (GPa) = 19.79212 34.07215 26.93214
#
# Velocity S-wave (km/s) = 2.94220 3.86034 3.43211
# Velocity P-wave (km/s) = 4.06069 5.77369 4.99123
#
# Compressibility (1/GPa) = 0.08840953
#
# Stress axis : x y z
#
# Youngs Moduli (GPa) = 18.40482 68.53956 93.55998
#
# Poissons Ratio (x) = -0.57262 0.42867
# Poissons Ratio (y) = -0.15376 -0.05856
# Poissons Ratio (z) = 0.08433 -0.04290
#
# Static dielectric constant tensor:
#      x y z
#    x 1.843850 -0.058460 -0.007010 
#    y -0.058460 1.831430 0.011880 
#    z -0.007010 0.011880 1.846200 
# 
# From -- ./inp_files/48844.got.cif
#   From: 2010.05.17/outbox.cif.g08.bks.cpg/sg2_25_cif.got.tgz:48844.got - 2010.06.03 11:33:40.
