data_PCOD9016501
_publ_section_title
;
Structure prediction by ZEFSAII (Michael W. Deem and Ramdas Pophale) SiO2 
 PCOD9016501
Probable space group: P -1
;
_chemical_formula_sum "Si O2"
_cell_formula_units_Z 16
_cell_length_a 19.464411
_cell_length_b 19.407894
_cell_length_c 9.510430
_cell_angle_alpha 34.324656
_cell_angle_beta 157.110145
_cell_angle_gamma 151.299947
_cell_volume 668.025496
_symmetry_space_group_name_H-M "P -1"
_symmetry_group_IT_number 2
_symmetry_cell_setting 'triclinic'
loop_
_space_group_symop_operation_xyz
x,y,z
-x,-y,-z
loop_
_atom_site_type_symbol
_atom_site_label
_atom_site_fract_x
_atom_site_fract_y
_atom_site_fract_z
Si Si1 0.240721 0.070035 0.871495
Si Si2 0.666029 0.664553 0.568297
Si Si3 0.656368 0.913022 0.635183
Si Si4 0.810564 0.222606 0.330900
Si Si5 0.082300 0.664627 0.352053
Si Si6 0.106112 0.404114 0.357117
Si Si7 0.502255 0.680179 0.531925
Si Si8 0.773667 0.180989 0.901845
O O1 0.358816 0.228308 0.760264
O O2 0.265752 0.067965 0.089566
O O3 0.000000 0.000000 0.500000
O O4 0.286079 0.963944 0.048766
O O5 0.500000 0.500000 0.500000
O O6 0.628709 0.687856 0.619860
O O7 0.891776 0.688210 0.929204
O O8 0.654205 0.785857 0.761416
O O9 0.414819 0.860435 0.282413
O O10 0.760994 0.061277 0.496789
O O11 0.808383 0.249226 0.447429
O O12 0.034303 0.329400 0.500030
O O13 0.643420 0.258263 0.895274
O O14 0.000000 0.500000 0.500000
O O15 0.215193 0.715853 0.375143
O O16 0.341918 0.518780 0.560919
O O17 0.000000 0.500000 0.000000
O O18 0.985006 0.274951 0.232183
#
# Coordination Sequence:
#
# PCOD9016501 Si02
#       8
#     2   2   2   2   2   2   2   2
#     4  12  27  49  70 105 150 191 238 297 369 423
#     4  12  27  49  72 106 145 192 241 300 365 430
#     4  12  25  44  72 112 141 188 244 293 350 437
#     4  11  22  43  68 106 144 188 239 288 358 423
#     4  12  26  44  74 105 141 188 244 299 358 431
#     4  10  21  42  68 102 149 189 234 293 356 416
#     4  11  25  45  71 110 147 186 240 299 361 421
#     4  12  23  44  74 105 145 190 249 292 349 426
#
# _framework density 23.951181999999999
#
# number of rings (size 3 to 8) (size 9 to 14) (size 15 to 20)
#    0.000    0.500    5.000    4.500    5.250    0.000 
#    2.250    2.500    0.000    0.000    0.000    0.000 
#    0.000    0.000    0.000    0.000    0.000    0.000 
#
# Total GULP energy -89583.481045 kJ/mol
# GULP energy per Si atom -5598.967565 kJ/mol
# Density = 2.389667 g / cm^3
# Si number density = 23.951182 Si / 1000 Ang^3
#
#
#
# Elastic Constant Matrix: (Units=GPa)
#
#
# Indices 1 2 3 4 5 6 
#
# 1 86.4422 21.7968 3.7558 -6.5612 -13.0900 -1.9272
# 2 21.7968 148.0053 15.3426 -19.4927 -16.3168 10.1776
# 3 3.7558 15.3426 58.8627 -0.8231 -9.1231 -6.8125
# 4 -6.5612 -19.4927 -0.8231 31.1421 -4.6831 -13.3416
# 5 -13.0900 -16.3168 -9.1231 -4.6831 28.8644 5.0784
# 6 -1.9272 10.1776 -6.8125 -13.3416 5.0784 58.4786
#
#
#
# Elastic Compliance Matrix: (Units=1/GPa)
#
#
# Indices 1 2 3 4 5 6 
#
# 1 0.012955 -0.000915 0.000482 0.003451 0.005909 0.000916
# 2 -0.000915 0.008336 -0.001381 0.005362 0.004879 -0.000842
# 3 0.000482 -0.001381 0.018392 0.001470 0.005086 0.002293
# 4 0.003451 0.005362 0.001470 0.041149 0.010357 0.007840
# 5 0.005909 0.004879 0.005086 0.010357 0.043632 -0.001488
# 6 0.000916 -0.000842 0.002293 0.007840 -0.001488 0.019462
#
#
# Mechanical properties :
#
#
# Convention : Reuss Voigt Hill
#
# Bulk Modulus (GPa) = 27.73451 41.67785 34.70618
# Shear Modulus (GPa) = 31.33348 40.52469 35.92909
#
# Velocity S-wave (km/s) = 3.62086 4.11782 3.87731
# Velocity P-wave (km/s) = 5.39310 6.32831 5.87933
#
# Compressibility (1/GPa) = 0.03605617
#
# Stress axis : x y z
#
# Youngs Moduli (GPa) = 77.18813 119.95638 54.37127
#
# Poissons Ratio (x) = 0.10976 -0.02621
# Poissons Ratio (y) = 0.07063 0.07508
# Poissons Ratio (z) = -0.03721 0.16564
#
# Static dielectric constant tensor:
#      x y z
#    x 1.942920 -0.077590 0.033270 
#    y -0.077590 1.942670 -0.036350 
#    z 0.033270 -0.036350 1.956010 
# 
# From -- ./inp_files/336646.got.cif
#   From: 2010.05.17/outbox.cif.g08.bks.cpg/sg2_169_cif.got.tgz:336646.got - 2010.06.03 11:33:40.
