data_PCOD9016832
_publ_section_title
;
Structure prediction by ZEFSAII (Michael W. Deem and Ramdas Pophale) SiO2 
 PCOD9016832
Probable space group: P -1
;
_chemical_formula_sum "Si O2"
_cell_formula_units_Z 14
_cell_length_a 7.564551
_cell_length_b 7.981626
_cell_length_c 11.173744
_cell_angle_alpha 120.177770
_cell_angle_beta 87.812587
_cell_angle_gamma 100.250165
_cell_volume 572.855850
_symmetry_space_group_name_H-M "P -1"
_symmetry_group_IT_number 2
_symmetry_cell_setting 'triclinic'
loop_
_space_group_symop_operation_xyz
x,y,z
-x,-y,-z
loop_
_atom_site_type_symbol
_atom_site_label
_atom_site_fract_x
_atom_site_fract_y
_atom_site_fract_z
Si Si1 0.867988 0.354775 0.367387
Si Si2 0.598611 0.408813 0.571299
Si Si3 0.814013 0.505083 0.164995
Si Si4 0.302908 0.994762 0.860439
Si Si5 0.331221 0.168232 0.175876
Si Si6 0.142924 0.771292 0.142862
Si Si7 0.501581 0.308213 0.783872
O O1 0.716272 0.287150 0.447653
O O2 0.829297 0.481493 0.298252
O O3 0.877407 0.148552 0.229981
O O4 0.000000 0.500000 0.500000
O O5 0.500000 0.500000 0.500000
O O6 0.690983 0.611614 0.709224
O O7 0.494141 0.276330 0.629764
O O8 0.609126 0.514137 0.136690
O O9 0.953500 0.697959 0.186216
O O10 0.868089 0.326031 0.024069
O O11 0.458351 0.862280 0.835932
O O12 0.391011 0.140951 0.808573
O O13 0.272668 0.112433 0.022217
O O14 0.226110 0.001017 0.207276
O O15 0.292398 0.673688 0.174985
#
# Coordination Sequence:
#
# PCOD9016832 Si02
#       7
#     2   2   2   2   2   2   2
#     4  12  25  46  65  95 140 181 213 270 341 406
#     4  12  24  42  65  96 133 174 217 267 338 393
#     4  11  22  43  66  97 139 169 223 278 330 393
#     4  10  22  41  69  98 127 177 224 271 333 386
#     4  10  21  42  69  95 134 169 224 282 320 394
#     4  10  23  41  68 102 129 173 223 280 332 386
#     4  11  24  40  69 100 129 174 225 277 331 397
#
# _framework density 24.438958
#
# number of rings (size 3 to 8) (size 9 to 14) (size 15 to 20)
#    0.000    1.143    4.286    1.286    6.000    1.714 
#    2.571    2.857    0.000    0.000    0.000    0.000 
#    0.000    0.000    0.000    0.000    0.000    0.000 
#
# Total GULP energy -78185.897566 kJ/mol
# GULP energy per Si atom -5584.706969 kJ/mol
# Density = 2.438333 g / cm^3
# Si number density = 24.438958 Si / 1000 Ang^3
#
#
#
# Elastic Constant Matrix: (Units=GPa)
#
#
# Indices 1 2 3 4 5 6 
#
# 1 74.9824 7.5348 20.5578 -6.3602 6.3084 -1.1019
# 2 7.5348 107.4854 50.7088 -17.3315 7.4962 5.5286
# 3 20.5578 50.7088 166.1150 -13.4414 8.6742 -0.7681
# 4 -6.3602 -17.3315 -13.4414 51.6264 9.4471 0.6776
# 5 6.3084 7.4962 8.6742 9.4471 35.6670 -0.6122
# 6 -1.1019 5.5286 -0.7681 0.6776 -0.6122 25.6823
#
#
#
# Elastic Compliance Matrix: (Units=1/GPa)
#
#
# Indices 1 2 3 4 5 6 
#
# 1 0.014123 0.000194 -0.001513 0.001894 -0.002665 0.000405
# 2 0.000194 0.011712 -0.003172 0.003668 -0.002744 -0.002770
# 3 -0.001513 -0.003172 0.007301 0.000831 -0.001048 0.000789
# 4 0.001894 0.003668 0.000831 0.022400 -0.007266 -0.001448
# 5 -0.002665 -0.002744 -0.001048 -0.007266 0.031288 0.001382
# 6 0.000405 -0.002770 0.000789 -0.001448 0.001382 0.039646
#
#
# Mechanical properties :
#
#
# Convention : Reuss Voigt Hill
#
# Bulk Modulus (GPa) = 41.40092 56.24283 48.82187
# Shear Modulus (GPa) = 34.84287 40.58056 37.71172
#
# Velocity S-wave (km/s) = 3.77995 4.07933 3.93249
# Velocity P-wave (km/s) = 6.00234 6.72692 6.37493
#
# Compressibility (1/GPa) = 0.02415405
#
# Stress axis : x y z
#
# Youngs Moduli (GPa) = 70.80896 85.38476 136.96723
#
# Poissons Ratio (x) = -0.01657 0.20719
# Poissons Ratio (y) = -0.01374 0.43445
# Poissons Ratio (z) = 0.10711 0.27083
#
# Static dielectric constant tensor:
#      x y z
#    x 2.088420 0.012110 0.030950 
#    y 0.012110 2.019350 0.018320 
#    z 0.030950 0.018320 1.905890 
# 
# From -- ./inp_files/159778.got.cif
#   From: 2010.05.17/outbox.cif.g08.bks.cpg/sg2_80_cif.got.tgz:159778.got - 2010.06.03 11:33:40.
