data_PCOD9016513
_publ_section_title
;
Structure prediction by ZEFSAII (Michael W. Deem and Ramdas Pophale) SiO2 
 PCOD9016513
Probable space group: P -1
;
_chemical_formula_sum "Si O2"
_cell_formula_units_Z 15
_cell_length_a 5.282767
_cell_length_b 13.331148
_cell_length_c 8.890085
_cell_angle_alpha 106.515771
_cell_angle_beta 87.129653
_cell_angle_gamma 69.426947
_cell_volume 554.074900
_symmetry_space_group_name_H-M "P -1"
_symmetry_group_IT_number 2
_symmetry_cell_setting 'triclinic'
loop_
_space_group_symop_operation_xyz
x,y,z
-x,-y,-z
loop_
_atom_site_type_symbol
_atom_site_label
_atom_site_fract_x
_atom_site_fract_y
_atom_site_fract_z
Si Si1 0.891865 0.841177 0.311496
Si Si2 0.592702 0.827611 0.036556
Si Si3 0.000000 0.500000 0.500000
Si Si4 0.202202 0.069239 0.163896
Si Si5 0.462440 0.487229 0.732761
Si Si6 0.321071 0.911099 0.630013
Si Si7 0.351032 0.668609 0.040230
Si Si8 0.751363 0.690634 0.468761
O O1 0.641427 0.842626 0.216377
O O2 0.917760 0.750780 0.399742
O O3 0.140821 0.786044 0.166757
O O4 0.802382 0.972399 0.411640
O O5 0.582704 0.705984 0.978698
O O6 0.330297 0.939392 0.048063
O O7 0.818355 0.847970 0.936847
O O8 0.710859 0.489919 0.622370
O O9 0.895471 0.637632 0.595358
O O10 0.422370 0.085241 0.279972
O O11 0.923440 0.088366 0.260459
O O12 0.569721 0.407465 0.844023
O O13 0.258669 0.434746 0.628381
O O14 0.285552 0.602649 0.875955
O O15 0.450597 0.786065 0.503035
#
# Coordination Sequence:
#
# PCOD9016513 Si02
#       8
#     2   2   1   2   2   2   2   2
#     4  11  23  40  74 111 152 198 249 330 394 467
#     4  10  21  42  68 106 158 190 252 316 394 468
#     4   8  20  48  74 100 152 214 254 320 382 468
#     4  10  24  41  71 110 154 204 249 316 404 467
#     4   9  22  44  74 106 150 204 263 320 385 457
#     4  11  24  45  72 114 158 202 256 321 399 482
#     4  11  21  42  75 116 146 197 263 329 380 468
#     4  10  22  46  71 108 151 206 261 315 387 478
#
# _framework density 27.072150000000001
#
# number of rings (size 3 to 8) (size 9 to 14) (size 15 to 20)
#    0.800    1.067    2.667    0.400    1.867    4.267 
#    0.000    3.333    0.000    0.800    0.000    0.000 
#    0.000    0.000    0.000    0.000    0.000    0.000 
#
# Total GULP energy -83521.781656 kJ/mol
# GULP energy per Si atom -5568.118777 kJ/mol
# Density = 2.701053 g / cm^3
# Si number density = 27.072150 Si / 1000 Ang^3
#
#
#
# Elastic Constant Matrix: (Units=GPa)
#
#
# Indices 1 2 3 4 5 6 
#
# 1 130.5185 39.7629 60.0734 -3.8269 -1.3778 21.9214
# 2 39.7629 245.9200 64.4019 -17.9491 -12.3990 8.8777
# 3 60.0734 64.4019 90.1349 -9.0763 -2.5090 13.9907
# 4 -3.8269 -17.9491 -9.0763 43.6764 2.9214 -9.7337
# 5 -1.3778 -12.3990 -2.5090 2.9214 53.4173 -3.8859
# 6 21.9214 8.8777 13.9907 -9.7337 -3.8859 32.6029
#
#
#
# Elastic Compliance Matrix: (Units=1/GPa)
#
#
# Indices 1 2 3 4 5 6 
#
# 1 0.011845 0.000046 -0.007265 -0.001631 -0.000328 -0.005385
# 2 0.000046 0.005143 -0.003637 0.001447 0.000994 0.000680
# 3 -0.007265 -0.003637 0.018960 0.001413 -0.000355 -0.001881
# 4 -0.001631 0.001447 0.001413 0.025369 -0.000474 0.007614
# 5 -0.000328 0.000994 -0.000355 -0.000474 0.019115 0.002239
# 6 -0.005385 0.000680 -0.001881 0.007614 0.002239 0.037455
#
#
# Mechanical properties :
#
#
# Convention : Reuss Voigt Hill
#
# Bulk Modulus (GPa) = 70.24921 88.33886 79.29404
# Shear Modulus (GPa) = 34.63960 46.09499 40.36730
#
# Velocity S-wave (km/s) = 3.58093 4.13082 3.86567
# Velocity P-wave (km/s) = 6.56526 7.44670 7.01983
#
# Compressibility (1/GPa) = 0.01423504
#
# Stress axis : x y z
#
# Youngs Moduli (GPa) = 84.42691 194.45264 52.74354
#
# Poissons Ratio (x) = -0.00898 0.38316
# Poissons Ratio (y) = -0.00390 0.19185
# Poissons Ratio (z) = 0.61333 0.70730
#
# Static dielectric constant tensor:
#      x y z
#    x 2.882000 0.038450 -0.148010 
#    y 0.038450 2.279900 -0.022030 
#    z -0.148010 -0.022030 2.285250 
# 
# From -- ./inp_files/363300.got.cif
#   From: 2010.05.17/outbox.cif.g08.bks.cpg/sg2_182_cif.got.tgz:363300.got - 2010.06.03 11:33:40.
