data_PCOD9016585
_publ_section_title
;
Structure prediction by ZEFSAII (Michael W. Deem and Ramdas Pophale) SiO2 
 PCOD9016585
Probable space group: P -1
;
_chemical_formula_sum "Si O2"
_cell_formula_units_Z 16
_cell_length_a 9.758074
_cell_length_b 25.733553
_cell_length_c 9.023870
_cell_angle_alpha 40.450003
_cell_angle_beta 58.419195
_cell_angle_gamma 30.534141
_cell_volume 684.649006
_symmetry_space_group_name_H-M "P -1"
_symmetry_group_IT_number 2
_symmetry_cell_setting 'triclinic'
loop_
_space_group_symop_operation_xyz
x,y,z
-x,-y,-z
loop_
_atom_site_type_symbol
_atom_site_label
_atom_site_fract_x
_atom_site_fract_y
_atom_site_fract_z
Si Si1 0.606305 0.583226 0.992217
Si Si2 0.182059 0.678912 0.490417
Si Si3 0.298701 0.914280 0.152202
Si Si4 0.797757 0.326010 0.175023
Si Si5 0.617575 0.908891 0.782197
Si Si6 0.242538 0.337328 0.051814
Si Si7 0.433910 0.118444 0.638368
Si Si8 0.378438 0.768049 0.188479
O O1 0.654776 0.474447 0.271536
O O2 0.890718 0.481256 0.949192
O O3 0.314406 0.699985 0.806378
O O4 0.628537 0.641298 0.976514
O O5 0.089554 0.736791 0.587683
O O6 0.378781 0.673570 0.356366
O O7 0.873096 0.797046 0.325206
O O8 0.438671 0.885741 0.287443
O O9 0.396315 0.787557 0.307338
O O10 0.408132 0.929656 0.927898
O O11 0.946931 0.066421 0.034420
O O12 0.059302 0.257645 0.083948
O O13 0.500000 0.500000 0.000000
O O14 0.500000 0.000000 0.500000
O O15 0.637296 0.968139 0.770795
O O16 0.348534 0.215905 0.345538
O O17 0.371933 0.292390 0.914580
#
# Coordination Sequence:
#
# PCOD9016585 Si02
#       8
#     2   2   2   2   2   2   2   2
#     4   9  22  43  67  96 132 177 228 274 332 405
#     4  10  21  42  68  94 135 172 223 280 328 399
#     4  11  26  40  63 101 142 169 218 284 341 394
#     4  10  22  39  68 100 130 172 227 272 326 405
#     4  12  22  42  73 100 131 181 223 275 339 400
#     4  10  23  43  68  95 135 177 221 282 336 395
#     4  11  23  42  68  98 135 172 225 275 337 395
#     4  11  24  42  64  97 137 174 223 278 339 394
#
# _framework density 23.369641000000001
#
# number of rings (size 3 to 8) (size 9 to 14) (size 15 to 20)
#    0.000    1.500    2.500    1.125    7.000    2.000 
#    0.000    6.875    0.000    0.000    0.000    0.000 
#    0.000    0.000    0.000    0.000    0.000    0.000 
#
# Total GULP energy -89418.362255 kJ/mol
# GULP energy per Si atom -5588.647641 kJ/mol
# Density = 2.331645 g / cm^3
# Si number density = 23.369641 Si / 1000 Ang^3
#
#
#
# Elastic Constant Matrix: (Units=GPa)
#
#
# Indices 1 2 3 4 5 6 
#
# 1 152.0803 11.4317 14.9642 -0.1758 0.0808 4.5509
# 2 11.4317 66.6473 13.0453 6.0584 -4.5157 1.3364
# 3 14.9642 13.0453 45.6946 11.9869 -10.4658 0.3065
# 4 -0.1758 6.0584 11.9869 22.2175 -2.2179 -6.8323
# 5 0.0808 -4.5157 -10.4658 -2.2179 41.2068 -2.8698
# 6 4.5509 1.3364 0.3065 -6.8323 -2.8698 27.5931
#
#
#
# Elastic Compliance Matrix: (Units=1/GPa)
#
#
# Indices 1 2 3 4 5 6 
#
# 1 0.006915 -0.000844 -0.002535 0.001327 -0.000735 -0.000819
# 2 -0.000844 0.016150 -0.003418 -0.002885 0.000661 -0.001251
# 3 -0.002535 -0.003418 0.029022 -0.015019 0.005996 -0.002834
# 4 0.001327 -0.002885 -0.015019 0.058386 0.000022 0.014547
# 5 -0.000735 0.000661 0.005996 0.000022 0.026056 0.002738
# 6 -0.000819 -0.001251 -0.002834 0.014547 0.002738 0.040355
#
#
# Mechanical properties :
#
#
# Convention : Reuss Voigt Hill
#
# Bulk Modulus (GPa) = 25.97733 38.14497 32.06115
# Shear Modulus (GPa) = 24.59313 33.20220 28.89767
#
# Velocity S-wave (km/s) = 3.24752 3.77336 3.52027
# Velocity P-wave (km/s) = 5.02014 5.94493 5.50200
#
# Compressibility (1/GPa) = 0.03849511
#
# Stress axis : x y z
#
# Youngs Moduli (GPa) = 144.61843 61.91862 34.45612
#
# Poissons Ratio (x) = 0.05226 0.08733
# Poissons Ratio (y) = 0.12205 0.11776
# Poissons Ratio (z) = 0.36654 0.21161
#
# Static dielectric constant tensor:
#      x y z
#    x 1.916270 0.011640 -0.023550 
#    y 0.011640 1.858040 -0.013610 
#    z -0.023550 -0.013610 1.923010 
# 
# From -- ./inp_files/226099.got.cif
#   From: 2010.05.17/outbox.cif.g08.bks.cpg/sg2_114_cif.got.tgz:226099.got - 2010.06.03 11:33:40.
