data_PCOD9016342
_publ_section_title
;
Structure prediction by ZEFSAII (Michael W. Deem and Ramdas Pophale) SiO2 
 PCOD9016342
Probable space group: P -1
;
_chemical_formula_sum "Si O2"
_cell_formula_units_Z 14
_cell_length_a 13.069853
_cell_length_b 6.609395
_cell_length_c 7.613451
_cell_angle_alpha 63.144574
_cell_angle_beta 97.587212
_cell_angle_gamma 105.972531
_cell_volume 564.072776
_symmetry_space_group_name_H-M "P -1"
_symmetry_group_IT_number 2
_symmetry_cell_setting 'triclinic'
loop_
_space_group_symop_operation_xyz
x,y,z
-x,-y,-z
loop_
_atom_site_type_symbol
_atom_site_label
_atom_site_fract_x
_atom_site_fract_y
_atom_site_fract_z
Si Si1 0.050613 0.257066 0.480296
Si Si2 0.484484 0.593294 0.154535
Si Si3 0.031929 0.392519 0.871756
Si Si4 0.139587 0.075610 0.926986
Si Si5 0.601942 0.216317 0.423020
Si Si6 0.338071 0.052548 0.766550
Si Si7 0.284150 0.485113 0.373462
O O1 0.967229 0.413057 0.354377
O O2 0.089818 0.189650 0.705547
O O3 0.158242 0.402304 0.354534
O O4 0.000000 0.000000 0.500000
O O5 0.542883 0.423681 0.337872
O O6 0.554203 0.840403 0.143753
O O7 0.363142 0.556457 0.199769
O O8 0.500000 0.500000 0.000000
O O9 0.137598 0.294195 0.966523
O O10 0.000000 0.500000 0.000000
O O11 0.936176 0.157958 0.922839
O O12 0.245402 0.017277 0.903914
O O13 0.686789 0.296793 0.566910
O O14 0.500000 0.000000 0.500000
O O15 0.654936 0.161997 0.274255
O O16 0.312558 0.251445 0.553393
#
# Coordination Sequence:
#
# PCOD9016342 Si02
#       7
#     2   2   2   2   2   2   2
#     4  11  23  45  69  98 135 181 229 279 340 406
#     4  11  23  39  60 101 139 163 214 276 331 408
#     4  11  23  44  69  92 141 173 227 284 338 400
#     4  10  24  43  65 102 129 179 226 281 339 403
#     4  11  19  41  70  87 126 178 218 270 330 401
#     4  10  21  42  67  94 130 173 226 264 338 409
#     4  10  22  41  65  97 131 172 226 275 329 406
#
# _framework density 24.819490999999999
#
# number of rings (size 3 to 8) (size 9 to 14) (size 15 to 20)
#    0.000    1.429    4.286    1.286    0.000    6.286 
#    7.714    0.000    0.000    0.000    0.000    0.000 
#    0.000    0.000    0.000    0.000    0.000    0.000 
#
# Total GULP energy -78090.568939 kJ/mol
# GULP energy per Si atom -5577.897781 kJ/mol
# Density = 2.476300 g / cm^3
# Si number density = 24.819491 Si / 1000 Ang^3
#
#
#
# Elastic Constant Matrix: (Units=GPa)
#
#
# Indices 1 2 3 4 5 6 
#
# 1 119.7957 56.0708 25.3718 -1.5732 -36.4593 -8.0607
# 2 56.0708 145.1252 25.5458 7.1345 -9.2556 -14.2707
# 3 25.3718 25.5458 68.1963 1.1747 -17.4749 -0.4752
# 4 -1.5732 7.1345 1.1747 46.8634 -18.8899 2.7682
# 5 -36.4593 -9.2556 -17.4749 -18.8899 50.3672 -0.0364
# 6 -8.0607 -14.2707 -0.4752 2.7682 -0.0364 41.9388
#
#
#
# Elastic Compliance Matrix: (Units=1/GPa)
#
#
# Indices 1 2 3 4 5 6 
#
# 1 0.014423 -0.004940 -0.000666 0.005844 0.011494 0.000708
# 2 -0.004940 0.009410 -0.002636 -0.003285 -0.003992 0.002436
# 3 -0.000666 -0.002636 0.017379 0.002406 0.005965 -0.000982
# 4 0.005844 -0.003285 0.002406 0.028132 0.015011 -0.001811
# 5 0.011494 -0.003992 0.005965 0.015011 0.035140 -0.000042
# 6 0.000708 0.002436 -0.000982 -0.001811 -0.000042 0.024918
#
#
# Mechanical properties :
#
#
# Convention : Reuss Voigt Hill
#
# Bulk Modulus (GPa) = 40.44082 60.78824 50.61453
# Shear Modulus (GPa) = 32.44039 42.90915 37.67477
#
# Velocity S-wave (km/s) = 3.61924 4.16245 3.90032
# Velocity P-wave (km/s) = 5.81331 6.90266 6.38127
#
# Compressibility (1/GPa) = 0.02472749
#
# Stress axis : x y z
#
# Youngs Moduli (GPa) = 69.33202 106.27291 57.54090
#
# Poissons Ratio (x) = 0.52499 0.03832
# Poissons Ratio (y) = 0.34250 0.15169
# Poissons Ratio (z) = 0.04618 0.28016
#
# Static dielectric constant tensor:
#      x y z
#    x 2.272940 -0.102370 0.009920 
#    y -0.102370 2.173000 0.002030 
#    z 0.009920 0.002030 1.985200 
# 
# From -- ./inp_files/287717.got.cif
#   From: 2010.05.17/outbox.cif.g08.bks.cpg/sg2_144_cif.got.tgz:287717.got - 2010.06.03 11:33:40.
