data_PCOD9016603
_publ_section_title
;
Structure prediction by ZEFSAII (Michael W. Deem and Ramdas Pophale) SiO2 
 PCOD9016603
Probable space group: P -1
;
_chemical_formula_sum "Si O2"
_cell_formula_units_Z 16
_cell_length_a 15.886206
_cell_length_b 7.564347
_cell_length_c 11.006320
_cell_angle_alpha 134.037503
_cell_angle_beta 46.949458
_cell_angle_gamma 135.221442
_cell_volume 621.203714
_symmetry_space_group_name_H-M "P -1"
_symmetry_group_IT_number 2
_symmetry_cell_setting 'triclinic'
loop_
_space_group_symop_operation_xyz
x,y,z
-x,-y,-z
loop_
_atom_site_type_symbol
_atom_site_label
_atom_site_fract_x
_atom_site_fract_y
_atom_site_fract_z
Si Si1 0.216919 0.588454 0.454007
Si Si2 0.786836 0.384003 0.069225
Si Si3 0.529808 0.242528 0.823151
Si Si4 0.029853 0.911648 0.057863
Si Si5 0.710533 0.068125 0.228729
Si Si6 0.036769 0.877265 0.527386
Si Si7 0.715612 0.872096 0.720655
Si Si8 0.535000 0.343830 0.281883
O O1 0.317751 0.657025 0.279908
O O2 0.260888 0.847982 0.620999
O O3 0.064395 0.442970 0.521252
O O4 0.250478 0.368098 0.385821
O O5 0.936118 0.583347 0.995115
O O6 0.754251 0.331525 0.219929
O O7 0.686895 0.495898 0.172886
O O8 0.751487 0.097407 0.898840
O O9 0.439687 0.120028 0.734000
O O10 0.482989 0.961217 0.810698
O O11 0.500000 0.500000 0.000000
O O12 0.987902 0.006369 0.267441
O O13 0.183665 0.025965 0.964825
O O14 0.000000 0.000000 0.000000
O O15 0.000000 0.000000 0.500000
O O16 0.186830 0.963671 0.405509
O O17 0.567912 0.723280 0.755253
O O18 0.500000 0.500000 0.500000
#
# Coordination Sequence:
#
# PCOD9016603 Si02
#       8
#     2   2   2   2   2   2   2   2
#     4  11  22  40  67  97 128 175 229 281 335 406
#     4  11  23  42  65  93 131 181 226 271 338 422
#     4  11  24  43  67  99 135 177 226 283 342 408
#     4  12  26  42  65 101 135 171 225 294 345 392
#     4  11  23  42  65  93 131 181 226 271 338 422
#     4  10  21  42  68  95 134 185 229 274 339 422
#     4  11  22  40  67  97 128 175 229 281 335 406
#     4  11  24  43  67  99 135 177 226 283 342 408
#
# _framework density 25.756446
#
# number of rings (size 3 to 8) (size 9 to 14) (size 15 to 20)
#    0.000    1.000    0.000    9.375    0.000    5.000 
#    0.000    1.875    0.000    0.000    0.000    0.000 
#    0.000    0.000    0.000    0.000    0.000    0.000 
#
# Total GULP energy -89419.593394 kJ/mol
# GULP energy per Si atom -5588.724587 kJ/mol
# Density = 2.569782 g / cm^3
# Si number density = 25.756446 Si / 1000 Ang^3
#
#
#
# Elastic Constant Matrix: (Units=GPa)
#
#
# Indices 1 2 3 4 5 6 
#
# 1 105.5841 10.2460 9.6725 1.4506 -2.3931 1.2923
# 2 10.2460 87.6213 6.8804 -0.7954 -4.3303 -2.1072
# 3 9.6725 6.8804 113.8494 4.7837 4.9840 -16.1488
# 4 1.4506 -0.7954 4.7837 42.3532 18.0862 -2.8393
# 5 -2.3931 -4.3303 4.9840 18.0862 35.9671 1.5849
# 6 1.2923 -2.1072 -16.1488 -2.8393 1.5849 20.7368
#
#
#
# Elastic Compliance Matrix: (Units=1/GPa)
#
#
# Indices 1 2 3 4 5 6 
#
# 1 0.009725 -0.001048 -0.001021 -0.000850 0.001165 -0.001713
# 2 -0.001048 0.011669 -0.000580 -0.000291 0.001534 0.000642
# 3 -0.001021 -0.000580 0.010130 0.000296 -0.002047 0.008091
# 4 -0.000850 -0.000291 0.000296 0.030748 -0.015844 0.005675
# 5 0.001165 0.001534 -0.002047 -0.015844 0.036602 -0.006478
# 6 -0.001713 0.000642 0.008091 0.005675 -0.006478 0.055968
#
#
# Mechanical properties :
#
#
# Convention : Reuss Voigt Hill
#
# Bulk Modulus (GPa) = 38.13021 40.07250 39.10135
# Shear Modulus (GPa) = 29.60612 38.49515 34.05063
#
# Velocity S-wave (km/s) = 3.39405 3.87018 3.63991
# Velocity P-wave (km/s) = 5.49507 5.96348 5.73406
#
# Compressibility (1/GPa) = 0.02622593
#
# Stress axis : x y z
#
# Youngs Moduli (GPa) = 102.82281 85.69356 98.71563
#
# Poissons Ratio (x) = 0.08984 0.10081
# Poissons Ratio (y) = 0.10780 0.05725
# Poissons Ratio (z) = 0.10501 0.04970
#
# Static dielectric constant tensor:
#      x y z
#    x 2.139050 -0.008680 -0.018570 
#    y -0.008680 2.161050 -0.089280 
#    z -0.018570 -0.089280 2.054450 
# 
# From -- ./inp_files/462550.got.cif
#   From: 2010.05.17/outbox.cif.g08.bks.cpg/sg2_232_cif.got.tgz:462550.got - 2010.06.03 11:33:40.
