data_PCOD9016898
_publ_section_title
;
Structure prediction by ZEFSAII (Michael W. Deem and Ramdas Pophale) SiO2 
 PCOD9016898
Probable space group: P -1
;
_chemical_formula_sum "Si O2"
_cell_formula_units_Z 12
_cell_length_a 6.425094
_cell_length_b 9.667780
_cell_length_c 17.154589
_cell_angle_alpha 45.135527
_cell_angle_beta 99.635748
_cell_angle_gamma 128.759284
_cell_volume 511.318060
_symmetry_space_group_name_H-M "P -1"
_symmetry_group_IT_number 2
_symmetry_cell_setting 'triclinic'
loop_
_space_group_symop_operation_xyz
x,y,z
-x,-y,-z
loop_
_atom_site_type_symbol
_atom_site_label
_atom_site_fract_x
_atom_site_fract_y
_atom_site_fract_z
Si Si1 0.650527 0.982516 0.945542
Si Si2 0.030003 0.792202 0.567430
Si Si3 0.484410 0.037686 0.352948
Si Si4 0.859969 0.192038 0.104743
Si Si5 0.503888 0.300213 0.626751
Si Si6 0.735952 0.609367 0.097807
O O1 0.494200 0.981463 0.863966
O O2 0.557030 0.692169 0.059346
O O3 0.016856 0.234229 0.878065
O O4 0.500000 0.000000 0.000000
O O5 0.246393 0.906305 0.460351
O O6 0.706526 0.488635 0.640426
O O7 0.194511 0.806327 0.646609
O O8 0.000000 0.000000 0.500000
O O9 0.383224 0.795444 0.385984
O O10 0.543342 0.282506 0.216476
O O11 0.824148 0.006862 0.242802
O O12 0.000000 0.500000 0.000000
O O13 0.051828 0.234424 0.028023
O O14 0.500000 0.500000 0.500000
#
# Coordination Sequence:
#
# PCOD9016898 Si02
#       6
#     2   2   2   2   2   2
#     4   9  21  40  64  96 133 173 219 275 340 405
#     4  11  25  45  69 100 137 186 230 284 340 411
#     4  11  24  45  71 101 138 179 236 281 347 405
#     4  11  23  42  66  98 136 172 225 279 340 403
#     4  12  25  47  70 101 141 185 230 285 342 411
#     4  10  21  42  69  99 129 177 223 284 341 405
#
# _framework density 23.46876
#
# number of rings (size 3 to 8) (size 9 to 14) (size 15 to 20)
#    0.000    1.333    3.333    1.500    0.000    8.667 
#    6.000    0.000    0.000    0.000    0.000    0.000 
#    0.000    0.000    0.000    0.000    0.000    0.000 
#
# Total GULP energy -67039.995042 kJ/mol
# GULP energy per Si atom -5586.666254 kJ/mol
# Density = 2.341534 g / cm^3
# Si number density = 23.468760 Si / 1000 Ang^3
#
#
#
# Elastic Constant Matrix: (Units=GPa)
#
#
# Indices 1 2 3 4 5 6 
#
# 1 87.1653 30.6871 39.2415 -12.9328 32.0931 -28.3485
# 2 30.6871 102.1056 32.8017 -28.0986 14.2891 -29.2596
# 3 39.2415 32.8017 158.1333 -31.3844 29.5370 -18.6950
# 4 -12.9328 -28.0986 -31.3844 37.8446 -16.8077 7.7791
# 5 32.0931 14.2891 29.5370 -16.8077 35.8066 -9.3578
# 6 -28.3485 -29.2596 -18.6950 7.7791 -9.3578 45.7731
#
#
#
# Elastic Compliance Matrix: (Units=1/GPa)
#
#
# Indices 1 2 3 4 5 6 
#
# 1 0.021291 -0.002557 -0.001635 -0.005236 -0.017002 0.008297
# 2 -0.002557 0.014888 -0.000243 0.009908 0.002968 0.006757
# 3 -0.001635 -0.000243 0.008360 0.004736 -0.002888 0.000851
# 4 -0.005236 0.009908 0.004736 0.043462 0.017554 0.001227
# 5 -0.017002 0.002968 -0.002888 0.017554 0.052041 -0.002157
# 6 0.008297 0.006757 0.000851 0.001227 -0.002157 0.031003
#
#
# Mechanical properties :
#
#
# Convention : Reuss Voigt Hill
#
# Bulk Modulus (GPa) = 28.03646 61.42941 44.73294
# Shear Modulus (GPa) = 26.06820 40.19645 33.13233
#
# Velocity S-wave (km/s) = 3.33643 4.14305 3.76142
# Velocity P-wave (km/s) = 5.17828 7.00844 6.16169
#
# Compressibility (1/GPa) = 0.03566784
#
# Stress axis : x y z
#
# Youngs Moduli (GPa) = 46.96899 67.16946 119.61729
#
# Poissons Ratio (x) = 0.17176 0.19561
# Poissons Ratio (y) = 0.12011 0.02904
# Poissons Ratio (z) = 0.07681 0.01630
#
# Static dielectric constant tensor:
#      x y z
#    x 1.911800 0.061900 0.017530 
#    y 0.061900 1.971550 0.017330 
#    z 0.017530 0.017330 1.948000 
# 
# From -- ./inp_files/30216.got.cif
#   From: 2010.05.17/outbox.cif.g08.bks.cpg/sg2_16_cif.got.tgz:30216.got - 2010.06.03 11:33:40.
