data_PCOD9016550
_publ_section_title
;
Structure prediction by ZEFSAII (Michael W. Deem and Ramdas Pophale) SiO2 
 PCOD9016550
Probable space group: P -1
;
_chemical_formula_sum "Si O2"
_cell_formula_units_Z 16
_cell_length_a 12.363480
_cell_length_b 18.290641
_cell_length_c 10.097183
_cell_angle_alpha 45.668582
_cell_angle_beta 123.863727
_cell_angle_gamma 151.961003
_cell_volume 755.622110
_symmetry_space_group_name_H-M "P -1"
_symmetry_group_IT_number 2
_symmetry_cell_setting 'triclinic'
loop_
_space_group_symop_operation_xyz
x,y,z
-x,-y,-z
loop_
_atom_site_type_symbol
_atom_site_label
_atom_site_fract_x
_atom_site_fract_y
_atom_site_fract_z
Si Si1 0.257568 0.603602 0.886491
Si Si2 0.373031 0.861441 0.437485
Si Si3 0.218103 0.607499 0.135250
Si Si4 0.886768 0.197805 0.457886
Si Si5 0.306639 0.402766 0.097806
Si Si6 0.130003 0.009959 0.680109
Si Si7 0.709581 0.682838 0.500975
Si Si8 0.540859 0.134947 0.785417
O O1 0.326513 0.735037 0.662572
O O2 0.983295 0.437007 0.945796
O O3 0.364828 0.696206 0.987731
O O4 0.298518 0.519107 0.963881
O O5 0.223474 0.856950 0.401967
O O6 0.307445 0.790013 0.335020
O O7 0.652573 0.063008 0.381401
O O8 0.351382 0.721088 0.214436
O O9 0.077844 0.410840 0.301357
O O10 0.038626 0.198153 0.524968
O O11 0.339053 0.381914 0.297201
O O12 0.069909 0.196074 0.143598
O O13 0.500000 0.500000 0.000000
O O14 0.256962 0.172838 0.658162
O O15 0.315189 0.052472 0.689527
O O16 0.000000 0.000000 0.500000
O O17 0.500000 0.500000 0.500000
O O18 0.500000 0.000000 0.000000
#
# Coordination Sequence:
#
# PCOD9016550 Si02
#       8
#     2   2   2   2   2   2   2   2
#     4  10  22  40  69  92 135 175 225 267 342 406
#     4  10  24  40  69 100 128 175 223 285 333 409
#     4  10  22  41  67  95 129 177 216 273 340 401
#     4  10  21  42  68  92 131 174 229 262 338 405
#     4  11  24  42  65  96 128 176 228 275 325 401
#     4  10  24  44  69  95 135 184 223 265 343 409
#     4  11  23  44  67  92 134 182 223 274 332 402
#     4  12  26  42  70 103 138 168 227 288 342 390
#
# _framework density 21.174606000000001
#
# number of rings (size 3 to 8) (size 9 to 14) (size 15 to 20)
#    0.000    1.500    1.250    3.000   12.250    2.000 
#    4.500    0.625    0.000    0.000    0.000    0.000 
#    0.000    0.000    0.000    0.000    0.000    0.000 
#
# Total GULP energy -89239.711559 kJ/mol
# GULP energy per Si atom -5577.481972 kJ/mol
# Density = 2.112641 g / cm^3
# Si number density = 21.174606 Si / 1000 Ang^3
#
#
#
# Elastic Constant Matrix: (Units=GPa)
#
#
# Indices 1 2 3 4 5 6 
#
# 1 186.6973 30.2536 46.8437 2.7966 -15.6188 -11.5087
# 2 30.2536 72.2796 27.8072 -4.9218 -7.6281 -21.5155
# 3 46.8437 27.8072 79.1169 -5.2765 -20.0796 -20.0419
# 4 2.7966 -4.9218 -5.2765 24.9461 -1.2826 5.7142
# 5 -15.6188 -7.6281 -20.0796 -1.2826 31.6461 1.5950
# 6 -11.5087 -21.5155 -20.0419 5.7142 1.5950 37.1562
#
#
#
# Elastic Compliance Matrix: (Units=1/GPa)
#
#
# Indices 1 2 3 4 5 6 
#
# 1 0.006508 -0.001628 -0.003354 -0.001608 0.000653 -0.000517
# 2 -0.001628 0.018350 -0.002950 0.001358 0.001386 0.008262
# 3 -0.003354 -0.002950 0.020321 0.002944 0.010278 0.007320
# 4 -0.001608 0.001358 0.002944 0.042428 0.003363 -0.004793
# 5 0.000653 0.001386 0.010278 0.003363 0.038693 0.004371
# 6 -0.000517 0.008262 0.007320 -0.004793 0.004371 0.036035
#
#
# Mechanical properties :
#
#
# Convention : Reuss Voigt Hill
#
# Bulk Modulus (GPa) = 34.11211 60.87809 47.49510
# Shear Modulus (GPa) = 26.59971 34.29563 30.44767
#
# Velocity S-wave (km/s) = 3.54815 4.02886 3.79612
# Velocity P-wave (km/s) = 5.73853 7.10319 6.45701
#
# Compressibility (1/GPa) = 0.02931511
#
# Stress axis : x y z
#
# Youngs Moduli (GPa) = 153.64626 54.49704 49.20943
#
# Poissons Ratio (x) = 0.08874 0.16504
# Poissons Ratio (y) = 0.25020 0.14517
# Poissons Ratio (z) = 0.51529 0.16077
#
# Static dielectric constant tensor:
#      x y z
#    x 1.851400 0.043810 0.023680 
#    y 0.043810 1.920890 0.078470 
#    z 0.023680 0.078470 1.802900 
# 
# From -- ./inp_files/279104.got.cif
#   From: 2010.05.17/outbox.cif.g08.bks.cpg/sg2_140_cif.got.tgz:279104.got - 2010.06.03 11:33:40.
