data_PCOD9016013
_publ_section_title
;
Structure prediction by ZEFSAII (Michael W. Deem and Ramdas Pophale) SiO2 
 PCOD9016013
Probable space group: P -1
;
_chemical_formula_sum "Si O2"
_cell_formula_units_Z 12
_cell_length_a 9.595512
_cell_length_b 16.598933
_cell_length_c 9.929460
_cell_angle_alpha 145.646569
_cell_angle_beta 121.247257
_cell_angle_gamma 43.063595
_cell_volume 594.560828
_symmetry_space_group_name_H-M "P -1"
_symmetry_group_IT_number 2
_symmetry_cell_setting 'triclinic'
loop_
_space_group_symop_operation_xyz
x,y,z
-x,-y,-z
loop_
_atom_site_type_symbol
_atom_site_label
_atom_site_fract_x
_atom_site_fract_y
_atom_site_fract_z
Si Si1 0.844896 0.142606 0.006864
Si Si2 0.847404 0.001805 0.526627
Si Si3 0.427582 0.379117 0.757633
Si Si4 0.904680 0.413966 0.899247
Si Si5 0.183913 0.500718 0.536022
Si Si6 0.601092 0.579118 0.734646
O O1 0.873008 0.298914 0.223430
O O2 0.605281 0.233332 0.050474
O O3 0.888776 0.044011 0.751980
O O4 0.000000 0.000000 0.000000
O O5 0.918295 0.799613 0.280056
O O6 0.610445 0.170152 0.601049
O O7 0.000000 0.000000 0.500000
O O8 0.367853 0.395737 0.594863
O O9 0.500000 0.500000 0.000000
O O10 0.221857 0.474705 0.877296
O O11 0.741428 0.451467 0.754254
O O12 0.000000 0.500000 0.000000
O O13 0.265887 0.416847 0.310951
O O14 0.000000 0.500000 0.500000
O O15 0.500000 0.500000 0.500000
#
# Coordination Sequence:
#
# PCOD9016013 Si02
#       6
#     2   2   2   2   2   2
#     4  11  23  41  66  96 126 172 228 255 313 402
#     4  12  24  40  72  97 125 177 222 262 322 393
#     4  12  22  44  68  98 130 170 224 263 318 400
#     4  12  25  44  67  98 133 165 217 280 326 373
#     4  11  23  42  66  95 135 169 207 278 329 367
#     4  10  21  42  66  90 129 173 213 261 318 388
#
# _framework density 20.182964999999999
#
# number of rings (size 3 to 8) (size 9 to 14) (size 15 to 20)
#    0.000    0.667    5.000    4.000    2.333    0.667 
#    3.000    0.833    0.000    0.000    0.000    0.000 
#    0.000    0.000    0.000    0.000    0.000    0.000 
#
# Total GULP energy -67056.636711 kJ/mol
# GULP energy per Si atom -5588.053059 kJ/mol
# Density = 2.013703 g / cm^3
# Si number density = 20.182965 Si / 1000 Ang^3
#
#
#
# Elastic Constant Matrix: (Units=GPa)
#
#
# Indices 1 2 3 4 5 6 
#
# 1 121.3007 8.5294 36.1830 24.8540 -14.6055 18.4940
# 2 8.5294 163.6097 48.5248 24.2468 -2.2762 8.5038
# 3 36.1830 48.5248 86.4808 24.4550 -27.8585 11.1117
# 4 24.8540 24.2468 24.4550 50.8162 7.7373 -1.2636
# 5 -14.6055 -2.2762 -27.8585 7.7373 40.8792 -6.1302
# 6 18.4940 8.5038 11.1117 -1.2636 -6.1302 31.6967
#
#
#
# Elastic Compliance Matrix: (Units=1/GPa)
#
#
# Indices 1 2 3 4 5 6 
#
# 1 0.011153 0.001216 -0.002131 -0.005578 0.002791 -0.005769
# 2 0.001216 0.007831 -0.005083 -0.001538 -0.002539 -0.001581
# 3 -0.002131 -0.005083 0.024297 -0.010908 0.017124 -0.003034
# 4 -0.005578 -0.001538 -0.010908 0.030736 -0.014442 0.005923
# 5 0.002791 -0.002539 0.017124 -0.014442 0.039745 0.000161
# 6 -0.005769 -0.001581 -0.003034 0.005923 0.000161 0.036670
#
#
# Mechanical properties :
#
#
# Convention : Reuss Voigt Hill
#
# Bulk Modulus (GPa) = 31.96384 61.98507 46.97445
# Shear Modulus (GPa) = 28.92581 43.22202 36.07391
#
# Velocity S-wave (km/s) = 3.78984 4.63267 4.23229
# Velocity P-wave (km/s) = 5.91794 7.70673 6.87080
#
# Compressibility (1/GPa) = 0.03128535
#
# Stress axis : x y z
#
# Youngs Moduli (GPa) = 89.66564 127.69856 41.15685
#
# Poissons Ratio (x) = -0.15526 0.08770
# Poissons Ratio (y) = -0.10902 0.20919
# Poissons Ratio (z) = 0.19107 0.64905
#
# Static dielectric constant tensor:
#      x y z
#    x 1.746320 -0.020480 -0.009530 
#    y -0.020480 1.725900 -0.019050 
#    z -0.009530 -0.019050 1.707020 
# 
# From -- ./inp_files/106640.got.cif
#   From: 2010.05.17/outbox.cif.g08.bks.cpg/sg2_54_cif.got.tgz:106640.got - 2010.06.03 11:33:40.
