data_PCOD9016256
_publ_section_title
;
Structure prediction by ZEFSAII (Michael W. Deem and Ramdas Pophale) SiO2 
 PCOD9016256
Probable space group: P -1
;
_chemical_formula_sum "Si O2"
_cell_formula_units_Z 16
_cell_length_a 5.168335
_cell_length_b 22.508642
_cell_length_c 5.098494
_cell_angle_alpha 99.142454
_cell_angle_beta 88.831720
_cell_angle_gamma 74.410233
_cell_volume 562.798312
_symmetry_space_group_name_H-M "P -1"
_symmetry_group_IT_number 2
_symmetry_cell_setting 'triclinic'
loop_
_space_group_symop_operation_xyz
x,y,z
-x,-y,-z
loop_
_atom_site_type_symbol
_atom_site_label
_atom_site_fract_x
_atom_site_fract_y
_atom_site_fract_z
Si Si1 0.315201 0.337275 0.212735
Si Si2 0.998400 0.278127 0.768039
Si Si3 0.883722 0.440965 0.479077
Si Si4 0.140400 0.035207 0.810859
Si Si5 0.617627 0.407748 0.930862
Si Si6 0.280323 0.177513 0.332762
Si Si7 0.400641 0.922694 0.330311
Si Si8 0.734184 0.212028 0.087061
O O1 0.151540 0.297711 0.025265
O O2 0.141459 0.379752 0.472848
O O3 0.362743 0.390921 0.050801
O O4 0.596435 0.285352 0.230482
O O5 0.772583 0.340619 0.756987
O O6 0.849632 0.225956 0.817243
O O7 0.213120 0.244705 0.527209
O O8 0.764197 0.425570 0.195703
O O9 0.000000 0.500000 0.500000
O O10 0.658851 0.451032 0.720393
O O11 0.395780 0.061995 0.881302
O O12 0.879081 0.089586 0.763067
O O13 0.267098 0.985711 0.546362
O O14 0.000000 0.000000 0.000000
O O15 0.418337 0.126112 0.506644
O O16 0.992753 0.176696 0.226169
O O17 0.497873 0.179220 0.105945
#
# Coordination Sequence:
#
# PCOD9016256 Si02
#       8
#     2   2   2   2   2   2   2   2
#     4  10  23  44  66  96 136 180 232 273 349 428
#     4  10  24  41  64  95 129 179 221 274 338 423
#     4  11  24  44  67 102 137 180 235 295 352 416
#     4  10  21  42  67  86 133 176 222 269 342 396
#     4  10  24  40  69  95 136 182 229 286 354 423
#     4  12  25  39  69  96 141 166 225 288 335 406
#     4  10  23  40  61 101 124 171 225 276 332 403
#     4  11  24  42  62  96 130 179 215 273 344 408
#
# _framework density 28.429368
#
# number of rings (size 3 to 8) (size 9 to 14) (size 15 to 20)
#    0.000    1.500    1.250    2.250    7.000    5.000 
#    0.000    0.000    0.000    0.000    0.000    0.000 
#    0.000    0.000    0.000    0.000    0.000    0.000 
#
# Total GULP energy -89619.763271 kJ/mol
# GULP energy per Si atom -5601.235204 kJ/mol
# Density = 2.836466 g / cm^3
# Si number density = 28.429368 Si / 1000 Ang^3
#
#
#
# Elastic Constant Matrix: (Units=GPa)
#
#
# Indices 1 2 3 4 5 6 
#
# 1 177.4241 48.5700 47.0759 -1.5208 -29.6093 11.2256
# 2 48.5700 91.7847 -4.7796 -11.1134 -2.1997 -8.8024
# 3 47.0759 -4.7796 122.0318 -11.5522 -31.1772 16.4644
# 4 -1.5208 -11.1134 -11.5522 34.1511 13.6856 -14.6607
# 5 -29.6093 -2.1997 -31.1772 13.6856 59.5536 -1.5639
# 6 11.2256 -8.8024 16.4644 -14.6607 -1.5639 66.5652
#
#
#
# Elastic Compliance Matrix: (Units=1/GPa)
#
#
# Indices 1 2 3 4 5 6 
#
# 1 0.008561 -0.005404 -0.002695 -0.004827 0.003690 -0.002468
# 2 -0.005404 0.015212 0.002200 0.008352 -0.002783 0.004153
# 3 -0.002695 0.002200 0.010674 0.002103 0.003811 -0.001342
# 4 -0.004827 0.008352 0.002103 0.040921 -0.010127 0.010173
# 5 0.003690 -0.002783 0.003811 -0.010127 0.022750 -0.003629
# 6 -0.002468 0.004153 -0.001342 0.010173 -0.003629 0.018476
#
#
# Mechanical properties :
#
#
# Convention : Reuss Voigt Hill
#
# Bulk Modulus (GPa) = 44.15312 63.66367 53.90839
# Shear Modulus (GPa) = 36.78006 52.07894 44.42950
#
# Velocity S-wave (km/s) = 3.60075 4.28468 3.95752
# Velocity P-wave (km/s) = 5.73165 6.84983 6.31554
#
# Compressibility (1/GPa) = 0.02264846
#
# Stress axis : x y z
#
# Youngs Moduli (GPa) = 116.80532 65.73843 93.68306
#
# Poissons Ratio (x) = 0.35522 0.25252
# Poissons Ratio (y) = 0.63116 -0.20606
# Poissons Ratio (z) = 0.31484 -0.14459
#
# Static dielectric constant tensor:
#      x y z
#    x 2.199020 0.017080 0.029710 
#    y 0.017080 2.292380 -0.062010 
#    z 0.029710 -0.062010 2.198070 
# 
# From -- ./inp_files/13097.got.cif
#   From: 2010.05.17/outbox.cif.g08.bks.cpg/sg2_7_cif.got.tgz:13097.got - 2010.06.03 11:33:40.
