data_PCOD9016055
_publ_section_title
;
Structure prediction by ZEFSAII (Michael W. Deem and Ramdas Pophale) SiO2 
 PCOD9016055
Probable space group: P -1
;
_chemical_formula_sum "Si O2"
_cell_formula_units_Z 14
_cell_length_a 21.209612
_cell_length_b 21.998423
_cell_length_c 6.572168
_cell_angle_alpha 48.704485
_cell_angle_beta 122.845808
_cell_angle_gamma 161.386767
_cell_volume 689.840390
_symmetry_space_group_name_H-M "P -1"
_symmetry_group_IT_number 2
_symmetry_cell_setting 'triclinic'
loop_
_space_group_symop_operation_xyz
x,y,z
-x,-y,-z
loop_
_atom_site_type_symbol
_atom_site_label
_atom_site_fract_x
_atom_site_fract_y
_atom_site_fract_z
Si Si1 0.631813 0.885000 0.686764
Si Si2 0.877678 0.983992 0.748603
Si Si3 0.884237 0.839657 0.838094
Si Si4 0.412279 0.024739 0.922117
Si Si5 0.205914 0.385087 0.125126
Si Si6 0.088864 0.771996 0.223637
Si Si7 0.832019 0.368297 0.843462
O O1 0.724597 0.905583 0.669378
O O2 0.560775 0.886899 0.414808
O O3 0.817623 0.101964 0.679018
O O4 0.432503 0.651169 0.980516
O O5 0.779282 0.806713 0.855095
O O6 0.086499 0.220319 0.465005
O O7 0.951378 0.032851 0.995126
O O8 0.762235 0.644904 0.941998
O O9 0.000000 0.000000 0.500000
O O10 0.639556 0.219092 0.951165
O O11 0.285708 0.943830 0.051840
O O12 0.272350 0.808164 0.080540
O O13 0.048722 0.297042 0.969570
O O14 0.946568 0.550342 0.504963
O O15 0.000000 0.500000 0.000000
#
# Coordination Sequence:
#
# PCOD9016055 Si02
#       7
#     2   2   2   2   2   2   2
#     4  12  24  39  66  98 124 171 222 251 320 384
#     4  10  21  42  66  93 131 169 211 265 314 374
#     4   9  20  41  67  93 132 169 208 263 317 372
#     4  11  25  43  65  95 127 169 214 261 321 380
#     4  11  23  40  65  95 130 169 211 265 316 373
#     4  12  24  41  65  94 131 168 211 267 316 375
#     4  11  24  45  67  92 130 168 212 265 320 381
#
# _framework density 20.294547999999999
#
# number of rings (size 3 to 8) (size 9 to 14) (size 15 to 20)
#    0.000    1.143    5.714    0.429    0.000    4.571 
#    0.000    6.429    0.000    0.000    0.000    0.000 
#    0.000    0.000    0.000    0.000    0.000    0.000 
#
# Total GULP energy -78198.602335 kJ/mol
# GULP energy per Si atom -5585.614453 kJ/mol
# Density = 2.024836 g / cm^3
# Si number density = 20.294548 Si / 1000 Ang^3
#
#
#
# Elastic Constant Matrix: (Units=GPa)
#
#
# Indices 1 2 3 4 5 6 
#
# 1 88.1513 17.9891 19.4434 -4.2627 9.8750 7.0906
# 2 17.9891 66.4290 30.0287 -0.9325 5.4633 12.9573
# 3 19.4434 30.0287 99.1619 0.8724 11.8838 0.2340
# 4 -4.2627 -0.9325 0.8724 26.6016 4.1325 -4.3219
# 5 9.8750 5.4633 11.8838 4.1325 31.8615 -0.1959
# 6 7.0906 12.9573 0.2340 -4.3219 -0.1959 16.8780
#
#
#
# Elastic Compliance Matrix: (Units=1/GPa)
#
#
# Indices 1 2 3 4 5 6 
#
# 1 0.012810 -0.001757 -0.001586 0.001989 -0.003357 -0.003540
# 2 -0.001757 0.021416 -0.005997 -0.001833 -0.000752 -0.016098
# 3 -0.001586 -0.005997 0.012579 0.000461 -0.003200 0.005177
# 4 0.001989 -0.001833 0.000461 0.040475 -0.005657 0.010864
# 5 -0.003357 -0.000752 -0.003200 -0.005657 0.034488 0.000984
# 6 -0.003540 -0.016098 0.005177 0.010864 0.000984 0.075816
#
#
# Mechanical properties :
#
#
# Convention : Reuss Voigt Hill
#
# Bulk Modulus (GPa) = 35.55654 43.18494 39.37074
# Shear Modulus (GPa) = 22.15927 27.48696 24.82311
#
# Velocity S-wave (km/s) = 3.30795 3.68421 3.50114
# Velocity P-wave (km/s) = 5.66995 6.27879 5.98212
#
# Compressibility (1/GPa) = 0.02812422
#
# Stress axis : x y z
#
# Youngs Moduli (GPa) = 78.06610 46.69322 79.49962
#
# Poissons Ratio (x) = 0.08205 0.12612
# Poissons Ratio (y) = 0.13719 0.47673
# Poissons Ratio (z) = 0.12384 0.28000
#
# Static dielectric constant tensor:
#      x y z
#    x 1.738260 -0.012850 0.004210 
#    y -0.012850 1.681620 -0.014720 
#    z 0.004210 -0.014720 1.706200 
# 
# From -- ./inp_files/7701.got.cif
#   From: 2010.05.17/outbox.cif.g08.bks.cpg/sg2_4_cif.got.tgz:7701.got - 2010.06.03 11:33:40.
