data_PCOD9016647
_publ_section_title
;
Structure prediction by ZEFSAII (Michael W. Deem and Ramdas Pophale) SiO2 
 PCOD9016647
Probable space group: P -1
;
_chemical_formula_sum "Si O2"
_cell_formula_units_Z 16
_cell_length_a 11.649570
_cell_length_b 12.002757
_cell_length_c 8.243907
_cell_angle_alpha 68.776770
_cell_angle_beta 123.609626
_cell_angle_gamma 135.596933
_cell_volume 670.617987
_symmetry_space_group_name_H-M "P -1"
_symmetry_group_IT_number 2
_symmetry_cell_setting 'triclinic'
loop_
_space_group_symop_operation_xyz
x,y,z
-x,-y,-z
loop_
_atom_site_type_symbol
_atom_site_label
_atom_site_fract_x
_atom_site_fract_y
_atom_site_fract_z
Si Si1 0.067136 0.783728 0.027284
Si Si2 0.662323 0.112078 0.297673
Si Si3 0.669651 0.235810 0.882499
Si Si4 0.333079 0.522076 0.084410
Si Si5 0.285400 0.385932 0.644191
Si Si6 0.932299 0.871312 0.654552
Si Si7 0.217319 0.589231 0.625545
Si Si8 0.932508 0.103820 0.691281
O O1 0.847851 0.654318 0.919546
O O2 0.103241 0.893693 0.848400
O O3 0.145756 0.697991 0.100665
O O4 0.123450 0.873691 0.192421
O O5 0.667265 0.222039 0.375159
O O6 0.833429 0.127174 0.466321
O O7 0.487065 0.926035 0.250467
O O8 0.679327 0.184121 0.097833
O O9 0.635042 0.354404 0.824298
O O10 0.510639 0.541957 0.199193
O O11 0.274888 0.553129 0.854496
O O12 0.217704 0.293660 0.468944
O O13 0.259862 0.514296 0.563596
O O14 0.147670 0.249496 0.743946
O O15 0.877102 0.934299 0.717728
O O16 0.000000 0.000000 0.500000
O O17 0.000000 0.500000 0.500000
#
# Coordination Sequence:
#
# PCOD9016647 Si02
#       8
#     2   2   2   2   2   2   2   2
#     4  12  24  42  66 100 136 175 222 288 344 395
#     4  10  21  42  68  97 130 181 235 266 329 407
#     4  10  23  42  67  99 132 182 230 276 331 398
#     4  11  24  41  68 100 140 176 228 276 333 398
#     4  11  22  43  69  96 136 181 226 269 330 406
#     4  10  24  42  68  91 128 174 224 274 341 407
#     4  11  21  39  69 102 134 177 224 274 325 399
#     4  11  22  42  67 100 135 173 225 280 342 391
#
# _framework density 23.85859
#
# number of rings (size 3 to 8) (size 9 to 14) (size 15 to 20)
#    0.000    1.250    2.500    3.375    1.750    6.000 
#    4.500    0.000    0.000    0.000    0.000    0.000 
#    0.000    0.000    0.000    0.000    0.000    0.000 
#
# Total GULP energy -89465.106140 kJ/mol
# GULP energy per Si atom -5591.569134 kJ/mol
# Density = 2.380429 g / cm^3
# Si number density = 23.858590 Si / 1000 Ang^3
#
#
#
# Elastic Constant Matrix: (Units=GPa)
#
#
# Indices 1 2 3 4 5 6 
#
# 1 126.1315 49.7519 41.6742 16.5710 27.1958 -34.7682
# 2 49.7519 102.4765 20.6819 28.5523 2.9731 -52.3089
# 3 41.6742 20.6819 74.0006 17.2273 10.9574 -3.9015
# 4 16.5710 28.5523 17.2273 32.8954 -0.7631 -3.1842
# 5 27.1958 2.9731 10.9574 -0.7631 42.5445 -0.7365
# 6 -34.7682 -52.3089 -3.9015 -3.1842 -0.7365 49.0985
#
#
#
# Elastic Compliance Matrix: (Units=1/GPa)
#
#
# Indices 1 2 3 4 5 6 
#
# 1 0.014604 0.000626 -0.005759 -0.004080 -0.007793 0.010169
# 2 0.000626 0.036958 -0.001866 -0.027809 -0.002346 0.037831
# 3 -0.005759 -0.001866 0.018507 -0.005680 -0.001143 -0.004981
# 4 -0.004080 -0.027809 -0.005680 0.056894 0.006530 -0.029181
# 5 -0.007793 -0.002346 -0.001143 0.006530 0.028936 -0.007251
# 6 0.010169 0.037831 -0.004981 -0.029181 -0.007251 0.065476
#
#
# Mechanical properties :
#
#
# Convention : Reuss Voigt Hill
#
# Bulk Modulus (GPa) = 17.83453 58.53607 38.18530
# Shear Modulus (GPa) = 19.68013 37.60770 28.64392
#
# Velocity S-wave (km/s) = 2.87516 3.97454 3.46868
# Velocity P-wave (km/s) = 4.30272 6.75651 5.66409
#
# Compressibility (1/GPa) = 0.05607102
#
# Stress axis : x y z
#
# Youngs Moduli (GPa) = 68.47670 27.05765 54.03312
#
# Poissons Ratio (x) = -0.01694 0.31119
# Poissons Ratio (y) = -0.04288 0.10082
# Poissons Ratio (z) = 0.39437 0.05049
#
# Static dielectric constant tensor:
#      x y z
#    x 1.953750 -0.003890 -0.033260 
#    y -0.003890 1.987620 -0.067650 
#    z -0.033260 -0.067650 1.995270 
# 
# From -- ./inp_files/262339.got.cif
#   From: 2010.05.17/outbox.cif.g08.bks.cpg/sg2_132_cif.got.tgz:262339.got - 2010.06.03 11:33:40.
