data_PCOD9016979
_publ_section_title
;
Structure prediction by ZEFSAII (Michael W. Deem and Ramdas Pophale) SiO2 
 PCOD9016979
Probable space group: P -1
;
_chemical_formula_sum "Si O2"
_cell_formula_units_Z 16
_cell_length_a 11.007277
_cell_length_b 21.364902
_cell_length_c 8.488190
_cell_angle_alpha 127.795058
_cell_angle_beta 41.276176
_cell_angle_gamma 144.832629
_cell_volume 758.454095
_symmetry_space_group_name_H-M "P -1"
_symmetry_group_IT_number 2
_symmetry_cell_setting 'triclinic'
loop_
_space_group_symop_operation_xyz
x,y,z
-x,-y,-z
loop_
_atom_site_type_symbol
_atom_site_label
_atom_site_fract_x
_atom_site_fract_y
_atom_site_fract_z
Si Si1 0.769258 0.096871 0.689427
Si Si2 0.402388 0.593787 0.158376
Si Si3 0.865353 0.969412 0.247850
Si Si4 0.698471 0.951712 0.813838
Si Si5 0.143371 0.353534 0.101813
Si Si6 0.574213 0.231539 0.465317
Si Si7 0.749834 0.655124 0.373097
Si Si8 0.253976 0.532287 0.853267
O O1 0.764923 0.028523 0.457489
O O2 0.014432 0.221901 0.621254
O O3 0.776958 0.047477 0.768994
O O4 0.522159 0.077810 0.908619
O O5 0.245804 0.473526 0.195465
O O6 0.374607 0.660453 0.402276
O O7 0.694227 0.651576 0.946326
O O8 0.309333 0.578228 0.047332
O O9 0.069295 0.010323 0.250312
O O10 0.621697 0.843472 0.319081
O O11 0.000000 0.000000 0.000000
O O12 0.568683 0.845273 0.667814
O O13 0.842054 0.265571 0.270731
O O14 0.234525 0.347502 0.834689
O O15 0.492207 0.614553 0.632212
O O16 0.780190 0.573154 0.272911
O O17 0.000000 0.500000 0.000000
#
# Coordination Sequence:
#
# PCOD9016979 Si02
#       8
#     2   2   2   2   2   2   2   2
#     4  10  21  42  70  92 126 168 218 269 318 376
#     4  10  24  40  65  97 134 167 210 274 318 384
#     4  11  27  44  62 102 134 167 217 267 331 396
#     4  10  23  43  69  99 125 169 222 268 325 385
#     4  10  22  42  65 100 127 166 224 265 322 377
#     4  11  22  40  66  96 130 173 218 266 323 377
#     4  10  22  40  68  96 123 175 217 261 322 384
#     4  10  24  45  63  95 138 173 214 260 325 396
#
# _framework density 21.095542999999999
#
# number of rings (size 3 to 8) (size 9 to 14) (size 15 to 20)
#    0.000    1.750    1.250    1.875    5.250    7.500 
#    2.250    0.000    0.000    0.000    0.000    0.000 
#    0.000    0.000    0.000    0.000    0.000    0.000 
#
# Total GULP energy -89408.093844 kJ/mol
# GULP energy per Si atom -5588.005865 kJ/mol
# Density = 2.104753 g / cm^3
# Si number density = 21.095543 Si / 1000 Ang^3
#
#
#
# Elastic Constant Matrix: (Units=GPa)
#
#
# Indices 1 2 3 4 5 6 
#
# 1 89.8796 15.6238 41.4602 -15.8420 -22.3897 30.0130
# 2 15.6238 51.3131 11.2441 -12.2851 -13.1583 10.4191
# 3 41.4602 11.2441 114.6578 -22.1911 -25.7257 3.7826
# 4 -15.8420 -12.2851 -22.1911 40.0497 3.5440 -11.9666
# 5 -22.3897 -13.1583 -25.7257 3.5440 26.2690 -12.2466
# 6 30.0130 10.4191 3.7826 -11.9666 -12.2466 16.7216
#
#
#
# Elastic Compliance Matrix: (Units=1/GPa)
#
#
# Indices 1 2 3 4 5 6 
#
# 1 0.103774 -0.001776 -0.067546 -0.079154 -0.111627 -0.308272
# 2 -0.001776 0.024213 0.002842 0.008096 0.013908 0.003439
# 3 -0.067546 0.002842 0.060743 0.066702 0.100040 0.226725
# 4 -0.079154 0.008096 0.066702 0.108676 0.122016 0.289073
# 5 -0.111627 0.013908 0.100040 0.122016 0.229172 0.424219
# 6 -0.308272 0.003439 0.226725 0.289073 0.424219 1.077240
#
#
# Mechanical properties :
#
#
# Convention : Reuss Voigt Hill
#
# Bulk Modulus (GPa) = 17.93107 43.61187 30.77147
# Shear Modulus (GPa) = 2.84841 29.10955 15.97898
#
# Velocity S-wave (km/s) = 1.16326 3.71872 2.75518
# Velocity P-wave (km/s) = 3.21288 6.25754 4.97391
#
# Compressibility (1/GPa) = 0.05576911
#
# Stress axis : x y z
#
# Youngs Moduli (GPa) = 9.63636 41.30024 16.46274
#
# Poissons Ratio (x) = 0.07337 1.11199
# Poissons Ratio (y) = 0.01712 -0.04679
# Poissons Ratio (z) = 0.65090 -0.11737
#
# Static dielectric constant tensor:
#      x y z
#    x 1.776780 -0.005690 0.015940 
#    y -0.005690 1.768750 0.009560 
#    z 0.015940 0.009560 1.764060 
# 
# From -- ./inp_files/284901.got.cif
#   From: 2010.05.17/outbox.cif.g08.bks.cpg/sg2_143_cif.got.tgz:284901.got - 2010.06.03 11:33:40.
