data_PCOD9016297
_publ_section_title
;
Structure prediction by ZEFSAII (Michael W. Deem and Ramdas Pophale) SiO2 
 PCOD9016297
Probable space group: P -1
;
_chemical_formula_sum "Si O2"
_cell_formula_units_Z 16
_cell_length_a 13.660659
_cell_length_b 11.554280
_cell_length_c 12.894614
_cell_angle_alpha 83.915868
_cell_angle_beta 34.033852
_cell_angle_gamma 108.312283
_cell_volume 783.244760
_symmetry_space_group_name_H-M "P -1"
_symmetry_group_IT_number 2
_symmetry_cell_setting 'triclinic'
loop_
_space_group_symop_operation_xyz
x,y,z
-x,-y,-z
loop_
_atom_site_type_symbol
_atom_site_label
_atom_site_fract_x
_atom_site_fract_y
_atom_site_fract_z
Si Si1 0.998721 0.261017 0.788913
Si Si2 0.463231 0.953703 0.916694
Si Si3 0.106511 0.205834 0.123833
Si Si4 0.704233 0.197962 0.484466
Si Si5 0.897234 0.441127 0.978246
Si Si6 0.512274 0.583420 0.743801
Si Si7 0.795321 0.936012 0.102575
Si Si8 0.820447 0.913330 0.566313
O O1 0.896966 0.307637 0.954818
O O2 0.295535 0.400368 0.495169
O O3 0.830684 0.196656 0.839856
O O4 0.931471 0.100584 0.901209
O O5 0.594898 0.105292 0.702130
O O6 0.593540 0.893474 0.787402
O O7 0.500000 0.000000 0.000000
O O8 0.865438 0.166725 0.301962
O O9 0.297061 0.390670 0.989875
O O10 0.247932 0.201941 0.911598
O O11 0.993523 0.055333 0.313113
O O12 0.469250 0.131039 0.629548
O O13 0.902917 0.398796 0.289103
O O14 0.636530 0.387006 0.192905
O O15 0.000000 0.500000 0.000000
O O16 0.688267 0.731862 0.660035
O O17 0.000000 0.000000 0.000000
O O18 0.000000 0.000000 0.500000
#
# Coordination Sequence:
#
# PCOD9016297 Si02
#       8
#     2   2   2   2   2   2   2   2
#     4  11  23  41  65  97 131 170 223 270 328 401
#     4  10  21  42  67  92 127 172 215 272 339 384
#     4  10  23  43  63  92 132 170 216 274 323 395
#     4   9  23  42  61  91 129 167 224 268 322 398
#     4  11  25  42  65  94 135 180 218 275 332 387
#     4  11  23  43  68  93 134 172 221 275 328 395
#     4  11  24  38  64  95 129 172 221 271 330 389
#     4  11  22  41  69  96 130 169 220 274 336 397
#
# _framework density 20.427838999999999
#
# number of rings (size 3 to 8) (size 9 to 14) (size 15 to 20)
#    0.000    1.500    2.500    1.500    7.000    1.500 
#    0.000    1.875    0.000    0.000    0.000    0.000 
#    0.000    0.000    0.000    0.000    0.000    0.000 
#
# Total GULP energy -89215.972148 kJ/mol
# GULP energy per Si atom -5575.998259 kJ/mol
# Density = 2.038134 g / cm^3
# Si number density = 20.427839 Si / 1000 Ang^3
#
#
#
# Elastic Constant Matrix: (Units=GPa)
#
#
# Indices 1 2 3 4 5 6 
#
# 1 91.8987 47.0601 24.3131 4.6160 -35.4345 -0.8545
# 2 47.0601 124.2615 28.1606 -7.1088 -3.1249 4.0762
# 3 24.3131 28.1606 91.7579 0.7638 -28.7290 -9.9643
# 4 4.6160 -7.1088 0.7638 30.2541 -3.0184 -5.3091
# 5 -35.4345 -3.1249 -28.7290 -3.0184 26.8311 0.0173
# 6 -0.8545 4.0762 -9.9643 -5.3091 0.0173 25.4211
#
#
#
# Elastic Compliance Matrix: (Units=1/GPa)
#
#
# Indices 1 2 3 4 5 6 
#
# 1 0.051244 -0.022955 0.022942 -0.002458 0.089281 0.013822
# 2 -0.022955 0.019348 -0.014355 0.002538 -0.043141 -0.008941
# 3 0.022942 -0.014355 0.029840 0.001051 0.060685 0.014947
# 4 -0.002458 0.002538 0.001051 0.035501 0.002163 0.007335
# 5 0.089281 -0.043141 0.060685 0.002163 0.215354 0.034010
# 6 0.013822 -0.008941 0.014947 0.007335 0.034010 0.048603
#
#
# Mechanical properties :
#
#
# Convention : Reuss Voigt Hill
#
# Bulk Modulus (GPa) = 13.94796 56.33176 35.13986
# Shear Modulus (GPa) = 11.04910 30.39352 20.72131
#
# Velocity S-wave (km/s) = 2.32821 3.86145 3.18837
# Velocity P-wave (km/s) = 3.75102 6.89325 5.54919
#
# Compressibility (1/GPa) = 0.07169508
#
# Stress axis : x y z
#
# Youngs Moduli (GPa) = 19.51436 51.68538 33.51254
#
# Poissons Ratio (x) = 1.18645 -0.76884
# Poissons Ratio (y) = 0.44795 0.48107
# Poissons Ratio (z) = -0.44769 0.74194
#
# Static dielectric constant tensor:
#      x y z
#    x 1.438120 0.000960 0.183930 
#    y 0.000960 1.754360 0.013320 
#    z 0.183930 0.013320 1.659090 
# 
# From -- ./inp_files/259001.got.cif
#   From: 2010.05.17/outbox.cif.g08.bks.cpg/sg2_130_cif.got.tgz:259001.got - 2010.06.03 11:33:40.
