data_PCOD9016474
_publ_section_title
;
Structure prediction by ZEFSAII (Michael W. Deem and Ramdas Pophale) SiO2 
 PCOD9016474
Probable space group: P -1
;
_chemical_formula_sum "Si O2"
_cell_formula_units_Z 14
_cell_length_a 20.292471
_cell_length_b 11.395118
_cell_length_c 16.220218
_cell_angle_alpha 153.104528
_cell_angle_beta 160.367470
_cell_angle_gamma 34.313140
_cell_volume 567.629541
_symmetry_space_group_name_H-M "P -1"
_symmetry_group_IT_number 2
_symmetry_cell_setting 'triclinic'
loop_
_space_group_symop_operation_xyz
x,y,z
-x,-y,-z
loop_
_atom_site_type_symbol
_atom_site_label
_atom_site_fract_x
_atom_site_fract_y
_atom_site_fract_z
Si Si1 0.560682 0.398471 0.804910
Si Si2 0.799228 0.653909 0.038187
Si Si3 0.125751 0.252860 0.513330
Si Si4 0.665817 0.680950 0.357706
Si Si5 0.406806 0.709419 0.681257
Si Si6 0.052332 0.715605 0.910058
Si Si7 0.029828 0.952816 0.365464
O O1 0.455584 0.230954 0.650457
O O2 0.404315 0.510650 0.630292
O O3 0.680209 0.647812 0.144534
O O4 0.741542 0.302054 0.906106
O O5 0.907911 0.396528 0.023394
O O6 0.850861 0.803647 0.109306
O O7 0.881086 0.833160 0.326579
O O8 0.566390 0.608685 0.745145
O O9 0.222228 0.155491 0.482211
O O10 0.000000 0.500000 0.500000
O O11 0.998577 0.068719 0.311215
O O12 0.852156 0.552099 0.536974
O O13 0.500000 0.500000 0.000000
O O14 0.195433 0.752133 0.425039
O O15 0.500000 0.000000 0.000000
O O16 0.000000 0.000000 0.000000
#
# Coordination Sequence:
#
# PCOD9016474 Si02
#       7
#     2   2   2   2   2   2   2
#     4  10  19  35  52  81 116 143 187 235 280 340
#     4   9  18  31  50  81 107 143 181 232 283 325
#     4  11  18  32  51  80 120 146 179 232 289 341
#     4  10  22  34  54  81 112 149 184 229 284 337
#     4   9  15  27  46  72 106 136 173 225 286 322
#     4  11  21  38  59  82 117 152 188 235 282 336
#     4  10  17  30  51  76 115 138 179 235 286 327
#
# _framework density 24.663972000000001
#
# number of rings (size 3 to 8) (size 9 to 14) (size 15 to 20)
#    0.000    2.000    5.714    0.857    0.000    2.857 
#    2.571    0.000    0.000    0.857    0.000    5.000 
#    0.000    0.000    0.000    0.857    0.000    0.000 
#
# Total GULP energy -77985.381319 kJ/mol
# GULP energy per Si atom -5570.384380 kJ/mol
# Density = 2.460784 g / cm^3
# Si number density = 24.663972 Si / 1000 Ang^3
#
#
#
# Elastic Constant Matrix: (Units=GPa)
#
#
# Indices 1 2 3 4 5 6 
#
# 1 185.5433 50.2009 21.8859 1.8114 51.3499 35.9481
# 2 50.2009 101.3185 20.9463 -22.5653 5.6842 18.0449
# 3 21.8859 20.9463 57.2842 -6.3774 14.0790 8.8929
# 4 1.8114 -22.5653 -6.3774 31.2261 0.7885 1.7796
# 5 51.3499 5.6842 14.0790 0.7885 32.8213 0.2380
# 6 35.9481 18.0449 8.8929 1.7796 0.2380 28.5035
#
#
#
# Elastic Compliance Matrix: (Units=1/GPa)
#
#
# Indices 1 2 3 4 5 6 
#
# 1 0.019054 -0.005314 0.005515 -0.001780 -0.031054 -0.022017
# 2 -0.005314 0.015861 -0.003807 0.010982 0.006958 -0.002895
# 3 0.005515 -0.003807 0.023305 0.002817 -0.017948 -0.011843
# 4 -0.001780 0.010982 0.002817 0.041135 -0.001254 -0.008144
# 5 -0.031054 0.006958 -0.017948 -0.001254 0.085289 0.039726
# 6 -0.022017 -0.002895 -0.011843 -0.008144 0.039726 0.068555
#
#
# Mechanical properties :
#
#
# Convention : Reuss Voigt Hill
#
# Bulk Modulus (GPa) = 19.60471 58.91249 39.25860
# Shear Modulus (GPa) = 18.02355 35.25103 26.63729
#
# Velocity S-wave (km/s) = 2.70620 3.78465 3.28991
# Velocity P-wave (km/s) = 4.21078 6.56018 5.51211
#
# Compressibility (1/GPa) = 0.05100815
#
# Stress axis : x y z
#
# Youngs Moduli (GPa) = 52.48188 63.04695 42.90903
#
# Poissons Ratio (x) = 0.33505 -0.23666
# Poissons Ratio (y) = 0.27890 0.16337
# Poissons Ratio (z) = -0.28946 0.24004
#
# Static dielectric constant tensor:
#      x y z
#    x 2.104460 -0.044590 -0.151610 
#    y -0.044590 2.011580 0.071280 
#    z -0.151610 0.071280 2.154130 
# 
# From -- ./inp_files/578044.got.cif
#   From: 2010.05.17/outbox.cif.g08.bks.cpg/sg2_290_cif.got.tgz:578044.got - 2010.06.03 11:33:40.
