data_PCOD9016160
_publ_section_title
;
Structure prediction by ZEFSAII (Michael W. Deem and Ramdas Pophale) SiO2 
 PCOD9016160
Probable space group: P -1
;
_chemical_formula_sum "Si O2"
_cell_formula_units_Z 16
_cell_length_a 16.751194
_cell_length_b 9.757684
_cell_length_c 6.323659
_cell_angle_alpha 132.196554
_cell_angle_beta 79.219538
_cell_angle_gamma 108.434084
_cell_volume 725.987509
_symmetry_space_group_name_H-M "P -1"
_symmetry_group_IT_number 2
_symmetry_cell_setting 'triclinic'
loop_
_space_group_symop_operation_xyz
x,y,z
-x,-y,-z
loop_
_atom_site_type_symbol
_atom_site_label
_atom_site_fract_x
_atom_site_fract_y
_atom_site_fract_z
Si Si1 0.540880 0.411708 0.083787
Si Si2 0.989558 0.351096 0.161403
Si Si3 0.881943 0.937062 0.805196
Si Si4 0.733963 0.971769 0.597960
Si Si5 0.746936 0.705766 0.933226
Si Si6 0.604248 0.755569 0.738968
Si Si7 0.884527 0.571114 0.184212
Si Si8 0.277633 0.634072 0.145061
O O1 0.570001 0.584279 0.414573
O O2 0.471925 0.243352 0.063264
O O3 0.624159 0.349897 0.915367
O O4 0.500000 0.500000 0.000000
O O5 0.923052 0.410792 0.100056
O O6 0.000000 0.500000 0.500000
O O7 0.074851 0.383230 0.019358
O O8 0.952263 0.131183 0.014036
O O9 0.831151 0.844511 0.941445
O O10 0.912253 0.765583 0.504886
O O11 0.814420 0.981423 0.716654
O O12 0.653622 0.933771 0.756179
O O13 0.740152 0.160093 0.651187
O O14 0.725137 0.797029 0.257438
O O15 0.674718 0.705133 0.799893
O O16 0.749144 0.489309 0.756876
O O17 0.784069 0.492205 0.133048
#
# Coordination Sequence:
#
# PCOD9016160 Si02
#       8
#     2   2   2   2   2   2   2   2
#     4  11  21  42  71  96 139 179 228 277 344 400
#     4  11  27  46  69 105 139 173 231 287 340 409
#     4  11  24  44  73  97 138 186 224 280 343 412
#     4  11  23  42  67 100 136 177 232 279 337 406
#     4  11  23  42  68 100 137 173 233 276 341 402
#     4  10  21  42  66  97 136 180 222 284 336 404
#     4  11  25  46  70  99 138 178 232 280 344 409
#     4  12  23  43  71  96 134 182 222 287 337 398
#
# _framework density 22.038944000000001
#
# number of rings (size 3 to 8) (size 9 to 14) (size 15 to 20)
#    0.000    1.000    5.000    1.125    3.500    1.000 
#    4.500    2.500    0.000    0.000    0.000    0.000 
#    0.000    0.000    0.000    0.000    0.000    0.000 
#
# Total GULP energy -89452.535516 kJ/mol
# GULP energy per Si atom -5590.783470 kJ/mol
# Density = 2.198878 g / cm^3
# Si number density = 22.038944 Si / 1000 Ang^3
#
#
#
# Elastic Constant Matrix: (Units=GPa)
#
#
# Indices 1 2 3 4 5 6 
#
# 1 84.5714 37.1951 15.2049 -6.0016 -2.2339 1.0655
# 2 37.1951 145.6362 20.4849 7.7372 -5.6501 5.1326
# 3 15.2049 20.4849 57.6774 -0.9476 2.6158 12.6739
# 4 -6.0016 7.7372 -0.9476 37.7916 -1.4794 -3.6877
# 5 -2.2339 -5.6501 2.6158 -1.4794 31.7779 -5.2055
# 6 1.0655 5.1326 12.6739 -3.6877 -5.2055 39.5510
#
#
#
# Elastic Compliance Matrix: (Units=1/GPa)
#
#
# Indices 1 2 3 4 5 6 
#
# 1 0.014028 -0.003359 -0.002800 0.003017 0.000984 0.001366
# 2 -0.003359 0.008190 -0.002035 -0.002250 0.001222 -0.000369
# 3 -0.002800 -0.002035 0.020411 -0.000298 -0.003345 -0.006669
# 4 0.003017 -0.002250 -0.000298 0.027761 0.001639 0.003110
# 5 0.000984 0.001222 -0.003345 0.001639 0.032988 0.005381
# 6 0.001366 -0.000369 -0.006669 0.003110 0.005381 0.028430
#
#
# Mechanical properties :
#
#
# Convention : Reuss Voigt Hill
#
# Bulk Modulus (GPa) = 38.10781 48.18387 43.14584
# Shear Modulus (GPa) = 31.85856 36.15744 34.00800
#
# Velocity S-wave (km/s) = 3.80617 4.05485 3.93248
# Velocity P-wave (km/s) = 6.05348 6.62064 6.34340
#
# Compressibility (1/GPa) = 0.02624134
#
# Stress axis : x y z
#
# Youngs Moduli (GPa) = 71.28596 122.09305 48.99329
#
# Poissons Ratio (x) = 0.41012 0.13719
# Poissons Ratio (y) = 0.23946 0.09969
# Poissons Ratio (z) = 0.19962 0.24842
#
# Static dielectric constant tensor:
#      x y z
#    x 1.828750 0.021060 0.006690 
#    y 0.021060 1.827680 -0.024500 
#    z 0.006690 -0.024500 1.769230 
# 
# From -- ./inp_files/107801.got.cif
#   From: 2010.05.17/outbox.cif.g08.bks.cpg/sg2_54_cif.got.tgz:107801.got - 2010.06.03 11:33:40.
