data_PCOD9016866
_publ_section_title
;
Structure prediction by ZEFSAII (Michael W. Deem and Ramdas Pophale) SiO2 
 PCOD9016866
Probable space group: P -1
;
_chemical_formula_sum "Si O2"
_cell_formula_units_Z 10
_cell_length_a 14.510184
_cell_length_b 18.425580
_cell_length_c 11.717899
_cell_angle_alpha 25.670982
_cell_angle_beta 37.883699
_cell_angle_gamma 20.330505
_cell_volume 437.812874
_symmetry_space_group_name_H-M "P -1"
_symmetry_group_IT_number 2
_symmetry_cell_setting 'triclinic'
loop_
_space_group_symop_operation_xyz
x,y,z
-x,-y,-z
loop_
_atom_site_type_symbol
_atom_site_label
_atom_site_fract_x
_atom_site_fract_y
_atom_site_fract_z
Si Si1 0.814964 0.343125 0.668057
Si Si2 0.461199 0.801667 0.050021
Si Si3 0.700451 0.684433 0.511128
Si Si4 0.236636 0.795560 0.460772
Si Si5 0.623551 0.061808 0.322291
O O1 0.724817 0.535608 0.593837
O O2 0.530521 0.571872 0.553152
O O3 0.053914 0.233120 0.531056
O O4 0.000000 0.000000 0.000000
O O5 0.220192 0.951116 0.156815
O O6 0.721633 0.422037 0.335887
O O7 0.380847 0.861932 0.909450
O O8 0.502980 0.957944 0.815429
O O9 0.585496 0.687681 0.726908
O O10 0.000000 0.500000 0.500000
O O11 0.000000 0.000000 0.500000
O O12 0.500000 0.000000 0.500000
#
# Coordination Sequence:
#
# PCOD9016866 Si02
#       5
#     2   2   2   2   2
#     4  12  24  44  70 107 131 179 237 276 339 409
#     4  10  23  44  66  99 139 181 226 275 348 400
#     4  11  22  39  74 101 133 179 228 284 340 398
#     4  11  26  44  68  98 146 183 219 286 342 400
#     4  10  21  42  69  97 134 174 226 283 330 401
#
# _framework density 22.840807999999999
#
# number of rings (size 3 to 8) (size 9 to 14) (size 15 to 20)
#    0.000    1.200    6.000    0.000    2.800    4.800 
#    0.000    5.000    0.000    0.000    0.000    0.000 
#    0.000    0.000    0.000    0.000    0.000    0.000 
#
# Total GULP energy -55681.595098 kJ/mol
# GULP energy per Si atom -5568.159510 kJ/mol
# Density = 2.278882 g / cm^3
# Si number density = 22.840808 Si / 1000 Ang^3
#
#
#
# Elastic Constant Matrix: (Units=GPa)
#
#
# Indices 1 2 3 4 5 6 
#
# 1 123.0163 63.8142 44.6535 -0.8779 -13.9747 10.5909
# 2 63.8142 200.5962 41.5994 18.5416 14.6286 23.1951
# 3 44.6535 41.5994 93.2399 10.8850 -12.4110 18.8068
# 4 -0.8779 18.5416 10.8850 36.6822 13.8549 0.0918
# 5 -13.9747 14.6286 -12.4110 13.8549 35.6036 -6.1227
# 6 10.5909 23.1951 18.8068 0.0918 -6.1227 55.2104
#
#
#
# Elastic Compliance Matrix: (Units=1/GPa)
#
#
# Indices 1 2 3 4 5 6 
#
# 1 0.011773 -0.003513 -0.003896 0.001603 0.004257 0.001014
# 2 -0.003513 0.007160 -0.001485 -0.001497 -0.004658 -0.002342
# 3 -0.003896 -0.001485 0.015489 -0.006350 0.006403 -0.003184
# 4 0.001603 -0.001497 -0.006350 0.035465 -0.014632 0.000803
# 5 0.004257 -0.004658 0.006403 -0.014632 0.040190 0.003440
# 6 0.001014 -0.002342 -0.003184 0.000803 0.003440 0.020367
#
#
# Mechanical properties :
#
#
# Convention : Reuss Voigt Hill
#
# Bulk Modulus (GPa) = 60.11632 79.66519 69.89075
# Shear Modulus (GPa) = 32.51471 43.28492 37.89981
#
# Velocity S-wave (km/s) = 3.77707 4.35796 4.07787
# Velocity P-wave (km/s) = 6.73784 7.76380 7.26895
#
# Compressibility (1/GPa) = 0.01663442
#
# Stress axis : x y z
#
# Youngs Moduli (GPa) = 84.93651 139.67163 64.56141
#
# Poissons Ratio (x) = 0.49072 0.25153
# Poissons Ratio (y) = 0.29841 0.09584
# Poissons Ratio (z) = 0.33091 0.20735
#
# Static dielectric constant tensor:
#      x y z
#    x 1.871040 -0.010350 0.032730 
#    y -0.010350 1.949280 -0.005110 
#    z 0.032730 -0.005110 2.001930 
# 
# From -- ./inp_files/87592.got.cif
#   From: 2010.05.17/outbox.cif.g08.bks.cpg/sg2_44_cif.got.tgz:87592.got - 2010.06.03 11:33:40.
