data_PCOD9016438
_publ_section_title
;
Structure prediction by ZEFSAII (Michael W. Deem and Ramdas Pophale) SiO2 
 PCOD9016438
Probable space group: P -1
;
_chemical_formula_sum "Si O2"
_cell_formula_units_Z 12
_cell_length_a 11.234058
_cell_length_b 12.130729
_cell_length_c 8.747727
_cell_angle_alpha 35.358646
_cell_angle_beta 39.337049
_cell_angle_gamma 50.100302
_cell_volume 437.109789
_symmetry_space_group_name_H-M "P -1"
_symmetry_group_IT_number 2
_symmetry_cell_setting 'triclinic'
loop_
_space_group_symop_operation_xyz
x,y,z
-x,-y,-z
loop_
_atom_site_type_symbol
_atom_site_label
_atom_site_fract_x
_atom_site_fract_y
_atom_site_fract_z
Si Si1 0.268109 0.159350 0.079655
Si Si2 0.841420 0.271152 0.393801
Si Si3 0.071177 0.201984 0.802470
Si Si4 0.556230 0.356805 0.343024
Si Si5 0.778243 0.422529 0.624047
Si Si6 0.733498 0.996818 0.430344
O O1 0.063490 0.257532 0.168318
O O2 0.241066 0.941318 0.298276
O O3 0.329299 0.140311 0.217267
O O4 0.415325 0.266024 0.709557
O O5 0.741894 0.391655 0.219267
O O6 0.799917 0.354382 0.506811
O O7 0.910691 0.284922 0.751766
O O8 0.145332 0.372401 0.634034
O O9 0.950092 0.056262 0.185786
O O10 0.235517 0.101071 0.653418
O O11 0.445779 0.538190 0.178362
O O12 0.612158 0.190881 0.354873
#
# Coordination Sequence:
#
# PCOD9016438 Si02
#       6
#     2   2   2   2   2   2
#     4  10  22  42  71 100 127 173 216 272 330 386
#     4  10  21  42  67  98 133 169 212 273 333 378
#     4  10  24  44  69  90 133 187 217 252 330 389
#     4  11  25  41  70 105 126 163 225 276 329 380
#     4  11  24  43  62 103 135 169 216 273 328 385
#     4  10  21  46  68  95 129 176 227 262 309 405
#
# _framework density 27.453057000000001
#
# number of rings (size 3 to 8) (size 9 to 14) (size 15 to 20)
#    0.000    1.667    1.667    2.500    7.000    2.000 
#    3.000    3.333    0.000    0.000    0.000    0.000 
#    0.000    0.000    0.000    0.000    0.000    0.000 
#
# Total GULP energy -67290.187132 kJ/mol
# GULP energy per Si atom -5607.515594 kJ/mol
# Density = 2.739057 g / cm^3
# Si number density = 27.453057 Si / 1000 Ang^3
#
#
#
# Elastic Constant Matrix: (Units=GPa)
#
#
# Indices 1 2 3 4 5 6 
#
# 1 153.0351 72.7102 4.7145 14.4468 2.3532 -19.6668
# 2 72.7102 187.5143 41.5944 43.8656 8.7487 3.3040
# 3 4.7145 41.5944 88.9053 25.3551 10.0951 25.7022
# 4 14.4468 43.8656 25.3551 52.2947 4.1580 -9.6618
# 5 2.3532 8.7487 10.0951 4.1580 37.7288 1.6726
# 6 -19.6668 3.3040 25.7022 -9.6618 1.6726 52.0478
#
#
#
# Elastic Compliance Matrix: (Units=1/GPa)
#
#
# Indices 1 2 3 4 5 6 
#
# 1 0.008683 -0.003749 -0.000333 0.001639 0.000060 0.003986
# 2 -0.003749 0.008527 -0.001381 -0.005830 -0.000628 -0.002338
# 3 -0.000333 -0.001381 0.017871 -0.009111 -0.002973 -0.010459
# 4 0.001639 -0.005830 -0.009111 0.030030 -0.000113 0.011067
# 5 0.000060 -0.000628 -0.002973 -0.000113 0.027427 0.000628
# 6 0.003986 -0.002338 -0.010459 0.011067 0.000628 0.028067
#
#
# Mechanical properties :
#
#
# Convention : Reuss Voigt Hill
#
# Bulk Modulus (GPa) = 41.39960 74.16586 57.78273
# Shear Modulus (GPa) = 35.82101 49.10995 42.46548
#
# Velocity S-wave (km/s) = 3.61613 4.23409 3.93726
# Velocity P-wave (km/s) = 5.70509 7.13986 6.46242
#
# Compressibility (1/GPa) = 0.02415482
#
# Stress axis : x y z
#
# Youngs Moduli (GPa) = 115.17191 117.26967 55.95628
#
# Poissons Ratio (x) = 0.43970 0.01862
# Poissons Ratio (y) = 0.43184 0.07727
# Poissons Ratio (z) = 0.03833 0.16194
#
# Static dielectric constant tensor:
#      x y z
#    x 2.132370 -0.051010 0.024320 
#    y -0.051010 2.134910 -0.030250 
#    z 0.024320 -0.030250 2.142030 
# 
# From -- ./inp_files/246641.got.cif
#   From: 2010.05.17/outbox.cif.g08.bks.cpg/sg2_124_cif.got.tgz:246641.got - 2010.06.03 11:33:40.
