data_PCOD9016668
_publ_section_title
;
Structure prediction by ZEFSAII (Michael W. Deem and Ramdas Pophale) SiO2 
 PCOD9016668
Probable space group: P -1
;
_chemical_formula_sum "Si O2"
_cell_formula_units_Z 16
_cell_length_a 12.387835
_cell_length_b 11.554603
_cell_length_c 5.416159
_cell_angle_alpha 60.074860
_cell_angle_beta 95.600947
_cell_angle_gamma 101.432670
_cell_volume 658.559955
_symmetry_space_group_name_H-M "P -1"
_symmetry_group_IT_number 2
_symmetry_cell_setting 'triclinic'
loop_
_space_group_symop_operation_xyz
x,y,z
-x,-y,-z
loop_
_atom_site_type_symbol
_atom_site_label
_atom_site_fract_x
_atom_site_fract_y
_atom_site_fract_z
Si Si1 0.432272 0.608642 0.626362
Si Si2 0.239029 0.500749 0.368811
Si Si3 0.008290 0.887446 0.824376
Si Si4 0.214533 0.206633 0.896909
Si Si5 0.702862 0.190569 0.395143
Si Si6 0.738079 0.042481 0.064634
Si Si7 0.654026 0.649191 0.827972
Si Si8 0.922211 0.362852 0.059439
O O1 0.350791 0.593927 0.390580
O O2 0.384830 0.709641 0.695318
O O3 0.562221 0.660527 0.588484
O O4 0.413868 0.452573 0.879420
O O5 0.208503 0.361496 0.662146
O O6 0.261303 0.439092 0.173833
O O7 0.145874 0.592548 0.236267
O O8 0.996201 0.742285 0.846736
O O9 0.131043 0.904450 0.936863
O O10 0.000000 0.000000 0.500000
O O11 0.908247 0.874323 0.004290
O O12 0.283179 0.221461 0.151746
O O13 0.270061 0.118827 0.807095
O O14 0.699155 0.102544 0.737634
O O15 0.823221 0.286867 0.291334
O O16 0.688284 0.097793 0.243071
O O17 0.000000 0.500000 0.000000
#
# Coordination Sequence:
#
# PCOD9016668 Si02
#       8
#     2   2   2   2   2   2   2   2
#     4  10  21  42  68  98 134 176 230 286 363 414
#     4  11  23  40  69 102 141 178 227 295 354 416
#     4  11  25  44  69  99 140 192 232 280 351 427
#     4  11  25  41  68  99 135 183 237 289 342 416
#     4  11  24  46  68 101 135 191 229 288 349 424
#     4  11  26  45  70  95 142 190 235 277 348 427
#     4  10  22  41  68 100 132 174 229 296 353 412
#     4  11  24  39  67 101 140 179 230 294 344 416
#
# _framework density 24.295435999999999
#
# number of rings (size 3 to 8) (size 9 to 14) (size 15 to 20)
#    0.000    1.250    1.250    4.500    8.750    0.500 
#    0.000    1.250    0.000    0.000    0.000    0.000 
#    0.000    0.000    0.000    0.000    0.000    0.000 
#
# Total GULP energy -89412.588933 kJ/mol
# GULP energy per Si atom -5588.286808 kJ/mol
# Density = 2.424014 g / cm^3
# Si number density = 24.295436 Si / 1000 Ang^3
#
#
#
# Elastic Constant Matrix: (Units=GPa)
#
#
# Indices 1 2 3 4 5 6 
#
# 1 54.6649 31.1254 15.2705 -6.3630 9.2190 -11.6664
# 2 31.1254 144.1637 34.2019 7.7003 7.6255 -31.9974
# 3 15.2705 34.2019 106.6853 -3.1832 12.6198 -8.4519
# 4 -6.3630 7.7003 -3.1832 35.8924 -0.9913 4.4667
# 5 9.2190 7.6255 12.6198 -0.9913 32.3232 2.9132
# 6 -11.6664 -31.9974 -8.4519 4.4667 2.9132 40.3352
#
#
#
# Elastic Compliance Matrix: (Units=1/GPa)
#
#
# Indices 1 2 3 4 5 6 
#
# 1 0.022902 -0.003941 -0.000998 0.004270 -0.005370 0.003204
# 2 -0.003941 0.010104 -0.002101 -0.003952 -0.001188 0.006959
# 3 -0.000998 -0.002101 0.010654 0.001075 -0.003382 0.000402
# 4 0.004270 -0.003952 0.001075 0.030211 0.000678 -0.005069
# 5 -0.005370 -0.001188 -0.003382 0.000678 0.034612 -0.005779
# 6 0.003204 0.006959 0.000402 -0.005069 -0.005779 0.032302
#
#
# Mechanical properties :
#
#
# Convention : Reuss Voigt Hill
#
# Bulk Modulus (GPa) = 33.80677 51.85663 42.83170
# Shear Modulus (GPa) = 30.35338 36.70455 33.52897
#
# Velocity S-wave (km/s) = 3.53844 3.89107 3.71894
# Velocity P-wave (km/s) = 5.53527 6.44808 6.00903
#
# Compressibility (1/GPa) = 0.02957987
#
# Stress axis : x y z
#
# Youngs Moduli (GPa) = 43.66345 98.96720 93.86195
#
# Poissons Ratio (x) = 0.39001 0.09370
# Poissons Ratio (y) = 0.17207 0.19724
# Poissons Ratio (z) = 0.04359 0.20797
#
# Static dielectric constant tensor:
#      x y z
#    x 1.931470 -0.026730 -0.003620 
#    y -0.026730 2.130740 0.098190 
#    z -0.003620 0.098190 2.048640 
# 
# From -- ./inp_files/68583.got.cif
#   From: 2010.05.17/outbox.cif.g08.bks.cpg/sg2_35_cif.got.tgz:68583.got - 2010.06.03 11:33:40.
