data_PCOD9016232
_publ_section_title
;
Structure prediction by ZEFSAII (Michael W. Deem and Ramdas Pophale) SiO2 
 PCOD9016232
Probable space group: P -1
;
_chemical_formula_sum "Si O2"
_cell_formula_units_Z 16
_cell_length_a 15.774121
_cell_length_b 8.928117
_cell_length_c 8.662070
_cell_angle_alpha 124.309886
_cell_angle_beta 60.573838
_cell_angle_gamma 84.989424
_cell_volume 756.832331
_symmetry_space_group_name_H-M "P -1"
_symmetry_group_IT_number 2
_symmetry_cell_setting 'triclinic'
loop_
_space_group_symop_operation_xyz
x,y,z
-x,-y,-z
loop_
_atom_site_type_symbol
_atom_site_label
_atom_site_fract_x
_atom_site_fract_y
_atom_site_fract_z
Si Si1 0.006440 0.244189 0.992105
Si Si2 0.171033 0.367071 0.774753
Si Si3 0.172380 0.808930 0.423007
Si Si4 0.398983 0.452860 0.050373
Si Si5 0.004711 0.709919 0.612521
Si Si6 0.582565 0.785102 0.397980
Si Si7 0.796987 0.939352 0.717343
Si Si8 0.426411 0.028993 0.934585
O O1 0.085408 0.347684 0.956911
O O2 0.081393 0.018766 0.714443
O O3 0.890874 0.391769 0.087618
O O4 0.985806 0.235612 0.186641
O O5 0.296113 0.258778 0.673216
O O6 0.174983 0.240458 0.541805
O O7 0.287185 0.662849 0.326022
O O8 0.108946 0.678015 0.396257
O O9 0.206771 0.875903 0.274354
O O10 0.500000 0.500000 0.000000
O O11 0.391837 0.403420 0.848224
O O12 0.406549 0.249408 0.008434
O O13 0.000000 0.500000 0.500000
O O14 0.892345 0.876748 0.723269
O O15 0.500000 0.000000 0.500000
O O16 0.503020 0.830548 0.641757
O O17 0.685928 0.970499 0.918153
O O18 0.500000 0.000000 0.000000
#
# Coordination Sequence:
#
# PCOD9016232 Si02
#       8
#     2   2   2   2   2   2   2   2
#     4  10  24  41  70  97 140 182 228 284 348 410
#     4  10  21  42  67 102 135 180 229 284 344 416
#     4  11  26  45  65  99 146 180 224 291 351 408
#     4  11  26  44  68 102 139 179 230 293 350 410
#     4  12  24  41  68 103 133 180 238 276 347 410
#     4  10  24  40  71  96 135 180 233 277 348 408
#     4  11  23  41  69 100 140 178 227 291 341 409
#     4  11  22  44  72 101 130 184 237 283 348 416
#
# _framework density 21.140747000000001
#
# number of rings (size 3 to 8) (size 9 to 14) (size 15 to 20)
#    0.000    1.250    2.500    2.250   10.500    1.000 
#    0.000    3.750    0.000    0.000    0.000    0.000 
#    0.000    0.000    0.000    0.000    0.000    0.000 
#
# Total GULP energy -89295.083302 kJ/mol
# GULP energy per Si atom -5580.942706 kJ/mol
# Density = 2.109263 g / cm^3
# Si number density = 21.140747 Si / 1000 Ang^3
#
#
#
# Elastic Constant Matrix: (Units=GPa)
#
#
# Indices 1 2 3 4 5 6 
#
# 1 98.4094 49.9289 23.2598 -6.3964 -36.5759 -3.5648
# 2 49.9289 131.6981 46.5982 -5.5853 -18.3394 6.7636
# 3 23.2598 46.5982 79.8799 -0.6100 -20.1105 -2.1048
# 4 -6.3964 -5.5853 -0.6100 42.1081 2.3203 -9.3183
# 5 -36.5759 -18.3394 -20.1105 2.3203 49.3549 -4.8052
# 6 -3.5648 6.7636 -2.1048 -9.3183 -4.8052 40.5601
#
#
#
# Elastic Compliance Matrix: (Units=1/GPa)
#
#
# Indices 1 2 3 4 5 6 
#
# 1 0.017269 -0.005499 0.001226 0.002244 0.011575 0.004385
# 2 -0.005499 0.011559 -0.005837 0.000088 -0.002453 -0.002984
# 3 0.001226 -0.005837 0.017144 -0.000081 0.005988 0.002662
# 4 0.002244 0.000088 -0.000081 0.025400 0.001067 0.006140
# 5 0.011575 -0.002453 0.005988 0.001067 0.030867 0.005639
# 6 0.004385 -0.002984 0.002662 0.006140 0.005639 0.027755
#
#
# Mechanical properties :
#
#
# Convention : Reuss Voigt Hill
#
# Bulk Modulus (GPa) = 38.83239 61.06238 49.94739
# Shear Modulus (GPa) = 31.48704 39.08466 35.28585
#
# Velocity S-wave (km/s) = 3.86346 4.30441 4.08988
# Velocity P-wave (km/s) = 6.18952 7.32464 6.78088
#
# Compressibility (1/GPa) = 0.02575170
#
# Stress axis : x y z
#
# Youngs Moduli (GPa) = 57.90872 86.51641 58.32963
#
# Poissons Ratio (x) = 0.47574 -0.07153
# Poissons Ratio (y) = 0.31843 0.34048
# Poissons Ratio (z) = -0.07101 0.50500
#
# Static dielectric constant tensor:
#      x y z
#    x 1.991300 -0.012980 -0.040470 
#    y -0.012980 1.801520 0.039650 
#    z -0.040470 0.039650 1.794650 
# 
# From -- ./inp_files/299448.got.cif
#   From: 2010.05.17/outbox.cif.g08.bks.cpg/sg2_150_cif.got.tgz:299448.got - 2010.06.03 11:33:40.
