data_PCOD9016314
_publ_section_title
;
Structure prediction by ZEFSAII (Michael W. Deem and Ramdas Pophale) SiO2 
 PCOD9016314
Probable space group: P -1
;
_chemical_formula_sum "Si O2"
_cell_formula_units_Z 14
_cell_length_a 25.415172
_cell_length_b 10.630151
_cell_length_c 4.899928
_cell_angle_alpha 105.650706
_cell_angle_beta 88.828716
_cell_angle_gamma 31.811801
_cell_volume 585.023204
_symmetry_space_group_name_H-M "P -1"
_symmetry_group_IT_number 2
_symmetry_cell_setting 'triclinic'
loop_
_space_group_symop_operation_xyz
x,y,z
-x,-y,-z
loop_
_atom_site_type_symbol
_atom_site_label
_atom_site_fract_x
_atom_site_fract_y
_atom_site_fract_z
Si Si1 0.108738 0.480533 0.660653
Si Si2 0.119253 0.281976 0.006714
Si Si3 0.739094 0.440423 0.954439
Si Si4 0.483485 0.228995 0.765329
Si Si5 0.518978 0.314498 0.285725
Si Si6 0.851609 0.069623 0.221018
Si Si7 0.715443 0.728408 0.735028
O O1 0.094863 0.417565 0.361056
O O2 0.177148 0.457089 0.550406
O O3 0.985973 0.788475 0.979987
O O4 0.173538 0.254559 0.754353
O O5 0.000000 0.500000 0.000000
O O6 0.815589 0.177999 0.596825
O O7 0.745494 0.564978 0.879000
O O8 0.608920 0.676904 0.110335
O O9 0.787123 0.313543 0.176396
O O10 0.485607 0.277995 0.488961
O O11 0.181151 0.007926 0.894657
O O12 0.610475 0.907160 0.663385
O O13 0.500000 0.500000 0.500000
O O14 0.456096 0.413816 0.071166
O O15 0.652637 0.995349 0.019569
#
# Coordination Sequence:
#
# PCOD9016314 Si02
#       7
#     2   2   2   2   2   2   2
#     4  11  23  42  69  97 134 169 212 275 326 381
#     4  10  21  42  67  93 130 170 217 264 322 385
#     4  12  25  43  65  95 133 177 222 260 315 390
#     4  10  24  44  66  91 128 174 217 264 322 381
#     4  10  23  43  66  97 126 161 219 271 329 381
#     4  11  24  41  66  99 129 172 221 262 322 387
#     4  10  28  41  69  94 135 173 217 266 329 380
#
# _framework density 23.930675999999998
#
# number of rings (size 3 to 8) (size 9 to 14) (size 15 to 20)
#    0.857    0.571    0.000    6.000    4.000    5.143 
#    0.000    0.000    0.000    0.000    0.000    0.000 
#    0.000    0.000    0.000    0.000    0.000    0.000 
#
# Total GULP energy -78341.112339 kJ/mol
# GULP energy per Si atom -5595.793738 kJ/mol
# Density = 2.387621 g / cm^3
# Si number density = 23.930676 Si / 1000 Ang^3
#
#
#
# Elastic Constant Matrix: (Units=GPa)
#
#
# Indices 1 2 3 4 5 6 
#
# 1 75.1399 28.4314 12.6437 12.3306 -16.0564 3.5919
# 2 28.4314 49.3842 31.5523 1.9373 -17.1557 11.2564
# 3 12.6437 31.5523 84.2523 -11.1169 -5.6746 -12.0416
# 4 12.3306 1.9373 -11.1169 37.2343 4.5300 5.9310
# 5 -16.0564 -17.1557 -5.6746 4.5300 52.6705 -8.1920
# 6 3.5919 11.2564 -12.0416 5.9310 -8.1920 36.4361
#
#
#
# Elastic Compliance Matrix: (Units=1/GPa)
#
#
# Indices 1 2 3 4 5 6 
#
# 1 0.018883 -0.011110 0.001263 -0.006315 0.003405 0.003782
# 2 -0.011110 0.043258 -0.016610 -0.001785 0.006580 -0.015988
# 3 0.001263 -0.016610 0.019926 0.004942 -0.001684 0.010409
# 4 -0.006315 -0.001785 0.004942 0.031719 -0.005252 -0.003537
# 5 0.003405 0.006580 -0.001684 -0.005252 0.022917 0.003082
# 6 0.003782 -0.015988 0.010409 -0.003537 0.003082 0.036721
#
#
# Mechanical properties :
#
#
# Convention : Reuss Voigt Hill
#
# Bulk Modulus (GPa) = 34.30025 39.33681 36.81853
# Shear Modulus (GPa) = 21.18151 34.34479 27.76315
#
# Velocity S-wave (km/s) = 2.97832 3.79248 3.40979
# Velocity P-wave (km/s) = 5.11776 5.97083 5.56068
#
# Compressibility (1/GPa) = 0.02915430
#
# Stress axis : x y z
#
# Youngs Moduli (GPa) = 52.95852 23.11693 50.18479
#
# Poissons Ratio (x) = 0.25682 -0.06341
# Poissons Ratio (y) = 0.58836 0.83358
# Poissons Ratio (z) = -0.06691 0.38398
#
# Static dielectric constant tensor:
#      x y z
#    x 1.980380 0.006790 0.044090 
#    y 0.006790 1.904050 0.026810 
#    z 0.044090 0.026810 1.914360 
# 
# From -- ./inp_files/126727.got.cif
#   From: 2010.05.17/outbox.cif.g08.bks.cpg/sg2_64_cif.got.tgz:126727.got - 2010.06.03 11:33:40.
