data_PCOD9016745
_publ_section_title
;
Structure prediction by ZEFSAII (Michael W. Deem and Ramdas Pophale) SiO2 
 PCOD9016745
Probable space group: P -1
;
_chemical_formula_sum "Si O2"
_cell_formula_units_Z 14
_cell_length_a 19.731377
_cell_length_b 12.655214
_cell_length_c 9.197488
_cell_angle_alpha 134.713390
_cell_angle_beta 38.391611
_cell_angle_gamma 151.964021
_cell_volume 669.854379
_symmetry_space_group_name_H-M "P -1"
_symmetry_group_IT_number 2
_symmetry_cell_setting 'triclinic'
loop_
_space_group_symop_operation_xyz
x,y,z
-x,-y,-z
loop_
_atom_site_type_symbol
_atom_site_label
_atom_site_fract_x
_atom_site_fract_y
_atom_site_fract_z
Si Si1 0.978975 0.400807 0.205709
Si Si2 0.663452 0.566921 0.814541
Si Si3 0.201563 0.402718 0.694000
Si Si4 0.016988 0.041091 0.183328
Si Si5 0.525990 0.898779 0.742094
Si Si6 0.134001 0.826194 0.515889
Si Si7 0.638196 0.201778 0.570657
O O1 0.923771 0.243163 0.285333
O O2 0.821994 0.333704 0.349951
O O3 0.106982 0.641427 0.303345
O O4 0.064415 0.392841 0.928713
O O5 0.748189 0.608193 0.558291
O O6 0.800350 0.793503 0.898998
O O7 0.626269 0.368273 0.758865
O O8 0.500000 0.500000 0.000000
O O9 0.365232 0.642643 0.720813
O O10 0.118737 0.189690 0.723749
O O11 0.973600 0.170368 0.391889
O O12 0.000000 0.000000 0.000000
O O13 0.673169 0.940060 0.582901
O O14 0.598004 0.070048 0.655335
O O15 0.500000 0.000000 0.000000
O O16 0.500000 0.000000 0.500000
#
# Coordination Sequence:
#
# PCOD9016745 Si02
#       7
#     2   2   2   2   2   2   2
#     4  10  21  42  73 101 139 176 237 293 345 410
#     4  12  30  51  68 102 152 190 232 294 361 425
#     4  12  26  46  70 105 146 188 233 292 355 425
#     4  12  27  47  73 102 140 195 239 282 357 426
#     4  11  24  41  70 109 138 169 236 300 345 405
#     4  10  21  42  69 103 139 180 227 301 344 408
#     4  11  24  46  73  98 135 188 230 286 359 413
#
# _framework density 20.900064
#
# number of rings (size 3 to 8) (size 9 to 14) (size 15 to 20)
#    0.000    0.857    5.714    0.429    6.000    2.286 
#    2.571    0.000    0.000    0.000    0.000    0.000 
#    0.000    0.000    0.000    0.000    0.000    0.000 
#
# Total GULP energy -78165.477400 kJ/mol
# GULP energy per Si atom -5583.248386 kJ/mol
# Density = 2.085249 g / cm^3
# Si number density = 20.900064 Si / 1000 Ang^3
#
#
#
# Elastic Constant Matrix: (Units=GPa)
#
#
# Indices 1 2 3 4 5 6 
#
# 1 88.6535 43.1760 43.6220 -11.5984 -18.0306 19.0194
# 2 43.1760 131.9787 32.5898 -7.5417 -6.3037 15.2858
# 3 43.6220 32.5898 112.5433 -6.5021 -6.5595 20.2019
# 4 -11.5984 -7.5417 -6.5021 26.2239 10.1491 -5.6945
# 5 -18.0306 -6.3037 -6.5595 10.1491 45.0040 3.2365
# 6 19.0194 15.2858 20.2019 -5.6945 3.2365 41.1801
#
#
#
# Elastic Compliance Matrix: (Units=1/GPa)
#
#
# Indices 1 2 3 4 5 6 
#
# 1 0.017830 -0.003759 -0.004493 0.002431 0.005755 -0.004751
# 2 -0.003759 0.009194 -0.001002 0.000674 -0.000440 -0.001057
# 3 -0.004493 -0.001002 0.011485 -0.000120 -0.000009 -0.003203
# 4 0.002431 0.000674 -0.000120 0.044175 -0.009309 0.005526
# 5 0.005755 -0.000440 -0.000009 -0.009309 0.026986 -0.005898
# 6 -0.004751 -0.001057 -0.003203 0.005526 -0.005898 0.029669
#
#
# Mechanical properties :
#
#
# Convention : Reuss Voigt Hill
#
# Bulk Modulus (GPa) = 50.00345 63.55016 56.77681
# Shear Modulus (GPa) = 30.39231 36.73411 33.56321
#
# Velocity S-wave (km/s) = 3.81750 4.19693 4.01170
# Velocity P-wave (km/s) = 6.58848 7.34563 6.97733
#
# Compressibility (1/GPa) = 0.01999862
#
# Stress axis : x y z
#
# Youngs Moduli (GPa) = 56.08675 108.76439 87.07162
#
# Poissons Ratio (x) = 0.40886 0.39125
# Poissons Ratio (y) = 0.21084 0.08727
# Poissons Ratio (z) = 0.25202 0.10902
#
# Static dielectric constant tensor:
#      x y z
#    x 1.707900 0.009860 -0.031470 
#    y 0.009860 1.743810 0.006010 
#    z -0.031470 0.006010 1.784000 
# 
# From -- ./inp_files/333685.got.cif
#   From: 2010.05.17/outbox.cif.g08.bks.cpg/sg2_167_cif.got.tgz:333685.got - 2010.06.03 11:33:40.
