data_PCOD9016771
_publ_section_title
;
Structure prediction by ZEFSAII (Michael W. Deem and Ramdas Pophale) SiO2 
 PCOD9016771
Probable space group: P -1
;
_chemical_formula_sum "Si O2"
_cell_formula_units_Z 16
_cell_length_a 19.369658
_cell_length_b 9.079417
_cell_length_c 6.434897
_cell_angle_alpha 104.550732
_cell_angle_beta 69.120328
_cell_angle_gamma 132.538295
_cell_volume 779.002037
_symmetry_space_group_name_H-M "P -1"
_symmetry_group_IT_number 2
_symmetry_cell_setting 'triclinic'
loop_
_space_group_symop_operation_xyz
x,y,z
-x,-y,-z
loop_
_atom_site_type_symbol
_atom_site_label
_atom_site_fract_x
_atom_site_fract_y
_atom_site_fract_z
Si Si1 0.263779 0.823856 0.464165
Si Si2 0.916638 0.778601 0.587063
Si Si3 0.513090 0.403218 0.758118
Si Si4 0.157810 0.525971 0.820807
Si Si5 0.426053 0.805294 0.149692
Si Si6 0.927939 0.509003 0.706408
Si Si7 0.661928 0.748125 0.416281
Si Si8 0.748181 0.598476 0.018340
O O1 0.224788 0.736959 0.706194
O O2 0.354460 0.832938 0.338213
O O3 0.178915 0.662955 0.337746
O O4 0.289137 0.032916 0.477601
O O5 0.886193 0.635262 0.372530
O O6 0.959677 0.721969 0.692221
O O7 0.821202 0.715368 0.785246
O O8 0.000000 0.000000 0.500000
O O9 0.520913 0.239403 0.766303
O O10 0.609988 0.582006 0.593993
O O11 0.423230 0.309891 0.667734
O O12 0.500000 0.500000 0.000000
O O13 0.082291 0.512757 0.044265
O O14 0.212337 0.480287 0.898018
O O15 0.355990 0.600103 0.019697
O O16 0.500000 0.000000 0.000000
O O17 0.000000 0.500000 0.500000
O O18 0.733575 0.733740 0.208531
#
# Coordination Sequence:
#
# PCOD9016771 Si02
#       8
#     2   2   2   2   2   2   2   2
#     4  11  24  43  63 101 128 175 225 264 330 398
#     4  10  23  42  66  96 127 170 220 270 331 393
#     4  11  24  44  62  95 139 171 228 276 320 395
#     4  10  21  42  69  89 135 173 216 273 326 397
#     4  12  24  43  70  93 136 179 221 276 324 387
#     4  10  23  42  64  96 133 165 219 276 324 397
#     4  11  26  39  66  98 133 179 216 276 340 378
#     4  11  23  44  63 100 131 171 225 268 326 398
#
# _framework density 20.539099
#
# number of rings (size 3 to 8) (size 9 to 14) (size 15 to 20)
#    0.000    1.250    5.000    1.500    3.500    8.500 
#    0.000    0.000    0.000    0.000    0.000    0.000 
#    0.000    0.000    0.000    0.000    0.000    0.000 
#
# Total GULP energy -89374.691545 kJ/mol
# GULP energy per Si atom -5585.918222 kJ/mol
# Density = 2.049235 g / cm^3
# Si number density = 20.539099 Si / 1000 Ang^3
#
#
#
# Elastic Constant Matrix: (Units=GPa)
#
#
# Indices 1 2 3 4 5 6 
#
# 1 69.3601 21.7292 36.0918 -14.2509 -13.9864 -17.0525
# 2 21.7292 120.8883 39.8997 -25.1972 -8.0229 -16.8167
# 3 36.0918 39.8997 154.9570 -20.9310 -25.5554 -7.0575
# 4 -14.2509 -25.1972 -20.9310 38.1192 -4.4909 -0.5931
# 5 -13.9864 -8.0229 -25.5554 -4.4909 38.6898 4.4861
# 6 -17.0525 -16.8167 -7.0575 -0.5931 4.4861 27.4399
#
#
#
# Elastic Compliance Matrix: (Units=1/GPa)
#
#
# Indices 1 2 3 4 5 6 
#
# 1 0.021315 0.000757 -0.002604 0.007894 0.005633 0.012290
# 2 0.000757 0.011181 -0.001511 0.007143 0.001633 0.006822
# 3 -0.002604 -0.001511 0.008678 0.003365 0.004990 -0.001055
# 4 0.007894 0.007143 0.003365 0.037050 0.009774 0.009352
# 5 0.005633 0.001633 0.004990 0.009774 0.032575 0.000671
# 6 0.012290 0.006822 -0.001055 0.009352 0.000671 0.048083
#
#
# Mechanical properties :
#
#
# Convention : Reuss Voigt Hill
#
# Bulk Modulus (GPa) = 29.02044 60.07187 44.54616
# Shear Modulus (GPa) = 28.23529 37.34876 32.79202
#
# Velocity S-wave (km/s) = 3.71173 4.26892 4.00004
# Velocity P-wave (km/s) = 5.70344 7.32184 6.56272
#
# Compressibility (1/GPa) = 0.03445847
#
# Stress axis : x y z
#
# Youngs Moduli (GPa) = 46.91544 89.44045 115.22859
#
# Poissons Ratio (x) = -0.06773 0.30011
# Poissons Ratio (y) = -0.03553 0.17405
# Poissons Ratio (z) = 0.12219 0.13510
#
# Static dielectric constant tensor:
#      x y z
#    x 1.766850 0.001070 -0.005290 
#    y 0.001070 1.714250 -0.001270 
#    z -0.005290 -0.001270 1.756020 
# 
# From -- ./inp_files/38465.got.cif
#   From: 2010.05.17/outbox.cif.g08.bks.cpg/sg2_20_cif.got.tgz:38465.got - 2010.06.03 11:33:40.
