data_PCOD9016408
_publ_section_title
;
Structure prediction by ZEFSAII (Michael W. Deem and Ramdas Pophale) SiO2 
 PCOD9016408
Probable space group: P -1
;
_chemical_formula_sum "Si O2"
_cell_formula_units_Z 16
_cell_length_a 16.947643
_cell_length_b 9.241555
_cell_length_c 6.998867
_cell_angle_alpha 50.698959
_cell_angle_beta 97.918263
_cell_angle_gamma 68.128126
_cell_volume 672.201700
_symmetry_space_group_name_H-M "P -1"
_symmetry_group_IT_number 2
_symmetry_cell_setting 'triclinic'
loop_
_space_group_symop_operation_xyz
x,y,z
-x,-y,-z
loop_
_atom_site_type_symbol
_atom_site_label
_atom_site_fract_x
_atom_site_fract_y
_atom_site_fract_z
Si Si1 0.838519 0.795075 0.885685
Si Si2 0.958724 0.608452 0.605645
Si Si3 0.626725 0.952932 0.618071
Si Si4 0.564580 0.057705 0.087580
Si Si5 0.273219 0.542372 0.767321
Si Si6 0.551227 0.432483 0.282475
Si Si7 0.212873 0.327636 0.646341
Si Si8 0.104228 0.959220 0.561195
O O1 0.737862 0.880661 0.670881
O O2 0.877170 0.941175 0.707073
O O3 0.806847 0.801321 0.088005
O O4 0.940119 0.531690 0.119252
O O5 0.872924 0.572763 0.623491
O O6 0.902571 0.880702 0.404212
O O7 0.000000 0.500000 0.500000
O O8 0.567173 0.013250 0.352834
O O9 0.572820 0.184816 0.536577
O O10 0.651116 0.725034 0.916881
O O11 0.678347 0.868471 0.226715
O O12 0.519988 0.329612 0.821859
O O13 0.500000 0.000000 0.000000
O O14 0.341638 0.615854 0.658967
O O15 0.211893 0.527119 0.590167
O O16 0.200631 0.692535 0.794404
O O17 0.500000 0.500000 0.000000
O O18 0.000000 0.000000 0.500000
#
# Coordination Sequence:
#
# PCOD9016408 Si02
#       8
#     2   2   2   2   2   2   2   2
#     4  10  21  42  67  97 130 178 221 267 337 404
#     4  10  22  42  68  99 136 173 216 283 342 396
#     4  10  22  43  72  93 134 181 221 280 333 402
#     4  11  22  41  68 103 134 174 225 285 335 391
#     4  11  23  44  66  99 137 176 231 275 329 410
#     4  10  22  41  70  95 136 176 229 273 338 396
#     4  10  22  42  67  95 142 176 218 289 336 386
#     4  12  23  39  68  98 133 177 229 270 333 414
#
# _framework density 23.802377
#
# number of rings (size 3 to 8) (size 9 to 14) (size 15 to 20)
#    0.000    1.500    2.500    3.375    1.750    3.000 
#    0.000   14.375    2.750    0.000    0.000    0.000 
#    0.000    0.000    0.000    0.000    0.000    0.000 
#
# Total GULP energy -89307.653584 kJ/mol
# GULP energy per Si atom -5581.728349 kJ/mol
# Density = 2.374820 g / cm^3
# Si number density = 23.802377 Si / 1000 Ang^3
#
#
#
# Elastic Constant Matrix: (Units=GPa)
#
#
# Indices 1 2 3 4 5 6 
#
# 1 111.4943 32.3891 8.0542 1.2564 25.4725 8.1558
# 2 32.3891 173.3598 35.6835 -25.2657 22.0933 6.1250
# 3 8.0542 35.6835 65.3362 -16.1788 18.4027 14.7778
# 4 1.2564 -25.2657 -16.1788 43.8382 0.2308 10.9965
# 5 25.4725 22.0933 18.4027 0.2308 55.5508 0.0520
# 6 8.1558 6.1250 14.7778 10.9965 0.0520 48.1012
#
#
#
# Elastic Compliance Matrix: (Units=1/GPa)
#
#
# Indices 1 2 3 4 5 6 
#
# 1 0.010540 -0.001611 0.001236 -0.000275 -0.004599 -0.001894
# 2 -0.001611 0.007274 -0.002323 0.003578 -0.001399 -0.000756
# 3 0.001236 -0.002323 0.022827 0.009360 -0.007235 -0.009059
# 4 -0.000275 0.003578 0.009360 0.030958 -0.004517 -0.010357
# 5 -0.004599 -0.001399 -0.007235 -0.004517 0.023078 0.004188
# 6 -0.001894 -0.000756 -0.009059 -0.010357 0.004188 0.026353
#
#
# Mechanical properties :
#
#
# Convention : Reuss Voigt Hill
#
# Bulk Modulus (GPa) = 28.37285 55.82711 42.09998
# Shear Modulus (GPa) = 36.18641 47.76893 41.97767
#
# Velocity S-wave (km/s) = 3.90331 4.48470 4.20407
# Velocity P-wave (km/s) = 5.67984 7.09380 6.42583
#
# Compressibility (1/GPa) = 0.03524496
#
# Stress axis : x y z
#
# Youngs Moduli (GPa) = 94.87635 137.47768 43.80871
#
# Poissons Ratio (x) = 0.22143 -0.05415
# Poissons Ratio (y) = 0.15282 0.10177
# Poissons Ratio (z) = -0.11727 0.31938
#
# Static dielectric constant tensor:
#      x y z
#    x 1.937850 0.005440 0.011910 
#    y 0.005440 1.940690 0.007570 
#    z 0.011910 0.007570 2.006590 
# 
# From -- ./inp_files/328461.got.cif
#   From: 2010.05.17/outbox.cif.g08.bks.cpg/sg2_165_cif.got.tgz:328461.got - 2010.06.03 11:33:40.
