data_PCOD9016954
_publ_section_title
;
Structure prediction by ZEFSAII (Michael W. Deem and Ramdas Pophale) SiO2 
 PCOD9016954
Probable space group: P -1
;
_chemical_formula_sum "Si O2"
_cell_formula_units_Z 15
_cell_length_a 9.344181
_cell_length_b 9.121783
_cell_length_c 12.249275
_cell_angle_alpha 110.566140
_cell_angle_beta 112.715390
_cell_angle_gamma 117.352612
_cell_volume 653.459580
_symmetry_space_group_name_H-M "P -1"
_symmetry_group_IT_number 2
_symmetry_cell_setting 'triclinic'
loop_
_space_group_symop_operation_xyz
x,y,z
-x,-y,-z
loop_
_atom_site_type_symbol
_atom_site_label
_atom_site_fract_x
_atom_site_fract_y
_atom_site_fract_z
Si Si1 0.530132 0.321806 0.840306
Si Si2 0.370510 0.924553 0.832876
Si Si3 0.892829 0.796126 0.337878
Si Si4 0.662973 0.236467 0.662758
Si Si5 0.110082 0.345491 0.298851
Si Si6 0.000000 0.000000 0.000000
Si Si7 0.808736 0.488734 0.414008
Si Si8 0.012376 0.765635 0.138977
O O1 0.348099 0.325110 0.798692
O O2 0.531845 0.272032 0.701991
O O3 0.456313 0.121046 0.834291
O O4 0.767415 0.535934 0.999717
O O5 0.380010 0.763254 0.733806
O O6 0.134378 0.807578 0.773124
O O7 0.500000 0.000000 0.000000
O O8 0.875059 0.629202 0.362799
O O9 0.023080 0.866700 0.283138
O O10 0.000000 0.000000 0.500000
O O11 0.805996 0.434821 0.672856
O O12 0.819272 0.256392 0.799097
O O13 0.500000 0.000000 0.500000
O O14 0.108801 0.206016 0.174027
O O15 0.231473 0.425127 0.472880
O O16 0.956330 0.109544 0.926305
O O17 0.000000 0.500000 0.500000
#
# Coordination Sequence:
#
# PCOD9016954 Si02
#       8
#     2   2   2   2   2   1   2   2
#     4  12  25  45  69 111 143 192 245 301 379 440
#     4  11  23  41  74 105 138 186 249 310 362 438
#     4  12  24  44  72 105 148 192 242 311 370 438
#     4  12  26  49  75 107 147 199 249 306 377 448
#     4  11  24  47  69 106 149 190 244 299 373 447
#     4  12  26  44  72 102 150 198 242 298 376 446
#     4  10  21  42  70 104 138 187 247 301 361 431
#     4  12  26  48  74 104 151 197 248 306 373 453
#
# _framework density 22.954747000000001
#
# number of rings (size 3 to 8) (size 9 to 14) (size 15 to 20)
#    0.000    0.533    1.333    8.800    1.867    1.067 
#    2.400    1.333    0.000    0.000    0.000    0.000 
#    0.000    0.000    0.000    0.000    0.000    0.000 
#
# Total GULP energy -83650.349858 kJ/mol
# GULP energy per Si atom -5576.689991 kJ/mol
# Density = 2.290250 g / cm^3
# Si number density = 22.954747 Si / 1000 Ang^3
#
#
#
# Elastic Constant Matrix: (Units=GPa)
#
#
# Indices 1 2 3 4 5 6 
#
# 1 52.1299 -4.6598 13.2914 2.3911 -10.5286 0.2741
# 2 -4.6598 87.7347 12.8690 3.8737 6.0360 4.9384
# 3 13.2914 12.8690 132.4372 10.4037 -25.4765 -5.9189
# 4 2.3911 3.8737 10.4037 47.2847 4.0581 -8.2672
# 5 -10.5286 6.0360 -25.4765 4.0581 43.9027 1.5845
# 6 0.2741 4.9384 -5.9189 -8.2672 1.5845 17.0773
#
#
#
# Elastic Compliance Matrix: (Units=1/GPa)
#
#
# Indices 1 2 3 4 5 6 
#
# 1 0.020572 0.001201 -0.001347 -0.001609 0.004219 -0.002315
# 2 0.001201 0.012194 -0.001827 -0.001275 -0.002165 -0.004595
# 3 -0.001347 -0.001827 0.009135 -0.001840 0.005315 0.002332
# 4 -0.001609 -0.001275 -0.001840 0.024142 -0.003936 0.011809
# 5 0.004219 -0.002165 0.005315 -0.003936 0.027610 -0.002067
# 6 -0.002315 -0.004595 0.002332 0.011809 -0.002067 0.066640
#
#
# Mechanical properties :
#
#
# Convention : Reuss Voigt Hill
#
# Bulk Modulus (GPa) = 26.34703 35.03367 30.69035
# Shear Modulus (GPa) = 28.26636 38.37301 33.31968
#
# Velocity S-wave (km/s) = 3.51293 4.09305 3.81404
# Velocity P-wave (km/s) = 5.28744 6.13455 5.72668
#
# Compressibility (1/GPa) = 0.03795494
#
# Stress axis : x y z
#
# Youngs Moduli (GPa) = 48.61050 82.00960 109.47304
#
# Poissons Ratio (x) = -0.09851 0.14743
# Poissons Ratio (y) = -0.05839 0.20001
# Poissons Ratio (z) = 0.06547 0.14984
#
# Static dielectric constant tensor:
#      x y z
#    x 1.939160 0.073450 -0.026870 
#    y 0.073450 1.870850 0.018960 
#    z -0.026870 0.018960 1.917790 
# 
# From -- ./inp_files/158387.got.cif
#   From: 2010.05.17/outbox.cif.g08.bks.cpg/sg2_80_cif.got.tgz:158387.got - 2010.06.03 11:33:40.
