data_PCOD9016804
_publ_section_title
;
Structure prediction by ZEFSAII (Michael W. Deem and Ramdas Pophale) SiO2 
 PCOD9016804
Probable space group: P -1
;
_chemical_formula_sum "Si O2"
_cell_formula_units_Z 12
_cell_length_a 12.258455
_cell_length_b 8.176073
_cell_length_c 13.824779
_cell_angle_alpha 95.691960
_cell_angle_beta 158.497229
_cell_angle_gamma 82.935443
_cell_volume 503.588657
_symmetry_space_group_name_H-M "P -1"
_symmetry_group_IT_number 2
_symmetry_cell_setting 'triclinic'
loop_
_space_group_symop_operation_xyz
x,y,z
-x,-y,-z
loop_
_atom_site_type_symbol
_atom_site_label
_atom_site_fract_x
_atom_site_fract_y
_atom_site_fract_z
Si Si1 0.330423 0.842170 0.319331
Si Si2 0.694583 0.229822 0.403259
Si Si3 0.339382 0.698328 0.016828
Si Si4 0.399080 0.190695 0.952408
Si Si5 0.793030 0.991798 0.968976
Si Si6 0.295085 0.419975 0.500745
O O1 0.554789 0.684176 0.471157
O O2 0.500000 0.000000 0.500000
O O3 0.185476 0.888783 0.098058
O O4 0.052678 0.844528 0.163868
O O5 0.557185 0.246758 0.183121
O O6 0.525254 0.081330 0.298553
O O7 0.623093 0.393229 0.416851
O O8 0.046622 0.201906 0.679209
O O9 0.506447 0.699545 0.053086
O O10 0.060845 0.588921 0.790155
O O11 0.572332 0.658564 0.293667
O O12 0.192092 0.886267 0.922151
O O13 0.500000 0.000000 0.000000
#
# Coordination Sequence:
#
# PCOD9016804 Si02
#       6
#     2   2   2   2   2   2
#     4  10  21  42  69  94 124 179 224 259 329 400
#     4  12  27  43  66 104 136 167 218 282 326 378
#     4  11  23  43  69  93 133 181 218 265 319 399
#     4  12  26  43  70 100 130 177 226 262 325 393
#     4  10  23  40  68  97 127 171 225 272 318 392
#     4  11  25  43  67 100 137 170 216 275 333 380
#
# _framework density 23.828972
#
# number of rings (size 3 to 8) (size 9 to 14) (size 15 to 20)
#    0.000    1.000    3.333    2.500    7.000    4.667 
#    0.000    0.833    0.000    0.000    0.000    0.000 
#    0.000    0.000    0.000    0.000    0.000    0.000 
#
# Total GULP energy -67158.455777 kJ/mol
# GULP energy per Si atom -5596.537981 kJ/mol
# Density = 2.377474 g / cm^3
# Si number density = 23.828972 Si / 1000 Ang^3
#
#
#
# Elastic Constant Matrix: (Units=GPa)
#
#
# Indices 1 2 3 4 5 6 
#
# 1 62.3018 -4.2842 13.8529 -6.6899 0.6360 -9.1965
# 2 -4.2842 98.4209 22.6921 16.5979 3.7559 -24.6955
# 3 13.8529 22.6921 115.0139 -0.3753 4.7294 -17.7800
# 4 -6.6899 16.5979 -0.3753 36.6268 -3.1642 -1.4133
# 5 0.6360 3.7559 4.7294 -3.1642 36.9549 0.2516
# 6 -9.1965 -24.6955 -17.7800 -1.4133 0.2516 27.3697
#
#
#
# Elastic Compliance Matrix: (Units=1/GPa)
#
#
# Indices 1 2 3 4 5 6 
#
# 1 0.017933 0.002636 -0.001495 0.002337 -0.000237 0.007556
# 2 0.002636 0.014978 -0.001142 -0.005977 -0.002024 0.013368
# 3 -0.001495 -0.001142 0.009911 0.000440 -0.001123 0.004939
# 4 0.002337 -0.005977 0.000440 0.030607 0.003151 -0.002770
# 5 -0.000237 -0.002024 -0.001123 0.003151 0.027702 -0.002727
# 6 0.007556 0.013368 0.004939 -0.002770 -0.002727 0.054228
#
#
# Mechanical properties :
#
#
# Convention : Reuss Voigt Hill
#
# Bulk Modulus (GPa) = 23.35313 37.80649 30.57981
# Shear Modulus (GPa) = 29.47508 36.42199 32.94854
#
# Velocity S-wave (km/s) = 3.52084 3.91381 3.72251
# Velocity P-wave (km/s) = 5.13322 6.02695 5.59795
#
# Compressibility (1/GPa) = 0.04282081
#
# Stress axis : x y z
#
# Youngs Moduli (GPa) = 55.76239 66.76427 100.89754
#
# Poissons Ratio (x) = -0.17600 0.15080
# Poissons Ratio (y) = -0.14700 0.11526
# Poissons Ratio (z) = 0.08334 0.07627
#
# Static dielectric constant tensor:
#      x y z
#    x 1.936450 -0.004010 -0.011260 
#    y -0.004010 1.940430 -0.058090 
#    z -0.011260 -0.058090 1.873800 
# 
# From -- ./inp_files/19010.got.cif
#   From: 2010.05.17/outbox.cif.g08.bks.cpg/sg2_10_cif.got.tgz:19010.got - 2010.06.03 11:33:40.
