data_PCOD9016078
_publ_section_title
;
Structure prediction by ZEFSAII (Michael W. Deem and Ramdas Pophale) SiO2 
 PCOD9016078
Probable space group: P -1
;
_chemical_formula_sum "Si O2"
_cell_formula_units_Z 16
_cell_length_a 10.343594
_cell_length_b 10.546616
_cell_length_c 13.400480
_cell_angle_alpha 64.863408
_cell_angle_beta 32.031279
_cell_angle_gamma 55.728446
_cell_volume 636.094076
_symmetry_space_group_name_H-M "P -1"
_symmetry_group_IT_number 2
_symmetry_cell_setting 'triclinic'
loop_
_space_group_symop_operation_xyz
x,y,z
-x,-y,-z
loop_
_atom_site_type_symbol
_atom_site_label
_atom_site_fract_x
_atom_site_fract_y
_atom_site_fract_z
Si Si1 0.017128 0.896316 0.177951
Si Si2 0.915417 0.670719 0.049002
Si Si3 0.278301 0.865808 0.224277
Si Si4 0.203087 0.567523 0.215586
Si Si5 0.174207 0.198450 0.147294
Si Si6 0.630049 0.317053 0.573526
Si Si7 0.685140 0.193235 0.178900
Si Si8 0.742289 0.507930 0.574331
O O1 0.069058 0.911876 0.254820
O O2 0.016621 0.728981 0.233379
O O3 0.778617 0.045227 0.238800
O O4 0.260754 0.868479 0.949190
O O5 0.639145 0.697114 0.278483
O O6 0.840540 0.793078 0.966126
O O7 0.000000 0.500000 0.000000
O O8 0.131739 0.710581 0.954031
O O9 0.248854 0.797558 0.372115
O O10 0.271033 0.034207 0.193014
O O11 0.573123 0.757782 0.019887
O O12 0.229969 0.586862 0.310530
O O13 0.036081 0.465134 0.351840
O O14 0.500000 0.500000 0.000000
O O15 0.868622 0.291645 0.350554
O O16 0.562545 0.480297 0.617253
O O17 0.391660 0.317630 0.356446
#
# Coordination Sequence:
#
# PCOD9016078 Si02
#       8
#     2   2   2   2   2   2   2   2
#     4  11  23  43  72  93 139 185 211 279 341 396
#     4  11  23  43  65  93 138 174 217 277 329 395
#     4  10  21  42  66  94 132 171 220 283 332 382
#     4  11  24  43  67  99 131 173 222 279 327 390
#     4  10  23  40  64  96 131 171 227 280 325 392
#     4  11  23  39  69  98 124 176 223 282 331 388
#     4  11  24  45  66 102 137 181 225 262 343 414
#     4  11  24  41  68 100 131 167 230 272 328 404
#
# _framework density 25.153513
#
# number of rings (size 3 to 8) (size 9 to 14) (size 15 to 20)
#    0.000    1.250    5.000    0.375    1.750    2.000 
#    2.250    1.250    0.000    0.000    0.000    0.000 
#    0.000    0.000    0.000    0.000    0.000    0.000 
#
# Total GULP energy -89265.745505 kJ/mol
# GULP energy per Si atom -5579.109094 kJ/mol
# Density = 2.509626 g / cm^3
# Si number density = 25.153513 Si / 1000 Ang^3
#
#
#
# Elastic Constant Matrix: (Units=GPa)
#
#
# Indices 1 2 3 4 5 6 
#
# 1 50.2513 3.5261 18.0418 -10.2296 -10.2081 -4.9546
# 2 3.5261 90.6479 19.0855 -1.9226 4.8484 -21.1269
# 3 18.0418 19.0855 138.9752 -8.5288 -8.0469 -3.7034
# 4 -10.2296 -1.9226 -8.5288 32.1765 -0.3111 -0.9996
# 5 -10.2081 4.8484 -8.0469 -0.3111 20.1957 -6.8383
# 6 -4.9546 -21.1269 -3.7034 -0.9996 -6.8383 29.8681
#
#
#
# Elastic Compliance Matrix: (Units=1/GPa)
#
#
# Indices 1 2 3 4 5 6 
#
# 1 0.026128 0.000685 -0.001873 0.008258 0.015252 0.008354
# 2 0.000685 0.013603 -0.001672 0.000878 -0.000364 0.009474
# 3 -0.001873 -0.001672 0.007916 0.001433 0.002681 0.000150
# 4 0.008258 0.000878 0.001433 0.034352 0.006707 0.004854
# 5 0.015252 -0.000364 0.002681 0.006707 0.064437 0.017582
# 6 0.008354 0.009474 0.000150 0.004854 0.017582 0.045774
#
#
# Mechanical properties :
#
#
# Convention : Reuss Voigt Hill
#
# Bulk Modulus (GPa) = 23.85201 40.13128 31.99164
# Shear Modulus (GPa) = 23.59538 32.39612 27.99575
#
# Velocity S-wave (km/s) = 3.06609 3.59268 3.33978
# Velocity P-wave (km/s) = 4.69443 5.76185 5.25531
#
# Compressibility (1/GPa) = 0.04192519
#
# Stress axis : x y z
#
# Youngs Moduli (GPa) = 38.27379 73.51148 126.33421
#
# Poissons Ratio (x) = -0.05032 0.23668
# Poissons Ratio (y) = -0.02620 0.21120
# Poissons Ratio (z) = 0.07170 0.12289
#
# Static dielectric constant tensor:
#      x y z
#    x 2.054450 0.083050 -0.042030 
#    y 0.083050 2.086480 -0.018530 
#    z -0.042030 -0.018530 2.050590 
# 
# From -- ./inp_files/77261.got.cif
#   From: 2010.05.17/outbox.cif.g08.bks.cpg/sg2_39_cif.got.tgz:77261.got - 2010.06.03 11:33:40.
