data_PCOD9016553
_publ_section_title
;
Structure prediction by ZEFSAII (Michael W. Deem and Ramdas Pophale) SiO2 
 PCOD9016553
Probable space group: P -1
;
_chemical_formula_sum "Si O2"
_cell_formula_units_Z 16
_cell_length_a 8.637019
_cell_length_b 14.602556
_cell_length_c 15.412309
_cell_angle_alpha 49.129396
_cell_angle_beta 38.384068
_cell_angle_gamma 41.448313
_cell_volume 788.335321
_symmetry_space_group_name_H-M "P -1"
_symmetry_group_IT_number 2
_symmetry_cell_setting 'triclinic'
loop_
_space_group_symop_operation_xyz
x,y,z
-x,-y,-z
loop_
_atom_site_type_symbol
_atom_site_label
_atom_site_fract_x
_atom_site_fract_y
_atom_site_fract_z
Si Si1 0.368515 0.192964 0.728619
Si Si2 0.591978 0.043515 0.020989
Si Si3 0.300962 0.570254 0.127874
Si Si4 0.899432 0.978860 0.283598
Si Si5 0.082533 0.406372 0.434763
Si Si6 0.674034 0.624936 0.070510
Si Si7 0.479854 0.880851 0.489555
Si Si8 0.645735 0.319872 0.652747
O O1 0.489239 0.163746 0.595905
O O2 0.513756 0.270874 0.665591
O O3 0.020198 0.294043 0.825770
O O4 0.440404 0.047218 0.833082
O O5 0.402709 0.212855 0.007030
O O6 0.929392 0.992684 0.884226
O O7 0.500000 0.000000 0.000000
O O8 0.234560 0.457420 0.269750
O O9 0.477725 0.606182 0.097239
O O10 0.500000 0.500000 0.000000
O O11 0.608266 0.986220 0.372742
O O12 0.124430 0.821144 0.310666
O O13 0.814804 0.059142 0.363497
O O14 0.305295 0.253780 0.466014
O O15 0.000000 0.500000 0.500000
O O16 0.812958 0.403661 0.510489
O O17 0.587559 0.603776 0.217907
O O18 0.000000 0.500000 0.000000
#
# Coordination Sequence:
#
# PCOD9016553 Si02
#       8
#     2   2   2   2   2   2   2   2
#     4  12  23  42  68 100 136 168 233 290 325 401
#     4  11  23  42  68  98 136 185 215 275 353 394
#     4  12  27  43  67 103 135 174 236 286 329 408
#     4   9  20  41  63  87 128 174 218 264 337 405
#     4  11  21  45  65  90 131 185 216 267 354 395
#     4  11  23  45  70  98 139 184 226 274 343 416
#     4  10  22  39  66  92 125 176 222 278 327 400
#     4  10  21  42  68  92 133 175 223 275 336 406
#
# _framework density 20.295932000000001
#
# number of rings (size 3 to 8) (size 9 to 14) (size 15 to 20)
#    0.000    1.250    5.000    2.250    1.750    3.000 
#    4.500    0.000    0.000    0.000    0.000    0.000 
#    0.000    0.000    0.000    0.000    0.000    0.000 
#
# Total GULP energy -89242.014912 kJ/mol
# GULP energy per Si atom -5577.625932 kJ/mol
# Density = 2.024974 g / cm^3
# Si number density = 20.295932 Si / 1000 Ang^3
#
#
#
# Elastic Constant Matrix: (Units=GPa)
#
#
# Indices 1 2 3 4 5 6 
#
# 1 109.1685 30.0661 50.7091 -8.6241 -9.3365 29.4149
# 2 30.0661 89.4303 69.8003 1.6818 -6.3142 14.1334
# 3 50.7091 69.8003 137.3134 1.6400 7.3910 16.8058
# 4 -8.6241 1.6818 1.6400 40.0926 5.5377 5.5194
# 5 -9.3365 -6.3142 7.3910 5.5377 31.5874 1.2416
# 6 29.4149 14.1334 16.8058 5.5194 1.2416 30.7317
#
#
#
# Elastic Compliance Matrix: (Units=1/GPa)
#
#
# Indices 1 2 3 4 5 6 
#
# 1 0.015853 0.001210 -0.005127 0.004688 0.005856 -0.014005
# 2 0.001210 0.020295 -0.010539 -0.000469 0.007157 -0.004933
# 3 -0.005127 -0.010539 0.014659 -0.000582 -0.007034 0.002127
# 4 0.004688 -0.000469 -0.000582 0.027629 -0.003070 -0.008792
# 5 0.005856 0.007157 -0.007034 -0.003070 0.037240 -0.006003
# 6 -0.014005 -0.004933 0.002127 -0.008792 -0.006003 0.048872
#
#
# Mechanical properties :
#
#
# Convention : Reuss Voigt Hill
#
# Bulk Modulus (GPa) = 45.67228 70.78481 58.22854
# Shear Modulus (GPa) = 24.90586 32.83814 28.87200
#
# Velocity S-wave (km/s) = 3.50685 4.02676 3.77576
# Velocity P-wave (km/s) = 6.24094 7.52142 6.91090
#
# Compressibility (1/GPa) = 0.02189512
#
# Stress axis : x y z
#
# Youngs Moduli (GPa) = 63.07919 49.27442 68.21977
#
# Poissons Ratio (x) = -0.05964 0.34975
# Poissons Ratio (y) = -0.07635 0.71897
# Poissons Ratio (z) = 0.32340 0.51931
#
# Static dielectric constant tensor:
#      x y z
#    x 1.673140 0.047630 0.126990 
#    y 0.047630 1.760690 -0.074360 
#    z 0.126990 -0.074360 1.324850 
# 
# From -- ./inp_files/503967.got.cif
#   From: 2010.05.17/outbox.cif.g08.bks.cpg/sg2_252_cif.got.tgz:503967.got - 2010.06.03 11:33:40.
