data_PCOD9016118
_publ_section_title
;
Structure prediction by ZEFSAII (Michael W. Deem and Ramdas Pophale) SiO2 
 PCOD9016118
Probable space group: P -1
;
_chemical_formula_sum "Si O2"
_cell_formula_units_Z 16
_cell_length_a 9.568849
_cell_length_b 11.582485
_cell_length_c 9.363892
_cell_angle_alpha 43.430260
_cell_angle_beta 76.300144
_cell_angle_gamma 78.648501
_cell_volume 692.686823
_symmetry_space_group_name_H-M "P -1"
_symmetry_group_IT_number 2
_symmetry_cell_setting 'triclinic'
loop_
_space_group_symop_operation_xyz
x,y,z
-x,-y,-z
loop_
_atom_site_type_symbol
_atom_site_label
_atom_site_fract_x
_atom_site_fract_y
_atom_site_fract_z
Si Si1 0.482001 0.742993 0.151764
Si Si2 0.456558 0.150646 0.481920
Si Si3 0.981598 0.697491 0.870503
Si Si4 0.214355 0.584486 0.439075
Si Si5 0.302087 0.081740 0.862167
Si Si6 0.744500 0.300454 0.351589
Si Si7 0.031238 0.263270 0.823185
Si Si8 0.666594 0.658177 0.912508
O O1 0.379596 0.588783 0.344141
O O2 0.612697 0.778532 0.194249
O O3 0.551809 0.728430 0.992426
O O4 0.375163 0.904786 0.048152
O O5 0.338637 0.103939 0.667669
O O6 0.604018 0.192111 0.488823
O O7 0.394094 0.304087 0.262909
O O8 0.500000 0.000000 0.500000
O O9 0.819268 0.746671 0.817990
O O10 0.113637 0.781746 0.683064
O O11 0.994336 0.715454 0.021015
O O12 0.000000 0.500000 0.000000
O O13 0.215164 0.640558 0.553406
O O14 0.134806 0.409874 0.610875
O O15 0.115426 0.706849 0.253856
O O16 0.134047 0.100859 0.917777
O O17 0.697391 0.464041 0.121074
#
# Coordination Sequence:
#
# PCOD9016118 Si02
#       8
#     2   2   2   2   2   2   2   2
#     4  11  23  43  68  94 133 176 218 275 328 386
#     4  12  26  44  66  99 134 172 224 275 329 394
#     4  10  21  42  66  95 140 169 214 269 332 387
#     4  11  24  41  68 101 133 170 224 271 324 390
#     4  11  24  43  68  93 136 177 222 272 326 387
#     4  11  24  44  66  99 132 176 217 274 332 395
#     4  11  24  41  69 101 134 174 219 271 327 391
#     4  11  23  42  69  98 129 175 216 274 333 388
#
# _framework density 23.098461
#
# number of rings (size 3 to 8) (size 9 to 14) (size 15 to 20)
#    0.000    1.000    6.250    0.375    5.250    2.500 
#    0.000    0.625    0.000    0.000    0.000    0.000 
#    0.000    0.000    0.000    0.000    0.000    0.000 
#
# Total GULP energy -89528.940706 kJ/mol
# GULP energy per Si atom -5595.558794 kJ/mol
# Density = 2.304589 g / cm^3
# Si number density = 23.098461 Si / 1000 Ang^3
#
#
#
# Elastic Constant Matrix: (Units=GPa)
#
#
# Indices 1 2 3 4 5 6 
#
# 1 131.3247 2.2521 17.1049 -2.3471 5.9503 -2.9334
# 2 2.2521 28.8780 9.1004 1.6236 2.3258 -7.0521
# 3 17.1049 9.1004 42.3318 22.7672 4.5613 -1.5451
# 4 -2.3471 1.6236 22.7672 28.5249 1.9238 -4.5126
# 5 5.9503 2.3258 4.5613 1.9238 26.8103 1.3693
# 6 -2.9334 -7.0521 -1.5451 -4.5126 1.3693 34.1579
#
#
#
# Elastic Compliance Matrix: (Units=1/GPa)
#
#
# Indices 1 2 3 4 5 6 
#
# 1 0.008783 0.001822 -0.007460 0.006949 -0.001427 0.001768
# 2 0.001822 0.041195 -0.015217 0.011656 -0.002717 0.009622
# 3 -0.007460 -0.015217 0.053086 -0.043044 -0.002612 -0.006963
# 4 0.006949 0.011656 -0.043044 0.071036 -0.000862 0.010475
# 5 -0.001427 -0.002717 -0.002612 -0.000862 0.038483 -0.002458
# 6 0.001768 0.009622 -0.006963 0.010475 -0.002458 0.032582
#
#
# Mechanical properties :
#
#
# Convention : Reuss Voigt Hill
#
# Bulk Modulus (GPa) = 16.29893 28.82770 22.56331
# Shear Modulus (GPa) = 16.26930 29.50376 22.88653
#
# Velocity S-wave (km/s) = 2.65683 3.57782 3.15115
# Velocity P-wave (km/s) = 4.05996 5.43830 4.79888
#
# Compressibility (1/GPa) = 0.06135373
#
# Stress axis : x y z
#
# Youngs Moduli (GPa) = 113.85025 24.27480 18.83739
#
# Poissons Ratio (x) = -0.04423 0.14052
# Poissons Ratio (y) = -0.20743 0.28666
# Poissons Ratio (z) = 0.84931 0.36940
#
# Static dielectric constant tensor:
#      x y z
#    x 1.862400 -0.001750 -0.021220 
#    y -0.001750 1.863380 -0.075950 
#    z -0.021220 -0.075950 1.879660 
# 
# From -- ./inp_files/184079.got.cif
#   From: 2010.05.17/outbox.cif.g08.bks.cpg/sg2_93_cif.got.tgz:184079.got - 2010.06.03 11:33:40.
