data_PCOD9016150
_publ_section_title
;
Structure prediction by ZEFSAII (Michael W. Deem and Ramdas Pophale) SiO2 
 PCOD9016150
Probable space group: P -1
;
_chemical_formula_sum "Si O2"
_cell_formula_units_Z 16
_cell_length_a 10.462808
_cell_length_b 9.189957
_cell_length_c 14.625409
_cell_angle_alpha 42.656617
_cell_angle_beta 128.223377
_cell_angle_gamma 109.917016
_cell_volume 731.116362
_symmetry_space_group_name_H-M "P -1"
_symmetry_group_IT_number 2
_symmetry_cell_setting 'triclinic'
loop_
_space_group_symop_operation_xyz
x,y,z
-x,-y,-z
loop_
_atom_site_type_symbol
_atom_site_label
_atom_site_fract_x
_atom_site_fract_y
_atom_site_fract_z
Si Si1 0.241234 0.704668 0.093539
Si Si2 0.031366 0.401523 0.660837
Si Si3 0.587694 0.863600 0.736936
Si Si4 0.292691 0.224193 0.377931
Si Si5 0.639686 0.368229 0.027826
Si Si6 0.390425 0.098156 0.993920
Si Si7 0.026565 0.749176 0.659418
Si Si8 0.915410 0.986420 0.871795
O O1 0.316531 0.472301 0.279211
O O2 0.282309 0.694269 0.009271
O O3 0.321947 0.888464 0.091879
O O4 0.042118 0.780602 0.977174
O O5 0.225502 0.278436 0.811313
O O6 0.995784 0.587949 0.637974
O O7 0.000000 0.500000 0.500000
O O8 0.926680 0.211788 0.720388
O O9 0.665806 0.844171 0.677166
O O10 0.419854 0.048412 0.575015
O O11 0.735266 0.934300 0.824786
O O12 0.558809 0.626033 0.862257
O O13 0.105927 0.243105 0.321138
O O14 0.787585 0.332650 0.182236
O O15 0.507741 0.214105 0.053551
O O16 0.500000 0.000000 0.000000
O O17 0.000000 0.000000 0.500000
O O18 0.000000 0.000000 0.000000
#
# Coordination Sequence:
#
# PCOD9016150 Si02
#       8
#     2   2   2   2   2   2   2   2
#     4   9  19  39  69  93 130 174 219 277 338 414
#     4  11  27  44  67  98 142 187 228 286 348 415
#     4  10  22  39  74  97 132 177 219 294 337 408
#     4  10  22  43  65 104 133 169 232 279 349 399
#     4  10  21  42  66  97 131 175 228 277 344 402
#     4   9  21  40  69  99 131 180 227 275 338 413
#     4  12  28  44  66  98 142 182 231 284 340 413
#     4  11  22  41  65  93 128 175 232 274 345 408
#
# _framework density 21.884342
#
# number of rings (size 3 to 8) (size 9 to 14) (size 15 to 20)
#    0.000    1.750    0.000    3.000    8.750    5.500 
#    4.500    1.250    0.000    0.000    0.000    0.000 
#    0.000    0.000    0.000    0.000    0.000    0.000 
#
# Total GULP energy -89451.161247 kJ/mol
# GULP energy per Si atom -5590.697578 kJ/mol
# Density = 2.183453 g / cm^3
# Si number density = 21.884342 Si / 1000 Ang^3
#
#
#
# Elastic Constant Matrix: (Units=GPa)
#
#
# Indices 1 2 3 4 5 6 
#
# 1 61.7322 24.7813 1.1323 -3.9116 11.6909 -4.6228
# 2 24.7813 108.8016 51.2815 -2.7777 5.3293 4.2935
# 3 1.1323 51.2815 110.2775 -19.8773 3.0258 8.6459
# 4 -3.9116 -2.7777 -19.8773 29.6212 0.6097 7.5634
# 5 11.6909 5.3293 3.0258 0.6097 33.4446 -0.2596
# 6 -4.6228 4.2935 8.6459 7.5634 -0.2596 40.6042
#
#
#
# Elastic Compliance Matrix: (Units=1/GPa)
#
#
# Indices 1 2 3 4 5 6 
#
# 1 0.020024 -0.005734 0.003263 0.004073 -0.006444 0.001391
# 2 -0.005734 0.013711 -0.007129 -0.004324 0.000545 0.000224
# 3 0.003263 -0.007129 0.014618 0.010619 -0.001551 -0.003975
# 4 0.004073 -0.004324 0.010619 0.043485 -0.002562 -0.009456
# 5 -0.006444 0.000545 -0.001551 -0.002562 0.032255 0.000222
# 6 0.001391 0.000224 -0.003975 -0.009456 0.000222 0.027372
#
#
# Mechanical properties :
#
#
# Convention : Reuss Voigt Hill
#
# Bulk Modulus (GPa) = 34.30241 48.35574 41.32907
# Shear Modulus (GPa) = 27.71891 34.30842 31.01367
#
# Velocity S-wave (km/s) = 3.56281 3.96373 3.76861
# Velocity P-wave (km/s) = 5.71255 6.56447 6.15327
#
# Compressibility (1/GPa) = 0.02915247
#
# Stress axis : x y z
#
# Youngs Moduli (GPa) = 49.94105 72.93301 68.40922
#
# Poissons Ratio (x) = 0.41818 -0.22320
# Poissons Ratio (y) = 0.28635 0.48769
# Poissons Ratio (z) = -0.16294 0.51994
#
# Static dielectric constant tensor:
#      x y z
#    x 1.826940 0.007170 -0.029500 
#    y 0.007170 1.806750 0.004170 
#    z -0.029500 0.004170 1.762980 
# 
# From -- ./inp_files/226161.got.cif
#   From: 2010.05.17/outbox.cif.g08.bks.cpg/sg2_114_cif.got.tgz:226161.got - 2010.06.03 11:33:40.
