data_PCOD9016814
_publ_section_title
;
Structure prediction by ZEFSAII (Michael W. Deem and Ramdas Pophale) SiO2 
 PCOD9016814
Probable space group: P -1
;
_chemical_formula_sum "Si O2"
_cell_formula_units_Z 14
_cell_length_a 18.551301
_cell_length_b 8.552651
_cell_length_c 5.976078
_cell_angle_alpha 124.792992
_cell_angle_beta 117.354111
_cell_angle_gamma 58.500697
_cell_volume 646.058458
_symmetry_space_group_name_H-M "P -1"
_symmetry_group_IT_number 2
_symmetry_cell_setting 'triclinic'
loop_
_space_group_symop_operation_xyz
x,y,z
-x,-y,-z
loop_
_atom_site_type_symbol
_atom_site_label
_atom_site_fract_x
_atom_site_fract_y
_atom_site_fract_z
Si Si1 0.836258 0.907592 0.667154
Si Si2 0.274422 0.438762 0.411991
Si Si3 0.309632 0.155262 0.863602
Si Si4 0.923930 0.514705 0.727511
Si Si5 0.293606 0.841307 0.958239
Si Si6 0.984487 0.924813 0.665934
Si Si7 0.407976 0.029455 0.497829
O O1 0.767654 0.817834 0.396883
O O2 0.907534 0.722027 0.741160
O O3 0.881322 0.975728 0.581735
O O4 0.788086 0.073018 0.919377
O O5 0.172116 0.467133 0.307318
O O6 0.292335 0.635860 0.680433
O O7 0.339233 0.243884 0.480838
O O8 0.300682 0.367370 0.136945
O O9 0.397888 0.052368 0.768861
O O10 0.294085 0.003195 0.900088
O O11 0.959623 0.314223 0.464014
O O12 0.000000 0.500000 0.000000
O O13 0.375118 0.847190 0.227196
O O14 0.000000 0.000000 0.500000
O O15 0.000000 0.000000 0.000000
O O16 0.500000 0.000000 0.500000
#
# Coordination Sequence:
#
# PCOD9016814 Si02
#       7
#     2   2   2   2   2   2   2
#     4  11  23  46  63  92 141 187 233 290 353 419
#     4  11  23  42  67 100 136 177 233 284 351 417
#     4  10  21  42  69  94 136 178 225 279 356 417
#     4  12  24  45  70  96 141 191 242 297 358 424
#     4  10  23  43  69 101 138 177 231 286 350 426
#     4  12  28  43  63 102 138 186 247 305 353 422
#     4  10  23  46  71 100 139 175 221 285 357 432
#
# _framework density 21.669865000000001
#
# number of rings (size 3 to 8) (size 9 to 14) (size 15 to 20)
#    0.000    1.143    4.286    3.000    4.000    6.286 
#    0.000    1.429    0.000    0.000    0.000    0.000 
#    0.000    0.000    0.000    0.000    0.000    0.000 
#
# Total GULP energy -78076.417386 kJ/mol
# GULP energy per Si atom -5576.886956 kJ/mol
# Density = 2.162054 g / cm^3
# Si number density = 21.669865 Si / 1000 Ang^3
#
#
#
# Elastic Constant Matrix: (Units=GPa)
#
#
# Indices 1 2 3 4 5 6 
#
# 1 192.3762 39.1485 78.8642 11.8053 -29.9584 -5.9512
# 2 39.1485 47.4632 49.7835 8.7068 3.4230 0.7288
# 3 78.8642 49.7835 195.5947 35.4029 -14.6590 2.1239
# 4 11.8053 8.7068 35.4029 32.6347 8.7757 1.2620
# 5 -29.9584 3.4230 -14.6590 8.7757 32.9207 0.2408
# 6 -5.9512 0.7288 2.1239 1.2620 0.2408 22.2974
#
#
#
# Elastic Compliance Matrix: (Units=1/GPa)
#
#
# Indices 1 2 3 4 5 6 
#
# 1 0.008397 -0.006486 -0.000501 -0.003270 0.008946 0.002589
# 2 -0.006486 0.035489 -0.008706 0.006493 -0.015184 -0.002265
# 3 -0.000501 -0.008706 0.009987 -0.010380 0.007666 -0.000296
# 4 -0.003270 0.006493 -0.010380 0.047043 -0.020794 -0.002534
# 5 0.008946 -0.015184 0.007666 -0.020794 0.049031 0.002801
# 6 0.002589 -0.002265 -0.000296 -0.002534 0.002801 0.045755
#
#
# Mechanical properties :
#
#
# Convention : Reuss Voigt Hill
#
# Bulk Modulus (GPa) = 44.46952 85.66961 65.06956
# Shear Modulus (GPa) = 21.31425 35.41310 28.36367
#
# Velocity S-wave (km/s) = 3.13963 4.04692 3.62180
# Velocity P-wave (km/s) = 5.80594 7.83942 6.89802
#
# Compressibility (1/GPa) = 0.02248731
#
# Stress axis : x y z
#
# Youngs Moduli (GPa) = 119.08772 28.17744 100.12938
#
# Poissons Ratio (x) = 0.18276 0.05015
# Poissons Ratio (y) = 0.77240 0.87176
# Poissons Ratio (z) = 0.05964 0.24532
#
# Static dielectric constant tensor:
#      x y z
#    x 1.924820 0.040430 -0.005460 
#    y 0.040430 1.826530 -0.078660 
#    z -0.005460 -0.078660 1.882730 
# 
# From -- ./inp_files/48761.got.cif
#   From: 2010.05.17/outbox.cif.g08.bks.cpg/sg2_25_cif.got.tgz:48761.got - 2010.06.03 11:33:40.
