data_PCOD9016813
_publ_section_title
;
Structure prediction by ZEFSAII (Michael W. Deem and Ramdas Pophale) SiO2 
 PCOD9016813
Probable space group: P -1
;
_chemical_formula_sum "Si O2"
_cell_formula_units_Z 14
_cell_length_a 7.909051
_cell_length_b 11.963779
_cell_length_c 11.397575
_cell_angle_alpha 84.766416
_cell_angle_beta 35.074315
_cell_angle_gamma 80.510250
_cell_volume 609.424466
_symmetry_space_group_name_H-M "P -1"
_symmetry_group_IT_number 2
_symmetry_cell_setting 'triclinic'
loop_
_space_group_symop_operation_xyz
x,y,z
-x,-y,-z
loop_
_atom_site_type_symbol
_atom_site_label
_atom_site_fract_x
_atom_site_fract_y
_atom_site_fract_z
Si Si1 0.110774 0.954624 0.567525
Si Si2 0.032703 0.753315 0.795538
Si Si3 0.949001 0.177148 0.755885
Si Si4 0.647254 0.677614 0.596867
Si Si5 0.802653 0.898605 0.132970
Si Si6 0.365035 0.612591 0.997050
Si Si7 0.854055 0.497542 0.319131
O O1 0.053789 0.835461 0.664780
O O2 0.467102 0.948404 0.356950
O O3 0.000000 0.000000 0.500000
O O4 0.937854 0.048582 0.744519
O O5 0.353321 0.722273 0.682437
O O6 0.990575 0.630315 0.781512
O O7 0.827454 0.822390 0.007326
O O8 0.164546 0.220894 0.534016
O O9 0.070271 0.175550 0.819944
O O10 0.675298 0.277889 0.905822
O O11 0.553130 0.646392 0.780210
O O12 0.839168 0.563274 0.445338
O O13 0.000000 0.000000 0.000000
O O14 0.500000 0.500000 0.000000
O O15 0.049996 0.578512 0.130540
O O16 0.500000 0.500000 0.500000
#
# Coordination Sequence:
#
# PCOD9016813 Si02
#       7
#     2   2   2   2   2   2   2
#     4  12  28  43  65 105 141 171 216 287 347 384
#     4  11  22  41  68  98 135 175 222 274 333 397
#     4  11  23  44  70  99 134 182 227 265 336 412
#     4  10  21  42  69  94 134 178 227 269 326 407
#     4  12  23  43  75  97 130 183 236 266 319 416
#     4  11  25  42  69 101 130 176 225 278 332 391
#     4   9  23  41  64  98 134 171 221 271 335 392
#
# _framework density 22.972494999999999
#
# number of rings (size 3 to 8) (size 9 to 14) (size 15 to 20)
#    0.000    1.143    4.286    1.286    0.000    9.714 
#    0.000    0.000    0.000    0.000    0.000    0.000 
#    0.000    0.000    0.000    0.000    0.000    0.000 
#
# Total GULP energy -78103.548225 kJ/mol
# GULP energy per Si atom -5578.824873 kJ/mol
# Density = 2.292021 g / cm^3
# Si number density = 22.972495 Si / 1000 Ang^3
#
#
#
# Elastic Constant Matrix: (Units=GPa)
#
#
# Indices 1 2 3 4 5 6 
#
# 1 46.5157 24.3014 2.7210 -2.9717 13.5562 -22.4202
# 2 24.3014 184.7315 38.0032 9.8933 16.4207 0.9305
# 3 2.7210 38.0032 80.6546 -8.5279 20.8259 -6.3048
# 4 -2.9717 9.8933 -8.5279 50.0311 -8.1242 5.8522
# 5 13.5562 16.4207 20.8259 -8.1242 34.4131 -2.3693
# 6 -22.4202 0.9305 -6.3048 5.8522 -2.3693 39.3998
#
#
#
# Elastic Compliance Matrix: (Units=1/GPa)
#
#
# Indices 1 2 3 4 5 6 
#
# 1 0.039413 -0.005291 0.006956 -0.000661 -0.015796 0.022814
# 2 -0.005291 0.006949 -0.003638 -0.001856 0.000294 -0.003464
# 3 0.006956 -0.003638 0.017267 0.001653 -0.010656 0.005921
# 4 -0.000661 -0.001856 0.001653 0.021772 0.005079 -0.002996
# 5 -0.015796 0.000294 -0.010656 0.005079 0.042174 -0.008919
# 6 0.022814 -0.003464 0.005921 -0.002996 -0.008919 0.039301
#
#
# Mechanical properties :
#
#
# Convention : Reuss Voigt Hill
#
# Bulk Modulus (GPa) = 16.75589 49.10590 32.93089
# Shear Modulus (GPa) = 26.21682 41.22722 33.72202
#
# Velocity S-wave (km/s) = 3.38187 4.24091 3.83551
# Velocity P-wave (km/s) = 4.74964 6.73816 5.82932
#
# Compressibility (1/GPa) = 0.05968052
#
# Stress axis : x y z
#
# Youngs Moduli (GPa) = 25.37250 143.91595 57.91298
#
# Poissons Ratio (x) = 0.76148 -0.40282
# Poissons Ratio (y) = 0.13425 0.21071
# Poissons Ratio (z) = -0.17648 0.52363
#
# Static dielectric constant tensor:
#      x y z
#    x 1.886470 -0.042280 -0.046620 
#    y -0.042280 1.843410 0.080370 
#    z -0.046620 0.080370 1.919540 
# 
# From -- ./inp_files/47536.got.cif
#   From: 2010.05.17/outbox.cif.g08.bks.cpg/sg2_24_cif.got.tgz:47536.got - 2010.06.03 11:33:40.
