data_PCOD9016092
_publ_section_title
;
Structure prediction by ZEFSAII (Michael W. Deem and Ramdas Pophale) SiO2 
 PCOD9016092
Probable space group: P -1
;
_chemical_formula_sum "Si O2"
_cell_formula_units_Z 16
_cell_length_a 15.523771
_cell_length_b 12.053642
_cell_length_c 7.118884
_cell_angle_alpha 86.878811
_cell_angle_beta 64.623922
_cell_angle_gamma 139.429749
_cell_volume 597.085714
_symmetry_space_group_name_H-M "P -1"
_symmetry_group_IT_number 2
_symmetry_cell_setting 'triclinic'
loop_
_space_group_symop_operation_xyz
x,y,z
-x,-y,-z
loop_
_atom_site_type_symbol
_atom_site_label
_atom_site_fract_x
_atom_site_fract_y
_atom_site_fract_z
Si Si1 0.452805 0.169997 0.936402
Si Si2 0.012734 0.383739 0.048830
Si Si3 0.802938 0.918724 0.579731
Si Si4 0.247479 0.376683 0.226462
Si Si5 0.307173 0.349463 0.785333
Si Si6 0.187308 0.729955 0.417268
Si Si7 0.604475 0.209498 0.477409
Si Si8 0.933871 0.086397 0.016460
O O1 0.327864 0.135837 0.163708
O O2 0.351947 0.954305 0.120022
O O3 0.663201 0.425821 0.777694
O O4 0.473597 0.172868 0.692044
O O5 0.238683 0.589139 0.835654
O O6 0.000000 0.500000 0.000000
O O7 0.892297 0.258323 0.362505
O O8 0.944332 0.228736 0.968462
O O9 0.726929 0.715343 0.685598
O O10 0.830961 0.969495 0.326589
O O11 0.020217 0.153480 0.429718
O O12 0.343182 0.457877 0.925499
O O13 0.500000 0.500000 0.500000
O O14 0.183737 0.115708 0.983960
O O15 0.150583 0.258390 0.816222
O O16 0.282196 0.729292 0.455627
O O17 0.000000 0.500000 0.500000
O O18 0.500000 0.000000 0.500000
#
# Coordination Sequence:
#
# PCOD9016092 Si02
#       8
#     2   2   2   2   2   2   2   2
#     4  12  24  43  77 101 139 197 246 301 371 443
#     4  10  23  46  68  98 145 192 243 306 370 444
#     4  10  22  43  67 101 146 185 241 302 365 445
#     4  10  24  42  65 107 144 182 245 300 363 449
#     4  10  22  38  65 101 138 179 233 293 365 439
#     4  11  25  47  75 102 143 195 248 303 372 444
#     4  11  27  47  68 110 149 182 251 319 362 436
#     4  10  21  42  66  94 140 190 229 294 369 436
#
# _framework density 26.796823
#
# number of rings (size 3 to 8) (size 9 to 14) (size 15 to 20)
#    0.000    1.500    1.250    2.250    1.750    7.000 
#    9.000    0.000    0.000    0.000    0.000    0.000 
#    0.000    0.000    0.000    0.000    0.000    0.000 
#
# Total GULP energy -89579.220286 kJ/mol
# GULP energy per Si atom -5598.701268 kJ/mol
# Density = 2.673583 g / cm^3
# Si number density = 26.796823 Si / 1000 Ang^3
#
#
#
# Elastic Constant Matrix: (Units=GPa)
#
#
# Indices 1 2 3 4 5 6 
#
# 1 81.9904 34.3381 8.5465 -6.1658 -1.8117 -7.0134
# 2 34.3381 185.3985 29.5439 -4.5348 -25.4286 -19.0937
# 3 8.5465 29.5439 172.2559 16.4083 -19.6596 1.2495
# 4 -6.1658 -4.5348 16.4083 58.3640 -9.8472 -7.2381
# 5 -1.8117 -25.4286 -19.6596 -9.8472 25.5607 -3.3247
# 6 -7.0134 -19.0937 1.2495 -7.2381 -3.3247 38.8344
#
#
#
# Elastic Compliance Matrix: (Units=1/GPa)
#
#
# Indices 1 2 3 4 5 6 
#
# 1 0.013449 -0.002375 -0.000527 0.001378 -0.001097 0.001441
# 2 -0.002375 0.007615 -0.000478 0.002485 0.008586 0.004529
# 3 -0.000527 -0.000478 0.006488 -0.001312 0.003914 -0.000448
# 4 0.001378 0.002485 -0.001312 0.020327 0.010195 0.006175
# 5 -0.001097 0.008586 0.003914 0.010195 0.055901 0.010584
# 6 0.001441 0.004529 -0.000448 0.006175 0.010584 0.030309
#
#
# Mechanical properties :
#
#
# Convention : Reuss Voigt Hill
#
# Bulk Modulus (GPa) = 48.09500 64.94465 56.51983
# Shear Modulus (GPa) = 33.83424 49.03291 41.43357
#
# Velocity S-wave (km/s) = 3.55719 4.28226 3.93646
# Velocity P-wave (km/s) = 5.90411 6.98133 6.46519
#
# Compressibility (1/GPa) = 0.02079218
#
# Stress axis : x y z
#
# Youngs Moduli (GPa) = 74.35564 131.32565 154.12263
#
# Poissons Ratio (x) = 0.31193 0.08119
# Poissons Ratio (y) = 0.17661 0.07364
# Poissons Ratio (z) = 0.03917 0.06275
#
# Static dielectric constant tensor:
#      x y z
#    x 2.299160 0.019860 -0.023520 
#    y 0.019860 2.062810 0.009390 
#    z -0.023520 0.009390 2.147730 
# 
# From -- ./inp_files/333364.got.cif
#   From: 2010.05.17/outbox.cif.g08.bks.cpg/sg2_167_cif.got.tgz:333364.got - 2010.06.03 11:33:40.
