data_PCOD9016214
_publ_section_title
;
Structure prediction by ZEFSAII (Michael W. Deem and Ramdas Pophale) SiO2 
 PCOD9016214
Probable space group: P -1
;
_chemical_formula_sum "Si O2"
_cell_formula_units_Z 16
_cell_length_a 12.047340
_cell_length_b 14.595735
_cell_length_c 5.142560
_cell_angle_alpha 92.409424
_cell_angle_beta 65.974836
_cell_angle_gamma 57.594138
_cell_volume 656.402308
_symmetry_space_group_name_H-M "P -1"
_symmetry_group_IT_number 2
_symmetry_cell_setting 'triclinic'
loop_
_space_group_symop_operation_xyz
x,y,z
-x,-y,-z
loop_
_atom_site_type_symbol
_atom_site_label
_atom_site_fract_x
_atom_site_fract_y
_atom_site_fract_z
Si Si1 0.040080 0.888581 0.602449
Si Si2 0.537300 0.045663 0.718072
Si Si3 0.635377 0.298916 0.886764
Si Si4 0.620152 0.486643 0.188868
Si Si5 0.396463 0.270402 0.177157
Si Si6 0.858733 0.689633 0.255429
Si Si7 0.111887 0.116277 0.740282
Si Si8 0.850570 0.522616 0.879285
O O1 0.223555 0.799038 0.431128
O O2 0.976664 0.845639 0.445042
O O3 0.000000 0.000000 0.500000
O O4 0.962795 0.908974 0.959138
O O5 0.500000 0.000000 0.500000
O O6 0.715066 0.990226 0.508202
O O7 0.446726 0.181738 0.880092
O O8 0.500000 0.000000 0.000000
O O9 0.494120 0.406194 0.877411
O O10 0.696036 0.359885 0.989700
O O11 0.548925 0.255870 0.115368
O O12 0.500000 0.500000 0.500000
O O13 0.748522 0.499929 0.150422
O O14 0.310014 0.246099 0.460879
O O15 0.260357 0.402507 0.243573
O O16 0.882997 0.781530 0.154205
O O17 0.878729 0.605328 0.004153
O O18 0.990505 0.601766 0.327471
#
# Coordination Sequence:
#
# PCOD9016214 Si02
#       8
#     2   2   2   2   2   2   2   2
#     4  12  28  51  74 106 145 192 247 303 365 433
#     4  12  25  46  73 106 148 188 242 300 365 441
#     4  10  24  42  70 101 136 194 242 304 358 433
#     4  10  21  42  67 100 140 186 246 296 363 433
#     4  11  23  43  67  99 142 184 242 298 365 429
#     4  11  23  41  68 104 142 185 237 294 369 438
#     4  12  27  48  77 107 144 193 242 305 365 436
#     4  10  23  40  63 104 141 188 232 298 359 438
#
# _framework density 24.375297
#
# number of rings (size 3 to 8) (size 9 to 14) (size 15 to 20)
#    0.000    1.000    1.250    4.500    5.250    0.000 
#    6.750    0.000    0.000    0.000    0.000    0.000 
#    0.000    0.000    0.000    0.000    0.000    0.000 
#
# Total GULP energy -89390.632215 kJ/mol
# GULP energy per Si atom -5586.914513 kJ/mol
# Density = 2.431982 g / cm^3
# Si number density = 24.375297 Si / 1000 Ang^3
#
#
#
# Elastic Constant Matrix: (Units=GPa)
#
#
# Indices 1 2 3 4 5 6 
#
# 1 83.6072 19.2507 28.8856 -6.0047 -13.1024 10.7616
# 2 19.2507 86.5516 40.8205 13.2017 -13.2807 15.3281
# 3 28.8856 40.8205 139.5171 0.2044 -25.1533 -4.1192
# 4 -6.0047 13.2017 0.2044 34.2965 -3.7497 -11.1001
# 5 -13.1024 -13.2807 -25.1533 -3.7497 43.9530 -0.6427
# 6 10.7616 15.3281 -4.1192 -11.1001 -0.6427 36.4073
#
#
#
# Elastic Compliance Matrix: (Units=1/GPa)
#
#
# Indices 1 2 3 4 5 6 
#
# 1 0.014003 -0.001597 -0.002036 0.002432 0.002691 -0.002908
# 2 -0.001597 0.017991 -0.005058 -0.010588 0.001003 -0.010885
# 3 -0.002036 -0.005058 0.009919 0.003583 0.003920 0.005015
# 4 0.002432 -0.010588 0.003583 0.039211 0.003158 0.016155
# 5 0.002691 0.001003 0.003920 0.003158 0.026379 0.000654
# 6 -0.002908 -0.010885 0.005015 0.016155 0.000654 0.038414
#
#
# Mechanical properties :
#
#
# Convention : Reuss Voigt Hill
#
# Bulk Modulus (GPa) = 40.76694 54.17660 47.47177
# Shear Modulus (GPa) = 29.15843 37.64597 33.40220
#
# Velocity S-wave (km/s) = 3.46241 3.93419 3.70581
# Velocity P-wave (km/s) = 5.72235 6.55068 6.15048
#
# Compressibility (1/GPa) = 0.02452968
#
# Stress axis : x y z
#
# Youngs Moduli (GPa) = 71.41545 55.58195 100.81993
#
# Poissons Ratio (x) = 0.08877 0.20527
# Poissons Ratio (y) = 0.11406 0.50999
# Poissons Ratio (z) = 0.14540 0.28116
#
# Static dielectric constant tensor:
#      x y z
#    x 2.058280 0.054350 0.053880 
#    y 0.054350 2.062170 0.010220 
#    z 0.053880 0.010220 2.446420 
# 
# From -- ./inp_files/77766.got.cif
#   From: 2010.05.17/outbox.cif.g08.bks.cpg/sg2_39_cif.got.tgz:77766.got - 2010.06.03 11:33:40.
