data_PCOD9016456
_publ_section_title
;
Structure prediction by ZEFSAII (Michael W. Deem and Ramdas Pophale) SiO2 
 PCOD9016456
Probable space group: P -1
;
_chemical_formula_sum "Si O2"
_cell_formula_units_Z 16
_cell_length_a 20.902913
_cell_length_b 18.755168
_cell_length_c 12.818787
_cell_angle_alpha 151.839452
_cell_angle_beta 36.819231
_cell_angle_gamma 161.951616
_cell_volume 709.940213
_symmetry_space_group_name_H-M "P -1"
_symmetry_group_IT_number 2
_symmetry_cell_setting 'triclinic'
loop_
_space_group_symop_operation_xyz
x,y,z
-x,-y,-z
loop_
_atom_site_type_symbol
_atom_site_label
_atom_site_fract_x
_atom_site_fract_y
_atom_site_fract_z
Si Si1 0.971094 0.785915 0.748204
Si Si2 0.861056 0.616201 0.258195
Si Si3 0.306598 0.520917 0.473250
Si Si4 0.706286 0.206529 0.754633
Si Si5 0.290956 0.292444 0.566126
Si Si6 0.466884 0.725987 0.065752
Si Si7 0.388575 0.298785 0.987546
Si Si8 0.095149 0.589661 0.605046
O O1 0.805204 0.456604 0.582255
O O2 0.907769 0.703771 0.602943
O O3 0.168364 0.974172 0.805988
O O4 0.000000 0.000000 0.000000
O O5 0.738340 0.482448 0.355058
O O6 0.803289 0.690969 0.361221
O O7 0.784475 0.383689 0.987423
O O8 0.116978 0.947789 0.366610
O O9 0.509463 0.856492 0.590769
O O10 0.347526 0.390416 0.237084
O O11 0.641494 0.255657 0.816104
O O12 0.909962 0.373562 0.654557
O O13 0.500000 0.500000 0.500000
O O14 0.362679 0.462709 0.797263
O O15 0.472112 0.663194 0.094389
O O16 0.720881 0.066720 0.160030
O O17 0.500000 0.500000 0.000000
O O18 0.000000 0.500000 0.500000
#
# Coordination Sequence:
#
# PCOD9016456 Si02
#       8
#     2   2   2   2   2   2   2   2
#     4  10  23  43  65  96 136 173 223 278 334 411
#     4  10  23  43  67  99 136 176 229 284 340 406
#     4  11  23  43  69  96 140 183 225 285 348 404
#     4  11  25  44  70  99 139 177 228 284 344 412
#     4  10  21  42  67  99 134 176 230 279 337 408
#     4  11  24  42  69 100 134 179 227 277 348 402
#     4  11  24  41  64 100 136 179 235 282 338 410
#     4  12  24  45  68 100 138 179 227 282 341 411
#
# _framework density 22.537109999999998
#
# number of rings (size 3 to 8) (size 9 to 14) (size 15 to 20)
#    0.000    1.250    2.500    2.625    1.750    4.500 
#    2.250    0.625    0.000    0.000    0.000    0.000 
#    0.000    0.000    0.000    0.000    0.000    0.000 
#
# Total GULP energy -89139.775313 kJ/mol
# GULP energy per Si atom -5571.235957 kJ/mol
# Density = 2.248581 g / cm^3
# Si number density = 22.537110 Si / 1000 Ang^3
#
#
#
# Elastic Constant Matrix: (Units=GPa)
#
#
# Indices 1 2 3 4 5 6 
#
# 1 115.5546 25.3313 52.8798 -3.9975 20.8049 -7.7656
# 2 25.3313 104.9679 53.2610 2.8867 7.5960 -5.3457
# 3 52.8798 53.2610 132.7604 7.5079 11.2063 1.7914
# 4 -3.9975 2.8867 7.5079 40.2800 2.5083 2.1065
# 5 20.8049 7.5960 11.2063 2.5083 22.4988 3.0308
# 6 -7.7656 -5.3457 1.7914 2.1065 3.0308 31.8550
#
#
#
# Elastic Compliance Matrix: (Units=1/GPa)
#
#
# Indices 1 2 3 4 5 6 
#
# 1 0.012997 0.000069 -0.004508 0.002565 -0.010659 0.004278
# 2 0.000069 0.012222 -0.004785 0.000024 -0.002152 0.002540
# 3 -0.004508 -0.004785 0.011342 -0.002133 0.000705 -0.002466
# 4 0.002565 0.000024 -0.002133 0.025762 -0.004114 -0.000563
# 5 -0.010659 -0.002152 0.000705 -0.004114 0.056225 -0.008077
# 6 0.004278 0.002540 -0.002466 -0.000563 -0.008077 0.033806
#
#
# Mechanical properties :
#
#
# Convention : Reuss Voigt Hill
#
# Bulk Modulus (GPa) = 55.20428 68.46969 61.83698
# Shear Modulus (GPa) = 28.27426 33.71413 30.99420
#
# Velocity S-wave (km/s) = 3.54583 3.87193 3.71246
# Velocity P-wave (km/s) = 6.42743 7.10183 6.77303
#
# Compressibility (1/GPa) = 0.01811454
#
# Stress axis : x y z
#
# Youngs Moduli (GPa) = 76.94210 81.81734 88.16847
#
# Poissons Ratio (x) = -0.00568 0.39744
# Poissons Ratio (y) = -0.00534 0.42189
# Poissons Ratio (z) = 0.34683 0.39150
#
# Static dielectric constant tensor:
#      x y z
#    x 1.882980 0.069820 -0.031430 
#    y 0.069820 1.861680 0.008740 
#    z -0.031430 0.008740 1.885280 
# 
# From -- ./inp_files/472504.got.cif
#   From: 2010.05.17/outbox.cif.g08.bks.cpg/sg2_237_cif.got.tgz:472504.got - 2010.06.03 11:33:40.
