data_PCOD9016262
_publ_section_title
;
Structure prediction by ZEFSAII (Michael W. Deem and Ramdas Pophale) SiO2 
 PCOD9016262
Probable space group: P -1
;
_chemical_formula_sum "Si O2"
_cell_formula_units_Z 16
_cell_length_a 15.608947
_cell_length_b 9.081353
_cell_length_c 14.226919
_cell_angle_alpha 126.683356
_cell_angle_beta 35.552147
_cell_angle_gamma 142.763238
_cell_volume 702.240686
_symmetry_space_group_name_H-M "P -1"
_symmetry_group_IT_number 2
_symmetry_cell_setting 'triclinic'
loop_
_space_group_symop_operation_xyz
x,y,z
-x,-y,-z
loop_
_atom_site_type_symbol
_atom_site_label
_atom_site_fract_x
_atom_site_fract_y
_atom_site_fract_z
Si Si1 0.512907 0.324148 0.357069
Si Si2 0.630218 0.989324 0.950403
Si Si3 0.818852 0.766724 0.672510
Si Si4 0.910251 0.495929 0.981525
Si Si5 0.496261 0.818609 0.500324
Si Si6 0.180267 0.256475 0.545825
Si Si7 0.188496 0.030726 0.865839
Si Si8 0.492594 0.305157 0.872784
O O1 0.500000 0.500000 0.500000
O O2 0.717639 0.453879 0.171105
O O3 0.462547 0.126508 0.404609
O O4 0.343436 0.231124 0.399136
O O5 0.827947 0.266741 0.901700
O O6 0.538728 0.880218 0.094336
O O7 0.500000 0.000000 0.000000
O O8 0.671276 0.817819 0.812332
O O9 0.887932 0.765887 0.507842
O O10 0.706563 0.496719 0.708150
O O11 0.992961 0.007251 0.668828
O O12 0.000000 0.500000 0.000000
O O13 0.080072 0.748304 0.873661
O O14 0.290119 0.535801 0.579716
O O15 0.500000 0.000000 0.500000
O O16 0.662887 0.838321 0.305128
O O17 0.323416 0.175307 0.893932
O O18 0.000000 0.000000 0.000000
O O19 0.500000 0.500000 0.000000
#
# Coordination Sequence:
#
# PCOD9016262 Si02
#       8
#     2   2   2   2   2   2   2   2
#     4  10  23  40  65  92 131 175 216 262 332 410
#     4  11  25  42  67  95 137 173 221 281 344 388
#     4  10  22  41  67  91 124 176 226 271 322 406
#     4  12  25  42  69 102 137 171 221 283 342 395
#     4  11  24  40  64  95 136 166 212 278 340 385
#     4  10  21  42  67  89 127 176 226 261 331 405
#     4  12  25  42  69 101 133 174 225 274 332 407
#     4  10  23  42  65  96 131 171 222 278 327 395
#
# _framework density 22.784212
#
# number of rings (size 3 to 8) (size 9 to 14) (size 15 to 20)
#    0.000    1.250    2.500    3.000    8.750    2.000 
#    0.000    0.000    0.000    3.750    0.000    0.000 
#    0.000    0.000    0.000    0.000    0.000    0.000 
#
# Total GULP energy -89183.897334 kJ/mol
# GULP energy per Si atom -5573.993583 kJ/mol
# Density = 2.273235 g / cm^3
# Si number density = 22.784212 Si / 1000 Ang^3
#
#
#
# Elastic Constant Matrix: (Units=GPa)
#
#
# Indices 1 2 3 4 5 6 
#
# 1 104.4101 51.1919 24.7881 -20.7274 -2.1086 -2.8130
# 2 51.1919 133.8371 9.6139 -32.4770 5.2879 -3.1397
# 3 24.7881 9.6139 70.9512 -9.8853 -2.5398 1.9766
# 4 -20.7274 -32.4770 -9.8853 40.3875 0.4992 0.8549
# 5 -2.1086 5.2879 -2.5398 0.4992 42.8971 0.4438
# 6 -2.8130 -3.1397 1.9766 0.8549 0.4438 31.2483
#
#
#
# Elastic Compliance Matrix: (Units=1/GPa)
#
#
# Indices 1 2 3 4 5 6 
#
# 1 0.012991 -0.004134 -0.003634 0.002423 0.000895 0.000905
# 2 -0.004134 0.010688 0.000859 0.006692 -0.001553 0.000486
# 3 -0.003634 0.000859 0.015680 0.002684 0.000626 -0.001315
# 4 0.002423 0.006692 0.002684 0.032056 -0.000919 -0.000143
# 5 0.000895 -0.001553 0.000626 -0.000919 0.023599 -0.000425
# 6 0.000905 0.000486 -0.001315 -0.000143 -0.000425 0.032225
#
#
# Mechanical properties :
#
#
# Convention : Reuss Voigt Hill
#
# Bulk Modulus (GPa) = 39.15158 53.37625 46.26391
# Shear Modulus (GPa) = 33.42893 37.81355 35.62124
#
# Velocity S-wave (km/s) = 3.83456 4.07829 3.95830
# Velocity P-wave (km/s) = 6.06845 6.75679 6.42185
#
# Compressibility (1/GPa) = 0.02554175
#
# Stress axis : x y z
#
# Youngs Moduli (GPa) = 76.97791 93.56318 63.77404
#
# Poissons Ratio (x) = 0.38679 0.23175
# Poissons Ratio (y) = 0.31823 -0.05480
# Poissons Ratio (z) = 0.27973 -0.08040
#
# Static dielectric constant tensor:
#      x y z
#    x 2.226330 -0.270060 -0.035180 
#    y -0.270060 2.317800 -0.092320 
#    z -0.035180 -0.092320 2.048290 
# 
# From -- ./inp_files/509196.got.cif
#   From: 2010.05.17/outbox.cif.g08.bks.cpg/sg2_255_cif.got.tgz:509196.got - 2010.06.03 11:33:40.
