data_PCOD9016129
_publ_section_title
;
Structure prediction by ZEFSAII (Michael W. Deem and Ramdas Pophale) SiO2 
 PCOD9016129
Probable space group: P -1
;
_chemical_formula_sum "Si O2"
_cell_formula_units_Z 16
_cell_length_a 8.323310
_cell_length_b 24.954991
_cell_length_c 6.021897
_cell_angle_alpha 62.164253
_cell_angle_beta 108.522014
_cell_angle_gamma 141.548784
_cell_volume 685.179363
_symmetry_space_group_name_H-M "P -1"
_symmetry_group_IT_number 2
_symmetry_cell_setting 'triclinic'
loop_
_space_group_symop_operation_xyz
x,y,z
-x,-y,-z
loop_
_atom_site_type_symbol
_atom_site_label
_atom_site_fract_x
_atom_site_fract_y
_atom_site_fract_z
Si Si1 0.478029 0.777912 0.783164
Si Si2 0.075526 0.790196 0.918312
Si Si3 0.694309 0.075476 0.627788
Si Si4 0.096831 0.373755 0.003810
Si Si5 0.327562 0.273062 0.830682
Si Si6 0.464349 0.113152 0.771925
Si Si7 0.503568 0.551735 0.589793
Si Si8 0.872562 0.896198 0.091444
O O1 0.207971 0.704821 0.937129
O O2 0.540440 0.723650 0.905422
O O3 0.430857 0.803651 0.495142
O O4 0.738308 0.875647 0.832343
O O5 0.884758 0.681602 0.030059
O O6 0.105557 0.829798 0.615576
O O7 0.962020 0.796230 0.065470
O O8 0.358977 0.847318 0.011397
O O9 0.521428 0.069935 0.727550
O O10 0.847448 0.059593 0.831904
O O11 0.500000 0.000000 0.500000
O O12 0.254018 0.400250 0.241956
O O13 0.238835 0.468701 0.771334
O O14 0.457810 0.369271 0.623870
O O15 0.309793 0.214959 0.750890
O O16 0.194758 0.070033 0.823418
O O17 0.500000 0.500000 0.500000
#
# Coordination Sequence:
#
# PCOD9016129 Si02
#       8
#     2   2   2   2   2   2   2   2
#     4  10  22  39  64  96 124 177 228 270 325 392
#     4  12  21  43  73  94 129 184 224 270 338 406
#     4  12  27  44  70 106 136 170 223 281 342 409
#     4  11  22  38  65  93 129 177 228 267 338 398
#     4  10  21  42  66  96 133 174 232 272 322 399
#     4  12  21  44  72  96 134 178 224 277 333 401
#     4  11  23  38  62  98 136 176 219 284 336 383
#     4  10  23  43  67  99 129 176 231 272 327 406
#
# _framework density 23.351548999999999
#
# number of rings (size 3 to 8) (size 9 to 14) (size 15 to 20)
#    0.750    0.250    5.000    2.250    0.000    1.500 
#    0.000    3.125    0.000    0.000    0.000    0.000 
#    0.000    0.000    0.000    0.000    0.000    0.000 
#
# Total GULP energy -89170.205270 kJ/mol
# GULP energy per Si atom -5573.137829 kJ/mol
# Density = 2.329840 g / cm^3
# Si number density = 23.351549 Si / 1000 Ang^3
#
#
#
# Elastic Constant Matrix: (Units=GPa)
#
#
# Indices 1 2 3 4 5 6 
#
# 1 132.5005 25.7519 46.5526 -6.4349 -0.4583 1.3658
# 2 25.7519 53.1117 15.2924 11.7828 -0.0006 5.8403
# 3 46.5526 15.2924 77.7463 -10.6256 9.2263 0.7792
# 4 -6.4349 11.7828 -10.6256 44.5431 -2.4639 -0.6919
# 5 -0.4583 -0.0006 9.2263 -2.4639 29.7267 -3.8169
# 6 1.3658 5.8403 0.7792 -0.6919 -3.8169 38.9408
#
#
#
# Elastic Compliance Matrix: (Units=1/GPa)
#
#
# Indices 1 2 3 4 5 6 
#
# 1 0.010264 -0.003743 -0.005481 0.001286 0.002034 0.000533
# 2 -0.003743 0.023723 -0.003432 -0.007694 -0.000079 -0.003502
# 3 -0.005481 -0.003432 0.018018 0.004117 -0.005349 -0.000105
# 4 0.001286 -0.007694 0.004117 0.025738 0.001079 0.001589
# 5 0.002034 -0.000079 -0.005349 0.001079 0.035881 0.003584
# 6 0.000533 -0.003502 -0.000105 0.001589 0.003584 0.026568
#
#
# Mechanical properties :
#
#
# Convention : Reuss Voigt Hill
#
# Bulk Modulus (GPa) = 37.46194 48.72802 43.09498
# Shear Modulus (GPa) = 28.66963 34.35957 31.51460
#
# Velocity S-wave (km/s) = 3.50771 3.84005 3.67764
# Velocity P-wave (km/s) = 5.69937 6.36975 6.04386
#
# Compressibility (1/GPa) = 0.02669376
#
# Stress axis : x y z
#
# Youngs Moduli (GPa) = 97.42662 42.15298 55.50114
#
# Poissons Ratio (x) = 0.15776 0.30419
# Poissons Ratio (y) = 0.36463 0.19049
# Poissons Ratio (z) = 0.53397 0.14468
#
# Static dielectric constant tensor:
#      x y z
#    x 2.031550 0.000700 -0.027380 
#    y 0.000700 1.949800 -0.046180 
#    z -0.027380 -0.046180 1.907050 
# 
# From -- ./inp_files/54880.got.cif
#   From: 2010.05.17/outbox.cif.g08.bks.cpg/sg2_28_cif.got.tgz:54880.got - 2010.06.03 11:33:40.
