data_PCOD9016729
_publ_section_title
;
Structure prediction by ZEFSAII (Michael W. Deem and Ramdas Pophale) SiO2 
 PCOD9016729
Probable space group: P -1
;
_chemical_formula_sum "Si O2"
_cell_formula_units_Z 15
_cell_length_a 13.291438
_cell_length_b 18.344776
_cell_length_c 10.192509
_cell_angle_alpha 136.790385
_cell_angle_beta 148.503298
_cell_angle_gamma 27.444824
_cell_volume 594.409938
_symmetry_space_group_name_H-M "P -1"
_symmetry_group_IT_number 2
_symmetry_cell_setting 'triclinic'
loop_
_space_group_symop_operation_xyz
x,y,z
-x,-y,-z
loop_
_atom_site_type_symbol
_atom_site_label
_atom_site_fract_x
_atom_site_fract_y
_atom_site_fract_z
Si Si1 0.000000 0.000000 0.500000
Si Si2 0.712981 0.842108 0.615996
Si Si3 0.940759 0.211237 0.546021
Si Si4 0.158927 0.242043 0.079535
Si Si5 0.998446 0.345509 0.557277
Si Si6 0.389725 0.393461 0.040849
Si Si7 0.560137 0.282431 0.557383
Si Si8 0.708867 0.180155 0.871185
O O1 0.984710 0.943062 0.551091
O O2 0.216763 0.818473 0.445654
O O3 0.759637 0.863684 0.843786
O O4 0.972906 0.706548 0.629065
O O5 0.546268 0.800745 0.399877
O O6 0.500000 0.000000 0.500000
O O7 0.594831 0.353593 0.330219
O O8 0.055878 0.225458 0.563294
O O9 0.105333 0.204780 0.836164
O O10 0.383234 0.244056 0.305284
O O11 0.865818 0.421195 0.029645
O O12 0.688709 0.525661 0.478170
O O13 0.238057 0.341741 0.835662
O O14 0.597265 0.296339 0.019485
O O15 0.714432 0.231815 0.803403
O O16 0.000000 0.000000 0.000000
#
# Coordination Sequence:
#
# PCOD9016729 Si02
#       8
#     1   2   2   2   2   2   2   2
#     4  12  30  44  66 104 150 186 244 290 360 428
#     4  10  23  44  73 107 140 188 238 297 362 428
#     4  12  28  46  72 107 146 193 237 297 356 437
#     4  10  24  45  76 103 144 189 239 297 365 428
#     4  10  25  47  78 102 146 189 243 298 360 423
#     4  10  23  45  74 107 142 185 240 296 357 431
#     4  10  24  47  71 105 144 194 243 299 360 427
#     4  10  21  42  69 101 146 187 233 302 362 418
#
# _framework density 25.235109000000001
#
# number of rings (size 3 to 8) (size 9 to 14) (size 15 to 20)
#    0.000    1.600    0.000    2.000   11.200    8.000 
#    0.000    1.333    0.000    0.000    0.000    0.000 
#    0.000    0.000    0.000    0.000    0.000    0.000 
#
# Total GULP energy -83714.149195 kJ/mol
# GULP energy per Si atom -5580.943280 kJ/mol
# Density = 2.517767 g / cm^3
# Si number density = 25.235109 Si / 1000 Ang^3
#
#
#
# Elastic Constant Matrix: (Units=GPa)
#
#
# Indices 1 2 3 4 5 6 
#
# 1 117.0388 17.2075 34.0305 -8.3210 -14.1249 10.5915
# 2 17.2075 87.9218 -3.4037 -22.3529 -11.6425 -24.4019
# 3 34.0305 -3.4037 119.9560 -6.9766 -19.2389 -0.1263
# 4 -8.3210 -22.3529 -6.9766 26.0076 3.3007 -2.6590
# 5 -14.1249 -11.6425 -19.2389 3.3007 43.2690 4.0064
# 6 10.5915 -24.4019 -0.1263 -2.6590 4.0064 48.4023
#
#
#
# Elastic Compliance Matrix: (Units=1/GPa)
#
#
# Indices 1 2 3 4 5 6 
#
# 1 0.010360 -0.003284 -0.002817 -0.000900 0.001696 -0.004120
# 2 -0.003284 0.020457 0.003116 0.018146 0.003345 0.011760
# 3 -0.002817 0.003116 0.010095 0.004209 0.003890 0.002123
# 4 -0.000900 0.018146 0.004209 0.056017 0.001043 0.012347
# 5 0.001696 0.003345 0.003890 0.001043 0.026288 -0.000793
# 6 -0.004120 0.011760 0.002123 0.012347 -0.000793 0.028240
#
#
# Mechanical properties :
#
#
# Convention : Reuss Voigt Hill
#
# Bulk Modulus (GPa) = 28.61877 46.73169 37.67523
# Shear Modulus (GPa) = 29.57289 42.00794 35.79041
#
# Velocity S-wave (km/s) = 3.42701 4.08445 3.77009
# Velocity P-wave (km/s) = 5.19852 6.38768 5.82353
#
# Compressibility (1/GPa) = 0.03494211
#
# Stress axis : x y z
#
# Youngs Moduli (GPa) = 96.52923 48.88219 99.06088
#
# Poissons Ratio (x) = 0.16055 0.27904
# Poissons Ratio (y) = 0.31704 -0.30871
# Poissons Ratio (z) = 0.27191 -0.15234
#
# Static dielectric constant tensor:
#      x y z
#    x 1.863930 -0.006510 0.037740 
#    y -0.006510 2.067990 0.026880 
#    z 0.037740 0.026880 2.059350 
# 
# From -- ./inp_files/280013.got.cif
#   From: 2010.05.17/outbox.cif.g08.bks.cpg/sg2_141_cif.got.tgz:280013.got - 2010.06.03 11:33:40.
