data_PCOD9016131
_publ_section_title
;
Structure prediction by ZEFSAII (Michael W. Deem and Ramdas Pophale) SiO2 
 PCOD9016131
Probable space group: P -1
;
_chemical_formula_sum "Si O2"
_cell_formula_units_Z 13
_cell_length_a 10.893110
_cell_length_b 11.101151
_cell_length_c 5.064392
_cell_angle_alpha 84.893400
_cell_angle_beta 84.783846
_cell_angle_gamma 52.308559
_cell_volume 482.173484
_symmetry_space_group_name_H-M "P -1"
_symmetry_group_IT_number 2
_symmetry_cell_setting 'triclinic'
loop_
_space_group_symop_operation_xyz
x,y,z
-x,-y,-z
loop_
_atom_site_type_symbol
_atom_site_label
_atom_site_fract_x
_atom_site_fract_y
_atom_site_fract_z
Si Si1 0.231052 0.627712 0.941957
Si Si2 0.701566 0.839290 0.242776
Si Si3 0.631624 0.226587 0.801817
Si Si4 0.557395 0.813364 0.761072
Si Si5 0.955974 0.945138 0.767759
Si Si6 0.975211 0.430018 0.766892
Si Si7 0.500000 0.500000 0.500000
O O1 0.363389 0.535955 0.718453
O O2 0.071909 0.762780 0.800325
O O3 0.295617 0.691660 0.114258
O O4 0.184975 0.542990 0.153077
O O5 0.650517 0.765398 0.476834
O O6 0.884512 0.749933 0.246691
O O7 0.598194 0.015711 0.299124
O O8 0.660291 0.825056 0.955943
O O9 0.570532 0.315667 0.521120
O O10 0.769456 0.046641 0.782570
O O11 0.506949 0.255308 0.029752
O O12 0.000000 0.000000 0.500000
O O13 0.000000 0.000000 0.000000
O O14 0.000000 0.500000 0.500000
O O15 0.000000 0.500000 0.000000
#
# Coordination Sequence:
#
# PCOD9016131 Si02
#       7
#     2   2   2   2   2   2   1
#     4  11  27  46  68 104 140 178 240 282 347 417
#     4  10  23  46  66 106 132 184 230 280 330 414
#     4  11  25  42  71 104 136 182 221 295 349 404
#     4  10  23  42  76  98 139 172 232 286 342 396
#     4  10  21  42  66  96 133 176 219 272 338 404
#     4  12  29  46  71  96 140 191 228 280 340 416
#     4  12  26  42  70 104 146 178 222 292 352 422
#
# _framework density 26.961248999999999
#
# number of rings (size 3 to 8) (size 9 to 14) (size 15 to 20)
#    0.000    1.231    1.538    2.308    8.615    0.000 
#    0.000    4.615    0.000    0.000    0.000    0.000 
#    0.000    0.000    0.000    0.000    0.000    0.000 
#
# Total GULP energy -72601.098612 kJ/mol
# GULP energy per Si atom -5584.699893 kJ/mol
# Density = 2.689988 g / cm^3
# Si number density = 26.961249 Si / 1000 Ang^3
#
#
#
# Elastic Constant Matrix: (Units=GPa)
#
#
# Indices 1 2 3 4 5 6 
#
# 1 76.3623 6.0801 49.4885 4.2415 -41.0739 7.4367
# 2 6.0801 85.6074 33.3319 2.0477 -31.9067 -23.7013
# 3 49.4885 33.3319 218.0802 -12.7686 -36.1889 -7.1158
# 4 4.2415 2.0477 -12.7686 48.0055 8.3641 -21.0757
# 5 -41.0739 -31.9067 -36.1889 8.3641 62.3657 8.6471
# 6 7.4367 -23.7013 -7.1158 -21.0757 8.6471 33.9814
#
#
#
# Elastic Compliance Matrix: (Units=1/GPa)
#
#
# Indices 1 2 3 4 5 6 
#
# 1 0.036544 0.003380 -0.006218 -0.022547 0.029142 -0.028342
# 2 0.003380 0.018226 -0.001645 0.001402 0.008992 0.010210
# 3 -0.006218 -0.001645 0.006271 0.005140 -0.002738 0.005411
# 4 -0.022547 0.001402 0.005140 0.046479 -0.023166 0.041710
# 5 0.029142 0.008992 -0.002738 -0.023166 0.045021 -0.026503
# 6 -0.028342 0.010210 0.005411 0.041710 -0.026503 0.076497
#
#
# Mechanical properties :
#
#
# Convention : Reuss Voigt Hill
#
# Bulk Modulus (GPa) = 19.20354 61.98343 40.59348
# Shear Modulus (GPa) = 19.57992 48.28049 33.93020
#
# Velocity S-wave (km/s) = 2.69778 4.23630 3.55136
# Velocity P-wave (km/s) = 4.10392 6.85332 5.64846
#
# Compressibility (1/GPa) = 0.05207373
#
# Stress axis : x y z
#
# Youngs Moduli (GPa) = 27.36448 54.86528 159.45712
#
# Poissons Ratio (x) = -0.18543 0.99156
# Poissons Ratio (y) = -0.09249 0.26236
# Poissons Ratio (z) = 0.17016 0.09027
#
# Static dielectric constant tensor:
#      x y z
#    x 2.326750 -0.095800 0.148830 
#    y -0.095800 2.308350 -0.167800 
#    z 0.148830 -0.167800 2.140490 
# 
# From -- ./inp_files/62850.got.cif
#   From: 2010.05.17/outbox.cif.g08.bks.cpg/sg2_32_cif.got.tgz:62850.got - 2010.06.03 11:33:40.
