data_PCOD9016856
_publ_section_title
;
Structure prediction by ZEFSAII (Michael W. Deem and Ramdas Pophale) SiO2 
 PCOD9016856
Probable space group: P -1
;
_chemical_formula_sum "Si O2"
_cell_formula_units_Z 16
_cell_length_a 12.063681
_cell_length_b 8.856537
_cell_length_c 9.798257
_cell_angle_alpha 95.488378
_cell_angle_beta 101.982104
_cell_angle_gamma 52.276492
_cell_volume 809.337694
_symmetry_space_group_name_H-M "P -1"
_symmetry_group_IT_number 2
_symmetry_cell_setting 'triclinic'
loop_
_space_group_symop_operation_xyz
x,y,z
-x,-y,-z
loop_
_atom_site_type_symbol
_atom_site_label
_atom_site_fract_x
_atom_site_fract_y
_atom_site_fract_z
Si Si1 0.835607 0.808973 0.816831
Si Si2 0.109133 0.487448 0.417136
Si Si3 0.378807 0.538222 0.068397
Si Si4 0.398744 0.169103 0.100629
Si Si5 0.439286 0.205176 0.440963
Si Si6 0.922658 0.152968 0.109662
Si Si7 0.047315 0.878033 0.367284
Si Si8 0.658419 0.224070 0.661864
O O1 0.873186 0.640198 0.714360
O O2 0.746411 0.812484 0.920188
O O3 0.987621 0.765969 0.862529
O O4 0.730049 0.019245 0.738006
O O5 0.280825 0.367226 0.479079
O O6 0.045123 0.700084 0.372351
O O7 0.000000 0.500000 0.500000
O O8 0.378537 0.357399 0.063620
O O9 0.394113 0.615120 0.222469
O O10 0.500000 0.500000 0.000000
O O11 0.235255 0.698903 0.967979
O O12 0.440403 0.168294 0.273409
O O13 0.500000 0.000000 0.000000
O O14 0.543704 0.253825 0.526751
O O15 0.500000 0.000000 0.500000
O O16 0.947717 0.032112 0.239207
O O17 0.000000 0.000000 0.000000
O O18 0.209194 0.796377 0.372753
O O19 0.000000 0.000000 0.500000
#
# Coordination Sequence:
#
# PCOD9016856 Si02
#       8
#     2   2   2   2   2   2   2   2
#     4  10  21  42  69  96 139 177 225 286 338 406
#     4  11  23  43  68 105 140 173 229 290 340 410
#     4  12  27  45  70 104 144 182 234 289 346 417
#     4  11  25  46  68 106 144 178 232 290 345 415
#     4  11  24  43  77 100 137 188 225 286 361 400
#     4  11  24  46  72  94 135 190 224 277 354 406
#     4  11  25  44  70 102 142 177 235 285 342 413
#     4  11  21  45  68 102 141 182 229 288 337 419
#
# _framework density 19.769251000000001
#
# number of rings (size 3 to 8) (size 9 to 14) (size 15 to 20)
#    0.000    1.000    5.000    3.750    0.000    5.500 
#    0.000    0.000    0.000    0.000    0.000    0.000 
#    0.000    0.000    0.000    0.000    0.000    0.000 
#
# Total GULP energy -89159.894873 kJ/mol
# GULP energy per Si atom -5572.493430 kJ/mol
# Density = 1.972425 g / cm^3
# Si number density = 19.769251 Si / 1000 Ang^3
#
#
#
# Elastic Constant Matrix: (Units=GPa)
#
#
# Indices 1 2 3 4 5 6 
#
# 1 111.1351 57.6701 37.3028 -9.7454 -12.4429 6.9895
# 2 57.6701 131.0205 61.9752 12.6260 -14.3921 11.3956
# 3 37.3028 61.9752 113.0952 7.3753 -16.0554 -4.2650
# 4 -9.7454 12.6260 7.3753 39.9671 -3.3858 0.3759
# 5 -12.4429 -14.3921 -16.0554 -3.3858 47.4832 0.5744
# 6 6.9895 11.3956 -4.2650 0.3759 0.5744 43.9238
#
#
#
# Elastic Compliance Matrix: (Units=1/GPa)
#
#
# Indices 1 2 3 4 5 6 
#
# 1 0.012916 -0.005189 -0.001555 0.005226 0.001670 -0.000927
# 2 -0.005189 0.013147 -0.005241 -0.004374 0.000578 -0.003064
# 3 -0.001555 -0.005241 0.012705 -0.000908 0.002201 0.002820
# 4 0.005226 -0.004374 -0.000908 0.027991 0.001733 -0.000047
# 5 0.001670 0.000578 0.002201 0.001733 0.022547 -0.000512
# 6 -0.000927 -0.003064 0.002820 -0.000047 -0.000512 0.023990
#
#
# Mechanical properties :
#
#
# Convention : Reuss Voigt Hill
#
# Bulk Modulus (GPa) = 67.57976 74.34967 70.96471
# Shear Modulus (GPa) = 35.16149 39.49500 37.32825
#
# Velocity S-wave (km/s) = 4.22191 4.47452 4.35005
# Velocity P-wave (km/s) = 7.61739 8.02406 7.82337
#
# Compressibility (1/GPa) = 0.01479733
#
# Stress axis : x y z
#
# Youngs Moduli (GPa) = 77.42118 76.06215 78.70734
#
# Poissons Ratio (x) = 0.39470 0.12242
# Poissons Ratio (y) = 0.40175 0.41252
# Poissons Ratio (z) = 0.12042 0.39866
#
# Static dielectric constant tensor:
#      x y z
#    x 1.783530 -0.002290 0.045040 
#    y -0.002290 1.674190 -0.018760 
#    z 0.045040 -0.018760 1.694250 
# 
# From -- ./inp_files/244027.got.cif
#   From: 2010.05.17/outbox.cif.g08.bks.cpg/sg2_123_cif.got.tgz:244027.got - 2010.06.03 11:33:40.
