data_PCOD9016088
_publ_section_title
;
Structure prediction by ZEFSAII (Michael W. Deem and Ramdas Pophale) SiO2 
 PCOD9016088
Probable space group: P -1
;
_chemical_formula_sum "Si O2"
_cell_formula_units_Z 14
_cell_length_a 12.536219
_cell_length_b 8.046813
_cell_length_c 13.394905
_cell_angle_alpha 130.504928
_cell_angle_beta 141.523432
_cell_angle_gamma 37.570831
_cell_volume 511.126295
_symmetry_space_group_name_H-M "P -1"
_symmetry_group_IT_number 2
_symmetry_cell_setting 'triclinic'
loop_
_space_group_symop_operation_xyz
x,y,z
-x,-y,-z
loop_
_atom_site_type_symbol
_atom_site_label
_atom_site_fract_x
_atom_site_fract_y
_atom_site_fract_z
Si Si1 0.943532 0.684107 0.810374
Si Si2 0.090898 0.634908 0.182013
Si Si3 0.411493 0.848775 0.153478
Si Si4 0.057194 0.036657 0.442887
Si Si5 0.738741 0.651577 0.472049
Si Si6 0.457885 0.625300 0.680370
Si Si7 0.544475 0.688418 0.978004
O O1 0.871078 0.513480 0.742394
O O2 0.829403 0.773719 0.655009
O O3 0.830559 0.944996 0.902346
O O4 0.198555 0.479503 0.907601
O O5 0.298603 0.552219 0.243708
O O6 0.000000 0.500000 0.000000
O O7 0.576236 0.851184 0.345801
O O8 0.482017 0.546547 0.105752
O O9 0.022798 0.057986 0.742295
O O10 0.444390 0.886905 0.077462
O O11 0.945881 0.354149 0.472137
O O12 0.000000 0.000000 0.500000
O O13 0.311687 0.821610 0.559221
O O14 0.608415 0.565718 0.405964
O O15 0.442343 0.790476 0.833389
#
# Coordination Sequence:
#
# PCOD9016088 Si02
#       7
#     2   2   2   2   2   2   2
#     4  12  23  42  66 103 135 172 230 282 327 409
#     4  12  24  40  66 104 137 171 225 276 343 400
#     4  10  24  46  68  94 133 181 230 276 340 389
#     4  10  21  42  66  94 137 179 214 273 341 401
#     4  10  23  45  67  94 135 177 228 271 335 408
#     4  10  21  42  67  96 135 176 216 274 342 400
#     4  10  23  45  67  98 134 178 227 279 338 396
#
# _framework density 27.39049
#
# number of rings (size 3 to 8) (size 9 to 14) (size 15 to 20)
#    0.000    1.429    4.286    1.286    0.000    6.286 
#    5.143    4.286    0.000    0.000    0.000    0.000 
#    0.000    0.000    0.000    0.000    0.000    0.000 
#
# Total GULP energy -78388.737475 kJ/mol
# GULP energy per Si atom -5599.195534 kJ/mol
# Density = 2.732815 g / cm^3
# Si number density = 27.390490 Si / 1000 Ang^3
#
#
#
# Elastic Constant Matrix: (Units=GPa)
#
#
# Indices 1 2 3 4 5 6 
#
# 1 108.2192 27.6491 64.4912 9.5296 -7.0247 -14.0749
# 2 27.6491 85.0709 16.7902 5.3117 -9.4636 -14.9937
# 3 64.4912 16.7902 193.1442 14.1108 -4.7939 -23.5157
# 4 9.5296 5.3117 14.1108 31.9266 -14.1272 -10.4619
# 5 -7.0247 -9.4636 -4.7939 -14.1272 29.6416 1.9083
# 6 -14.0749 -14.9937 -23.5157 -10.4619 1.9083 57.8278
#
#
#
# Elastic Compliance Matrix: (Units=1/GPa)
#
#
# Indices 1 2 3 4 5 6 
#
# 1 0.012461 -0.003065 -0.003738 -0.001013 0.000855 0.000507
# 2 -0.003065 0.013607 0.000206 0.001350 0.004103 0.002975
# 3 -0.003738 0.000206 0.006706 -0.001632 -0.000616 0.001596
# 4 -0.001013 0.001350 -0.001632 0.043162 0.020074 0.006586
# 5 0.000855 0.004103 -0.000616 0.020074 0.044511 0.003184
# 6 0.000507 0.002975 0.001596 0.006586 0.003184 0.019923
#
#
# Mechanical properties :
#
#
# Convention : Reuss Voigt Hill
#
# Bulk Modulus (GPa) = 51.06948 67.14392 59.10670
# Shear Modulus (GPa) = 31.23247 42.37944 36.80596
#
# Velocity S-wave (km/s) = 3.38045 3.93775 3.66970
# Velocity P-wave (km/s) = 5.82426 6.72617 6.29140
#
# Compressibility (1/GPa) = 0.01958116
#
# Stress axis : x y z
#
# Youngs Moduli (GPa) = 80.24728 73.49270 149.12527
#
# Poissons Ratio (x) = 0.22524 0.55736
# Poissons Ratio (y) = 0.24594 -0.03070
# Poissons Ratio (z) = 0.29992 -0.01513
#
# Static dielectric constant tensor:
#      x y z
#    x 2.165760 -0.043920 0.010860 
#    y -0.043920 2.177650 0.023890 
#    z 0.010860 0.023890 2.211090 
# 
# From -- ./inp_files/443389.got.cif
#   From: 2010.05.17/outbox.cif.g08.bks.cpg/sg2_222_cif.got.tgz:443389.got - 2010.06.03 11:33:40.
