data_PCOD9016789
_publ_section_title
;
Structure prediction by ZEFSAII (Michael W. Deem and Ramdas Pophale) SiO2 
 PCOD9016789
Probable space group: P -1
;
_chemical_formula_sum "Si O2"
_cell_formula_units_Z 16
_cell_length_a 6.531483
_cell_length_b 22.269432
_cell_length_c 6.064097
_cell_angle_alpha 48.915440
_cell_angle_beta 69.360143
_cell_angle_gamma 86.093315
_cell_volume 605.206918
_symmetry_space_group_name_H-M "P -1"
_symmetry_group_IT_number 2
_symmetry_cell_setting 'triclinic'
loop_
_space_group_symop_operation_xyz
x,y,z
-x,-y,-z
loop_
_atom_site_type_symbol
_atom_site_label
_atom_site_fract_x
_atom_site_fract_y
_atom_site_fract_z
Si Si1 0.691359 0.494119 0.121585
Si Si2 0.547348 0.627944 0.109822
Si Si3 0.517824 0.881755 0.723249
Si Si4 0.252271 0.004883 0.302620
Si Si5 0.010425 0.883817 0.375834
Si Si6 0.101902 0.765510 0.284666
Si Si7 0.103978 0.279353 0.947925
Si Si8 0.847019 0.374625 0.058622
O O1 0.713241 0.577468 0.051742
O O2 0.596617 0.427219 0.509260
O O3 0.862833 0.458070 0.988827
O O4 0.500000 0.500000 0.000000
O O5 0.688198 0.704586 0.004448
O O6 0.388359 0.643873 0.937756
O O7 0.382146 0.943748 0.519947
O O8 0.753278 0.888875 0.492335
O O9 0.598955 0.907807 0.883117
O O10 0.339018 0.795635 0.999491
O O11 0.189350 0.966364 0.177524
O O12 0.000000 0.000000 0.500000
O O13 0.054696 0.847047 0.215131
O O14 0.036820 0.810315 0.708787
O O15 0.139263 0.698610 0.605003
O O16 0.894163 0.728189 0.294847
O O17 0.012080 0.360691 0.833570
#
# Coordination Sequence:
#
# PCOD9016789 Si02
#       8
#     2   2   2   2   2   2   2   2
#     4   9  20  41  67  96 126 173 229 267 330 407
#     4  10  22  42  66  92 134 175 216 282 332 391
#     4  10  21  42  69  92 135 182 214 284 338 384
#     4   9  19  42  68  96 135 171 226 282 328 394
#     4  10  23  41  63  98 134 172 226 274 332 406
#     4  11  24  43  65 102 135 177 232 272 336 412
#     4  11  24  41  61  97 135 169 218 280 328 401
#     4  10  23  42  64  95 131 171 225 278 330 401
#
# _framework density 26.437237
#
# number of rings (size 3 to 8) (size 9 to 14) (size 15 to 20)
#    0.000    2.000    1.250    0.750    3.500    5.000 
#    2.250   14.375    0.000    0.000    0.000    0.000 
#    0.000    0.000    0.000    0.000    0.000    0.000 
#
# Total GULP energy -89390.579948 kJ/mol
# GULP energy per Si atom -5586.911247 kJ/mol
# Density = 2.637706 g / cm^3
# Si number density = 26.437237 Si / 1000 Ang^3
#
#
#
# Elastic Constant Matrix: (Units=GPa)
#
#
# Indices 1 2 3 4 5 6 
#
# 1 119.5628 77.3733 17.0667 19.9571 9.5205 3.5314
# 2 77.3733 164.9408 23.9636 32.3516 15.3652 14.3336
# 3 17.0667 23.9636 79.1613 -2.5162 10.4698 13.3383
# 4 19.9571 32.3516 -2.5162 35.6564 6.0645 -3.9052
# 5 9.5205 15.3652 10.4698 6.0645 27.6959 8.0845
# 6 3.5314 14.3336 13.3383 -3.9052 8.0845 69.6502
#
#
#
# Elastic Compliance Matrix: (Units=1/GPa)
#
#
# Indices 1 2 3 4 5 6 
#
# 1 0.012252 -0.005166 -0.001165 -0.002077 -0.000632 0.000622
# 2 -0.005166 0.010297 -0.001741 -0.006536 -0.001341 -0.001734
# 3 -0.001165 -0.001741 0.014391 0.003827 -0.004442 -0.001608
# 4 -0.002077 -0.006536 0.003827 0.036846 -0.006197 0.003503
# 5 -0.000632 -0.001341 -0.004442 -0.006197 0.041265 -0.003979
# 6 0.000622 -0.001734 -0.001608 0.003503 -0.003979 0.015649
#
#
# Mechanical properties :
#
#
# Convention : Reuss Voigt Hill
#
# Bulk Modulus (GPa) = 48.08828 66.71914 57.40371
# Shear Modulus (GPa) = 32.51508 42.95126 37.73317
#
# Velocity S-wave (km/s) = 3.51079 4.03507 3.78203
# Velocity P-wave (km/s) = 5.88756 6.85570 6.38999
#
# Compressibility (1/GPa) = 0.02079509
#
# Stress axis : x y z
#
# Youngs Moduli (GPa) = 81.62153 97.11940 69.48858
#
# Poissons Ratio (x) = 0.50170 0.08094
# Poissons Ratio (y) = 0.42164 0.12101
# Poissons Ratio (z) = 0.09507 0.16913
#
# Static dielectric constant tensor:
#      x y z
#    x 2.131000 -0.021010 -0.037350 
#    y -0.021010 2.122370 0.061260 
#    z -0.037350 0.061260 2.078660 
# 
# From -- ./inp_files/12738.got.cif
#   From: 2010.05.17/outbox.cif.g08.bks.cpg/sg2_7_cif.got.tgz:12738.got - 2010.06.03 11:33:40.
