data_PCOD9016713
_publ_section_title
;
Structure prediction by ZEFSAII (Michael W. Deem and Ramdas Pophale) SiO2 
 PCOD9016713
Probable space group: P -1
;
_chemical_formula_sum "Si O2"
_cell_formula_units_Z 14
_cell_length_a 6.058740
_cell_length_b 8.936460
_cell_length_c 17.243334
_cell_angle_alpha 123.292903
_cell_angle_beta 109.407626
_cell_angle_gamma 106.266330
_cell_volume 596.080401
_symmetry_space_group_name_H-M "P -1"
_symmetry_group_IT_number 2
_symmetry_cell_setting 'triclinic'
loop_
_space_group_symop_operation_xyz
x,y,z
-x,-y,-z
loop_
_atom_site_type_symbol
_atom_site_label
_atom_site_fract_x
_atom_site_fract_y
_atom_site_fract_z
Si Si1 0.976319 0.224979 0.374076
Si Si2 0.266787 0.766437 0.366956
Si Si3 0.682725 0.196930 0.800544
Si Si4 0.734330 0.610563 0.992270
Si Si5 0.238203 0.024167 0.973910
Si Si6 0.249307 0.343173 0.291830
Si Si7 0.154317 0.448895 0.616646
O O1 0.980312 0.426421 0.394766
O O2 0.215278 0.254357 0.351110
O O3 0.085471 0.281024 0.490817
O O4 0.647075 0.005487 0.273089
O O5 0.269065 0.801346 0.285549
O O6 0.317532 0.580798 0.343734
O O7 0.969580 0.671554 0.350991
O O8 0.500000 0.000000 0.500000
O O9 0.727248 0.425843 0.890495
O O10 0.940760 0.219285 0.886389
O O11 0.500000 0.500000 0.000000
O O12 0.626629 0.729943 0.965871
O O13 0.046261 0.843660 0.834677
O O14 0.500000 0.000000 0.000000
O O15 0.000000 0.000000 0.000000
O O16 0.510909 0.359247 0.286871
#
# Coordination Sequence:
#
# PCOD9016713 Si02
#       7
#     2   2   2   2   2   2   2
#     4  10  21  42  69 100 140 186 242 304 366 453
#     4  11  24  44  67 105 146 191 239 306 380 458
#     4  11  24  45  74 108 151 192 248 314 385 451
#     4  11  27  47  76 109 146 197 257 316 386 451
#     4  12  30  50  79 112 152 201 260 320 385 457
#     4  11  25  43  70  99 142 191 248 303 375 448
#     4  10  22  42  68  99 140 189 244 297 371 452
#
# _framework density 23.486761999999999
#
# number of rings (size 3 to 8) (size 9 to 14) (size 15 to 20)
#    0.000    1.143    1.429    3.000   12.000    1.714 
#    5.143    0.000    0.000    0.000    0.000    0.000 
#    0.000    0.000    0.000    0.000    0.000    0.000 
#
# Total GULP energy -78114.248822 kJ/mol
# GULP energy per Si atom -5579.589202 kJ/mol
# Density = 2.343331 g / cm^3
# Si number density = 23.486762 Si / 1000 Ang^3
#
#
#
# Elastic Constant Matrix: (Units=GPa)
#
#
# Indices 1 2 3 4 5 6 
#
# 1 97.4520 37.9009 8.5817 -12.3897 5.0713 18.6152
# 2 37.9009 85.9336 7.8129 -4.9210 -15.9945 30.0451
# 3 8.5817 7.8129 95.4312 -3.7704 -6.0103 7.9798
# 4 -12.3897 -4.9210 -3.7704 24.9472 4.5599 -1.1270
# 5 5.0713 -15.9945 -6.0103 4.5599 39.0878 3.5288
# 6 18.6152 30.0451 7.9798 -1.1270 3.5288 58.1492
#
#
#
# Elastic Compliance Matrix: (Units=1/GPa)
#
#
# Indices 1 2 3 4 5 6 
#
# 1 0.014104 -0.006576 -0.000761 0.006545 -0.005351 -0.000561
# 2 -0.006576 0.019185 0.000276 -0.001595 0.009696 -0.008465
# 3 -0.000761 0.000276 0.010803 0.000895 0.001902 -0.001480
# 4 0.006545 -0.001595 0.000895 0.044342 -0.006524 -0.000139
# 5 -0.005351 0.009696 0.001902 -0.006524 0.031806 -0.005615
# 6 -0.000561 -0.008465 -0.001480 -0.000139 -0.005615 0.022292
#
#
# Mechanical properties :
#
#
# Convention : Reuss Voigt Hill
#
# Bulk Modulus (GPa) = 33.36699 43.04532 38.20615
# Shear Modulus (GPa) = 30.00394 39.40491 34.70442
#
# Velocity S-wave (km/s) = 3.57807 4.10048 3.84815
# Velocity P-wave (km/s) = 5.59532 6.38638 6.00389
#
# Compressibility (1/GPa) = 0.02996974
#
# Stress axis : x y z
#
# Youngs Moduli (GPa) = 70.90265 52.12348 92.56276
#
# Poissons Ratio (x) = 0.34277 0.07048
# Poissons Ratio (y) = 0.46627 -0.02556
# Poissons Ratio (z) = 0.05398 -0.01439
#
# Static dielectric constant tensor:
#      x y z
#    x 2.887040 -0.101970 -0.072320 
#    y -0.101970 1.854180 -0.083930 
#    z -0.072320 -0.083930 1.896250 
# 
# From -- ./inp_files/107159.got.cif
#   From: 2010.05.17/outbox.cif.g08.bks.cpg/sg2_54_cif.got.tgz:107159.got - 2010.06.03 11:33:40.
