data_PCOD9016147
_publ_section_title
;
Structure prediction by ZEFSAII (Michael W. Deem and Ramdas Pophale) SiO2 
 PCOD9016147
Probable space group: P -1
;
_chemical_formula_sum "Si O2"
_cell_formula_units_Z 14
_cell_length_a 18.070299
_cell_length_b 6.809485
_cell_length_c 7.765330
_cell_angle_alpha 62.053831
_cell_angle_beta 133.398387
_cell_angle_gamma 109.820327
_cell_volume 613.096870
_symmetry_space_group_name_H-M "P -1"
_symmetry_group_IT_number 2
_symmetry_cell_setting 'triclinic'
loop_
_space_group_symop_operation_xyz
x,y,z
-x,-y,-z
loop_
_atom_site_type_symbol
_atom_site_label
_atom_site_fract_x
_atom_site_fract_y
_atom_site_fract_z
Si Si1 0.877059 0.789364 0.424042
Si Si2 0.480665 0.814209 0.801341
Si Si3 0.899998 0.988053 0.733458
Si Si4 0.673201 0.568308 0.313683
Si Si5 0.445912 0.285143 0.425286
Si Si6 0.239461 0.356055 0.202082
Si Si7 0.906403 0.283139 0.322687
O O1 0.768742 0.663580 0.316345
O O2 0.971265 0.695516 0.508380
O O3 0.914398 0.810782 0.674196
O O4 0.871408 0.053018 0.260606
O O5 0.382011 0.658289 0.748990
O O6 0.509028 0.759438 0.671032
O O7 0.461285 0.073954 0.660265
O O8 0.580470 0.741133 0.093347
O O9 0.880515 0.213730 0.506208
O O10 0.807026 0.888483 0.733547
O O11 0.000000 0.000000 0.000000
O O12 0.713274 0.550092 0.581585
O O13 0.500000 0.500000 0.500000
O O14 0.327265 0.334423 0.212287
O O15 0.152171 0.513202 0.930150
#
# Coordination Sequence:
#
# PCOD9016147 Si02
#       7
#     2   2   2   2   2   2   2
#     4   8  19  40  63  91 126 179 207 270 332 378
#     4  10  24  45  64  99 131 171 228 275 330 401
#     4   9  20  39  57  93 130 164 221 263 319 393
#     4  10  21  42  66  97 129 172 231 271 329 398
#     4  11  24  43  67  96 131 176 219 278 336 393
#     4  11  23  41  65  96 130 180 214 270 346 380
#     4   9  20  40  62  91 128 171 218 263 324 396
#
# _framework density 22.834892
#
# number of rings (size 3 to 8) (size 9 to 14) (size 15 to 20)
#    0.857    1.429    1.429    0.000    2.000    4.571 
#   10.286    0.000    0.000    0.000    0.000    0.000 
#    0.000    0.000    0.000    0.000    0.000    0.000 
#
# Total GULP energy -78211.323009 kJ/mol
# GULP energy per Si atom -5586.523072 kJ/mol
# Density = 2.278292 g / cm^3
# Si number density = 22.834892 Si / 1000 Ang^3
#
#
#
# Elastic Constant Matrix: (Units=GPa)
#
#
# Indices 1 2 3 4 5 6 
#
# 1 99.5330 62.5367 22.4789 7.0834 21.9677 39.0178
# 2 62.5367 112.1420 50.7216 -3.8535 13.8429 25.4345
# 3 22.4789 50.7216 132.0626 -3.9997 1.1634 11.5502
# 4 7.0834 -3.8535 -3.9997 33.6328 2.0599 6.8252
# 5 21.9677 13.8429 1.1634 2.0599 27.8546 7.5498
# 6 39.0178 25.4345 11.5502 6.8252 7.5498 40.9194
#
#
#
# Elastic Compliance Matrix: (Units=1/GPa)
#
#
# Indices 1 2 3 4 5 6 
#
# 1 0.023891 -0.009071 0.000758 -0.002296 -0.010100 -0.015110
# 2 -0.009071 0.016438 -0.004598 0.003440 -0.000894 -0.000679
# 3 0.000758 -0.004598 0.009285 0.000498 0.001491 -0.000844
# 4 -0.002296 0.003440 0.000498 0.031784 -0.000852 -0.005234
# 5 -0.010100 -0.000894 0.001491 -0.000852 0.043817 0.001823
# 6 -0.015110 -0.000679 -0.000844 -0.005234 0.001823 0.040043
#
#
# Mechanical properties :
#
#
# Convention : Reuss Voigt Hill
#
# Bulk Modulus (GPa) = 42.03047 68.35686 55.19367
# Shear Modulus (GPa) = 25.12456 34.34806 29.73631
#
# Velocity S-wave (km/s) = 3.32063 3.88260 3.61256
# Velocity P-wave (km/s) = 5.75746 7.07811 6.45167
#
# Compressibility (1/GPa) = 0.02379226
#
# Stress axis : x y z
#
# Youngs Moduli (GPa) = 41.85742 60.83531 107.70325
#
# Poissons Ratio (x) = 0.55183 -0.08167
# Poissons Ratio (y) = 0.37968 0.49521
# Poissons Ratio (z) = -0.03174 0.27971
#
# Static dielectric constant tensor:
#      x y z
#    x 1.905080 0.046430 -0.010310 
#    y 0.046430 1.957100 0.072890 
#    z -0.010310 0.072890 1.856620 
# 
# From -- ./inp_files/90257.got.cif
#   From: 2010.05.17/outbox.cif.g08.bks.cpg/sg2_46_cif.got.tgz:90257.got - 2010.06.03 11:33:40.
