data_PCOD9016947
_publ_section_title
;
Structure prediction by ZEFSAII (Michael W. Deem and Ramdas Pophale) SiO2 
 PCOD9016947
Probable space group: P -1
;
_chemical_formula_sum "Si O2"
_cell_formula_units_Z 16
_cell_length_a 5.186074
_cell_length_b 29.021228
_cell_length_c 7.107645
_cell_angle_alpha 136.805334
_cell_angle_beta 104.558859
_cell_angle_gamma 86.870723
_cell_volume 695.211352
_symmetry_space_group_name_H-M "P -1"
_symmetry_group_IT_number 2
_symmetry_cell_setting 'triclinic'
loop_
_space_group_symop_operation_xyz
x,y,z
-x,-y,-z
loop_
_atom_site_type_symbol
_atom_site_label
_atom_site_fract_x
_atom_site_fract_y
_atom_site_fract_z
Si Si1 0.439363 0.919611 0.312122
Si Si2 0.777102 0.422480 0.353438
Si Si3 0.497570 0.227706 0.280952
Si Si4 0.928102 0.860042 0.864409
Si Si5 0.888133 0.221528 0.644774
Si Si6 0.482910 0.727279 0.995824
Si Si7 0.610633 0.506358 0.253884
Si Si8 0.708127 0.953422 0.845559
O O1 0.595296 0.917119 0.526262
O O2 0.500000 0.000000 0.500000
O O3 0.498866 0.851489 0.014399
O O4 0.112872 0.900931 0.181082
O O5 0.654611 0.345643 0.162826
O O6 0.691055 0.440249 0.178233
O O7 0.628443 0.470225 0.600681
O O8 0.101372 0.440176 0.504527
O O9 0.213970 0.213782 0.300489
O O10 0.731650 0.255529 0.555354
O O11 0.527485 0.270093 0.223277
O O12 0.723001 0.903541 0.872697
O O13 0.087126 0.848849 0.666645
O O14 0.696743 0.221602 0.790864
O O15 0.198281 0.254676 0.843180
O O16 0.500000 0.500000 0.000000
O O17 0.500000 0.000000 0.000000
O O18 0.000000 0.000000 0.000000
#
# Coordination Sequence:
#
# PCOD9016947 Si02
#       8
#     2   2   2   2   2   2   2   2
#     4  11  24  43  68  95 130 172 221 284 353 419
#     4  10  23  41  67 107 139 186 238 278 332 408
#     4  11  27  44  69 100 136 179 230 285 350 427
#     4  11  25  47  70  96 138 172 229 285 352 430
#     4  11  26  46  67  98 136 184 230 284 346 411
#     4  12  26  45  73 101 146 184 232 289 344 403
#     4  10  21  42  70 102 147 186 231 283 337 386
#     4  12  27  42  66  97 126 165 214 277 350 422
#
# _framework density 23.014582999999998
#
# number of rings (size 3 to 8) (size 9 to 14) (size 15 to 20)
#    0.000    1.000    2.500    2.625    7.000    3.000 
#    0.000    0.000    0.000    0.000    0.000    0.000 
#    0.000    0.000    0.000    0.000    0.000    0.000 
#
# Total GULP energy -89305.269320 kJ/mol
# GULP energy per Si atom -5581.579332 kJ/mol
# Density = 2.296220 g / cm^3
# Si number density = 23.014583 Si / 1000 Ang^3
#
#
#
# Elastic Constant Matrix: (Units=GPa)
#
#
# Indices 1 2 3 4 5 6 
#
# 1 112.6962 21.8808 18.7844 -12.0562 27.4297 14.2030
# 2 21.8808 126.7728 31.9332 -19.1992 19.9901 16.2047
# 3 18.7844 31.9332 48.1653 -38.9147 18.1359 -5.3434
# 4 -12.0562 -19.1992 -38.9147 44.8128 -6.9076 2.2950
# 5 27.4297 19.9901 18.1359 -6.9076 45.9745 -1.7114
# 6 14.2030 16.2047 -5.3434 2.2950 -1.7114 25.1684
#
#
#
# Elastic Compliance Matrix: (Units=1/GPa)
#
#
# Indices 1 2 3 4 5 6 
#
# 1 0.011985 0.001122 -0.004979 -0.001116 -0.006172 -0.008861
# 2 0.001122 0.011958 -0.014564 -0.006906 -0.001567 -0.010901
# 3 -0.004979 -0.014564 0.111980 0.085039 -0.021096 0.026772
# 4 -0.001116 -0.006906 0.085039 0.089745 -0.015877 0.013867
# 5 -0.006172 -0.001567 -0.021096 -0.015877 0.032187 0.003650
# 6 -0.008861 -0.010901 0.026772 0.013867 0.003650 0.056419
#
#
# Mechanical properties :
#
#
# Convention : Reuss Voigt Hill
#
# Bulk Modulus (GPa) = 10.09279 48.09235 29.09257
# Shear Modulus (GPa) = 13.01599 37.52689 25.27144
#
# Velocity S-wave (km/s) = 2.38072 4.04241 3.31730
# Velocity P-wave (km/s) = 3.45717 6.53682 5.22886
#
# Compressibility (1/GPa) = 0.09908065
#
# Stress axis : x y z
#
# Youngs Moduli (GPa) = 83.43763 83.62747 8.93020
#
# Poissons Ratio (x) = -0.09387 0.04446
# Poissons Ratio (y) = -0.09366 0.13006
# Poissons Ratio (z) = 0.41544 1.21797
#
# Static dielectric constant tensor:
#      x y z
#    x 1.985570 -0.073770 0.052610 
#    y -0.073770 1.778970 0.119870 
#    z 0.052610 0.119870 1.756680 
# 
# From -- ./inp_files/15039.got.cif
#   From: 2010.05.17/outbox.cif.g08.bks.cpg/sg2_8_cif.got.tgz:15039.got - 2010.06.03 11:33:40.
