data_PCOD9016246
_publ_section_title
;
Structure prediction by ZEFSAII (Michael W. Deem and Ramdas Pophale) SiO2 
 PCOD9016246
Probable space group: P -1
;
_chemical_formula_sum "Si O2"
_cell_formula_units_Z 14
_cell_length_a 9.066590
_cell_length_b 17.523241
_cell_length_c 23.595346
_cell_angle_alpha 19.580733
_cell_angle_beta 35.899831
_cell_angle_gamma 29.061179
_cell_volume 608.149637
_symmetry_space_group_name_H-M "P -1"
_symmetry_group_IT_number 2
_symmetry_cell_setting 'triclinic'
loop_
_space_group_symop_operation_xyz
x,y,z
-x,-y,-z
loop_
_atom_site_type_symbol
_atom_site_label
_atom_site_fract_x
_atom_site_fract_y
_atom_site_fract_z
Si Si1 0.266014 0.510353 0.521336
Si Si2 0.919320 0.804128 0.325207
Si Si3 0.619549 0.675124 0.816114
Si Si4 0.926920 0.577823 0.680839
Si Si5 0.839478 0.030363 0.968775
Si Si6 0.217739 0.874639 0.438198
Si Si7 0.205239 0.571798 0.760639
O O1 0.500000 0.500000 0.500000
O O2 0.480678 0.219806 0.625201
O O3 0.156453 0.741391 0.346084
O O4 0.965214 0.579570 0.599650
O O5 0.000000 0.500000 0.500000
O O6 0.983358 0.927389 0.165427
O O7 0.590809 0.024721 0.299913
O O8 0.631559 0.680799 0.739667
O O9 0.963696 0.536483 0.827834
O O10 0.500000 0.500000 0.000000
O O11 0.044455 0.758914 0.540834
O O12 0.139417 0.249245 0.854751
O O13 0.495359 0.295823 0.887522
O O14 0.000000 0.000000 0.000000
O O15 0.299285 0.715350 0.584510
O O16 0.989316 0.196673 0.293684
#
# Coordination Sequence:
#
# PCOD9016246 Si02
#       7
#     2   2   2   2   2   2   2
#     4  10  21  42  67 104 135 181 239 290 350 424
#     4  12  25  44  72  97 145 191 235 294 358 430
#     4  11  24  44  69 107 140 184 234 295 364 419
#     4  10  23  43  67 101 145 175 239 291 357 419
#     4  12  26  46  68 107 146 190 238 296 363 429
#     4   9  19  41  73 105 130 183 241 292 356 419
#     4  10  22  42  73 102 141 185 242 291 353 428
#
# _framework density 23.02065
#
# number of rings (size 3 to 8) (size 9 to 14) (size 15 to 20)
#    0.000    1.429    2.857    1.714    4.000    5.143 
#    5.143    2.857    0.000    0.000    0.000    0.000 
#    0.000    0.000    0.000    0.000    0.000    0.000 
#
# Total GULP energy -78177.615724 kJ/mol
# GULP energy per Si atom -5584.115409 kJ/mol
# Density = 2.296825 g / cm^3
# Si number density = 23.020650 Si / 1000 Ang^3
#
#
#
# Elastic Constant Matrix: (Units=GPa)
#
#
# Indices 1 2 3 4 5 6 
#
# 1 79.8854 39.9409 28.4646 -6.5243 11.4208 0.0409
# 2 39.9409 164.0143 33.4987 -2.2547 13.3504 34.1656
# 3 28.4646 33.4987 78.2106 -2.3126 -1.6875 8.8980
# 4 -6.5243 -2.2547 -2.3126 54.6431 3.2811 4.1379
# 5 11.4208 13.3504 -1.6875 3.2811 41.2342 1.2507
# 6 0.0409 34.1656 8.8980 4.1379 1.2507 47.0500
#
#
#
# Elastic Compliance Matrix: (Units=1/GPa)
#
#
# Indices 1 2 3 4 5 6 
#
# 1 0.016713 -0.003395 -0.005049 0.001625 -0.003968 0.003368
# 2 -0.003395 0.008691 -0.001836 0.000434 -0.001803 -0.005951
# 3 -0.005049 -0.001836 0.015659 -0.000049 0.002689 -0.001691
# 4 0.001625 0.000434 -0.000049 0.018777 -0.002029 -0.001905
# 5 -0.003968 -0.001803 0.002689 -0.002029 0.026197 0.000286
# 6 0.003368 -0.005951 -0.001691 -0.001905 0.000286 0.026052
#
#
# Mechanical properties :
#
#
# Convention : Reuss Voigt Hill
#
# Bulk Modulus (GPa) = 48.77428 58.43540 53.60484
# Shear Modulus (GPa) = 35.84659 43.26588 39.55623
#
# Velocity S-wave (km/s) = 3.95035 4.33995 4.14973
# Velocity P-wave (km/s) = 6.48384 7.11003 6.80415
#
# Compressibility (1/GPa) = 0.02050261
#
# Stress axis : x y z
#
# Youngs Moduli (GPa) = 59.83477 115.05934 63.86121
#
# Poissons Ratio (x) = 0.39062 0.32245
# Poissons Ratio (y) = 0.20313 0.11725
# Poissons Ratio (z) = 0.30212 0.21124
#
# Static dielectric constant tensor:
#      x y z
#    x 1.968080 0.030410 0.005730 
#    y 0.030410 1.937330 0.024910 
#    z 0.005730 0.024910 1.819240 
# 
# From -- ./inp_files/608432.got.cif
#   From: 2010.05.17/outbox.cif.g08.bks.cpg/sg2_305_cif.got.tgz:608432.got - 2010.06.03 11:33:40.
