data_PCOD9016282
_publ_section_title
;
Structure prediction by ZEFSAII (Michael W. Deem and Ramdas Pophale) SiO2 
 PCOD9016282
Probable space group: P -1
;
_chemical_formula_sum "Si O2"
_cell_formula_units_Z 14
_cell_length_a 8.430988
_cell_length_b 21.607264
_cell_length_c 22.267150
_cell_angle_alpha 19.171134
_cell_angle_beta 147.286748
_cell_angle_gamma 147.429643
_cell_volume 693.070124
_symmetry_space_group_name_H-M "P -1"
_symmetry_group_IT_number 2
_symmetry_cell_setting 'triclinic'
loop_
_space_group_symop_operation_xyz
x,y,z
-x,-y,-z
loop_
_atom_site_type_symbol
_atom_site_label
_atom_site_fract_x
_atom_site_fract_y
_atom_site_fract_z
Si Si1 0.342418 0.050738 0.040352
Si Si2 0.347829 0.274186 0.586542
Si Si3 0.550926 0.285606 0.778376
Si Si4 0.254589 0.288356 0.007033
Si Si5 0.651050 0.317542 0.996777
Si Si6 0.654538 0.041525 0.575945
Si Si7 0.694325 0.675227 0.755465
O O1 0.476742 0.865522 0.261090
O O2 0.372414 0.117323 0.919934
O O3 0.547208 0.231432 0.978226
O O4 0.000000 0.000000 0.000000
O O5 0.413475 0.262596 0.689214
O O6 0.459525 0.501132 0.397220
O O7 0.988842 0.189052 0.540624
O O8 0.904784 0.285324 0.890865
O O9 0.301737 0.151833 0.201051
O O10 0.387701 0.221009 0.049661
O O11 0.469006 0.510627 0.876751
O O12 0.693761 0.550125 0.808766
O O13 0.966939 0.276435 0.154708
O O14 0.445822 0.142801 0.457380
O O15 0.500000 0.000000 0.500000
#
# Coordination Sequence:
#
# PCOD9016282 Si02
#       7
#     2   2   2   2   2   2   2
#     4  12  25  40  66  97 129 164 217 265 317 380
#     4  11  24  44  65  97 128 163 220 262 318 378
#     4  11  24  43  70  93 126 173 210 266 321 372
#     4  10  21  42  67  91 125 172 204 261 322 364
#     4   9  21  44  61  92 133 169 206 257 323 377
#     4  12  24  37  67  98 122 165 219 259 311 379
#     4   9  21  42  61  91 129 168 202 259 314 377
#
# _framework density 20.199975999999999
#
# number of rings (size 3 to 8) (size 9 to 14) (size 15 to 20)
#    0.857    0.571    2.857    2.143    2.000    2.857 
#    2.571    0.000    0.000    0.000    0.000    0.000 
#    0.000    0.000    0.000    0.000    0.000    0.000 
#
# Total GULP energy -78171.915819 kJ/mol
# GULP energy per Si atom -5583.708273 kJ/mol
# Density = 2.015400 g / cm^3
# Si number density = 20.199976 Si / 1000 Ang^3
#
#
#
# Elastic Constant Matrix: (Units=GPa)
#
#
# Indices 1 2 3 4 5 6 
#
# 1 48.8942 22.1478 10.9305 4.7989 29.5027 18.2964
# 2 22.1478 94.4126 33.6020 11.9899 20.8830 -1.7593
# 3 10.9305 33.6020 86.0309 -0.8058 26.9610 -3.0102
# 4 4.7989 11.9899 -0.8058 20.0510 10.3476 1.3292
# 5 29.5027 20.8830 26.9610 10.3476 35.7404 4.7765
# 6 18.2964 -1.7593 -3.0102 1.3292 4.7765 34.6645
#
#
#
# Elastic Compliance Matrix: (Units=1/GPa)
#
#
# Indices 1 2 3 4 5 6 
#
# 1 0.071297 -0.011333 0.016135 0.027653 -0.068613 -0.028412
# 2 -0.011333 0.015519 -0.007126 -0.011476 0.008256 0.005453
# 3 0.016135 -0.007126 0.021821 0.017031 -0.030081 -0.003491
# 4 0.027653 -0.011476 0.017031 0.077270 -0.050035 -0.009768
# 5 -0.068613 0.008256 -0.030081 -0.050035 0.114272 0.020194
# 6 -0.028412 0.005453 -0.003491 -0.009768 0.020194 0.041409
#
#
# Mechanical properties :
#
#
# Convention : Reuss Voigt Hill
#
# Bulk Modulus (GPa) = 9.61622 40.29981 24.95801
# Shear Modulus (GPa) = 13.12683 28.93501 21.03092
#
# Velocity S-wave (km/s) = 2.55197 3.78885 3.23016
# Velocity P-wave (km/s) = 3.66800 6.25574 5.12779
#
# Compressibility (1/GPa) = 0.10399099
#
# Stress axis : x y z
#
# Youngs Moduli (GPa) = 14.02579 64.43628 45.82717
#
# Poissons Ratio (x) = 0.73023 -0.73942
# Poissons Ratio (y) = 0.15895 0.32655
# Poissons Ratio (z) = -0.22631 0.45915
#
# Static dielectric constant tensor:
#      x y z
#    x 1.721950 -0.027210 0.016060 
#    y -0.027210 1.708750 -0.041030 
#    z 0.016060 -0.041030 1.717130 
# 
# From -- ./inp_files/591776.got.cif
#   From: 2010.05.17/outbox.cif.g08.bks.cpg/sg2_296_cif.got.tgz:591776.got - 2010.06.03 11:33:40.
