data_PCOD9016966
_publ_section_title
;
Structure prediction by ZEFSAII (Michael W. Deem and Ramdas Pophale) SiO2 
 PCOD9016966
Probable space group: P -1
;
_chemical_formula_sum "Si O2"
_cell_formula_units_Z 16
_cell_length_a 5.382927
_cell_length_b 8.104595
_cell_length_c 23.148702
_cell_angle_alpha 123.593365
_cell_angle_beta 114.249202
_cell_angle_gamma 60.484505
_cell_volume 718.643738
_symmetry_space_group_name_H-M "P -1"
_symmetry_group_IT_number 2
_symmetry_cell_setting 'triclinic'
loop_
_space_group_symop_operation_xyz
x,y,z
-x,-y,-z
loop_
_atom_site_type_symbol
_atom_site_label
_atom_site_fract_x
_atom_site_fract_y
_atom_site_fract_z
Si Si1 0.868090 0.410505 0.714795
Si Si2 0.968620 0.444764 0.352515
Si Si3 0.512852 0.258854 0.797344
Si Si4 0.263745 0.087125 0.544626
Si Si5 0.720395 0.002935 0.663716
Si Si6 0.548589 0.351910 0.198327
Si Si7 0.768256 0.953354 0.061248
Si Si8 0.561832 0.265223 0.938474
O O1 0.819158 0.491642 0.659999
O O2 0.723806 0.621918 0.781136
O O3 0.196318 0.317995 0.750660
O O4 0.776076 0.204209 0.678149
O O5 0.074773 0.240795 0.364187
O O6 0.837721 0.659190 0.417271
O O7 0.750979 0.403660 0.276283
O O8 0.594472 0.458142 0.823685
O O9 0.517884 0.241683 0.861969
O O10 0.704272 0.056560 0.740685
O O11 0.500000 0.000000 0.500000
O O12 0.421094 0.016122 0.607668
O O13 0.000000 0.000000 0.500000
O O14 0.714845 0.153939 0.136975
O O15 0.690494 0.793645 0.065348
O O16 0.089666 0.870050 0.047414
O O17 0.500000 0.000000 0.000000
O O18 0.500000 0.500000 0.000000
#
# Coordination Sequence:
#
# PCOD9016966 Si02
#       8
#     2   2   2   2   2   2   2   2
#     4  10  21  42  70 106 148 188 240 318 360 440
#     4  11  24  45  73 106 143 192 248 299 372 445
#     4  10  23  41  71 102 144 182 246 307 367 427
#     4  12  27  50  72 106 154 190 242 310 372 444
#     4  11  24  45  73 106 143 192 248 299 372 445
#     4  10  23  41  71 102 144 182 246 307 367 427
#     4  12  28  46  70 104 147 195 246 303 372 443
#     4  12  28  46  70 104 147 195 246 303 372 443
#
# _framework density 22.264161999999999
#
# number of rings (size 3 to 8) (size 9 to 14) (size 15 to 20)
#    0.000    1.000    3.750    3.000   12.250    1.000 
#    0.000    0.000    0.000    0.000    0.000    0.000 
#    0.000    0.000    0.000    0.000    0.000    0.000 
#
# Total GULP energy -89157.161583 kJ/mol
# GULP energy per Si atom -5572.322599 kJ/mol
# Density = 2.221349 g / cm^3
# Si number density = 22.264162 Si / 1000 Ang^3
#
#
#
# Elastic Constant Matrix: (Units=GPa)
#
#
# Indices 1 2 3 4 5 6 
#
# 1 58.2840 1.2521 12.6738 10.8117 -6.2740 -4.2498
# 2 1.2521 80.0315 23.7727 23.7242 -0.9630 -8.2221
# 3 12.6738 23.7727 99.0695 26.0237 -5.7076 -1.7664
# 4 10.8117 23.7242 26.0237 50.3453 -8.4460 -12.4166
# 5 -6.2740 -0.9630 -5.7076 -8.4460 29.8623 -0.4602
# 6 -4.2498 -8.2221 -1.7664 -12.4166 -0.4602 30.8637
#
#
#
# Elastic Compliance Matrix: (Units=1/GPa)
#
#
# Indices 1 2 3 4 5 6 
#
# 1 0.018450 0.001256 -0.001744 -0.002756 0.002830 0.001709
# 2 0.001256 0.015084 -0.002240 -0.006052 -0.001365 0.001608
# 3 -0.001744 -0.002240 0.012256 -0.005418 0.000336 -0.002310
# 4 -0.002756 -0.006052 -0.005418 0.029632 0.006721 0.009719
# 5 0.002830 -0.001365 0.000336 0.006721 0.036053 0.003287
# 6 0.001709 0.001608 -0.002310 0.009719 0.003287 0.036891
#
#
# Mechanical properties :
#
#
# Convention : Reuss Voigt Hill
#
# Bulk Modulus (GPa) = 24.79349 34.75358 29.77353
# Shear Modulus (GPa) = 29.89219 35.52668 32.70943
#
# Velocity S-wave (km/s) = 3.66815 3.99894 3.83711
# Velocity P-wave (km/s) = 5.39450 6.07993 5.74744
#
# Compressibility (1/GPa) = 0.04033317
#
# Stress axis : x y z
#
# Youngs Moduli (GPa) = 54.19995 66.29672 81.59181
#
# Poissons Ratio (x) = -0.08328 0.14231
# Poissons Ratio (y) = -0.06808 0.18280
# Poissons Ratio (z) = 0.09453 0.14853
#
# Static dielectric constant tensor:
#      x y z
#    x 2.092520 -0.143480 -0.055650 
#    y -0.143480 1.891710 0.111840 
#    z -0.055650 0.111840 1.864070 
# 
# From -- ./inp_files/604081.got.cif
#   From: 2010.05.17/outbox.cif.g08.bks.cpg/sg2_303_cif.got.tgz:604081.got - 2010.06.03 11:33:40.
