data_PCOD9016921
_publ_section_title
;
Structure prediction by ZEFSAII (Michael W. Deem and Ramdas Pophale) SiO2 
 PCOD9016921
Probable space group: P -1
;
_chemical_formula_sum "Si O2"
_cell_formula_units_Z 13
_cell_length_a 11.982647
_cell_length_b 15.147636
_cell_length_c 12.860788
_cell_angle_alpha 37.377024
_cell_angle_beta 32.374178
_cell_angle_gamma 27.135912
_cell_volume 561.162002
_symmetry_space_group_name_H-M "P -1"
_symmetry_group_IT_number 2
_symmetry_cell_setting 'triclinic'
loop_
_space_group_symop_operation_xyz
x,y,z
-x,-y,-z
loop_
_atom_site_type_symbol
_atom_site_label
_atom_site_fract_x
_atom_site_fract_y
_atom_site_fract_z
Si Si1 0.795154 0.246967 0.064629
Si Si2 0.748754 0.192302 0.579537
Si Si3 0.500000 0.000000 0.000000
Si Si4 0.583944 0.011952 0.164203
Si Si5 0.531415 0.646353 0.979663
Si Si6 0.665235 0.436301 0.589223
Si Si7 0.265695 0.357660 0.499338
O O1 0.761589 0.434247 0.942942
O O2 0.545826 0.287245 0.287029
O O3 0.728255 0.248752 0.995060
O O4 0.106973 0.058228 0.028355
O O5 0.842858 0.252471 0.543769
O O6 0.581607 0.374484 0.461527
O O7 0.555890 0.152140 0.811615
O O8 0.000000 0.000000 0.500000
O O9 0.478169 0.014852 0.131963
O O10 0.651861 0.841265 0.341783
O O11 0.406078 0.216063 0.174462
O O12 0.465139 0.604407 0.181235
O O13 0.797285 0.508422 0.478942
O O14 0.000000 0.500000 0.500000
#
# Coordination Sequence:
#
# PCOD9016921 Si02
#       7
#     2   2   1   2   2   2   2
#     4  10  24  45  70  97 136 184 218 276 355 395
#     4  11  25  48  69  97 137 181 228 279 342 398
#     4  12  26  44  70 108 130 176 242 276 324 416
#     4  12  24  45  68  99 142 174 228 289 327 403
#     4  10  21  42  70 100 131 177 224 277 342 401
#     4  10  22  44  70  98 138 178 220 285 340 396
#     4  11  24  45  70 104 138 175 232 279 333 414
#
# _framework density 23.166215999999999
#
# number of rings (size 3 to 8) (size 9 to 14) (size 15 to 20)
#    0.000    1.231    3.077    3.231    4.308    0.615 
#    5.538    5.385    0.000    0.000    0.000    0.000 
#    0.000    0.000    0.000    0.000    0.000    0.000 
#
# Total GULP energy -72452.638082 kJ/mol
# GULP energy per Si atom -5573.279852 kJ/mol
# Density = 2.311349 g / cm^3
# Si number density = 23.166216 Si / 1000 Ang^3
#
#
#
# Elastic Constant Matrix: (Units=GPa)
#
#
# Indices 1 2 3 4 5 6 
#
# 1 149.0827 37.7152 43.0055 -13.0657 13.7350 40.8315
# 2 37.7152 94.8858 54.1279 -15.7187 3.7514 27.7408
# 3 43.0055 54.1279 136.5722 -29.4793 6.2505 7.2992
# 4 -13.0657 -15.7187 -29.4793 41.3127 0.9559 -10.4463
# 5 13.7350 3.7514 6.2505 0.9559 36.2687 -3.2201
# 6 40.8315 27.7408 7.2992 -10.4463 -3.2201 33.6107
#
#
#
# Elastic Compliance Matrix: (Units=1/GPa)
#
#
# Indices 1 2 3 4 5 6 
#
# 1 0.012390 0.002365 -0.004172 -0.002426 -0.005699 -0.017398
# 2 0.002365 0.018892 -0.007545 -0.001852 -0.003072 -0.017697
# 3 -0.004172 -0.007545 0.012631 0.007582 0.000960 0.011001
# 4 -0.002426 -0.001852 0.007582 0.031321 0.000094 0.012573
# 5 -0.005699 -0.003072 0.000960 0.000094 0.030967 0.012246
# 6 -0.017398 -0.017697 0.011001 0.012573 0.012246 0.068186
#
#
# Mechanical properties :
#
#
# Convention : Reuss Voigt Hill
#
# Bulk Modulus (GPa) = 39.66959 72.24868 55.95914
# Shear Modulus (GPa) = 24.81457 38.61789 31.71623
#
# Velocity S-wave (km/s) = 3.27640 4.08731 3.70411
# Velocity P-wave (km/s) = 5.61018 7.31639 6.51935
#
# Compressibility (1/GPa) = 0.02520822
#
# Stress axis : x y z
#
# Youngs Moduli (GPa) = 80.70825 52.93320 79.17007
#
# Poissons Ratio (x) = -0.12518 0.33029
# Poissons Ratio (y) = -0.19086 0.59737
# Poissons Ratio (z) = 0.33670 0.39940
#
# Static dielectric constant tensor:
#      x y z
#    x 1.868120 0.000290 -0.038250 
#    y 0.000290 1.854430 0.017530 
#    z -0.038250 0.017530 1.884690 
# 
# From -- ./inp_files/430886.got.cif
#   From: 2010.05.17/outbox.cif.g08.bks.cpg/sg2_216_cif.got.tgz:430886.got - 2010.06.03 11:33:40.
