data_PCOD9016158
_publ_section_title
;
Structure prediction by ZEFSAII (Michael W. Deem and Ramdas Pophale) SiO2 
 PCOD9016158
Probable space group: P -1
;
_chemical_formula_sum "Si O2"
_cell_formula_units_Z 16
_cell_length_a 7.812439
_cell_length_b 20.237009
_cell_length_c 11.876890
_cell_angle_alpha 147.815749
_cell_angle_beta 115.078137
_cell_angle_gamma 44.334155
_cell_volume 610.225391
_symmetry_space_group_name_H-M "P -1"
_symmetry_group_IT_number 2
_symmetry_cell_setting 'triclinic'
loop_
_space_group_symop_operation_xyz
x,y,z
-x,-y,-z
loop_
_atom_site_type_symbol
_atom_site_label
_atom_site_fract_x
_atom_site_fract_y
_atom_site_fract_z
Si Si1 0.679595 0.734828 0.491538
Si Si2 0.410857 0.524032 0.641606
Si Si3 0.295441 0.952362 0.274947
Si Si4 0.175331 0.285331 0.250877
Si Si5 0.882961 0.357736 0.692558
Si Si6 0.292210 0.012481 0.604914
Si Si7 0.790274 0.418156 0.998549
Si Si8 0.672350 0.157079 0.104515
O O1 0.710503 0.780784 0.686664
O O2 0.912794 0.680770 0.396956
O O3 0.393426 0.893963 0.573135
O O4 0.749947 0.555833 0.263447
O O5 0.500000 0.500000 0.500000
O O6 0.582399 0.505660 0.762488
O O7 0.535673 0.323445 0.388814
O O8 0.076222 0.690411 0.800510
O O9 0.512161 0.961348 0.326907
O O10 0.314536 0.916381 0.360584
O O11 0.344892 0.823924 0.009152
O O12 0.997794 0.162580 0.467117
O O13 0.451488 0.151641 0.057234
O O14 0.000000 0.500000 0.500000
O O15 0.910464 0.404640 0.891070
O O16 0.987201 0.219769 0.820535
O O17 0.500000 0.500000 0.000000
O O18 0.000000 0.000000 0.000000
#
# Coordination Sequence:
#
# PCOD9016158 Si02
#       8
#     2   2   2   2   2   2   2   2
#     4  11  23  46  70  97 136 180 231 287 347 410
#     4  11  22  40  63  97 133 174 224 285 338 405
#     4   9  19  40  66  96 130 171 226 281 341 405
#     4  10  25  41  68  98 135 186 226 285 344 411
#     4  10  21  42  66  97 135 172 230 284 339 416
#     4   9  22  41  68  98 131 173 226 289 336 407
#     4  11  26  40  70 101 134 182 223 283 355 412
#     4  11  23  40  68  94 132 185 224 275 347 410
#
# _framework density 26.219822000000001
#
# number of rings (size 3 to 8) (size 9 to 14) (size 15 to 20)
#    0.000    1.750    2.500    1.125    7.000    1.500 
#    0.000    6.875    0.000    0.000    0.000    0.000 
#    0.000    0.000    0.000    0.000    0.000    0.000 
#
# Total GULP energy -89499.433600 kJ/mol
# GULP energy per Si atom -5593.714600 kJ/mol
# Density = 2.616014 g / cm^3
# Si number density = 26.219822 Si / 1000 Ang^3
#
#
#
# Elastic Constant Matrix: (Units=GPa)
#
#
# Indices 1 2 3 4 5 6 
#
# 1 66.0496 33.7688 14.7836 16.1856 -30.5919 -6.8756
# 2 33.7688 184.2525 63.3734 -9.4381 -28.0149 -16.6252
# 3 14.7836 63.3734 91.4130 -8.0618 -14.3813 -4.2657
# 4 16.1856 -9.4381 -8.0618 41.1879 -9.9630 -12.3013
# 5 -30.5919 -28.0149 -14.3813 -9.9630 34.8266 5.6050
# 6 -6.8756 -16.6252 -4.2657 -12.3013 5.6050 36.0391
#
#
#
# Elastic Compliance Matrix: (Units=1/GPa)
#
#
# Indices 1 2 3 4 5 6 
#
# 1 0.027301 -0.002287 -0.000302 -0.006811 0.020287 -0.001362
# 2 -0.002287 0.008427 -0.004406 0.003920 0.003472 0.003728
# 3 -0.000302 -0.004406 0.014777 0.002783 0.003067 0.000131
# 4 -0.006811 0.003920 0.002783 0.033209 0.006011 0.011239
# 5 0.020287 0.003472 0.003067 0.006011 0.052355 -0.000255
# 6 -0.001362 0.003728 0.000131 0.011239 -0.000255 0.033099
#
#
# Mechanical properties :
#
#
# Convention : Reuss Voigt Hill
#
# Bulk Modulus (GPa) = 27.38698 62.84076 45.11387
# Shear Modulus (GPa) = 25.59771 37.73001 31.66386
#
# Velocity S-wave (km/s) = 3.12793 3.79751 3.47887
# Velocity P-wave (km/s) = 4.84903 6.57625 5.77755
#
# Compressibility (1/GPa) = 0.03651370
#
# Stress axis : x y z
#
# Youngs Moduli (GPa) = 36.62924 118.66409 67.67230
#
# Poissons Ratio (x) = 0.27134 0.02047
# Poissons Ratio (y) = 0.08376 0.29820
# Poissons Ratio (z) = 0.01108 0.52289
#
# Static dielectric constant tensor:
#      x y z
#    x 2.263170 0.008100 0.105260 
#    y 0.008100 2.019680 0.012510 
#    z 0.105260 0.012510 2.181590 
# 
# From -- ./inp_files/405605.got.cif
#   From: 2010.05.17/outbox.cif.g08.bks.cpg/sg2_203_cif.got.tgz:405605.got - 2010.06.03 11:33:40.
