data_PCOD9016906
_publ_section_title
;
Structure prediction by ZEFSAII (Michael W. Deem and Ramdas Pophale) SiO2 
 PCOD9016906
Probable space group: P -1
;
_chemical_formula_sum "Si O2"
_cell_formula_units_Z 16
_cell_length_a 8.981309
_cell_length_b 24.686642
_cell_length_c 24.480581
_cell_angle_alpha 168.226731
_cell_angle_beta 124.781958
_cell_angle_gamma 54.771478
_cell_volume 904.117941
_symmetry_space_group_name_H-M "P -1"
_symmetry_group_IT_number 2
_symmetry_cell_setting 'triclinic'
loop_
_space_group_symop_operation_xyz
x,y,z
-x,-y,-z
loop_
_atom_site_type_symbol
_atom_site_label
_atom_site_fract_x
_atom_site_fract_y
_atom_site_fract_z
Si Si1 0.795003 0.812530 0.125891
Si Si2 0.944752 0.724279 0.359994
Si Si3 0.512670 0.729917 0.078682
Si Si4 0.106498 0.610326 0.437058
Si Si5 0.582916 0.227298 0.276023
Si Si6 0.400592 0.257599 0.763499
Si Si7 0.729325 0.737882 0.442056
Si Si8 0.704106 0.943352 0.121220
O O1 0.676811 0.761585 0.103314
O O2 0.664196 0.879979 0.112437
O O3 0.927430 0.040817 0.387938
O O4 0.925309 0.549267 0.877273
O O5 0.809791 0.711751 0.268150
O O6 0.813840 0.750172 0.411163
O O7 0.572276 0.759663 0.183130
O O8 0.351338 0.965863 0.266033
O O9 0.432502 0.449066 0.777501
O O10 0.203445 0.718677 0.618322
O O11 0.141834 0.851712 0.641537
O O12 0.891419 0.608286 0.387481
O O13 0.216026 0.328939 0.162624
O O14 0.500000 0.500000 0.500000
O O15 0.555879 0.121095 0.228020
O O16 0.500000 0.000000 0.000000
O O17 0.500000 0.000000 0.500000
O O18 0.500000 0.500000 0.000000
#
# Coordination Sequence:
#
# PCOD9016906 Si02
#       8
#     2   2   2   2   2   2   2   2
#     4  12  24  40  57  91 117 155 193 249 298 348
#     4  12  22  38  66  78 116 157 198 245 302 348
#     4  12  26  39  59  86 122 147 202 250 297 347
#     4  10  19  30  57  84 111 145 196 224 282 338
#     4  10  17  30  51  88 122 142 178 241 283 321
#     4  12  23  39  60  86 111 153 202 245 300 352
#     4  12  21  40  61  87 110 161 195 248 284 344
#     4  10  18  32  53  82 116 146 185 230 285 341
#
# _framework density 17.696808000000001
#
# number of rings (size 3 to 8) (size 9 to 14) (size 15 to 20)
#    0.750    0.000    6.250    3.000    0.000    1.000 
#    0.000    0.000    0.000    0.000    0.000    5.250 
#    0.000    0.000    0.000    0.000    0.000    0.000 
#
# Total GULP energy -89077.571709 kJ/mol
# GULP energy per Si atom -5567.348232 kJ/mol
# Density = 1.765653 g / cm^3
# Si number density = 17.696808 Si / 1000 Ang^3
#
#
#
# Elastic Constant Matrix: (Units=GPa)
#
#
# Indices 1 2 3 4 5 6 
#
# 1 144.9386 -31.5320 73.3334 17.0613 13.5218 -0.6602
# 2 -31.5320 138.5293 -28.2829 -21.6465 17.9768 12.1448
# 3 73.3334 -28.2829 148.7679 14.4379 15.4014 0.1837
# 4 17.0613 -21.6465 14.4379 32.4349 -8.0582 0.2918
# 5 13.5218 17.9768 15.4014 -8.0582 23.2119 1.7507
# 6 -0.6602 12.1448 0.1837 0.2918 1.7507 17.6552
#
#
#
# Elastic Compliance Matrix: (Units=1/GPa)
#
#
# Indices 1 2 3 4 5 6 
#
# 1 0.010199 0.001761 -0.003636 -0.004141 -0.006323 -0.000097
# 2 0.001761 0.010043 0.001621 0.003030 -0.008369 -0.006080
# 3 -0.003636 0.001621 0.009803 -0.003013 -0.006639 -0.000645
# 4 -0.004141 0.003030 -0.003013 0.040504 0.016466 -0.004510
# 5 -0.006323 -0.008369 -0.006639 0.016466 0.063441 -0.000973
# 6 -0.000097 -0.006080 -0.000645 -0.004510 -0.000973 0.060997
#
#
# Mechanical properties :
#
#
# Convention : Reuss Voigt Hill
#
# Bulk Modulus (GPa) = 33.85558 51.03034 42.44296
# Shear Modulus (GPa) = 24.34978 42.57490 33.46234
#
# Velocity S-wave (km/s) = 3.71339 4.91021 4.35313
# Velocity P-wave (km/s) = 6.12847 7.81316 7.02152
#
# Compressibility (1/GPa) = 0.02953723
#
# Stress axis : x y z
#
# Youngs Moduli (GPa) = 98.04577 99.57154 102.01008
#
# Poissons Ratio (x) = -0.17536 0.37093
# Poissons Ratio (y) = -0.17267 -0.16536
# Poissons Ratio (z) = 0.35651 -0.16141
#
# Static dielectric constant tensor:
#      x y z
#    x 1.580670 0.003560 0.006240 
#    y 0.003560 1.671200 0.001930 
#    z 0.006240 0.001930 1.605140 
# 
# From -- ./inp_files/617715.got.cif
#   From: 2010.05.17/outbox.cif.g08.bks.cpg/sg2_309_cif.got.tgz:617715.got - 2010.06.03 11:33:40.
