data_PCOD9016505
_publ_section_title
;
Structure prediction by ZEFSAII (Michael W. Deem and Ramdas Pophale) SiO2 
 PCOD9016505
Probable space group: P -1
;
_chemical_formula_sum "Si O2"
_cell_formula_units_Z 13
_cell_length_a 9.021897
_cell_length_b 12.686550
_cell_length_c 9.896962
_cell_angle_alpha 126.623194
_cell_angle_beta 131.065789
_cell_angle_gamma 88.766420
_cell_volume 542.062401
_symmetry_space_group_name_H-M "P -1"
_symmetry_group_IT_number 2
_symmetry_cell_setting 'triclinic'
loop_
_space_group_symop_operation_xyz
x,y,z
-x,-y,-z
loop_
_atom_site_type_symbol
_atom_site_label
_atom_site_fract_x
_atom_site_fract_y
_atom_site_fract_z
Si Si1 0.915925 0.356002 0.731548
Si Si2 0.465002 0.500739 0.139428
Si Si3 0.201219 0.828390 0.065546
Si Si4 0.452452 0.004833 0.821685
Si Si5 0.825526 0.477302 0.501367
Si Si6 0.319817 0.139896 0.520275
Si Si7 0.000000 0.000000 0.500000
O O1 0.692841 0.165253 0.485046
O O2 0.832627 0.376592 0.550822
O O3 0.170092 0.378384 0.891181
O O4 0.000000 0.500000 0.000000
O O5 0.584251 0.435560 0.251014
O O6 0.599740 0.697636 0.391911
O O7 0.500000 0.500000 0.000000
O O8 0.415602 0.817590 0.242165
O O9 0.282011 0.870477 0.991364
O O10 0.199850 0.970479 0.237213
O O11 0.943022 0.650126 0.781221
O O12 0.264016 0.047593 0.737732
O O13 0.500000 0.000000 0.000000
O O14 0.000000 0.500000 0.500000
O O15 0.134028 0.091140 0.496485
#
# Coordination Sequence:
#
# PCOD9016505 Si02
#       7
#     2   2   2   2   2   2   1
#     4  12  27  47  72 106 147 180 235 305 357 413
#     4  12  24  44  74  99 140 191 236 283 360 424
#     4  10  22  43  71 100 138 179 232 286 349 423
#     4  11  25  44  70 101 138 183 232 288 354 417
#     4  12  25  45  75 102 138 193 242 285 355 439
#     4  10  21  42  68 103 135 186 228 290 354 413
#     4  10  24  40  68  98 142 172 236 286 346 416
#
# _framework density 23.982479000000001
#
# number of rings (size 3 to 8) (size 9 to 14) (size 15 to 20)
#    0.000    0.923    3.077    2.769    6.462    4.923 
#    2.769    0.000    0.000    0.000    0.000    0.000 
#    0.000    0.000    0.000    0.000    0.000    0.000 
#
# Total GULP energy -72410.759424 kJ/mol
# GULP energy per Si atom -5570.058417 kJ/mol
# Density = 2.392789 g / cm^3
# Si number density = 23.982479 Si / 1000 Ang^3
#
#
#
# Elastic Constant Matrix: (Units=GPa)
#
#
# Indices 1 2 3 4 5 6 
#
# 1 70.2163 16.1163 14.3328 -8.4735 -2.3697 -8.1308
# 2 16.1163 89.2212 33.6160 -15.6330 3.0970 -7.9184
# 3 14.3328 33.6160 88.8148 10.1956 -10.8602 -17.3686
# 4 -8.4735 -15.6330 10.1956 55.4378 -1.4662 -2.0697
# 5 -2.3697 3.0970 -10.8602 -1.4662 27.3249 1.9637
# 6 -8.1308 -7.9184 -17.3686 -2.0697 1.9637 31.9800
#
#
#
# Elastic Compliance Matrix: (Units=1/GPa)
#
#
# Indices 1 2 3 4 5 6 
#
# 1 0.015558 -0.001611 -0.001509 0.002330 0.000853 0.002835
# 2 -0.001611 0.014986 -0.006424 0.005066 -0.004148 0.000395
# 3 -0.001509 -0.006424 0.016487 -0.004669 0.006448 0.006282
# 4 0.002330 0.005066 -0.004669 0.020678 -0.001170 0.000721
# 5 0.000853 -0.004148 0.006448 -0.001170 0.039628 0.000183
# 6 0.002835 0.000395 0.006282 0.000721 0.000183 0.035535
#
#
# Mechanical properties :
#
#
# Convention : Reuss Voigt Hill
#
# Bulk Modulus (GPa) = 35.78816 41.82026 38.80421
# Shear Modulus (GPa) = 29.19285 35.22770 32.21027
#
# Velocity S-wave (km/s) = 3.49271 3.83677 3.66877
# Velocity P-wave (km/s) = 5.58752 6.09126 5.84482
#
# Compressibility (1/GPa) = 0.02794221
#
# Stress axis : x y z
#
# Youngs Moduli (GPa) = 64.27609 66.72851 60.65282
#
# Poissons Ratio (x) = 0.10752 0.09155
# Poissons Ratio (y) = 0.10357 0.38962
# Poissons Ratio (z) = 0.09702 0.42864
#
# Static dielectric constant tensor:
#      x y z
#    x 1.868120 -0.018960 -0.070750 
#    y -0.018960 2.012160 0.089120 
#    z -0.070750 0.089120 1.951380 
# 
# From -- ./inp_files/159709.got.cif
#   From: 2010.05.17/outbox.cif.g08.bks.cpg/sg2_80_cif.got.tgz:159709.got - 2010.06.03 11:33:40.
