data_PCOD9016927
_publ_section_title
;
Structure prediction by ZEFSAII (Michael W. Deem and Ramdas Pophale) SiO2 
 PCOD9016927
Probable space group: P -1
;
_chemical_formula_sum "Si O2"
_cell_formula_units_Z 13
_cell_length_a 13.435472
_cell_length_b 8.486749
_cell_length_c 9.355370
_cell_angle_alpha 72.086871
_cell_angle_beta 133.579122
_cell_angle_gamma 135.326839
_cell_volume 507.164852
_symmetry_space_group_name_H-M "P -1"
_symmetry_group_IT_number 2
_symmetry_cell_setting 'triclinic'
loop_
_space_group_symop_operation_xyz
x,y,z
-x,-y,-z
loop_
_atom_site_type_symbol
_atom_site_label
_atom_site_fract_x
_atom_site_fract_y
_atom_site_fract_z
Si Si1 0.820813 0.321404 0.669050
Si Si2 0.000000 0.500000 0.500000
Si Si3 0.212305 0.271422 0.154473
Si Si4 0.354985 0.491704 0.546413
Si Si5 0.656529 0.296273 0.997315
Si Si6 0.790533 0.143140 0.983178
Si Si7 0.663179 0.756638 0.164936
O O1 0.877335 0.316015 0.568535
O O2 0.656564 0.322419 0.495366
O O3 0.783046 0.156708 0.801966
O O4 0.005886 0.594426 0.833801
O O5 0.788686 0.353565 0.245742
O O6 0.255323 0.347895 0.340946
O O7 0.412962 0.355783 0.274948
O O8 0.219402 0.451669 0.029385
O O9 0.000000 0.000000 0.000000
O O10 0.243194 0.292822 0.618077
O O11 0.631581 0.127577 0.905237
O O12 0.451897 0.204265 0.868198
O O13 0.778803 0.955596 0.100931
O O14 0.500000 0.500000 0.000000
#
# Coordination Sequence:
#
# PCOD9016927 Si02
#       7
#     2   1   2   2   2   2   2
#     4  10  21  42  70 100 138 193 245 298 371 434
#     4  10  22  40  66  96 138 178 246 302 354 442
#     4  10  22  41  71 107 148 190 246 306 365 442
#     4  10  22  43  69 103 149 192 249 295 377 442
#     4  10  21  43  64  99 143 188 243 299 371 434
#     4  10  22  42  71  96 145 191 239 306 366 435
#     4  11  24  42  68 105 147 194 244 307 367 443
#
# _framework density 25.632691999999999
#
# number of rings (size 3 to 8) (size 9 to 14) (size 15 to 20)
#    0.000    1.846    1.538    1.385    0.000    5.538 
#    2.769    1.538    0.000    0.000    0.000    0.000 
#    0.000    0.000    0.000    0.000    0.000    0.000 
#
# Total GULP energy -72512.026657 kJ/mol
# GULP energy per Si atom -5577.848204 kJ/mol
# Density = 2.557435 g / cm^3
# Si number density = 25.632692 Si / 1000 Ang^3
#
#
#
# Elastic Constant Matrix: (Units=GPa)
#
#
# Indices 1 2 3 4 5 6 
#
# 1 50.6457 2.3735 13.7797 -0.8453 2.5579 9.4517
# 2 2.3735 204.7466 76.1618 -28.7042 -16.3791 29.7923
# 3 13.7797 76.1618 150.8621 -43.4938 -24.4464 20.3898
# 4 -0.8453 -28.7042 -43.4938 58.4353 18.4002 -10.9783
# 5 2.5579 -16.3791 -24.4464 18.4002 42.7208 -10.9307
# 6 9.4517 29.7923 20.3898 -10.9783 -10.9307 31.3645
#
#
#
# Elastic Compliance Matrix: (Units=1/GPa)
#
#
# Indices 1 2 3 4 5 6 
#
# 1 0.022063 0.001409 -0.002615 -0.001251 -0.003798 -0.008049
# 2 0.001409 0.006640 -0.002769 0.000476 -0.000601 -0.004975
# 3 -0.002615 -0.002769 0.010293 0.005367 0.002543 -0.000509
# 4 -0.001251 0.000476 0.005367 0.023777 -0.006252 0.002579
# 5 -0.003798 -0.000601 0.002543 -0.006252 0.029653 0.008207
# 6 -0.008049 -0.004975 -0.000509 0.002579 0.008207 0.043128
#
#
# Mechanical properties :
#
#
# Convention : Reuss Voigt Hill
#
# Bulk Modulus (GPa) = 32.20862 65.65384 48.93123
# Shear Modulus (GPa) = 32.49844 47.43340 39.96592
#
# Velocity S-wave (km/s) = 3.56455 4.30642 3.95293
# Velocity P-wave (km/s) = 5.43453 7.09901 6.32179
#
# Compressibility (1/GPa) = 0.03104759
#
# Stress axis : x y z
#
# Youngs Moduli (GPa) = 45.32390 150.59800 97.14913
#
# Poissons Ratio (x) = -0.21216 0.25403
# Poissons Ratio (y) = -0.06385 0.26898
# Poissons Ratio (z) = 0.11851 0.41696
#
# Static dielectric constant tensor:
#      x y z
#    x 2.134980 0.013080 0.052880 
#    y 0.013080 2.002570 -0.007280 
#    z 0.052880 -0.007280 1.979690 
# 
# From -- ./inp_files/295038.got.cif
#   From: 2010.05.17/outbox.cif.g08.bks.cpg/sg2_148_cif.got.tgz:295038.got - 2010.06.03 11:33:40.
