data_PCOD9016717
_publ_section_title
;
Structure prediction by ZEFSAII (Michael W. Deem and Ramdas Pophale) SiO2 
 PCOD9016717
Probable space group: P -1
;
_chemical_formula_sum "Si O2"
_cell_formula_units_Z 16
_cell_length_a 9.060602
_cell_length_b 11.613946
_cell_length_c 17.040761
_cell_angle_alpha 51.268527
_cell_angle_beta 98.415339
_cell_angle_gamma 141.055504
_cell_volume 633.089117
_symmetry_space_group_name_H-M "P -1"
_symmetry_group_IT_number 2
_symmetry_cell_setting 'triclinic'
loop_
_space_group_symop_operation_xyz
x,y,z
-x,-y,-z
loop_
_atom_site_type_symbol
_atom_site_label
_atom_site_fract_x
_atom_site_fract_y
_atom_site_fract_z
Si Si1 0.771027 0.951962 0.923292
Si Si2 0.116729 0.433639 0.331955
Si Si3 0.242575 0.167475 0.788957
Si Si4 0.349005 0.188086 0.504876
Si Si5 0.884224 0.316169 0.885784
Si Si6 0.520341 0.798343 0.794466
Si Si7 0.707636 0.209859 0.508611
Si Si8 0.814556 0.752667 0.784069
O O1 0.666230 0.908844 0.845511
O O2 0.925034 0.225392 0.862381
O O3 0.451379 0.609920 0.087941
O O4 0.025889 0.042602 0.894625
O O5 0.487221 0.716755 0.225567
O O6 0.002346 0.428595 0.250597
O O7 0.063198 0.483380 0.384239
O O8 0.891226 0.088856 0.463161
O O9 0.450917 0.490743 0.636470
O O10 0.993583 0.895049 0.820289
O O11 0.616400 0.293902 0.492064
O O12 0.098200 0.995137 0.638481
O O13 0.129704 0.482713 0.901778
O O14 0.500000 0.000000 0.000000
O O15 0.623524 0.739735 0.781413
O O16 0.647121 0.042617 0.645404
O O17 0.500000 0.000000 0.500000
#
# Coordination Sequence:
#
# PCOD9016717 Si02
#       8
#     2   2   2   2   2   2   2   2
#     4  11  28  48  73 105 145 191 239 291 357 422
#     4  11  24  43  69 106 141 179 237 300 346 427
#     4  11  24  43  71 102 141 184 237 291 355 420
#     4  11  22  42  72 103 136 185 234 289 357 416
#     4  12  27  45  72 105 142 191 240 283 362 427
#     4  11  24  47  73  98 147 184 233 300 346 418
#     4  10  21  42  69 100 144 178 229 297 353 417
#     4  11  26  47  67 104 145 185 238 298 347 425
#
# _framework density 25.272902999999999
#
# number of rings (size 3 to 8) (size 9 to 14) (size 15 to 20)
#    0.000    1.000    2.500    4.500    7.000    3.000 
#    0.000    3.750    0.000    0.000    0.000    0.000 
#    0.000    0.000    0.000    0.000    0.000    0.000 
#
# Total GULP energy -89612.578573 kJ/mol
# GULP energy per Si atom -5600.786161 kJ/mol
# Density = 2.521538 g / cm^3
# Si number density = 25.272903 Si / 1000 Ang^3
#
#
#
# Elastic Constant Matrix: (Units=GPa)
#
#
# Indices 1 2 3 4 5 6 
#
# 1 139.0903 34.3119 22.2414 8.4190 -15.7747 27.8475
# 2 34.3119 82.1638 11.7071 -4.0633 -3.6607 24.9200
# 3 22.2414 11.7071 102.5254 4.5461 -9.2728 7.5266
# 4 8.4190 -4.0633 4.5461 29.8556 -2.2902 -1.9046
# 5 -15.7747 -3.6607 -9.2728 -2.2902 53.9118 -3.8971
# 6 27.8475 24.9200 7.5266 -1.9046 -3.8971 38.8312
#
#
#
# Elastic Compliance Matrix: (Units=1/GPa)
#
#
# Indices 1 2 3 4 5 6 
#
# 1 0.009315 -0.002294 -0.001093 -0.002942 0.001899 -0.004950
# 2 -0.002294 0.015867 -0.000833 0.002387 -0.000234 -0.008283
# 3 -0.001093 -0.000833 0.010306 -0.001314 0.001296 -0.000613
# 4 -0.002942 0.002387 -0.001314 0.035075 0.000755 0.002629
# 5 0.001899 -0.000234 0.001296 0.000755 0.019381 0.000520
# 6 -0.004950 -0.008283 -0.000613 0.002629 0.000520 0.034918
#
#
# Mechanical properties :
#
#
# Convention : Reuss Voigt Hill
#
# Bulk Modulus (GPa) = 36.97122 51.14450 44.05786
# Shear Modulus (GPa) = 35.13252 41.55432 38.34342
#
# Velocity S-wave (km/s) = 3.73248 4.05930 3.89932
# Velocity P-wave (km/s) = 5.76505 6.50011 6.14358
#
# Compressibility (1/GPa) = 0.02704807
#
# Stress axis : x y z
#
# Youngs Moduli (GPa) = 107.35724 63.02340 97.02617
#
# Poissons Ratio (x) = 0.14456 0.10607
# Poissons Ratio (y) = 0.24625 0.08084
# Poissons Ratio (z) = 0.11736 0.05251
#
# Static dielectric constant tensor:
#      x y z
#    x 2.027910 0.027840 -0.034190 
#    y 0.027840 1.983260 -0.025170 
#    z -0.034190 -0.025170 2.025620 
# 
# From -- ./inp_files/559785.got.cif
#   From: 2010.05.17/outbox.cif.g08.bks.cpg/sg2_280_cif.got.tgz:559785.got - 2010.06.03 11:33:40.
