data_PCOD9016089
_publ_section_title
;
Structure prediction by ZEFSAII (Michael W. Deem and Ramdas Pophale) SiO2 
 PCOD9016089
Probable space group: P -1
;
_chemical_formula_sum "Si O2"
_cell_formula_units_Z 16
_cell_length_a 10.485480
_cell_length_b 8.281417
_cell_length_c 12.101327
_cell_angle_alpha 101.405211
_cell_angle_beta 127.330734
_cell_angle_gamma 54.283180
_cell_volume 658.222630
_symmetry_space_group_name_H-M "P -1"
_symmetry_group_IT_number 2
_symmetry_cell_setting 'triclinic'
loop_
_space_group_symop_operation_xyz
x,y,z
-x,-y,-z
loop_
_atom_site_type_symbol
_atom_site_label
_atom_site_fract_x
_atom_site_fract_y
_atom_site_fract_z
Si Si1 0.818250 0.333369 0.289485
Si Si2 0.788340 0.875684 0.407142
Si Si3 0.313356 0.280543 0.861993
Si Si4 0.622476 0.369515 0.800210
Si Si5 0.570157 0.790080 0.449418
Si Si6 0.171913 0.270953 0.027212
Si Si7 0.774661 0.113304 0.049557
Si Si8 0.583471 0.703566 0.677726
O O1 0.818521 0.493100 0.230718
O O2 0.597392 0.464134 0.241218
O O3 0.983341 0.236467 0.457755
O O4 0.848849 0.158106 0.203210
O O5 0.737807 0.851659 0.253220
O O6 0.720792 0.759311 0.430906
O O7 0.651961 0.112984 0.406835
O O8 0.544252 0.192865 0.956204
O O9 0.270979 0.275821 0.966995
O O10 0.598848 0.216956 0.696632
O O11 0.764837 0.248112 0.961768
O O12 0.653799 0.504678 0.756775
O O13 0.648812 0.643386 0.577358
O O14 0.500000 0.000000 0.500000
O O15 0.322402 0.193863 0.199061
O O16 0.110186 0.121608 0.953816
O O17 0.000000 0.500000 0.000000
#
# Coordination Sequence:
#
# PCOD9016089 Si02
#       8
#     2   2   2   2   2   2   2   2
#     4  11  24  39  71 107 134 174 234 293 336 400
#     4  11  23  43  70 102 138 185 232 281 338 411
#     4  11  22  45  74  98 137 188 231 281 346 414
#     4  11  22  43  70 101 136 181 234 279 347 413
#     4  10  21  42  66  94 137 182 224 272 344 409
#     4  12  27  45  70 103 136 181 236 289 344 415
#     4  11  22  47  72  98 139 182 231 287 347 411
#     4  11  24  44  68  99 141 186 225 280 353 413
#
# _framework density 24.307884999999999
#
# number of rings (size 3 to 8) (size 9 to 14) (size 15 to 20)
#    0.000    1.000    3.750    4.875    3.500    0.500 
#    6.750    1.250    0.000    0.000    0.000    0.000 
#    0.000    0.000    0.000    0.000    0.000    0.000 
#
# Total GULP energy -89610.480232 kJ/mol
# GULP energy per Si atom -5600.655015 kJ/mol
# Density = 2.425256 g / cm^3
# Si number density = 24.307885 Si / 1000 Ang^3
#
#
#
# Elastic Constant Matrix: (Units=GPa)
#
#
# Indices 1 2 3 4 5 6 
#
# 1 58.2052 11.0766 10.8621 -8.7317 -23.2409 6.0094
# 2 11.0766 102.7076 5.6216 0.1497 6.5854 3.3060
# 3 10.8621 5.6216 94.0186 17.0491 -10.5955 -10.2329
# 4 -8.7317 0.1497 17.0491 45.4527 2.9187 -1.3639
# 5 -23.2409 6.5854 -10.5955 2.9187 34.2665 1.0771
# 6 6.0094 3.3060 -10.2329 -1.3639 1.0771 32.7618
#
#
#
# Elastic Compliance Matrix: (Units=1/GPa)
#
#
# Indices 1 2 3 4 5 6 
#
# 1 0.026776 -0.003736 -0.002316 0.004703 0.017939 -0.005652
# 2 -0.003736 0.010500 -0.000749 -0.000180 -0.004754 -0.000460
# 3 -0.002316 -0.000749 0.012668 -0.005250 0.002807 0.004147
# 4 0.004703 -0.000180 -0.005250 0.024862 -0.000471 -0.001434
# 5 0.017939 -0.004754 0.002807 -0.000471 0.043278 -0.003377
# 6 -0.005652 -0.000460 0.004147 -0.001434 -0.003377 0.032953
#
#
# Mechanical properties :
#
#
# Convention : Reuss Voigt Hill
#
# Bulk Modulus (GPa) = 27.51732 34.45023 30.98377
# Shear Modulus (GPa) = 28.28785 37.65427 32.97106
#
# Velocity S-wave (km/s) = 3.41505 3.94007 3.68692
# Velocity P-wave (km/s) = 5.18604 5.90780 5.55865
#
# Compressibility (1/GPa) = 0.03634075
#
# Stress axis : x y z
#
# Youngs Moduli (GPa) = 37.34683 95.23661 78.93712
#
# Poissons Ratio (x) = 0.35581 0.18286
# Poissons Ratio (y) = 0.13953 0.05915
# Poissons Ratio (z) = 0.08651 0.07137
#
# Static dielectric constant tensor:
#      x y z
#    x 1.973490 0.014800 0.010670 
#    y 0.014800 1.959510 -0.018670 
#    z 0.010670 -0.018670 1.940130 
# 
# From -- ./inp_files/263368.got.cif
#   From: 2010.05.17/outbox.cif.g08.bks.cpg/sg2_132_cif.got.tgz:263368.got - 2010.06.03 11:33:40.
