data_PCOD9016929
_publ_section_title
;
Structure prediction by ZEFSAII (Michael W. Deem and Ramdas Pophale) SiO2 
 PCOD9016929
Probable space group: P -1
;
_chemical_formula_sum "Si O2"
_cell_formula_units_Z 14
_cell_length_a 13.831237
_cell_length_b 8.989474
_cell_length_c 5.353865
_cell_angle_alpha 80.958902
_cell_angle_beta 76.843002
_cell_angle_gamma 86.148881
_cell_volume 639.807168
_symmetry_space_group_name_H-M "P -1"
_symmetry_group_IT_number 2
_symmetry_cell_setting 'triclinic'
loop_
_space_group_symop_operation_xyz
x,y,z
-x,-y,-z
loop_
_atom_site_type_symbol
_atom_site_label
_atom_site_fract_x
_atom_site_fract_y
_atom_site_fract_z
Si Si1 0.457167 0.581552 0.756584
Si Si2 0.765573 0.332988 0.272738
Si Si3 0.252990 0.991556 0.351922
Si Si4 0.532722 0.911744 0.748990
Si Si5 0.927613 0.869652 0.335056
Si Si6 0.064125 0.465227 0.721490
Si Si7 0.865014 0.128154 0.921125
O O1 0.500000 0.500000 0.500000
O O2 0.338189 0.592887 0.777208
O O3 0.490654 0.749525 0.758899
O O4 0.500000 0.500000 0.000000
O O5 0.745862 0.169691 0.458306
O O6 0.834896 0.440511 0.363771
O O7 0.836376 0.287778 0.010614
O O8 0.237968 0.935647 0.095219
O O9 0.348363 0.085187 0.316944
O O10 0.155541 0.099822 0.418296
O O11 0.500000 0.000000 0.500000
O O12 0.500000 0.000000 0.000000
O O13 0.909886 0.713213 0.249794
O O14 0.044952 0.862107 0.333150
O O15 0.906388 0.013323 0.133648
O O16 0.000000 0.500000 0.500000
O O17 0.000000 0.500000 0.000000
#
# Coordination Sequence:
#
# PCOD9016929 Si02
#       7
#     2   2   2   2   2   2   2
#     4  12  29  49  75 110 151 191 247 320 380 440
#     4  11  25  45  72 101 144 195 240 293 376 432
#     4  11  24  41  76  99 141 188 246 296 358 424
#     4  12  26  50  76 105 142 191 257 304 360 443
#     4  10  23  40  64 105 139 179 240 284 351 418
#     4  12  27  45  69 103 147 191 235 288 363 441
#     4  10  21  42  70 100 139 184 239 293 347 431
#
# _framework density 21.881594
#
# number of rings (size 3 to 8) (size 9 to 14) (size 15 to 20)
#    0.000    0.857    2.857    3.000    8.000    1.143 
#    0.000    0.000    0.000    0.000    0.000    0.000 
#    0.000    0.000    0.000    0.000    0.000    0.000 
#
# Total GULP energy -78083.608949 kJ/mol
# GULP energy per Si atom -5577.400639 kJ/mol
# Density = 2.183179 g / cm^3
# Si number density = 21.881594 Si / 1000 Ang^3
#
#
#
# Elastic Constant Matrix: (Units=GPa)
#
#
# Indices 1 2 3 4 5 6 
#
# 1 190.2689 67.5444 42.5650 7.2777 15.8286 15.3477
# 2 67.5444 135.7801 45.2322 23.6404 -3.5547 0.6845
# 3 42.5650 45.2322 101.6138 15.8720 16.3278 -8.7826
# 4 7.2777 23.6404 15.8720 28.8645 5.0364 8.1974
# 5 15.8286 -3.5547 16.3278 5.0364 28.8944 -0.6219
# 6 15.3477 0.6845 -8.7826 8.1974 -0.6219 44.3781
#
#
#
# Elastic Compliance Matrix: (Units=1/GPa)
#
#
# Indices 1 2 3 4 5 6 
#
# 1 0.007571 -0.004052 -0.001604 0.004135 -0.004540 -0.003701
# 2 -0.004052 0.012240 -0.003283 -0.009125 0.007222 0.002350
# 3 -0.001604 -0.003283 0.014133 -0.004713 -0.006600 0.004180
# 4 0.004135 -0.009125 -0.004713 0.048527 -0.009426 -0.011318
# 5 -0.004540 0.007222 -0.006600 -0.009426 0.043411 0.002502
# 6 -0.003701 0.002350 0.004180 -0.011318 0.002502 0.026730
#
#
# Mechanical properties :
#
#
# Convention : Reuss Voigt Hill
#
# Bulk Modulus (GPa) = 62.24544 82.03842 72.14193
# Shear Modulus (GPa) = 28.43411 38.58215 33.50813
#
# Velocity S-wave (km/s) = 3.60870 4.20363 3.91748
# Velocity P-wave (km/s) = 6.77288 7.81883 7.31457
#
# Compressibility (1/GPa) = 0.01606543
#
# Stress axis : x y z
#
# Youngs Moduli (GPa) = 132.08266 81.69714 70.75826
#
# Poissons Ratio (x) = 0.33104 0.11349
# Poissons Ratio (y) = 0.53520 0.23232
# Poissons Ratio (z) = 0.21185 0.26824
#
# Static dielectric constant tensor:
#      x y z
#    x 1.804220 -0.064570 -0.027610 
#    y -0.064570 1.457320 0.066760 
#    z -0.027610 0.066760 1.873840 
# 
# From -- ./inp_files/60315.got.cif
#   From: 2010.05.17/outbox.cif.g08.bks.cpg/sg2_31_cif.got.tgz:60315.got - 2010.06.03 11:33:40.
