data_PCOD9016213
_publ_section_title
;
Structure prediction by ZEFSAII (Michael W. Deem and Ramdas Pophale) SiO2 
 PCOD9016213
Probable space group: P -1
;
_chemical_formula_sum "Si O2"
_cell_formula_units_Z 16
_cell_length_a 9.797560
_cell_length_b 7.618900
_cell_length_c 18.396234
_cell_angle_alpha 88.229773
_cell_angle_beta 31.088651
_cell_angle_gamma 84.335679
_cell_volume 701.763005
_symmetry_space_group_name_H-M "P -1"
_symmetry_group_IT_number 2
_symmetry_cell_setting 'triclinic'
loop_
_space_group_symop_operation_xyz
x,y,z
-x,-y,-z
loop_
_atom_site_type_symbol
_atom_site_label
_atom_site_fract_x
_atom_site_fract_y
_atom_site_fract_z
Si Si1 0.986490 0.296394 0.090454
Si Si2 0.350414 0.761560 0.056756
Si Si3 0.933290 0.873374 0.799483
Si Si4 0.939546 0.936765 0.636302
Si Si5 0.588128 0.915576 0.192029
Si Si6 0.546119 0.456788 0.704383
Si Si7 0.249950 0.209625 0.418464
Si Si8 0.498568 0.511064 0.117184
O O1 0.750700 0.433892 0.164657
O O2 0.905902 0.223873 0.206438
O O3 0.128006 0.146783 0.972822
O O4 0.237818 0.399269 0.991437
O O5 0.392996 0.684187 0.957681
O O6 0.633290 0.825532 0.943926
O O7 0.107598 0.916012 0.172295
O O8 0.327101 0.607918 0.128263
O O9 0.012257 0.840519 0.680090
O O10 0.633362 0.038912 0.772380
O O11 0.122743 0.089066 0.535887
O O12 0.933031 0.809786 0.570315
O O13 0.498766 0.748283 0.279663
O O14 0.528186 0.091292 0.266395
O O15 0.710808 0.590410 0.583812
O O16 0.649762 0.473769 0.739360
#
# Coordination Sequence:
#
# PCOD9016213 Si02
#       8
#     2   2   2   2   2   2   2   2
#     4  10  21  32  49  81 107 140 166 201 264 316
#     4   9  17  28  49  79  99 133 167 207 278 302
#     4  10  17  30  51  72 106 134 165 214 257 307
#     4   9  18  37  53  79 103 129 177 226 257 294
#     4   9  18  35  53  79 107 127 166 223 257 302
#     4  11  20  34  53  77 109 142 169 208 254 313
#     4   9  21  35  55  81  97 137 180 212 261 301
#     4   9  17  30  47  73 108 128 164 215 255 312
#
# _framework density 22.799717999999999
#
# number of rings (size 3 to 8) (size 9 to 14) (size 15 to 20)
#    0.750    1.750    0.000    5.250    1.750    1.000 
#    2.250    0.625    0.000    0.750    0.000    0.000 
#    0.000    0.000    0.000    0.000    0.000    0.000 
#
# Total GULP energy -89170.966133 kJ/mol
# GULP energy per Si atom -5573.185383 kJ/mol
# Density = 2.274782 g / cm^3
# Si number density = 22.799718 Si / 1000 Ang^3
#
#
#
# Elastic Constant Matrix: (Units=GPa)
#
#
# Indices 1 2 3 4 5 6 
#
# 1 37.5781 26.2530 5.5568 -8.0975 9.1967 -12.2324
# 2 26.2530 76.0749 -1.8182 -12.0725 2.1009 -4.7157
# 3 5.5568 -1.8182 47.6850 -15.0182 -3.0888 -16.6871
# 4 -8.0975 -12.0725 -15.0182 34.4020 -7.4014 5.4236
# 5 9.1967 2.1009 -3.0888 -7.4014 22.2930 -8.1336
# 6 -12.2324 -4.7157 -16.6871 5.4236 -8.1336 32.7526
#
#
#
# Elastic Compliance Matrix: (Units=1/GPa)
#
#
# Indices 1 2 3 4 5 6 
#
# 1 0.043213 -0.014188 -0.003622 -0.000807 -0.014011 0.008905
# 2 -0.014188 0.019174 0.005488 0.007264 0.007558 0.000932
# 3 -0.003622 0.005488 0.034858 0.017277 0.018444 0.018917
# 4 -0.000807 0.007264 0.017277 0.041824 0.018566 0.007232
# 5 -0.014011 0.007558 0.018444 0.018566 0.065361 0.018410
# 6 0.008905 0.000932 0.018917 0.007232 0.018410 0.047004
#
#
# Mechanical properties :
#
#
# Convention : Reuss Voigt Hill
#
# Bulk Modulus (GPa) = 13.77399 24.59123 19.18261
# Shear Modulus (GPa) = 16.65118 26.64593 21.64856
#
# Velocity S-wave (km/s) = 2.70538 3.42233 3.08475
# Velocity P-wave (km/s) = 3.97658 5.14059 4.59559
#
# Compressibility (1/GPa) = 0.07260061
#
# Stress axis : x y z
#
# Youngs Moduli (GPa) = 23.14125 52.15355 28.68779
#
# Poissons Ratio (x) = 0.73997 0.10391
# Poissons Ratio (y) = 0.32833 -0.15744
# Poissons Ratio (z) = 0.08382 -0.28621
#
# Static dielectric constant tensor:
#      x y z
#    x 1.839120 0.021830 0.009350 
#    y 0.021830 1.942860 -0.014290 
#    z 0.009350 -0.014290 1.925140 
# 
# From -- ./inp_files/593193.got.cif
#   From: 2010.05.17/outbox.cif.g08.bks.cpg/sg2_297_cif.got.tgz:593193.got - 2010.06.03 11:33:40.
