data_PCOD9016719
_publ_section_title
;
Structure prediction by ZEFSAII (Michael W. Deem and Ramdas Pophale) SiO2 
 PCOD9016719
Probable space group: P -1
;
_chemical_formula_sum "Si O2"
_cell_formula_units_Z 12
_cell_length_a 9.742680
_cell_length_b 10.952612
_cell_length_c 7.568124
_cell_angle_alpha 128.889476
_cell_angle_beta 104.063971
_cell_angle_gamma 54.822671
_cell_volume 504.768634
_symmetry_space_group_name_H-M "P -1"
_symmetry_group_IT_number 2
_symmetry_cell_setting 'triclinic'
loop_
_space_group_symop_operation_xyz
x,y,z
-x,-y,-z
loop_
_atom_site_type_symbol
_atom_site_label
_atom_site_fract_x
_atom_site_fract_y
_atom_site_fract_z
Si Si1 0.733750 0.011129 0.600397
Si Si2 0.752938 0.746001 0.908689
Si Si3 0.091200 0.672568 0.351009
Si Si4 0.463631 0.117537 0.354196
Si Si5 0.297367 0.637779 0.050045
Si Si6 0.945597 0.357219 0.290728
O O1 0.575784 0.150278 0.549231
O O2 0.901181 0.847692 0.403336
O O3 0.668699 0.906378 0.600522
O O4 0.760817 0.153647 0.845571
O O5 0.863772 0.540076 0.843693
O O6 0.883358 0.789993 0.902236
O O7 0.639469 0.742082 0.710063
O O8 0.608818 0.911360 0.134495
O O9 0.218847 0.671244 0.252302
O O10 0.094632 0.703575 0.592165
O O11 0.500000 0.500000 0.000000
O O12 0.208358 0.567603 0.827334
O O13 0.000000 0.500000 0.500000
#
# Coordination Sequence:
#
# PCOD9016719 Si02
#       6
#     2   2   2   2   2   2
#     4  11  24  42  67 101 139 180 228 282 343 406
#     4  10  21  42  69 101 132 180 232 279 337 409
#     4  11  24  45  70  99 137 187 224 284 343 410
#     4  10  22  41  70 102 136 178 229 284 336 407
#     4  12  28  45  67 104 142 179 230 288 345 406
#     4  10  24  44  73 100 133 181 229 278 343 412
#
# _framework density 23.773267000000001
#
# number of rings (size 3 to 8) (size 9 to 14) (size 15 to 20)
#    0.000    1.333    1.667    2.500    4.667    8.667 
#    6.000    0.000    0.000    0.000    0.000    0.000 
#    0.000    0.000    0.000    0.000    0.000    0.000 
#
# Total GULP energy -67009.190795 kJ/mol
# GULP energy per Si atom -5584.099233 kJ/mol
# Density = 2.371916 g / cm^3
# Si number density = 23.773267 Si / 1000 Ang^3
#
#
#
# Elastic Constant Matrix: (Units=GPa)
#
#
# Indices 1 2 3 4 5 6 
#
# 1 147.5618 38.3670 48.7751 -0.5824 -33.9323 -20.2793
# 2 38.3670 99.7418 17.9367 5.0265 10.3289 -25.4839
# 3 48.7751 17.9367 74.1376 12.2248 -3.8914 -4.8752
# 4 -0.5824 5.0265 12.2248 41.9047 -5.2791 -6.2654
# 5 -33.9323 10.3289 -3.8914 -5.2791 46.9789 3.9016
# 6 -20.2793 -25.4839 -4.8752 -6.2654 3.9016 37.1288
#
#
#
# Elastic Compliance Matrix: (Units=1/GPa)
#
#
# Indices 1 2 3 4 5 6 
#
# 1 0.013145 -0.004175 -0.007677 0.004642 0.010047 0.003034
# 2 -0.004175 0.014603 -0.000394 -0.001361 -0.007093 0.008206
# 3 -0.007677 -0.000394 0.019329 -0.006637 -0.004388 -0.002585
# 4 0.004642 -0.001361 -0.006637 0.027469 0.005794 0.004756
# 5 0.010047 -0.007093 -0.004388 0.005794 0.030572 -0.002192
# 6 0.003034 0.008206 -0.002585 0.004756 -0.002192 0.034916
#
#
# Mechanical properties :
#
#
# Convention : Reuss Voigt Hill
#
# Bulk Modulus (GPa) = 44.27927 59.06652 51.67290
# Shear Modulus (GPa) = 29.06055 39.62665 34.34360
#
# Velocity S-wave (km/s) = 3.50008 4.08715 3.80495
# Velocity P-wave (km/s) = 5.91610 6.86824 6.40987
#
# Compressibility (1/GPa) = 0.02258393
#
# Stress axis : x y z
#
# Youngs Moduli (GPa) = 76.07225 68.48052 51.73681
#
# Poissons Ratio (x) = 0.28592 0.39718
# Poissons Ratio (y) = 0.31762 0.02040
# Poissons Ratio (z) = 0.58400 0.02700
#
# Static dielectric constant tensor:
#      x y z
#    x 1.904720 0.015460 0.000040 
#    y 0.015460 1.927750 -0.035340 
#    z 0.000040 -0.035340 1.983170 
# 
# From -- ./inp_files/183361.got.cif
#   From: 2010.05.17/outbox.cif.g08.bks.cpg/sg2_92_cif.got.tgz:183361.got - 2010.06.03 11:33:40.
