data_PCOD9016492
_publ_section_title
;
Structure prediction by ZEFSAII (Michael W. Deem and Ramdas Pophale) SiO2 
 PCOD9016492
Probable space group: P -1
;
_chemical_formula_sum "Si O2"
_cell_formula_units_Z 16
_cell_length_a 9.913173
_cell_length_b 5.662117
_cell_length_c 14.375440
_cell_angle_alpha 66.896346
_cell_angle_beta 89.414170
_cell_angle_gamma 111.135610
_cell_volume 681.335731
_symmetry_space_group_name_H-M "P -1"
_symmetry_group_IT_number 2
_symmetry_cell_setting 'triclinic'
loop_
_space_group_symop_operation_xyz
x,y,z
-x,-y,-z
loop_
_atom_site_type_symbol
_atom_site_label
_atom_site_fract_x
_atom_site_fract_y
_atom_site_fract_z
Si Si1 0.337366 0.587012 0.833901
Si Si2 0.221602 0.455325 0.655641
Si Si3 0.528069 0.427753 0.640370
Si Si4 0.846412 0.976839 0.963491
Si Si5 0.650254 0.217314 0.008619
Si Si6 0.364736 0.442853 0.196125
Si Si7 0.320335 0.890959 0.428740
Si Si8 0.107808 0.950629 0.270339
O O1 0.245018 0.557072 0.746737
O O2 0.506905 0.676325 0.789382
O O3 0.271551 0.292730 0.937072
O O4 0.332473 0.795568 0.880766
O O5 0.355868 0.361250 0.649329
O O6 0.242937 0.709418 0.547024
O O7 0.062620 0.208921 0.684632
O O8 0.573261 0.341213 0.753665
O O9 0.571976 0.255256 0.587976
O O10 0.609705 0.775956 0.592808
O O11 0.794762 0.212650 0.962866
O O12 0.863077 0.028121 0.844287
O O13 0.000000 0.000000 0.000000
O O14 0.638701 0.488275 0.922341
O O15 0.500000 0.000000 0.000000
O O16 0.195129 0.272764 0.249246
O O17 0.202915 0.833918 0.354057
#
# Coordination Sequence:
#
# PCOD9016492 Si02
#       8
#     2   2   2   2   2   2   2   2
#     4  11  23  44  66  99 136 181 232 279 346 426
#     4  11  24  45  70 103 141 185 231 299 358 421
#     4  10  24  46  76 103 140 186 241 296 356 426
#     4  12  24  43  62  98 143 173 225 287 354 413
#     4  12  23  39  71  96 132 187 232 284 339 422
#     4  10  21  42  68 102 132 179 237 289 349 422
#     4  11  24  50  74 106 139 190 245 295 353 426
#     4  11  23  44  72  99 144 180 234 300 354 423
#
# _framework density 23.483284000000001
#
# number of rings (size 3 to 8) (size 9 to 14) (size 15 to 20)
#    0.000    1.000    3.750    3.000    0.000    2.500 
#    2.250   10.625    0.000    0.000    0.000    0.000 
#    0.000    0.000    0.000    0.000    0.000    0.000 
#
# Total GULP energy -89095.014855 kJ/mol
# GULP energy per Si atom -5568.438428 kJ/mol
# Density = 2.342984 g / cm^3
# Si number density = 23.483284 Si / 1000 Ang^3
#
#
#
# Elastic Constant Matrix: (Units=GPa)
#
#
# Indices 1 2 3 4 5 6 
#
# 1 150.8785 45.0741 38.0291 -0.3663 10.3889 38.8241
# 2 45.0741 66.5920 30.6166 -8.0645 -4.3209 17.0488
# 3 38.0291 30.6166 164.1191 1.4514 17.9703 14.6348
# 4 -0.3663 -8.0645 1.4514 34.6677 12.9701 -9.4246
# 5 10.3889 -4.3209 17.9703 12.9701 35.2638 -1.7589
# 6 38.8241 17.0488 14.6348 -9.4246 -1.7589 26.1484
#
#
#
# Elastic Compliance Matrix: (Units=1/GPa)
#
#
# Indices 1 2 3 4 5 6 
#
# 1 0.012950 -0.004958 -0.000048 -0.004505 -0.003631 -0.017835
# 2 -0.004958 0.021278 -0.003013 0.002312 0.004569 -0.003685
# 3 -0.000048 -0.003013 0.007337 -0.000094 -0.004179 -0.002386
# 4 -0.004505 0.002312 -0.000094 0.038703 -0.011659 0.018399
# 5 -0.003631 0.004569 -0.004179 -0.011659 0.036555 0.003008
# 6 -0.017835 -0.003685 -0.002386 0.018399 0.003008 0.075296
#
#
# Mechanical properties :
#
#
# Convention : Reuss Voigt Hill
#
# Bulk Modulus (GPa) = 39.17357 67.66990 53.42174
# Shear Modulus (GPa) = 23.07704 37.07397 30.07550
#
# Velocity S-wave (km/s) = 3.13821 3.97764 3.58260
# Velocity P-wave (km/s) = 5.46341 7.06925 6.31756
#
# Compressibility (1/GPa) = 0.02552741
#
# Stress axis : x y z
#
# Youngs Moduli (GPa) = 77.22233 46.99739 136.28801
#
# Poissons Ratio (x) = 0.23302 0.00652
# Poissons Ratio (y) = 0.38288 0.41059
# Poissons Ratio (z) = 0.00370 0.14159
#
# Static dielectric constant tensor:
#      x y z
#    x 1.838270 0.001240 -0.032690 
#    y 0.001240 2.145510 -0.123510 
#    z -0.032690 -0.123510 1.969910 
# 
# From -- ./inp_files/488187.got.cif
#   From: 2010.05.17/outbox.cif.g08.bks.cpg/sg2_245_cif.got.tgz:488187.got - 2010.06.03 11:33:40.
