data_PCOD9016925
_publ_section_title
;
Structure prediction by ZEFSAII (Michael W. Deem and Ramdas Pophale) SiO2 
 PCOD9016925
Probable space group: P -1
;
_chemical_formula_sum "Si O2"
_cell_formula_units_Z 16
_cell_length_a 11.815996
_cell_length_b 9.227329
_cell_length_c 11.350773
_cell_angle_alpha 67.028773
_cell_angle_beta 49.151948
_cell_angle_gamma 97.822373
_cell_volume 712.972329
_symmetry_space_group_name_H-M "P -1"
_symmetry_group_IT_number 2
_symmetry_cell_setting 'triclinic'
loop_
_space_group_symop_operation_xyz
x,y,z
-x,-y,-z
loop_
_atom_site_type_symbol
_atom_site_label
_atom_site_fract_x
_atom_site_fract_y
_atom_site_fract_z
Si Si1 0.447352 0.416397 0.250940
Si Si2 0.191365 0.702894 0.280682
Si Si3 0.617492 0.645432 0.270423
Si Si4 0.236382 0.916992 0.954370
Si Si5 0.838966 0.263097 0.450343
Si Si6 0.755706 0.564549 0.802901
Si Si7 0.549784 0.934136 0.603140
Si Si8 0.075630 0.415667 0.882052
O O1 0.484700 0.570027 0.272995
O O2 0.268424 0.327951 0.321884
O O3 0.453245 0.251457 0.360930
O O4 0.614514 0.520127 0.014084
O O5 0.253267 0.789139 0.341151
O O6 0.299860 0.631257 0.161436
O O7 0.000000 0.500000 0.500000
O O8 0.176354 0.833886 0.154252
O O9 0.500000 0.500000 0.500000
O O10 0.698617 0.865138 0.169234
O O11 0.780515 0.617293 0.148056
O O12 0.401215 0.901802 0.808748
O O13 0.080213 0.779793 0.011317
O O14 0.739790 0.092095 0.480704
O O15 0.839697 0.432369 0.331237
O O16 0.046042 0.336162 0.310075
O O17 0.500000 0.000000 0.500000
O O18 0.000000 0.500000 0.000000
#
# Coordination Sequence:
#
# PCOD9016925 Si02
#       8
#     2   2   2   2   2   2   2   2
#     4  11  24  44  67  97 143 185 237 290 360 419
#     4  10  21  42  70 100 135 175 234 298 350 416
#     4  12  28  44  70 108 145 189 239 299 356 428
#     4  12  24  45  71 104 143 186 243 292 363 423
#     4  11  23  41  73 103 138 183 236 296 363 418
#     4  10  22  43  70  95 137 186 235 298 348 424
#     4  12  25  44  67 104 143 191 236 289 357 436
#     4  12  24  46  75 101 144 193 239 293 361 431
#
# _framework density 22.441264
#
# number of rings (size 3 to 8) (size 9 to 14) (size 15 to 20)
#    0.000    0.750    3.750    4.875    3.500    3.000 
#    0.000    6.250    0.000    0.000    0.000    0.000 
#    0.000    0.000    0.000    0.000    0.000    0.000 
#
# Total GULP energy -89458.502209 kJ/mol
# GULP energy per Si atom -5591.156388 kJ/mol
# Density = 2.239019 g / cm^3
# Si number density = 22.441264 Si / 1000 Ang^3
#
#
#
# Elastic Constant Matrix: (Units=GPa)
#
#
# Indices 1 2 3 4 5 6 
#
# 1 113.7857 22.3195 19.4105 -12.4971 19.3037 18.1910
# 2 22.3195 101.7463 30.3660 -18.3570 13.2281 20.8515
# 3 19.4105 30.3660 76.7519 -6.4558 31.0870 9.9849
# 4 -12.4971 -18.3570 -6.4558 40.9352 1.8528 0.8458
# 5 19.3037 13.2281 31.0870 1.8528 37.9239 1.1625
# 6 18.1910 20.8515 9.9849 0.8458 1.1625 46.8393
#
#
#
# Elastic Compliance Matrix: (Units=1/GPa)
#
#
# Indices 1 2 3 4 5 6 
#
# 1 0.010807 -0.000285 0.000644 0.003629 -0.005980 -0.004124
# 2 -0.000285 0.013137 -0.003231 0.005486 -0.001901 -0.005101
# 3 0.000644 -0.003231 0.021698 0.003004 -0.017040 -0.003069
# 4 0.003629 0.005486 0.003004 0.028909 -0.007488 -0.004828
# 5 -0.005980 -0.001901 -0.017040 -0.007488 0.044230 0.005838
# 6 -0.004124 -0.005101 -0.003069 -0.004828 0.005838 0.025819
#
#
# Mechanical properties :
#
#
# Convention : Reuss Voigt Hill
#
# Bulk Modulus (GPa) = 25.06428 48.49733 36.78080
# Shear Modulus (GPa) = 30.55411 39.81886 35.18649
#
# Velocity S-wave (km/s) = 3.69387 4.21688 3.96401
# Velocity P-wave (km/s) = 5.42089 6.73552 6.11364
#
# Compressibility (1/GPa) = 0.03989742
#
# Stress axis : x y z
#
# Youngs Moduli (GPa) = 92.53253 76.11866 46.08742
#
# Poissons Ratio (x) = 0.02172 -0.02966
# Poissons Ratio (y) = 0.02641 0.14889
# Poissons Ratio (z) = -0.05955 0.24591
#
# Static dielectric constant tensor:
#      x y z
#    x 1.861150 0.000470 -0.009360 
#    y 0.000470 1.832010 0.000160 
#    z -0.009360 0.000160 1.907550 
# 
# From -- ./inp_files/419125.got.cif
#   From: 2010.05.17/outbox.cif.g08.bks.cpg/sg2_210_cif.got.tgz:419125.got - 2010.06.03 11:33:40.
