data_PCOD9016741
_publ_section_title
;
Structure prediction by ZEFSAII (Michael W. Deem and Ramdas Pophale) SiO2 
 PCOD9016741
Probable space group: P -1
;
_chemical_formula_sum "Si O2"
_cell_formula_units_Z 16
_cell_length_a 12.626000
_cell_length_b 10.501582
_cell_length_c 11.265431
_cell_angle_alpha 59.655619
_cell_angle_beta 126.618668
_cell_angle_gamma 147.390018
_cell_volume 646.090900
_symmetry_space_group_name_H-M "P -1"
_symmetry_group_IT_number 2
_symmetry_cell_setting 'triclinic'
loop_
_space_group_symop_operation_xyz
x,y,z
-x,-y,-z
loop_
_atom_site_type_symbol
_atom_site_label
_atom_site_fract_x
_atom_site_fract_y
_atom_site_fract_z
Si Si1 0.262869 0.801103 0.649291
Si Si2 0.057247 0.330602 0.685497
Si Si3 0.956743 0.195671 0.367857
Si Si4 0.679094 0.728566 0.097259
Si Si5 0.255904 0.247676 0.414100
Si Si6 0.915257 0.203719 0.905953
Si Si7 0.650020 0.481799 0.837070
Si Si8 0.696448 0.313446 0.717426
O O1 0.239977 0.608434 0.707894
O O2 0.204900 0.807709 0.740573
O O3 0.078771 0.717022 0.488283
O O4 0.484429 0.061779 0.640825
O O5 0.161201 0.263480 0.764284
O O6 0.905292 0.191949 0.762861
O O7 0.708408 0.697663 0.726899
O O8 0.052183 0.176457 0.337343
O O9 0.180446 0.481380 0.394942
O O10 0.826229 0.967230 0.470946
O O11 0.565873 0.696002 0.152820
O O12 0.500000 0.500000 0.000000
O O13 0.793174 0.960372 0.995817
O O14 0.500000 0.500000 0.500000
O O15 0.830570 0.286923 0.854719
O O16 0.160728 0.401666 0.007977
O O17 0.649963 0.372794 0.774464
#
# Coordination Sequence:
#
# PCOD9016741 Si02
#       8
#     2   2   2   2   2   2   2   2
#     4  11  25  48  75 107 145 195 248 313 374 433
#     4  11  26  50  74 107 145 196 254 311 364 439
#     4  10  21  42  69 102 145 185 234 304 360 431
#     4  12  27  49  75 105 147 202 245 299 368 445
#     4  10  23  41  69 106 147 189 236 297 371 437
#     4  12  26  49  74 106 150 195 246 310 359 443
#     4  11  27  46  71 114 145 194 245 296 378 440
#     4  11  25  48  76 110 148 194 246 306 378 439
#
# _framework density 24.764316999999998
#
# number of rings (size 3 to 8) (size 9 to 14) (size 15 to 20)
#    0.000    1.000    2.500    3.000    3.500    5.000 
#    2.250    0.000    0.000    0.000    0.000    0.000 
#    0.000    0.000    0.000    0.000    0.000    0.000 
#
# Total GULP energy -89296.617367 kJ/mol
# GULP energy per Si atom -5581.038585 kJ/mol
# Density = 2.470795 g / cm^3
# Si number density = 24.764317 Si / 1000 Ang^3
#
#
#
# Elastic Constant Matrix: (Units=GPa)
#
#
# Indices 1 2 3 4 5 6 
#
# 1 139.9044 48.5253 36.5720 -20.5857 -3.3180 1.9511
# 2 48.5253 178.7571 39.2938 -41.2383 -15.5018 15.4649
# 3 36.5720 39.2938 74.3735 -18.8491 -3.0246 1.8254
# 4 -20.5857 -41.2383 -18.8491 37.3546 8.9074 -1.4874
# 5 -3.3180 -15.5018 -3.0246 8.9074 29.2629 -5.6470
# 6 1.9511 15.4649 1.8254 -1.4874 -5.6470 36.2301
#
#
#
# Elastic Compliance Matrix: (Units=1/GPa)
#
#
# Indices 1 2 3 4 5 6 
#
# 1 0.008680 -0.001295 -0.003126 0.001920 -0.000564 0.000234
# 2 -0.001295 0.008372 -0.001846 0.007158 0.001358 -0.002905
# 3 -0.003126 -0.001846 0.017228 0.005203 -0.001110 0.000129
# 4 0.001920 0.007158 0.005203 0.040209 -0.008283 -0.003061
# 5 -0.000564 0.001358 -0.001110 -0.008283 0.038224 0.005124
# 6 0.000234 -0.002905 0.000129 -0.003061 0.005124 0.029495
#
#
# Mechanical properties :
#
#
# Convention : Reuss Voigt Hill
#
# Bulk Modulus (GPa) = 45.98501 71.31303 58.64902
# Shear Modulus (GPa) = 30.86596 38.47912 34.67254
#
# Velocity S-wave (km/s) = 3.53425 3.94612 3.74585
# Velocity P-wave (km/s) = 5.93835 7.04427 6.51482
#
# Compressibility (1/GPa) = 0.02174622
#
# Stress axis : x y z
#
# Youngs Moduli (GPa) = 115.20665 119.44799 58.04424
#
# Poissons Ratio (x) = 0.15473 0.18145
# Poissons Ratio (y) = 0.14924 0.10712
# Poissons Ratio (z) = 0.36014 0.22045
#
# Static dielectric constant tensor:
#      x y z
#    x 2.040760 -0.090360 -0.046130 
#    y -0.090360 2.019070 0.053040 
#    z -0.046130 0.053040 2.039220 
# 
# From -- ./inp_files/515395.got.cif
#   From: 2010.05.17/outbox.cif.g08.bks.cpg/sg2_258_cif.got.tgz:515395.got - 2010.06.03 11:33:40.
