data_PCOD9016907
_publ_section_title
;
Structure prediction by ZEFSAII (Michael W. Deem and Ramdas Pophale) SiO2 
 PCOD9016907
Probable space group: P -1
;
_chemical_formula_sum "Si O2"
_cell_formula_units_Z 14
_cell_length_a 13.363276
_cell_length_b 18.895170
_cell_length_c 6.757000
_cell_angle_alpha 86.843838
_cell_angle_beta 88.170516
_cell_angle_gamma 19.873028
_cell_volume 578.112641
_symmetry_space_group_name_H-M "P -1"
_symmetry_group_IT_number 2
_symmetry_cell_setting 'triclinic'
loop_
_space_group_symop_operation_xyz
x,y,z
-x,-y,-z
loop_
_atom_site_type_symbol
_atom_site_label
_atom_site_fract_x
_atom_site_fract_y
_atom_site_fract_z
Si Si1 0.391108 0.242833 0.261514
Si Si2 0.261539 0.211382 0.577062
Si Si3 0.309655 0.036912 0.066964
Si Si4 0.381193 0.687610 0.060701
Si Si5 0.116842 0.557981 0.110693
Si Si6 0.204813 0.699157 0.730766
Si Si7 0.052272 0.036896 0.617641
O O1 0.232207 0.295976 0.416230
O O2 0.158702 0.445917 0.128545
O O3 0.622129 0.145081 0.361149
O O4 0.582698 0.066199 0.130805
O O5 0.966166 0.372438 0.660971
O O6 0.500000 0.000000 0.500000
O O7 0.421138 0.131299 0.777976
O O8 0.097499 0.122425 0.172844
O O9 0.124731 0.232872 0.020040
O O10 0.589017 0.506135 0.228760
O O11 0.078537 0.894587 0.168887
O O12 0.576181 0.622050 0.980166
O O13 0.341942 0.667122 0.869464
O O14 0.133600 0.777906 0.510425
O O15 0.000000 0.000000 0.500000
#
# Coordination Sequence:
#
# PCOD9016907 Si02
#       7
#     2   2   2   2   2   2   2
#     4  12  26  47  75 102 150 187 238 300 353 425
#     4  12  26  50  76 104 146 188 243 298 352 425
#     4  11  24  49  74 102 142 194 234 297 361 415
#     4  10  23  43  69  99 143 180 231 295 348 426
#     4  11  26  46  71 111 139 191 240 289 359 425
#     4  10  21  42  69  99 135 185 236 282 358 418
#     4  12  25  42  69 108 143 182 235 292 360 422
#
# _framework density 24.216735
#
# number of rings (size 3 to 8) (size 9 to 14) (size 15 to 20)
#    0.000    0.857    4.286    2.143    2.000    1.714 
#   15.429    0.000    0.000    0.000    0.000    0.000 
#    0.000    0.000    0.000    0.000    0.000    0.000 
#
# Total GULP energy -78229.226966 kJ/mol
# GULP energy per Si atom -5587.801926 kJ/mol
# Density = 2.416162 g / cm^3
# Si number density = 24.216735 Si / 1000 Ang^3
#
#
#
# Elastic Constant Matrix: (Units=GPa)
#
#
# Indices 1 2 3 4 5 6 
#
# 1 75.7675 21.6657 44.1527 -16.7956 -21.3069 15.1065
# 2 21.6657 98.8580 27.7103 -1.7466 -16.9636 6.6986
# 3 44.1527 27.7103 109.6859 2.8720 -51.0570 -3.5344
# 4 -16.7956 -1.7466 2.8720 43.5952 0.3218 -13.7328
# 5 -21.3069 -16.9636 -51.0570 0.3218 53.8945 -5.3000
# 6 15.1065 6.6986 -3.5344 -13.7328 -5.3000 25.2756
#
#
#
# Elastic Compliance Matrix: (Units=1/GPa)
#
#
# Indices 1 2 3 4 5 6 
#
# 1 0.022680 -0.001561 -0.010556 0.005555 -0.002756 -0.012177
# 2 -0.001561 0.011297 -0.001851 -0.000848 0.000936 -0.002584
# 3 -0.010556 -0.001851 0.022661 -0.001736 0.017981 0.012796
# 4 0.005555 -0.000848 -0.001736 0.029182 0.001370 0.012804
# 5 -0.002756 0.000936 0.017981 0.001370 0.035986 0.012203
# 6 -0.012177 -0.002584 0.012796 0.012804 0.012203 0.058832
#
#
# Mechanical properties :
#
#
# Convention : Reuss Voigt Hill
#
# Bulk Modulus (GPa) = 34.83957 52.37433 43.60695
# Shear Modulus (GPa) = 22.92069 37.27189 30.09629
#
# Velocity S-wave (km/s) = 3.07983 3.92739 3.52915
# Velocity P-wave (km/s) = 5.20240 6.49924 5.88664
#
# Compressibility (1/GPa) = 0.02870300
#
# Stress axis : x y z
#
# Youngs Moduli (GPa) = 44.09083 88.51701 44.12793
#
# Poissons Ratio (x) = 0.13821 0.46581
# Poissons Ratio (y) = 0.06884 0.08167
# Poissons Ratio (z) = 0.46541 0.16383
#
# Static dielectric constant tensor:
#      x y z
#    x 1.982600 -0.111250 -0.018700 
#    y -0.111250 2.168070 0.040050 
#    z -0.018700 0.040050 1.912080 
# 
# From -- ./inp_files/100555.got.cif
#   From: 2010.05.17/outbox.cif.g08.bks.cpg/sg2_51_cif.got.tgz:100555.got - 2010.06.03 11:33:40.
