data_PCOD9016878
_publ_section_title
;
Structure prediction by ZEFSAII (Michael W. Deem and Ramdas Pophale) SiO2 
 PCOD9016878
Probable space group: P -1
;
_chemical_formula_sum "Si O2"
_cell_formula_units_Z 16
_cell_length_a 14.483655
_cell_length_b 8.876084
_cell_length_c 12.026399
_cell_angle_alpha 110.186847
_cell_angle_beta 103.685734
_cell_angle_gamma 32.541861
_cell_volume 776.050282
_symmetry_space_group_name_H-M "P -1"
_symmetry_group_IT_number 2
_symmetry_cell_setting 'triclinic'
loop_
_space_group_symop_operation_xyz
x,y,z
-x,-y,-z
loop_
_atom_site_type_symbol
_atom_site_label
_atom_site_fract_x
_atom_site_fract_y
_atom_site_fract_z
Si Si1 0.591844 0.035950 0.004262
Si Si2 0.257374 0.702994 0.033257
Si Si3 0.043911 0.022017 0.842446
Si Si4 0.994111 0.129591 0.428451
Si Si5 0.196284 0.159893 0.190900
Si Si6 0.321900 0.847617 0.533086
Si Si7 0.193332 0.287007 0.466697
Si Si8 0.150122 0.191563 0.800249
O O1 0.446951 0.375361 0.030270
O O2 0.714550 0.913466 0.108712
O O3 0.500000 0.000000 0.000000
O O4 0.701726 0.881957 0.883060
O O5 0.230201 0.924669 0.119798
O O6 0.206091 0.763880 0.904438
O O7 0.123716 0.777964 0.080347
O O8 0.033894 0.920992 0.707850
O O9 0.057845 0.182695 0.842922
O O10 0.840280 0.475724 0.486551
O O11 0.000000 0.000000 0.500000
O O12 0.181280 0.951680 0.444068
O O13 0.241073 0.153513 0.325426
O O14 0.993758 0.482356 0.199924
O O15 0.500000 0.500000 0.500000
O O16 0.324059 0.022892 0.524490
O O17 0.241667 0.980946 0.666830
O O18 0.000000 0.500000 0.500000
#
# Coordination Sequence:
#
# PCOD9016878 Si02
#       8
#     2   2   2   2   2   2   2   2
#     4  12  29  45  67 104 143 178 234 294 349 407
#     4  11  26  43  70 105 135 182 231 288 347 405
#     4  11  24  42  73  98 139 182 236 274 347 418
#     4  11  21  43  71  99 133 178 233 282 342 420
#     4  12  23  46  74  97 140 184 232 283 349 419
#     4  11  25  43  68 103 137 181 230 292 349 405
#     4  10  21  42  69  98 132 179 231 279 340 416
#     4  12  25  46  71  97 142 186 231 284 355 418
#
# _framework density 20.617221000000001
#
# number of rings (size 3 to 8) (size 9 to 14) (size 15 to 20)
#    0.000    0.750    5.000    3.000    7.000    0.000 
#    0.000    0.625    0.000    0.000    0.000    0.000 
#    0.000    0.000    0.000    0.000    0.000    0.000 
#
# Total GULP energy -89482.638296 kJ/mol
# GULP energy per Si atom -5592.664893 kJ/mol
# Density = 2.057030 g / cm^3
# Si number density = 20.617221 Si / 1000 Ang^3
#
#
#
# Elastic Constant Matrix: (Units=GPa)
#
#
# Indices 1 2 3 4 5 6 
#
# 1 81.1785 28.9757 29.7792 2.7635 8.3328 11.7626
# 2 28.9757 125.2732 25.0218 21.1740 -15.7056 27.1032
# 3 29.7792 25.0218 101.4902 -4.6900 0.4569 6.5531
# 4 2.7635 21.1740 -4.6900 29.6680 2.2976 -3.6182
# 5 8.3328 -15.7056 0.4569 2.2976 22.9769 -0.7853
# 6 11.7626 27.1032 6.5531 -3.6182 -0.7853 28.0745
#
#
#
# Elastic Compliance Matrix: (Units=1/GPa)
#
#
# Indices 1 2 3 4 5 6 
#
# 1 0.016157 -0.003711 -0.003585 0.000935 -0.008503 -0.002467
# 2 -0.003711 0.017318 -0.002924 -0.015542 0.014246 -0.016086
# 3 -0.003585 -0.002924 0.011707 0.004637 -0.001322 0.002153
# 4 0.000935 -0.015542 0.004637 0.048997 -0.015290 0.019417
# 5 -0.008503 0.014246 -0.001322 -0.015290 0.057549 -0.010243
# 6 -0.002467 -0.016086 0.002153 0.019417 -0.010243 0.053896
#
#
# Mechanical properties :
#
#
# Convention : Reuss Voigt Hill
#
# Bulk Modulus (GPa) = 40.41863 52.83281 46.62572
# Shear Modulus (GPa) = 21.33910 31.08822 26.21366
#
# Velocity S-wave (km/s) = 3.22065 3.88735 3.56960
# Velocity P-wave (km/s) = 5.78593 6.76978 6.29710
#
# Compressibility (1/GPa) = 0.02474107
#
# Stress axis : x y z
#
# Youngs Moduli (GPa) = 61.89364 57.74238 85.41704
#
# Poissons Ratio (x) = 0.21429 0.30622
# Poissons Ratio (y) = 0.22970 0.24980
# Poissons Ratio (z) = 0.22189 0.16887
#
# Static dielectric constant tensor:
#      x y z
#    x 1.783770 0.021740 -0.009250 
#    y 0.021740 1.731480 -0.001600 
#    z -0.009250 -0.001600 1.705960 
# 
# From -- ./inp_files/272192.got.cif
#   From: 2010.05.17/outbox.cif.g08.bks.cpg/sg2_137_cif.got.tgz:272192.got - 2010.06.03 11:33:40.
