data_PCOD9016453
_publ_section_title
;
Structure prediction by ZEFSAII (Michael W. Deem and Ramdas Pophale) SiO2 
 PCOD9016453
Probable space group: P -1
;
_chemical_formula_sum "Si O2"
_cell_formula_units_Z 14
_cell_length_a 14.046020
_cell_length_b 6.847000
_cell_length_c 10.120449
_cell_angle_alpha 66.449586
_cell_angle_beta 39.908228
_cell_angle_gamma 64.003809
_cell_volume 557.864894
_symmetry_space_group_name_H-M "P -1"
_symmetry_group_IT_number 2
_symmetry_cell_setting 'triclinic'
loop_
_space_group_symop_operation_xyz
x,y,z
-x,-y,-z
loop_
_atom_site_type_symbol
_atom_site_label
_atom_site_fract_x
_atom_site_fract_y
_atom_site_fract_z
Si Si1 0.850953 0.719007 0.567540
Si Si2 0.641747 0.574097 0.193015
Si Si3 0.835529 0.249817 0.733302
Si Si4 0.472441 0.256852 0.444554
Si Si5 0.852608 0.603007 0.311364
Si Si6 0.383159 0.872750 0.221176
Si Si7 0.907137 0.788690 0.920499
O O1 0.789316 0.511644 0.743853
O O2 0.917898 0.661939 0.364621
O O3 0.990341 0.762024 0.495204
O O4 0.729886 0.943535 0.625901
O O5 0.632365 0.327256 0.236183
O O6 0.599998 0.630286 0.374221
O O7 0.493365 0.696880 0.239137
O O8 0.792678 0.665367 0.995992
O O9 0.715639 0.212127 0.762017
O O10 0.859472 0.042001 0.862630
O O11 0.328607 0.341061 0.479787
O O12 0.500000 0.000000 0.500000
O O13 0.925126 0.352164 0.259983
O O14 0.887465 0.743655 0.110271
O O15 0.500000 0.000000 0.000000
#
# Coordination Sequence:
#
# PCOD9016453 Si02
#       7
#     2   2   2   2   2   2   2
#     4  11  27  44  71 103 137 189 237 285 347 423
#     4  10  22  41  67  95 132 180 221 277 350 401
#     4  11  26  45  71 102 144 183 238 292 343 415
#     4  10  21  42  67  99 133 172 225 282 336 416
#     4  10  23  46  70 102 136 183 233 279 349 416
#     4  12  25  46  72 100 139 185 230 294 349 409
#     4  10  23  46  70 102 143 181 228 294 346 407
#
# _framework density 25.095683000000001
#
# number of rings (size 3 to 8) (size 9 to 14) (size 15 to 20)
#    0.000    1.429    1.429    2.143    8.000    1.143 
#   15.429    0.000    0.000    0.000    0.000    0.000 
#    0.000    0.000    0.000    0.000    0.000    0.000 
#
# Total GULP energy -78199.347701 kJ/mol
# GULP energy per Si atom -5585.667693 kJ/mol
# Density = 2.503856 g / cm^3
# Si number density = 25.095683 Si / 1000 Ang^3
#
#
#
# Elastic Constant Matrix: (Units=GPa)
#
#
# Indices 1 2 3 4 5 6 
#
# 1 128.1802 37.7615 27.8913 -20.3361 -4.3615 -1.9357
# 2 37.7615 132.2625 37.7764 -34.9196 -9.0569 -2.0700
# 3 27.8913 37.7764 67.1509 -20.8443 -12.6299 8.9536
# 4 -20.3361 -34.9196 -20.8443 50.6066 -1.0904 -4.6259
# 5 -4.3615 -9.0569 -12.6299 -1.0904 42.6471 -13.5109
# 6 -1.9357 -2.0700 8.9536 -4.6259 -13.5109 38.9108
#
#
#
# Elastic Compliance Matrix: (Units=1/GPa)
#
#
# Indices 1 2 3 4 5 6 
#
# 1 0.009070 -0.001340 -0.002568 0.001789 0.000341 0.001302
# 2 -0.001340 0.010652 -0.003680 0.005588 0.002040 0.002719
# 3 -0.002568 -0.003680 0.020716 0.004774 0.004247 -0.003048
# 4 0.001789 0.005588 0.004774 0.026782 0.004777 0.004130
# 5 0.000341 0.002040 0.004247 0.004777 0.028322 0.009550
# 6 0.001302 0.002719 -0.003048 0.004130 0.009550 0.030418
#
#
# Mechanical properties :
#
#
# Convention : Reuss Voigt Hill
#
# Bulk Modulus (GPa) = 39.58469 59.38355 49.48412
# Shear Modulus (GPa) = 33.43227 41.37719 37.40473
#
# Velocity S-wave (km/s) = 3.65388 4.06492 3.86487
# Velocity P-wave (km/s) = 5.79732 6.76355 6.29899
#
# Compressibility (1/GPa) = 0.02526229
#
# Stress axis : x y z
#
# Youngs Moduli (GPa) = 110.25263 93.87816 48.27230
#
# Poissons Ratio (x) = 0.12582 0.12394
# Poissons Ratio (y) = 0.14777 0.17765
# Poissons Ratio (z) = 0.28308 0.34548
#
# Static dielectric constant tensor:
#      x y z
#    x 2.339280 -0.447540 -0.243840 
#    y -0.447540 2.657750 0.181350 
#    z -0.243840 0.181350 2.224460 
# 
# From -- ./inp_files/362968.got.cif
#   From: 2010.05.17/outbox.cif.g08.bks.cpg/sg2_182_cif.got.tgz:362968.got - 2010.06.03 11:33:40.
