data_PCOD9016667
_publ_section_title
;
Structure prediction by ZEFSAII (Michael W. Deem and Ramdas Pophale) SiO2 
 PCOD9016667
Probable space group: P -1
;
_chemical_formula_sum "Si O2"
_cell_formula_units_Z 16
_cell_length_a 16.611612
_cell_length_b 11.624552
_cell_length_c 19.413685
_cell_angle_alpha 31.551675
_cell_angle_beta 20.903998
_cell_angle_gamma 41.240724
_cell_volume 680.085584
_symmetry_space_group_name_H-M "P -1"
_symmetry_group_IT_number 2
_symmetry_cell_setting 'triclinic'
loop_
_space_group_symop_operation_xyz
x,y,z
-x,-y,-z
loop_
_atom_site_type_symbol
_atom_site_label
_atom_site_fract_x
_atom_site_fract_y
_atom_site_fract_z
Si Si1 0.132581 0.089705 0.436463
Si Si2 0.483527 0.225238 0.216298
Si Si3 0.246798 0.559901 0.307565
Si Si4 0.980875 0.629673 0.852751
Si Si5 0.692087 0.238187 0.353166
Si Si6 0.683060 0.510645 0.450999
Si Si7 0.989050 0.563534 0.306536
Si Si8 0.521748 0.025449 0.887818
O O1 0.328724 0.143171 0.313751
O O2 0.029197 0.308539 0.400692
O O3 0.954175 0.856896 0.720710
O O4 0.256284 0.037060 0.294837
O O5 0.421292 0.451539 0.179609
O O6 0.400913 0.029626 0.439325
O O7 0.759694 0.278010 0.957477
O O8 0.000000 0.500000 0.500000
O O9 0.201932 0.448532 0.475524
O O10 0.318731 0.828572 0.119980
O O11 0.079638 0.715693 0.804887
O O12 0.186360 0.553774 0.686454
O O13 0.771144 0.408543 0.139347
O O14 0.486132 0.326247 0.509442
O O15 0.534564 0.277660 0.722684
O O16 0.881985 0.615983 0.293621
O O17 0.500000 0.000000 0.000000
#
# Coordination Sequence:
#
# PCOD9016667 Si02
#       8
#     2   2   2   2   2   2   2   2
#     4  10  21  42  68  98 134 172 221 283 338 393
#     4  11  24  45  66  97 135 180 225 275 332 402
#     4  12  24  41  69  99 133 174 224 275 335 402
#     4   9  22  42  68  95 124 174 226 281 326 388
#     4  10  23  43  69  92 129 177 229 269 325 399
#     4  11  25  40  64  99 134 174 220 277 331 397
#     4  12  24  40  65 100 135 175 215 275 343 399
#     4  11  23  41  65 100 137 168 218 279 337 401
#
# _framework density 23.526451000000002
#
# number of rings (size 3 to 8) (size 9 to 14) (size 15 to 20)
#    0.000    1.250    3.750    1.500    1.750    6.500 
#    0.000    1.250    0.000    0.000    0.000    0.000 
#    0.000    0.000    0.000    0.000    0.000    0.000 
#
# Total GULP energy -89509.278577 kJ/mol
# GULP energy per Si atom -5594.329911 kJ/mol
# Density = 2.347290 g / cm^3
# Si number density = 23.526451 Si / 1000 Ang^3
#
#
#
# Elastic Constant Matrix: (Units=GPa)
#
#
# Indices 1 2 3 4 5 6 
#
# 1 68.1066 9.4113 14.8207 -1.8478 -6.7459 7.7570
# 2 9.4113 72.2367 11.4418 -7.6777 2.8974 -0.0116
# 3 14.8207 11.4418 110.2242 -13.2926 9.6974 2.0963
# 4 -1.8478 -7.6777 -13.2926 33.0071 1.6227 0.9367
# 5 -6.7459 2.8974 9.6974 1.6227 35.4843 7.2784
# 6 7.7570 -0.0116 2.0963 0.9367 7.2784 28.9722
#
#
#
# Elastic Compliance Matrix: (Units=1/GPa)
#
#
# Indices 1 2 3 4 5 6 
#
# 1 0.016626 -0.002053 -0.002447 -0.000629 0.005165 -0.005552
# 2 -0.002053 0.014621 -0.000742 0.003045 -0.001714 0.000941
# 3 -0.002447 -0.000742 0.010255 0.003975 -0.003527 0.000670
# 4 -0.000629 0.003045 0.003975 0.032724 -0.002857 -0.000458
# 5 0.005165 -0.001714 -0.003527 -0.002857 0.032273 -0.009144
# 6 -0.005552 0.000941 0.000670 -0.000458 -0.009144 0.038266
#
#
# Mechanical properties :
#
#
# Convention : Reuss Voigt Hill
#
# Bulk Modulus (GPa) = 32.23899 35.76835 34.00367
# Shear Modulus (GPa) = 30.19532 33.81898 32.00715
#
# Velocity S-wave (km/s) = 3.58643 3.79553 3.69246
# Velocity P-wave (km/s) = 5.55725 5.86895 5.71523
#
# Compressibility (1/GPa) = 0.03101834
#
# Stress axis : x y z
#
# Youngs Moduli (GPa) = 60.14676 68.39539 97.51073
#
# Poissons Ratio (x) = 0.14044 0.23861
# Poissons Ratio (y) = 0.12350 0.07231
# Poissons Ratio (z) = 0.14718 0.05072
#
# Static dielectric constant tensor:
#      x y z
#    x 1.938370 0.016540 0.013450 
#    y 0.016540 1.848990 0.015990 
#    z 0.013450 0.015990 1.950750 
# 
# From -- ./inp_files/427620.got.cif
#   From: 2010.05.17/outbox.cif.g08.bks.cpg/sg2_214_cif.got.tgz:427620.got - 2010.06.03 11:33:40.
