data_PCOD9016189
_publ_section_title
;
Structure prediction by ZEFSAII (Michael W. Deem and Ramdas Pophale) SiO2 
 PCOD9016189
Probable space group: P -1
;
_chemical_formula_sum "Si O2"
_cell_formula_units_Z 16
_cell_length_a 6.125867
_cell_length_b 5.398590
_cell_length_c 29.280933
_cell_angle_alpha 59.429667
_cell_angle_beta 128.387535
_cell_angle_gamma 104.257987
_cell_volume 650.043046
_symmetry_space_group_name_H-M "P -1"
_symmetry_group_IT_number 2
_symmetry_cell_setting 'triclinic'
loop_
_space_group_symop_operation_xyz
x,y,z
-x,-y,-z
loop_
_atom_site_type_symbol
_atom_site_label
_atom_site_fract_x
_atom_site_fract_y
_atom_site_fract_z
Si Si1 0.265535 0.270043 0.062775
Si Si2 0.310236 0.167537 0.178684
Si Si3 0.542684 0.819604 0.069856
Si Si4 0.261551 0.125665 0.270522
Si Si5 0.292146 0.408142 0.707559
Si Si6 0.803263 0.534346 0.210796
Si Si7 0.665104 0.273442 0.506277
Si Si8 0.245809 0.351384 0.606235
O O1 0.215605 0.131491 0.118472
O O2 0.498765 0.494089 0.077723
O O3 0.332584 0.026252 0.056355
O O4 0.000000 0.500000 0.000000
O O5 0.119475 0.165849 0.198279
O O6 0.485131 0.446659 0.175819
O O7 0.529113 0.898525 0.244738
O O8 0.801836 0.747703 0.146757
O O9 0.500000 0.000000 0.000000
O O10 0.494299 0.353158 0.280199
O O11 0.018348 0.249940 0.260421
O O12 0.450993 0.833762 0.334551
O O13 0.136379 0.369571 0.738945
O O14 0.164547 0.470757 0.635203
O O15 0.500000 0.500000 0.500000
O O16 0.717565 0.423107 0.450389
O O17 0.979083 0.183468 0.574469
O O18 0.500000 0.000000 0.500000
#
# Coordination Sequence:
#
# PCOD9016189 Si02
#       8
#     2   2   2   2   2   2   2   2
#     4  11  23  41  66  91 131 181 233 293 366 419
#     4   9  21  41  58  92 136 173 236 294 352 429
#     4  11  24  42  63  99 134 180 240 299 353 439
#     4  10  23  40  68 102 134 189 229 299 358 425
#     4  10  21  42  66  98 138 181 231 299 347 428
#     4  10  22  41  66  94 143 181 240 291 374 413
#     4  11  28  50  83 111 152 203 234 299 365 425
#     4  10  26  48  72 112 151 179 264 288 353 449
#
# _framework density 24.613755999999999
#
# number of rings (size 3 to 8) (size 9 to 14) (size 15 to 20)
#    0.000    1.750    1.250    0.750    5.250    8.000 
#    0.000    0.000    0.000    0.000    0.000    0.000 
#    0.000    0.000    0.000    0.000    0.000    0.000 
#
# Total GULP energy -89183.678435 kJ/mol
# GULP energy per Si atom -5573.979902 kJ/mol
# Density = 2.455773 g / cm^3
# Si number density = 24.613756 Si / 1000 Ang^3
#
#
#
# Elastic Constant Matrix: (Units=GPa)
#
#
# Indices 1 2 3 4 5 6 
#
# 1 66.0593 29.4736 56.5753 9.8641 -4.9063 -25.1130
# 2 29.4736 102.7979 31.3405 12.4698 -4.5034 -5.2209
# 3 56.5753 31.3405 137.3337 29.2502 -25.0620 -15.1487
# 4 9.8641 12.4698 29.2502 32.2313 -9.2228 -0.9407
# 5 -4.9063 -4.5034 -25.0620 -9.2228 51.0629 2.6055
# 6 -25.1130 -5.2209 -15.1487 -0.9407 2.6055 51.8569
#
#
#
# Elastic Compliance Matrix: (Units=1/GPa)
#
#
# Indices 1 2 3 4 5 6 
#
# 1 0.030959 -0.005249 -0.011384 0.002291 -0.003241 0.011343
# 2 -0.005249 0.011511 0.000000 -0.002870 0.000066 -0.001439
# 3 -0.011384 0.000000 0.014387 -0.008320 0.004551 -0.001690
# 4 0.002291 -0.002870 -0.008320 0.039852 0.003135 -0.001044
# 5 -0.003241 0.000066 0.004551 0.003135 0.022144 -0.001289
# 6 0.011343 -0.001439 -0.001690 -0.001044 -0.001289 0.024184
#
#
# Mechanical properties :
#
#
# Convention : Reuss Voigt Hill
#
# Bulk Modulus (GPa) = 42.38882 60.10774 51.24828
# Shear Modulus (GPa) = 27.14928 39.61697 33.38313
#
# Velocity S-wave (km/s) = 3.32477 4.01627 3.68677
# Velocity P-wave (km/s) = 5.65665 6.78090 6.24413
#
# Compressibility (1/GPa) = 0.02359113
#
# Stress axis : x y z
#
# Youngs Moduli (GPa) = 32.30079 86.87489 69.50596
#
# Poissons Ratio (x) = 0.45605 0.79125
# Poissons Ratio (y) = 0.16956 -0.00003
# Poissons Ratio (z) = 0.36771 -0.00003
#
# Static dielectric constant tensor:
#      x y z
#    x 1.976650 0.045400 -0.006590 
#    y 0.045400 2.008620 0.064290 
#    z -0.006590 0.064290 1.987760 
# 
# From -- ./inp_files/13298.got.cif
#   From: 2010.05.17/outbox.cif.g08.bks.cpg/sg2_7_cif.got.tgz:13298.got - 2010.06.03 11:33:40.
