data_PCOD9016024
_publ_section_title
;
Structure prediction by ZEFSAII (Michael W. Deem and Ramdas Pophale) SiO2 
 PCOD9016024
Probable space group: P -1
;
_chemical_formula_sum "Si O2"
_cell_formula_units_Z 14
_cell_length_a 8.425543
_cell_length_b 21.193939
_cell_length_c 6.618086
_cell_angle_alpha 109.286419
_cell_angle_beta 120.200050
_cell_angle_gamma 35.796309
_cell_volume 590.318329
_symmetry_space_group_name_H-M "P -1"
_symmetry_group_IT_number 2
_symmetry_cell_setting 'triclinic'
loop_
_space_group_symop_operation_xyz
x,y,z
-x,-y,-z
loop_
_atom_site_type_symbol
_atom_site_label
_atom_site_fract_x
_atom_site_fract_y
_atom_site_fract_z
Si Si1 0.822795 0.879347 0.010306
Si Si2 0.995499 0.516089 0.749607
Si Si3 0.907629 0.746104 0.188448
Si Si4 0.514437 0.223242 0.290077
Si Si5 0.633352 0.829181 0.516847
Si Si6 0.063295 0.053593 0.190318
Si Si7 0.710818 0.479460 0.773632
O O1 0.968483 0.803820 0.220454
O O2 0.793658 0.824231 0.787587
O O3 0.962947 0.892352 0.965026
O O4 0.500000 0.000000 0.000000
O O5 0.713471 0.648888 0.739929
O O6 0.923603 0.466092 0.758179
O O7 0.000000 0.500000 0.500000
O O8 0.295448 0.464882 0.983061
O O9 0.866085 0.748042 0.402225
O O10 0.152351 0.624436 0.138756
O O11 0.604934 0.802535 0.959355
O O12 0.506944 0.194333 0.481335
O O13 0.838683 0.141180 0.314712
O O14 0.388482 0.949592 0.389631
O O15 0.000000 0.000000 0.000000
O O16 0.500000 0.500000 0.500000
#
# Coordination Sequence:
#
# PCOD9016024 Si02
#       7
#     2   2   2   2   2   2   2
#     4  11  23  40  61  90 129 174 217 261 323 400
#     4  10  22  45  71  97 137 177 222 291 346 401
#     4  10  21  42  66  91 128 173 215 270 335 396
#     4  10  22  39  64  98 126 170 220 267 337 397
#     4  11  21  40  64  86 130 174 208 264 329 391
#     4  12  22  40  61  93 132 168 216 269 322 395
#     4  10  23  44  69  99 134 172 230 286 341 406
#
# _framework density 23.716017000000001
#
# number of rings (size 3 to 8) (size 9 to 14) (size 15 to 20)
#    0.000    1.429    2.857    2.571    0.000    1.714 
#    2.571    0.000    0.000    0.000    0.000    0.000 
#    0.000    0.000    0.000    0.000    0.000    0.000 
#
# Total GULP energy -77975.873150 kJ/mol
# GULP energy per Si atom -5569.705225 kJ/mol
# Density = 2.366204 g / cm^3
# Si number density = 23.716017 Si / 1000 Ang^3
#
#
#
# Elastic Constant Matrix: (Units=GPa)
#
#
# Indices 1 2 3 4 5 6 
#
# 1 119.1782 45.4502 31.2492 10.2761 -22.4544 41.4209
# 2 45.4502 79.3976 1.2809 3.2462 -5.2683 29.2897
# 3 31.2492 1.2809 128.3686 18.2942 7.3387 8.0075
# 4 10.2761 3.2462 18.2942 30.6545 -2.1433 -5.2935
# 5 -22.4544 -5.2683 7.3387 -2.1433 48.8109 -5.7844
# 6 41.4209 29.2897 8.0075 -5.2935 -5.7844 34.3087
#
#
#
# Elastic Compliance Matrix: (Units=1/GPa)
#
#
# Indices 1 2 3 4 5 6 
#
# 1 0.018814 -0.002644 -0.002582 -0.007515 0.006059 -0.019993
# 2 -0.002644 0.019853 0.002243 -0.005307 -0.001462 -0.015346
# 3 -0.002582 0.002243 0.009519 -0.005668 -0.002908 -0.002384
# 4 -0.007515 -0.005307 -0.005668 0.042934 0.001287 0.021767
# 5 0.006059 -0.001462 -0.002908 0.001287 0.023464 -0.001233
# 6 -0.019993 -0.015346 -0.002384 0.021767 -0.001233 0.070092
#
#
# Mechanical properties :
#
#
# Convention : Reuss Voigt Hill
#
# Bulk Modulus (GPa) = 23.68554 53.65610 38.67082
# Shear Modulus (GPa) = 24.42423 39.35244 31.88834
#
# Velocity S-wave (km/s) = 3.21263 4.07789 3.67084
# Velocity P-wave (km/s) = 4.87546 6.69670 5.85730
#
# Compressibility (1/GPa) = 0.04221985
#
# Stress axis : x y z
#
# Youngs Moduli (GPa) = 53.15215 50.37041 105.05430
#
# Poissons Ratio (x) = 0.13316 0.27123
# Poissons Ratio (y) = 0.14052 -0.23559
# Poissons Ratio (z) = 0.13723 -0.11296
#
# Static dielectric constant tensor:
#      x y z
#    x 2.031910 -0.028040 0.071980 
#    y -0.028040 1.898190 -0.067050 
#    z 0.071980 -0.067050 2.128530 
# 
# From -- ./inp_files/49460.got.cif
#   From: 2010.05.17/outbox.cif.g08.bks.cpg/sg2_25_cif.got.tgz:49460.got - 2010.06.03 11:33:40.
