data_PCOD9016400
_publ_section_title
;
Structure prediction by ZEFSAII (Michael W. Deem and Ramdas Pophale) SiO2 
 PCOD9016400
Probable space group: P -1
;
_chemical_formula_sum "Si O2"
_cell_formula_units_Z 12
_cell_length_a 5.336253
_cell_length_b 18.701766
_cell_length_c 13.899790
_cell_angle_alpha 23.045030
_cell_angle_beta 55.591849
_cell_angle_gamma 51.951152
_cell_volume 427.603631
_symmetry_space_group_name_H-M "P -1"
_symmetry_group_IT_number 2
_symmetry_cell_setting 'triclinic'
loop_
_space_group_symop_operation_xyz
x,y,z
-x,-y,-z
loop_
_atom_site_type_symbol
_atom_site_label
_atom_site_fract_x
_atom_site_fract_y
_atom_site_fract_z
Si Si1 0.306150 0.114250 0.551007
Si Si2 0.323374 0.932006 0.211012
Si Si3 0.638454 0.553206 0.540818
Si Si4 0.657645 0.710817 0.142112
Si Si5 0.290849 0.518633 0.138963
Si Si6 0.792313 0.744063 0.809933
O O1 0.362182 0.298636 0.362042
O O2 0.126397 0.189388 0.395043
O O3 0.044185 0.048545 0.750059
O O4 0.597940 0.937329 0.670169
O O5 0.501295 0.708577 0.458622
O O6 0.500000 0.000000 0.000000
O O7 0.346018 0.072270 0.118261
O O8 0.497167 0.666442 0.331080
O O9 0.528933 0.366415 0.802313
O O10 0.000000 0.500000 0.500000
O O11 0.019599 0.582855 0.202040
O O12 0.568406 0.610121 0.995482
O O13 0.089477 0.635940 0.945771
#
# Coordination Sequence:
#
# PCOD9016400 Si02
#       6
#     2   2   2   2   2   2
#     4  11  24  47  74 106 145 195 240 302 366 428
#     4  10  21  42  67  96 142 178 233 291 357 423
#     4  10  22  40  65  95 134 187 236 284 363 422
#     4  10  22  40  63  95 138 175 235 295 347 424
#     4  12  25  47  74 110 144 190 245 301 365 427
#     4  11  28  47  75 108 147 189 249 298 360 437
#
# _framework density 28.063374
#
# number of rings (size 3 to 8) (size 9 to 14) (size 15 to 20)
#    0.000    1.333    3.333    1.000    2.333    4.667 
#    3.000    0.000    0.000    0.000    0.000    0.000 
#    0.000    0.000    0.000    0.000    0.000    0.000 
#
# Total GULP energy -67232.377426 kJ/mol
# GULP energy per Si atom -5602.698119 kJ/mol
# Density = 2.799950 g / cm^3
# Si number density = 28.063374 Si / 1000 Ang^3
#
#
#
# Elastic Constant Matrix: (Units=GPa)
#
#
# Indices 1 2 3 4 5 6 
#
# 1 123.8913 30.6101 56.4019 -24.0139 -25.5261 8.2133
# 2 30.6101 179.3092 72.7459 -36.3302 -18.6704 13.1620
# 3 56.4019 72.7459 193.7871 -70.6105 -32.3470 -8.6449
# 4 -24.0139 -36.3302 -70.6105 96.1509 10.0951 0.7740
# 5 -25.5261 -18.6704 -32.3470 10.0951 52.1620 10.1706
# 6 8.2133 13.1620 -8.6449 0.7740 10.1706 57.6044
#
#
#
# Elastic Compliance Matrix: (Units=1/GPa)
#
#
# Indices 1 2 3 4 5 6 
#
# 1 0.010172 -0.000166 -0.002168 0.000489 0.003955 -0.002443
# 2 -0.000166 0.006935 -0.002091 0.000920 0.001340 -0.002124
# 3 -0.002168 -0.002091 0.008831 0.004888 0.002405 0.001622
# 4 0.000489 0.000920 0.004888 0.014376 0.000795 0.000120
# 5 0.003955 0.001340 0.002405 0.000795 0.023846 -0.004730
# 6 -0.002443 -0.002124 0.001622 0.000120 -0.004730 0.019270
#
#
# Mechanical properties :
#
#
# Convention : Reuss Voigt Hill
#
# Bulk Modulus (GPa) = 58.52501 90.72260 74.62380
# Shear Modulus (GPa) = 51.03237 63.66542 57.34890
#
# Velocity S-wave (km/s) = 4.26898 4.76818 4.52547
# Velocity P-wave (km/s) = 6.72300 7.91909 7.34543
#
# Compressibility (1/GPa) = 0.01708671
#
# Stress axis : x y z
#
# Youngs Moduli (GPa) = 98.31365 144.18585 113.23463
#
# Poissons Ratio (x) = 0.02399 0.24554
# Poissons Ratio (y) = 0.01636 0.23677
# Poissons Ratio (z) = 0.21319 0.30148
#
# Static dielectric constant tensor:
#      x y z
#    x 2.401280 0.087760 0.206770 
#    y 0.087760 2.292490 0.006960 
#    z 0.206770 0.006960 2.286350 
# 
# From -- ./inp_files/48696.got.cif
#   From: 2010.05.17/outbox.cif.g08.bks.cpg/sg2_25_cif.got.tgz:48696.got - 2010.06.03 11:33:40.
