data_PCOD9016437
_publ_section_title
;
Structure prediction by ZEFSAII (Michael W. Deem and Ramdas Pophale) SiO2 
 PCOD9016437
Probable space group: P -1
;
_chemical_formula_sum "Si O2"
_cell_formula_units_Z 16
_cell_length_a 25.257214
_cell_length_b 5.075600
_cell_length_c 5.148278
_cell_angle_alpha 79.492701
_cell_angle_beta 73.981245
_cell_angle_gamma 61.379018
_cell_volume 555.860327
_symmetry_space_group_name_H-M "P -1"
_symmetry_group_IT_number 2
_symmetry_cell_setting 'triclinic'
loop_
_space_group_symop_operation_xyz
x,y,z
-x,-y,-z
loop_
_atom_site_type_symbol
_atom_site_label
_atom_site_fract_x
_atom_site_fract_y
_atom_site_fract_z
Si Si1 0.671397 0.426389 0.129682
Si Si2 0.329018 0.174880 0.453591
Si Si3 0.805394 0.672836 0.372656
Si Si4 0.932440 0.798670 0.719652
Si Si5 0.427245 0.688394 0.625544
Si Si6 0.939243 0.440555 0.271803
Si Si7 0.195629 0.772792 0.952897
Si Si8 0.571742 0.910632 0.974802
O O1 0.676858 0.598247 0.348299
O O2 0.658665 0.144502 0.320618
O O3 0.743684 0.253041 0.977460
O O4 0.586505 0.600431 0.213903
O O5 0.260870 0.244532 0.423525
O O6 0.350659 0.335170 0.142762
O O7 0.410670 0.940994 0.356234
O O8 0.874159 0.439182 0.410811
O O9 0.799355 0.529281 0.130636
O O10 0.809273 0.985180 0.302836
O O11 0.938247 0.687711 0.436924
O O12 0.992781 0.828675 0.727015
O O13 0.935785 0.538420 0.960680
O O14 0.866542 0.061546 0.834104
O O15 0.500000 0.500000 0.500000
O O16 0.426132 0.852620 0.866655
O O17 0.500000 0.000000 0.000000
#
# Coordination Sequence:
#
# PCOD9016437 Si02
#       8
#     2   2   2   2   2   2   2   2
#     4  10  22  41  60  86 122 164 208 269 327 396
#     4  10  22  41  60  86 124 161 210 268 327 395
#     4  10  21  42  67  98 130 178 223 279 339 407
#     4   9  19  39  66  99 139 183 231 284 343 408
#     4  11  22  38  62  84 119 162 205 264 329 396
#     4   9  19  39  66  99 139 183 231 284 343 408
#     4  10  21  42  68  96 134 174 228 276 340 408
#     4  11  24  40  59  92 121 160 217 268 332 396
#
# _framework density 28.784205
#
# number of rings (size 3 to 8) (size 9 to 14) (size 15 to 20)
#    0.000    2.000    1.250    1.500    0.000    6.500 
#   13.500    0.000    0.000   13.500    0.000    0.000 
#    0.000    0.000    0.000    0.000    0.000    0.000 
#
# Total GULP energy -89376.835738 kJ/mol
# GULP energy per Si atom -5586.052234 kJ/mol
# Density = 2.871869 g / cm^3
# Si number density = 28.784205 Si / 1000 Ang^3
#
#
#
# Elastic Constant Matrix: (Units=GPa)
#
#
# Indices 1 2 3 4 5 6 
#
# 1 230.4349 116.9973 6.7101 -56.2802 29.5819 -105.1451
# 2 116.9973 106.6134 82.7264 11.1767 -52.4098 9.7720
# 3 6.7101 82.7264 89.1098 -60.1638 55.2870 -45.1463
# 4 -56.2802 11.1767 -60.1638 26.2463 64.2692 -30.3595
# 5 29.5819 -52.4098 55.2870 64.2692 -23.7111 70.5124
# 6 -105.1451 9.7720 -45.1463 -30.3595 70.5124 52.1294
#
#
#
# Elastic Compliance Matrix: (Units=1/GPa)
#
#
# Indices 1 2 3 4 5 6 
#
# 1 0.004916 -0.001663 -0.002031 -0.002009 0.004247 0.001553
# 2 -0.001663 0.009094 -0.001100 0.004422 -0.004574 0.002751
# 3 -0.002031 -0.001100 0.007423 -0.000959 0.004081 -0.003540
# 4 -0.002009 0.004422 -0.000959 0.012455 0.004744 -0.004875
# 5 0.004247 -0.004574 0.004081 0.004744 0.008435 0.004312
# 6 0.001553 0.002751 -0.003540 -0.004875 0.004312 0.010062
#
#
# Mechanical properties :
#
#
# Convention : Reuss Voigt Hill
#
# Bulk Modulus (GPa) = 84.42012 93.22504 88.82258
# Shear Modulus (GPa) = 75.84780 25.58120 50.71450
#
# Velocity S-wave (km/s) = 5.13884 2.98438 4.20204
# Velocity P-wave (km/s) = 8.03757 6.65832 7.38024
#
# Compressibility (1/GPa) = 0.01184552
#
# Stress axis : x y z
#
# Youngs Moduli (GPa) = 203.42040 109.96371 134.70849
#
# Poissons Ratio (x) = 0.18285 0.27358
# Poissons Ratio (y) = 0.33825 0.14820
# Poissons Ratio (z) = 0.41313 0.12098
#
# Static dielectric constant tensor:
#      x y z
#    x 2.639040 0.033240 -0.584560 
#    y 0.033240 2.491840 -0.318420 
#    z -0.584560 -0.318420 2.663610 
# 
# From -- ./inp_files/11445.got.cif
#   From: 2010.05.17/outbox.cif.g08.bks.cpg/sg2_6_cif.got.tgz:11445.got - 2010.06.03 11:33:40.
