data_PCOD9016275
_publ_section_title
;
Structure prediction by ZEFSAII (Michael W. Deem and Ramdas Pophale) SiO2 
 PCOD9016275
Probable space group: P -1
;
_chemical_formula_sum "Si O2"
_cell_formula_units_Z 16
_cell_length_a 9.210150
_cell_length_b 8.963133
_cell_length_c 14.996192
_cell_angle_alpha 101.719233
_cell_angle_beta 120.729854
_cell_angle_gamma 122.003199
_cell_volume 685.653290
_symmetry_space_group_name_H-M "P -1"
_symmetry_group_IT_number 2
_symmetry_cell_setting 'triclinic'
loop_
_space_group_symop_operation_xyz
x,y,z
-x,-y,-z
loop_
_atom_site_type_symbol
_atom_site_label
_atom_site_fract_x
_atom_site_fract_y
_atom_site_fract_z
Si Si1 0.862047 0.275925 0.983750
Si Si2 0.573474 0.887275 0.548871
Si Si3 0.294378 0.539224 0.737696
Si Si4 0.181460 0.986893 0.524937
Si Si5 0.405798 0.859649 0.677444
Si Si6 0.592884 0.354088 0.003132
Si Si7 0.928819 0.861914 0.169382
Si Si8 0.180934 0.226526 0.146701
O O1 0.690395 0.062795 0.834888
O O2 0.673004 0.241361 0.984629
O O3 0.000000 0.500000 0.000000
O O4 0.068512 0.317348 0.106806
O O5 0.409386 0.765940 0.574129
O O6 0.500000 0.000000 0.500000
O O7 0.608339 0.815122 0.459255
O O8 0.860144 0.076571 0.698714
O O9 0.258565 0.669963 0.685503
O O10 0.376524 0.616823 0.875947
O O11 0.527736 0.606004 0.770810
O O12 0.029796 0.271772 0.613293
O O13 0.319747 0.973260 0.640202
O O14 0.000000 0.000000 0.500000
O O15 0.769734 0.610017 0.047636
O O16 0.303778 0.201743 0.867711
O O17 0.097167 0.101309 0.199452
O O18 0.000000 0.000000 0.000000
#
# Coordination Sequence:
#
# PCOD9016275 Si02
#       8
#     2   2   2   2   2   2   2   2
#     4  12  27  41  69 108 141 170 230 276 343 411
#     4  10  21  42  67  90 128 180 222 264 333 401
#     4  12  24  45  70  97 138 181 228 271 352 405
#     4  11  27  45  69  99 129 176 239 285 330 400
#     4  11  24  45  69  95 137 184 220 278 338 405
#     4  11  25  39  71 103 134 181 221 278 339 409
#     4  11  21  41  69  95 132 179 223 265 349 396
#     4  12  22  42  66  99 139 176 216 281 344 406
#
# _framework density 23.33541
#
# number of rings (size 3 to 8) (size 9 to 14) (size 15 to 20)
#    0.000    0.750    5.000    1.875    5.250    2.000 
#    0.000    0.625    0.000    0.000    0.000    0.000 
#    0.000    0.000    0.000    0.000    0.000    0.000 
#
# Total GULP energy -89257.913599 kJ/mol
# GULP energy per Si atom -5578.619600 kJ/mol
# Density = 2.328230 g / cm^3
# Si number density = 23.335410 Si / 1000 Ang^3
#
#
#
# Elastic Constant Matrix: (Units=GPa)
#
#
# Indices 1 2 3 4 5 6 
#
# 1 124.1701 31.8675 26.9561 -29.3222 17.7534 -9.9947
# 2 31.8675 108.6546 26.0558 -17.5764 -1.0099 11.6660
# 3 26.9561 26.0558 74.6970 -20.9388 29.6523 2.8256
# 4 -29.3222 -17.5764 -20.9388 25.2000 -4.2881 7.7549
# 5 17.7534 -1.0099 29.6523 -4.2881 43.2386 -5.7136
# 6 -9.9947 11.6660 2.8256 7.7549 -5.7136 30.7090
#
#
#
# Elastic Compliance Matrix: (Units=1/GPa)
#
#
# Indices 1 2 3 4 5 6 
#
# 1 0.012007 -0.001900 0.002145 0.013542 -0.005094 0.000065
# 2 -0.001900 0.012094 -0.002542 0.006442 0.002637 -0.006115
# 3 0.002145 -0.002542 0.028458 0.024359 -0.019458 -0.010726
# 4 0.013542 0.006442 0.024359 0.084943 -0.016979 -0.024891
# 5 -0.005094 0.002637 -0.019458 -0.016979 0.038335 0.010551
# 6 0.000065 -0.006115 -0.010726 -0.024891 0.010551 0.044143
#
#
# Mechanical properties :
#
#
# Convention : Reuss Voigt Hill
#
# Bulk Modulus (GPa) = 20.84857 53.03115 36.93986
# Shear Modulus (GPa) = 20.78471 34.67233 27.72852
#
# Velocity S-wave (km/s) = 2.98769 3.85882 3.45085
# Velocity P-wave (km/s) = 4.56677 6.52909 5.63402
#
# Compressibility (1/GPa) = 0.04796492
#
# Stress axis : x y z
#
# Youngs Moduli (GPa) = 83.28781 82.68895 35.13933
#
# Poissons Ratio (x) = 0.15708 -0.07539
# Poissons Ratio (y) = 0.15822 0.08934
# Poissons Ratio (z) = -0.17869 0.21023
#
# Static dielectric constant tensor:
#      x y z
#    x 2.043570 0.100870 -0.116670 
#    y 0.100870 1.977330 -0.124440 
#    z -0.116670 -0.124440 1.922640 
# 
# From -- ./inp_files/495290.got.cif
#   From: 2010.05.17/outbox.cif.g08.bks.cpg/sg2_248_cif.got.tgz:495290.got - 2010.06.03 11:33:40.
