data_PCOD9016720
_publ_section_title
;
Structure prediction by ZEFSAII (Michael W. Deem and Ramdas Pophale) SiO2 
 PCOD9016720
Probable space group: P -1
;
_chemical_formula_sum "Si O2"
_cell_formula_units_Z 13
_cell_length_a 5.569802
_cell_length_b 19.250855
_cell_length_c 7.958463
_cell_angle_alpha 146.309051
_cell_angle_beta 88.581102
_cell_angle_gamma 88.130070
_cell_volume 471.024852
_symmetry_space_group_name_H-M "P -1"
_symmetry_group_IT_number 2
_symmetry_cell_setting 'triclinic'
loop_
_space_group_symop_operation_xyz
x,y,z
-x,-y,-z
loop_
_atom_site_type_symbol
_atom_site_label
_atom_site_fract_x
_atom_site_fract_y
_atom_site_fract_z
Si Si1 0.390990 0.552281 0.836295
Si Si2 0.791333 0.407686 0.722078
Si Si3 0.520125 0.172780 0.213271
Si Si4 0.168436 0.804570 0.219429
Si Si5 0.500000 0.000000 0.500000
Si Si6 0.221662 0.071506 0.313324
Si Si7 0.190137 0.305231 0.254318
O O1 0.660127 0.520413 0.840127
O O2 0.314941 0.434976 0.490589
O O3 0.205735 0.559371 0.015477
O O4 0.359728 0.687336 0.023486
O O5 0.586446 0.310644 0.523571
O O6 0.016690 0.336690 0.481142
O O7 0.343325 0.129482 0.268601
O O8 0.379912 0.185057 0.060088
O O9 0.759495 0.077666 0.020049
O O10 0.032765 0.858552 0.496354
O O11 0.256042 0.923082 0.361525
O O12 0.975384 0.737152 0.974885
O O13 0.399149 0.073472 0.474110
#
# Coordination Sequence:
#
# PCOD9016720 Si02
#       7
#     2   2   2   2   1   2   2
#     4  10  23  42  68 102 135 176 227 280 341 406
#     4  10  21  42  69 101 136 174 225 287 338 400
#     4  10  23  43  70 102 134 177 232 278 337 407
#     4  12  26  44  68 100 140 182 225 279 343 406
#     4  12  26  44  64  96 136 180 226 274 334 402
#     4  11  24  44  69  97 137 183 226 281 336 402
#     4  11  23  42  70 102 138 178 223 281 343 406
#
# _framework density 27.599391000000001
#
# number of rings (size 3 to 8) (size 9 to 14) (size 15 to 20)
#    0.000    1.231    0.000    5.077    0.000    6.769 
#    0.000    6.154    0.000    0.000    0.000    3.231 
#    0.000    0.000    0.000    0.000    0.000    0.000 
#
# Total GULP energy -72746.091571 kJ/mol
# GULP energy per Si atom -5595.853198 kJ/mol
# Density = 2.753657 g / cm^3
# Si number density = 27.599391 Si / 1000 Ang^3
#
#
#
# Elastic Constant Matrix: (Units=GPa)
#
#
# Indices 1 2 3 4 5 6 
#
# 1 74.8903 15.5368 51.3034 16.5595 -18.8926 -1.7115
# 2 15.5368 110.3075 47.9818 21.3739 10.3665 -11.2644
# 3 51.3034 47.9818 97.6022 14.9595 -4.9424 -4.8272
# 4 16.5595 21.3739 14.9595 60.4433 1.3591 -6.6697
# 5 -18.8926 10.3665 -4.9424 1.3591 64.7868 -6.8780
# 6 -1.7115 -11.2644 -4.8272 -6.6697 -6.8780 45.4974
#
#
#
# Elastic Compliance Matrix: (Units=1/GPa)
#
#
# Indices 1 2 3 4 5 6 
#
# 1 0.024147 0.002599 -0.012982 -0.004407 0.005770 0.000401
# 2 0.002599 0.012758 -0.007135 -0.003225 -0.001570 0.001789
# 3 -0.012982 -0.007135 0.020353 0.001056 -0.001125 -0.000111
# 4 -0.004407 -0.003225 0.001056 0.018847 -0.000895 0.001775
# 5 0.005770 -0.001570 -0.001125 -0.000895 0.017539 0.002229
# 6 0.000401 0.001789 -0.000111 0.001775 0.002229 0.023023
#
#
# Mechanical properties :
#
#
# Convention : Reuss Voigt Hill
#
# Bulk Modulus (GPa) = 45.00309 56.93822 50.97066
# Shear Modulus (GPa) = 31.42483 45.34403 38.38443
#
# Velocity S-wave (km/s) = 3.37798 4.05771 3.73335
# Velocity P-wave (km/s) = 5.61744 6.52904 6.09032
#
# Compressibility (1/GPa) = 0.02222070
#
# Stress axis : x y z
#
# Youngs Moduli (GPa) = 41.41382 78.38109 49.13308
#
# Poissons Ratio (x) = -0.20368 0.63786
# Poissons Ratio (y) = -0.10762 0.35055
# Poissons Ratio (z) = 0.53765 0.55922
#
# Static dielectric constant tensor:
#      x y z
#    x 2.114970 -0.031510 -0.011050 
#    y -0.031510 2.110290 0.008000 
#    z -0.011050 0.008000 1.746470 
# 
# From -- ./inp_files/140952.got.cif
#   From: 2010.05.17/outbox.cif.g08.bks.cpg/sg2_71_cif.got.tgz:140952.got - 2010.06.03 11:33:40.
