data_PCOD9016142
_publ_section_title
;
Structure prediction by ZEFSAII (Michael W. Deem and Ramdas Pophale) SiO2 
 PCOD9016142
Probable space group: P -1
;
_chemical_formula_sum "Si O2"
_cell_formula_units_Z 16
_cell_length_a 23.840741
_cell_length_b 10.201333
_cell_length_c 12.858306
_cell_angle_alpha 46.671827
_cell_angle_beta 153.040790
_cell_angle_gamma 144.444707
_cell_volume 815.348455
_symmetry_space_group_name_H-M "P -1"
_symmetry_group_IT_number 2
_symmetry_cell_setting 'triclinic'
loop_
_space_group_symop_operation_xyz
x,y,z
-x,-y,-z
loop_
_atom_site_type_symbol
_atom_site_label
_atom_site_fract_x
_atom_site_fract_y
_atom_site_fract_z
Si Si1 0.041273 0.560557 0.716939
Si Si2 0.385690 0.453460 0.560824
Si Si3 0.932479 0.666424 0.303141
Si Si4 0.560736 0.176649 0.409037
Si Si5 0.981333 0.919169 0.894167
Si Si6 0.608829 0.238845 0.771086
Si Si7 0.904969 0.375605 0.805127
Si Si8 0.566739 0.249163 0.931853
O O1 0.988148 0.368227 0.645084
O O2 0.037224 0.731172 0.543291
O O3 0.950081 0.517845 0.695531
O O4 0.205234 0.621342 0.989301
O O5 0.423134 0.606094 0.641968
O O6 0.200761 0.251708 0.347865
O O7 0.428300 0.630896 0.440293
O O8 0.478781 0.349078 0.772683
O O9 0.755341 0.438377 0.155097
O O10 0.927959 0.864849 0.149118
O O11 0.729007 0.257938 0.608201
O O12 0.500000 0.000000 0.500000
O O13 0.448667 0.010192 0.223126
O O14 0.058465 0.794715 0.074888
O O15 0.000000 0.000000 0.000000
O O16 0.541883 0.225392 0.779700
O O17 0.000000 0.500000 0.000000
O O18 0.500000 0.000000 0.000000
#
# Coordination Sequence:
#
# PCOD9016142 Si02
#       8
#     2   2   2   2   2   2   2   2
#     4  10  21  43  66  94 136 165 222 273 326 393
#     4  11  23  43  63 100 128 164 224 268 326 385
#     4  10  24  41  65  99 132 172 215 272 338 384
#     4  10  23  40  65  94 133 172 209 275 325 384
#     4  12  23  39  68 100 127 171 224 276 319 391
#     4  10  21  42  66  97 125 172 215 272 326 381
#     4  12  22  41  67  95 133 171 224 266 327 390
#     4  11  26  41  65  94 132 171 216 269 326 392
#
# _framework density 19.623511000000001
#
# number of rings (size 3 to 8) (size 9 to 14) (size 15 to 20)
#    0.000    1.250    3.750    1.875   12.250    0.000 
#    0.000    1.250    0.000    0.000    0.000    0.000 
#    0.000    0.000    0.000    0.000    0.000    0.000 
#
# Total GULP energy -89196.721948 kJ/mol
# GULP energy per Si atom -5574.795122 kJ/mol
# Density = 1.957885 g / cm^3
# Si number density = 19.623511 Si / 1000 Ang^3
#
#
#
# Elastic Constant Matrix: (Units=GPa)
#
#
# Indices 1 2 3 4 5 6 
#
# 1 124.4090 43.6925 35.3591 -4.1715 14.2355 -11.6886
# 2 43.6925 103.1544 31.7657 -10.3393 7.5510 -9.4092
# 3 35.3591 31.7657 66.0445 -21.0012 7.0965 -7.0042
# 4 -4.1715 -10.3393 -21.0012 23.1153 -2.0627 0.8563
# 5 14.2355 7.5510 7.0965 -2.0627 30.9228 -4.5038
# 6 -11.6886 -9.4092 -7.0042 0.8563 -4.5038 39.4625
#
#
#
# Elastic Compliance Matrix: (Units=1/GPa)
#
#
# Indices 1 2 3 4 5 6 
#
# 1 0.010991 -0.003111 -0.005380 -0.004628 -0.003185 0.001296
# 2 -0.003111 0.012442 -0.003608 0.001634 -0.000477 0.001315
# 3 -0.005380 -0.003608 0.026984 0.021766 -0.001130 0.001734
# 4 -0.004628 0.001634 0.021766 0.062976 0.001178 0.001650
# 5 -0.003185 -0.000477 -0.001130 0.001178 0.034648 0.002671
# 6 0.001296 0.001315 0.001734 0.001650 0.002671 0.026615
#
#
# Mechanical properties :
#
#
# Convention : Reuss Voigt Hill
#
# Bulk Modulus (GPa) = 38.14213 57.24916 47.69564
# Shear Modulus (GPa) = 24.08558 30.88616 27.48587
#
# Velocity S-wave (km/s) = 3.50720 3.97159 3.74660
# Velocity P-wave (km/s) = 5.98997 7.09003 6.56309
#
# Compressibility (1/GPa) = 0.02621773
#
# Stress axis : x y z
#
# Youngs Moduli (GPa) = 90.98586 80.37475 37.05943
#
# Poissons Ratio (x) = 0.25005 0.19938
# Poissons Ratio (y) = 0.28307 0.13372
# Poissons Ratio (z) = 0.48950 0.29000
#
# Static dielectric constant tensor:
#      x y z
#    x 1.752120 0.038200 -0.081070 
#    y 0.038200 1.809050 -0.047120 
#    z -0.081070 -0.047120 1.750750 
# 
# From -- ./inp_files/187703.got.cif
#   From: 2010.05.17/outbox.cif.g08.bks.cpg/sg2_94_cif.got.tgz:187703.got - 2010.06.03 11:33:40.
