data_PCOD9016556
_publ_section_title
;
Structure prediction by ZEFSAII (Michael W. Deem and Ramdas Pophale) SiO2 
 PCOD9016556
Probable space group: P -1
;
_chemical_formula_sum "Si O2"
_cell_formula_units_Z 16
_cell_length_a 14.292279
_cell_length_b 9.408804
_cell_length_c 11.184681
_cell_angle_alpha 83.643683
_cell_angle_beta 149.867977
_cell_angle_gamma 91.230809
_cell_volume 742.016890
_symmetry_space_group_name_H-M "P -1"
_symmetry_group_IT_number 2
_symmetry_cell_setting 'triclinic'
loop_
_space_group_symop_operation_xyz
x,y,z
-x,-y,-z
loop_
_atom_site_type_symbol
_atom_site_label
_atom_site_fract_x
_atom_site_fract_y
_atom_site_fract_z
Si Si1 0.865844 0.985525 0.691959
Si Si2 0.196826 0.515097 0.154739
Si Si3 0.718592 0.024276 0.257695
Si Si4 0.825163 0.505687 0.148237
Si Si5 0.249140 0.846765 0.216688
Si Si6 0.397352 0.236438 0.518991
Si Si7 0.448957 0.696665 0.061306
Si Si8 0.835380 0.711258 0.348585
O O1 0.783931 0.021782 0.467220
O O2 0.785080 0.841034 0.658686
O O3 0.792156 0.106935 0.696703
O O4 0.090691 0.946673 0.954369
O O5 0.230040 0.679469 0.190460
O O6 0.346213 0.397355 0.397048
O O7 0.192455 0.475570 0.014033
O O8 0.000000 0.500000 0.000000
O O9 0.834990 0.882930 0.338541
O O10 0.500000 0.000000 0.000000
O O11 0.712618 0.182937 0.182796
O O12 0.853213 0.646795 0.241229
O O13 0.001983 0.381909 0.384536
O O14 0.640146 0.447234 0.000262
O O15 0.456821 0.857153 0.398922
O O16 0.493019 0.244986 0.752332
O O17 0.635358 0.682579 0.187054
#
# Coordination Sequence:
#
# PCOD9016556 Si02
#       8
#     2   2   2   2   2   2   2   2
#     4  11  23  47  65  95 138 168 220 278 324 390
#     4  12  24  45  68  95 134 175 216 274 328 389
#     4  10  21  42  68  93 127 173 209 266 329 378
#     4  11  24  43  65  96 128 170 217 264 328 387
#     4  11  25  43  67  99 129 177 221 270 330 392
#     4  12  23  42  68  94 132 175 219 270 330 391
#     4  11  23  42  66  95 128 172 213 266 328 380
#     4  10  22  44  65  94 133 165 212 273 319 387
#
# _framework density 21.562850000000001
#
# number of rings (size 3 to 8) (size 9 to 14) (size 15 to 20)
#    0.000    1.000    5.000    2.625    0.000    2.500 
#    9.000    0.000    0.000    0.000    0.000    0.000 
#    0.000    0.000    0.000    0.000    0.000    0.000 
#
# Total GULP energy -89499.829110 kJ/mol
# GULP energy per Si atom -5593.739319 kJ/mol
# Density = 2.151377 g / cm^3
# Si number density = 21.562850 Si / 1000 Ang^3
#
#
#
# Elastic Constant Matrix: (Units=GPa)
#
#
# Indices 1 2 3 4 5 6 
#
# 1 71.2378 43.2740 33.0094 -17.7038 -21.8301 -8.5774
# 2 43.2740 27.0361 26.5859 -5.8689 -21.4144 -23.2983
# 3 33.0094 26.5859 82.7450 -17.1796 -12.3095 -14.3544
# 4 -17.7038 -5.8689 -17.1796 24.1824 -0.3962 6.1463
# 5 -21.8301 -21.4144 -12.3095 -0.3962 47.3582 5.4066
# 6 -8.5774 -23.2983 -14.3544 6.1463 5.4066 31.3293
#
#
#
# Elastic Compliance Matrix: (Units=1/GPa)
#
#
# Indices 1 2 3 4 5 6 
#
# 1 -0.001933 0.042574 -0.006848 -0.002362 0.013579 0.026114
# 2 0.042574 -0.074713 0.003473 0.027145 -0.007743 -0.046303
# 3 -0.006848 0.003473 0.016357 0.005770 0.001945 0.006734
# 4 -0.002362 0.027145 0.005770 0.047767 0.011855 0.010766
# 5 0.013579 -0.007743 0.001945 0.011855 0.025375 -0.007854
# 6 0.026114 -0.046303 0.006734 0.010766 -0.007854 0.006964
#
#
# Mechanical properties :
#
#
# Convention : Reuss Voigt Hill
#
# Bulk Modulus (GPa) = 55.22493 42.97306 49.09899
# Shear Modulus (GPa) = -95.16058 25.78396 -34.68831
#
# Velocity S-wave (km/s) = -6.65038 3.46173 -4.01522
# Velocity P-wave (km/s) = 5.77090 5.99588 1.15049
#
# Compressibility (1/GPa) = 0.01810777
#
# Stress axis : x y z
#
# Youngs Moduli (GPa) = -517.41032 -13.38459 61.13604
#
# Poissons Ratio (x) = 0.56983 0.41867
# Poissons Ratio (y) = 22.02809 -0.21230
# Poissons Ratio (z) = -3.54331 0.04648
#
# Static dielectric constant tensor:
#      x y z
#    x 1.770030 0.027060 0.041450 
#    y 0.027060 1.796220 0.014280 
#    z 0.041450 0.014280 1.770070 
# 
# From -- ./inp_files/447401.got.cif
#   From: 2010.05.17/outbox.cif.g08.bks.cpg/sg2_224_cif.got.tgz:447401.got - 2010.06.03 11:33:40.
