data_PCOD9016797
_publ_section_title
;
Structure prediction by ZEFSAII (Michael W. Deem and Ramdas Pophale) SiO2 
 PCOD9016797
Probable space group: P -1
;
_chemical_formula_sum "Si O2"
_cell_formula_units_Z 16
_cell_length_a 19.735456
_cell_length_b 9.585963
_cell_length_c 9.195873
_cell_angle_alpha 74.867090
_cell_angle_beta 53.462325
_cell_angle_gamma 119.134069
_cell_volume 756.405549
_symmetry_space_group_name_H-M "P -1"
_symmetry_group_IT_number 2
_symmetry_cell_setting 'triclinic'
loop_
_space_group_symop_operation_xyz
x,y,z
-x,-y,-z
loop_
_atom_site_type_symbol
_atom_site_label
_atom_site_fract_x
_atom_site_fract_y
_atom_site_fract_z
Si Si1 0.052023 0.435081 0.135193
Si Si2 0.775461 0.065638 0.374141
Si Si3 0.674784 0.635161 0.138374
Si Si4 0.417798 0.461915 0.384280
Si Si5 0.783641 0.283381 0.772642
Si Si6 0.558969 0.918645 0.911318
Si Si7 0.661545 0.294663 0.177890
Si Si8 0.917939 0.196848 0.690857
O O1 0.906784 0.198938 0.282722
O O2 0.985587 0.331933 0.410130
O O3 0.127672 0.692397 0.919461
O O4 0.201816 0.547156 0.927408
O O5 0.695996 0.818433 0.461368
O O6 0.640514 0.972378 0.645832
O O7 0.575266 0.605393 0.179802
O O8 0.627748 0.555302 0.389446
O O9 0.655693 0.456752 0.135305
O O10 0.841362 0.935620 0.851879
O O11 0.442637 0.632775 0.198399
O O12 0.803051 0.164378 0.875093
O O13 0.939960 0.580683 0.449246
O O14 0.698541 0.111841 0.788958
O O15 0.699641 0.279765 0.978285
O O16 0.500000 0.000000 0.000000
O O17 0.500000 0.000000 0.500000
#
# Coordination Sequence:
#
# PCOD9016797 Si02
#       8
#     2   2   2   2   2   2   2   2
#     4  10  23  42  67  97 133 173 225 256 328 399
#     4  11  24  43  69  90 135 184 215 262 323 399
#     4  11  24  41  70  97 134 162 220 286 319 384
#     4  11  25  43  65 100 127 175 221 265 338 383
#     4  10  22  40  68  94 125 168 219 263 329 382
#     4  12  26  44  66  97 136 173 221 270 317 397
#     4  11  24  40  68  99 132 163 218 281 329 376
#     4  10  21  42  69  93 130 169 220 268 324 390
#
# _framework density 21.152671000000002
#
# number of rings (size 3 to 8) (size 9 to 14) (size 15 to 20)
#    0.000    1.250    2.500    1.875   12.250    2.000 
#    2.250    0.625    0.000    0.000    0.000    0.000 
#    0.000    0.000    0.000    0.000    0.000    0.000 
#
# Total GULP energy -89181.510104 kJ/mol
# GULP energy per Si atom -5573.844381 kJ/mol
# Density = 2.110453 g / cm^3
# Si number density = 21.152671 Si / 1000 Ang^3
#
#
#
# Elastic Constant Matrix: (Units=GPa)
#
#
# Indices 1 2 3 4 5 6 
#
# 1 39.7456 2.8327 15.5786 1.2670 -3.8010 -6.6840
# 2 2.8327 118.2947 39.1356 -13.3034 -2.1708 -19.1896
# 3 15.5786 39.1356 79.1220 -10.2087 0.6121 -18.6352
# 4 1.2670 -13.3034 -10.2087 45.1262 0.6806 -4.2401
# 5 -3.8010 -2.1708 0.6121 0.6806 28.6285 -6.9097
# 6 -6.6840 -19.1896 -18.6352 -4.2401 -6.9097 38.8634
#
#
#
# Elastic Compliance Matrix: (Units=1/GPa)
#
#
# Indices 1 2 3 4 5 6 
#
# 1 0.028457 0.001792 -0.005819 -0.001311 0.004970 0.003730
# 2 0.001792 0.010882 -0.004437 0.002517 0.002113 0.004204
# 3 -0.005819 -0.004437 0.017752 0.003406 -0.000204 0.005656
# 4 -0.001311 0.002517 0.003406 0.024208 0.000675 0.005412
# 5 0.004970 0.002113 -0.000204 0.000675 0.037814 0.008597
# 6 0.003730 0.004204 0.005656 0.005412 0.008597 0.033280
#
#
# Mechanical properties :
#
#
# Convention : Reuss Voigt Hill
#
# Bulk Modulus (GPa) = 24.89721 39.13955 32.01838
# Shear Modulus (GPa) = 27.36615 34.49800 30.93208
#
# Velocity S-wave (km/s) = 3.60077 4.04283 3.82818
# Velocity P-wave (km/s) = 5.39288 6.35107 5.89149
#
# Compressibility (1/GPa) = 0.04016514
#
# Stress axis : x y z
#
# Youngs Moduli (GPa) = 35.14035 91.89244 56.33142
#
# Poissons Ratio (x) = -0.16470 0.32778
# Poissons Ratio (y) = -0.06298 0.24993
# Poissons Ratio (z) = 0.20447 0.40771
#
# Static dielectric constant tensor:
#      x y z
#    x 1.848660 0.003060 -0.036920 
#    y 0.003060 1.760800 0.022710 
#    z -0.036920 0.022710 1.834480 
# 
# From -- ./inp_files/343530.got.cif
#   From: 2010.05.17/outbox.cif.g08.bks.cpg/sg2_172_cif.got.tgz:343530.got - 2010.06.03 11:33:40.
