data_PCOD9016873
_publ_section_title
;
Structure prediction by ZEFSAII (Michael W. Deem and Ramdas Pophale) SiO2 
 PCOD9016873
Probable space group: P -1
;
_chemical_formula_sum "Si O2"
_cell_formula_units_Z 14
_cell_length_a 8.550617
_cell_length_b 5.115273
_cell_length_c 17.035474
_cell_angle_alpha 124.510809
_cell_angle_beta 99.655125
_cell_angle_gamma 90.268365
_cell_volume 600.711624
_symmetry_space_group_name_H-M "P -1"
_symmetry_group_IT_number 2
_symmetry_cell_setting 'triclinic'
loop_
_space_group_symop_operation_xyz
x,y,z
-x,-y,-z
loop_
_atom_site_type_symbol
_atom_site_label
_atom_site_fract_x
_atom_site_fract_y
_atom_site_fract_z
Si Si1 0.270731 0.798874 0.688124
Si Si2 0.081667 0.121480 0.607802
Si Si3 0.605841 0.536105 0.140024
Si Si4 0.570523 0.622429 0.748655
Si Si5 0.864246 0.324838 0.749052
Si Si6 0.885650 0.255346 0.062925
Si Si7 0.280018 0.708031 0.094217
O O1 0.161068 0.487795 0.660070
O O2 0.455208 0.725165 0.689525
O O3 0.207222 0.901155 0.616318
O O4 0.282990 0.119817 0.799213
O O5 0.948854 0.094314 0.661582
O O6 0.000000 0.000000 0.500000
O O7 0.550323 0.547170 0.227097
O O8 0.705670 0.244858 0.080985
O O9 0.437480 0.532009 0.081023
O O10 0.716304 0.434526 0.707560
O O11 0.655366 0.926001 0.856279
O O12 0.793730 0.255891 0.819217
O O13 0.010194 0.586342 0.830021
O O14 0.842120 0.424551 0.005690
O O15 0.000000 0.000000 0.000000
#
# Coordination Sequence:
#
# PCOD9016873 Si02
#       7
#     2   2   2   2   2   2   2
#     4  11  22  47  72 102 139 180 224 284 354 415
#     4  12  27  48  78 107 133 177 233 290 359 419
#     4  10  22  42  67  95 141 192 229 277 342 410
#     4  10  21  42  69  97 138 189 230 274 352 404
#     4  11  24  43  65 100 141 179 230 298 343 401
#     4  12  22  40  62 102 140 186 240 283 339 400
#     4  10  23  39  62  94 141 190 231 277 338 414
#
# _framework density 23.305693999999999
#
# number of rings (size 3 to 8) (size 9 to 14) (size 15 to 20)
#    0.000    1.143    4.286    1.286    2.000    1.714 
#    7.714    1.429    0.000    0.000    0.000    0.000 
#    0.000    0.000    0.000    0.000    0.000    0.000 
#
# Total GULP energy -77975.869761 kJ/mol
# GULP energy per Si atom -5569.704983 kJ/mol
# Density = 2.325265 g / cm^3
# Si number density = 23.305694 Si / 1000 Ang^3
#
#
#
# Elastic Constant Matrix: (Units=GPa)
#
#
# Indices 1 2 3 4 5 6 
#
# 1 93.3137 12.0628 14.8562 -7.2428 5.2949 -29.1319
# 2 12.0628 80.8667 6.9441 -10.0144 15.2853 -8.0807
# 3 14.8562 6.9441 73.8331 -23.1700 7.5589 -7.8240
# 4 -7.2428 -10.0144 -23.1700 36.2876 -4.7222 16.1602
# 5 5.2949 15.2853 7.5589 -4.7222 19.9586 -7.3570
# 6 -29.1319 -8.0807 -7.8240 16.1602 -7.3570 48.4278
#
#
#
# Elastic Compliance Matrix: (Units=1/GPa)
#
#
# Indices 1 2 3 4 5 6 
#
# 1 0.013816 -0.001543 -0.002837 -0.003283 0.001078 0.008854
# 2 -0.001543 0.014908 0.001020 0.003529 -0.010972 -0.001120
# 3 -0.002837 0.001020 0.017971 0.012042 -0.005257 -0.003450
# 4 -0.003283 0.003529 0.012042 0.041365 -0.001575 -0.013483
# 5 0.001078 -0.010972 -0.005257 -0.001575 0.062801 0.008034
# 6 0.008854 -0.001120 -0.003450 -0.013483 0.008034 0.030951
#
#
# Mechanical properties :
#
#
# Convention : Reuss Voigt Hill
#
# Bulk Modulus (GPa) = 25.01559 35.08218 30.04889
# Shear Modulus (GPa) = 24.77026 35.21148 29.99087
#
# Velocity S-wave (km/s) = 3.26366 3.89119 3.59116
# Velocity P-wave (km/s) = 4.99589 5.93921 5.48786
#
# Compressibility (1/GPa) = 0.03997508
#
# Stress axis : x y z
#
# Youngs Moduli (GPa) = 72.37998 67.08014 55.64648
#
# Poissons Ratio (x) = 0.10349 0.15787
# Poissons Ratio (y) = 0.11167 -0.05678
# Poissons Ratio (z) = 0.20535 -0.06844
#
# Static dielectric constant tensor:
#      x y z
#    x 1.925320 0.036410 0.025280 
#    y 0.036410 2.011040 0.018450 
#    z 0.025280 0.018450 1.851800 
# 
# From -- ./inp_files/553957.got.cif
#   From: 2010.05.17/outbox.cif.g08.bks.cpg/sg2_277_cif.got.tgz:553957.got - 2010.06.03 11:33:40.
