data_PCOD9016826
_publ_section_title
;
Structure prediction by ZEFSAII (Michael W. Deem and Ramdas Pophale) SiO2 
 PCOD9016826
Probable space group: P -1
;
_chemical_formula_sum "Si O2"
_cell_formula_units_Z 16
_cell_length_a 4.948849
_cell_length_b 15.093749
_cell_length_c 11.130230
_cell_angle_alpha 121.183022
_cell_angle_beta 59.708067
_cell_angle_gamma 106.838114
_cell_volume 613.700590
_symmetry_space_group_name_H-M "P -1"
_symmetry_group_IT_number 2
_symmetry_cell_setting 'triclinic'
loop_
_space_group_symop_operation_xyz
x,y,z
-x,-y,-z
loop_
_atom_site_type_symbol
_atom_site_label
_atom_site_fract_x
_atom_site_fract_y
_atom_site_fract_z
Si Si1 0.418097 0.492902 0.807750
Si Si2 0.879746 0.139653 0.595238
Si Si3 0.058745 0.630632 0.502224
Si Si4 0.381029 0.857479 0.592208
Si Si5 0.838385 0.334634 0.876111
Si Si6 0.533874 0.945297 0.162906
Si Si7 0.877369 0.185109 0.993271
Si Si8 0.340754 0.626179 0.679408
O O1 0.731668 0.431645 0.679864
O O2 0.344177 0.551185 0.740563
O O3 0.140606 0.408779 0.836598
O O4 0.425209 0.585887 0.969034
O O5 0.758834 0.095880 0.465394
O O6 0.757231 0.254861 0.731512
O O7 0.736253 0.069137 0.684230
O O8 0.748190 0.843647 0.479273
O O9 0.199963 0.747735 0.565344
O O10 0.117706 0.589797 0.595897
O O11 0.694988 0.633937 0.556918
O O12 0.341566 0.937107 0.766364
O O13 0.905645 0.258001 0.919031
O O14 0.374920 0.905445 0.048918
O O15 0.803416 0.867132 0.080732
O O16 0.760110 0.262765 0.174033
#
# Coordination Sequence:
#
# PCOD9016826 Si02
#       8
#     2   2   2   2   2   2   2   2
#     4  10  21  42  69  95 131 164 221 257 331 378
#     4  11  21  40  63  95 138 166 205 259 327 386
#     4  12  25  44  65  93 132 172 222 261 311 372
#     4  12  24  40  63  96 133 171 214 259 315 386
#     4   9  20  40  67 101 128 168 201 275 322 387
#     4  11  22  39  67  97 128 170 209 261 328 384
#     4  10  22  43  67  96 133 162 217 262 324 379
#     4  11  25  46  67  92 126 179 215 269 311 376
#
# _framework density 26.071344
#
# number of rings (size 3 to 8) (size 9 to 14) (size 15 to 20)
#    0.000    1.250    1.250    5.250    0.000    0.000 
#    0.000    8.125    0.000    0.000    0.000    0.000 
#    0.000    0.000    0.000    0.000    0.000    0.000 
#
# Total GULP energy -89823.010991 kJ/mol
# GULP energy per Si atom -5613.938187 kJ/mol
# Density = 2.601200 g / cm^3
# Si number density = 26.071344 Si / 1000 Ang^3
#
#
#
# Elastic Constant Matrix: (Units=GPa)
#
#
# Indices 1 2 3 4 5 6 
#
# 1 114.7366 8.6437 34.4895 0.1164 3.5994 14.9369
# 2 8.6437 119.0996 34.0740 15.4720 -8.4132 11.0140
# 3 34.4895 34.0740 140.3418 31.6910 -4.8268 11.5382
# 4 0.1164 15.4720 31.6910 26.9769 3.3587 13.3753
# 5 3.5994 -8.4132 -4.8268 3.3587 33.8548 11.5790
# 6 14.9369 11.0140 11.5382 13.3753 11.5790 34.8542
#
#
#
# Elastic Compliance Matrix: (Units=1/GPa)
#
#
# Indices 1 2 3 4 5 6 
#
# 1 0.010660 -0.000135 -0.003809 0.007543 -0.000396 -0.006028
# 2 -0.000135 0.009657 -0.001254 -0.003272 0.003399 -0.002452
# 3 -0.003809 -0.001254 0.011465 -0.014539 0.002106 0.003113
# 4 0.007543 -0.003272 -0.014539 0.067412 -0.002732 -0.022348
# 5 -0.000396 0.003399 0.002106 -0.002732 0.035182 -0.012241
# 6 -0.006028 -0.002452 0.003113 -0.022348 -0.012241 0.043661
#
#
# Mechanical properties :
#
#
# Convention : Reuss Voigt Hill
#
# Bulk Modulus (GPa) = 46.75557 58.73250 52.74404
# Shear Modulus (GPa) = 25.56731 38.93524 32.25127
#
# Velocity S-wave (km/s) = 3.13496 3.86866 3.52097
# Velocity P-wave (km/s) = 5.57464 6.52165 6.06665
#
# Compressibility (1/GPa) = 0.02138782
#
# Stress axis : x y z
#
# Youngs Moduli (GPa) = 93.80721 103.55392 87.21826
#
# Poissons Ratio (x) = 0.01393 0.33217
# Poissons Ratio (y) = 0.01262 0.10939
# Poissons Ratio (z) = 0.35727 0.12988
#
# Static dielectric constant tensor:
#      x y z
#    x 1.958250 -0.050640 0.022650 
#    y -0.050640 2.109710 -0.000860 
#    z 0.022650 -0.000860 2.047670 
# 
# From -- ./inp_files/485037.got.cif
#   From: 2010.05.17/outbox.cif.g08.bks.cpg/sg2_243_cif.got.tgz:485037.got - 2010.06.03 11:33:40.
