data_PCOD9016984
_publ_section_title
;
Structure prediction by ZEFSAII (Michael W. Deem and Ramdas Pophale) SiO2 
 PCOD9016984
Probable space group: P -1
;
_chemical_formula_sum "Si O2"
_cell_formula_units_Z 12
_cell_length_a 7.930805
_cell_length_b 7.234819
_cell_length_c 9.842603
_cell_angle_alpha 92.245988
_cell_angle_beta 128.830989
_cell_angle_gamma 94.928575
_cell_volume 435.149448
_symmetry_space_group_name_H-M "P -1"
_symmetry_group_IT_number 2
_symmetry_cell_setting 'triclinic'
loop_
_space_group_symop_operation_xyz
x,y,z
-x,-y,-z
loop_
_atom_site_type_symbol
_atom_site_label
_atom_site_fract_x
_atom_site_fract_y
_atom_site_fract_z
Si Si1 0.781910 0.871947 0.333183
Si Si2 0.251106 0.986040 0.951979
Si Si3 0.197015 0.207718 0.376301
Si Si4 0.529491 0.682583 0.746540
Si Si5 0.097139 0.616722 0.381323
Si Si6 0.223612 0.645368 0.140113
O O1 0.674549 0.841830 0.426084
O O2 0.873228 0.694502 0.306210
O O3 0.661877 0.975164 0.159660
O O4 0.000000 0.000000 0.500000
O O5 0.990739 0.949725 0.778893
O O6 0.250640 0.813401 0.050952
O O7 0.335451 0.174428 0.079261
O O8 0.363260 0.268494 0.343772
O O9 0.083345 0.391699 0.359913
O O10 0.274070 0.681672 0.590660
O O11 0.586201 0.478330 0.800561
O O12 0.196319 0.688560 0.287262
O O13 0.000000 0.500000 0.000000
#
# Coordination Sequence:
#
# PCOD9016984 Si02
#       6
#     2   2   2   2   2   2
#     4  10  24  42  67  93 133 178 221 257 325 402
#     4  11  23  41  68  98 130 173 223 261 319 398
#     4  10  21  42  70  93 128 176 221 260 320 398
#     4  11  24  42  70 102 131 164 221 280 326 369
#     4  11  23  42  68 100 132 170 216 280 328 372
#     4  11  21  38  70  99 128 168 227 267 315 389
#
# _framework density 27.576730999999999
#
# number of rings (size 3 to 8) (size 9 to 14) (size 15 to 20)
#    0.000    1.333    3.333    4.000    4.667    0.667 
#    6.000    4.167    0.000    0.000    0.000    0.000 
#    0.000    0.000    0.000    0.000    0.000    0.000 
#
# Total GULP energy -67225.502214 kJ/mol
# GULP energy per Si atom -5602.125184 kJ/mol
# Density = 2.751396 g / cm^3
# Si number density = 27.576731 Si / 1000 Ang^3
#
#
#
# Elastic Constant Matrix: (Units=GPa)
#
#
# Indices 1 2 3 4 5 6 
#
# 1 86.4242 24.7970 31.2482 -9.0548 -26.8275 -5.6934
# 2 24.7970 116.2082 95.8467 -8.2148 -10.9312 3.2716
# 3 31.2482 95.8467 242.3459 -24.2938 -7.3331 1.7153
# 4 -9.0548 -8.2148 -24.2938 72.3887 19.0640 1.2931
# 5 -26.8275 -10.9312 -7.3331 19.0640 14.7278 -10.6868
# 6 -5.6934 3.2716 1.7153 1.2931 -10.6868 42.7453
#
#
#
# Elastic Compliance Matrix: (Units=1/GPa)
#
#
# Indices 1 2 3 4 5 6 
#
# 1 -0.050275 -0.011744 0.010451 0.050256 -0.202494 -0.058363
# 2 -0.011744 0.011666 -0.003252 0.007126 -0.031055 -0.010306
# 3 0.010451 -0.003252 0.004349 -0.007250 0.035911 0.010664
# 4 0.050256 0.007126 -0.007250 -0.024031 0.158237 0.046727
# 5 -0.202494 -0.031055 0.035911 0.158237 -0.651507 -0.193706
# 6 -0.058363 -0.010306 0.010664 0.046727 -0.193706 -0.033860
#
#
# Mechanical properties :
#
#
# Convention : Reuss Voigt Hill
#
# Bulk Modulus (GPa) = -23.06823 83.19578 30.06377
# Shear Modulus (GPa) = -6.67540 45.51146 19.41803
#
# Velocity S-wave (km/s) = -1.55754 4.06687 2.65645
# Velocity P-wave (km/s) = 3.40849 7.23097 4.50938
#
# Compressibility (1/GPa) = -0.04334967
#
# Stress axis : x y z
#
# Youngs Moduli (GPa) = -19.89051 85.71855 229.91996
#
# Poissons Ratio (x) = 1.00666 -2.40286
# Poissons Ratio (y) = -0.23359 0.74771
# Poissons Ratio (z) = 0.20787 0.27876
#
# Static dielectric constant tensor:
#      x y z
#    x 2.233530 0.015950 0.031340 
#    y 0.015950 2.189070 -0.037850 
#    z 0.031340 -0.037850 2.125830 
# 
# From -- ./inp_files/147633.got.cif
#   From: 2010.05.17/outbox.cif.g08.bks.cpg/sg2_74_cif.got.tgz:147633.got - 2010.06.03 11:33:40.
