data_PCOD9016583
_publ_section_title
;
Structure prediction by ZEFSAII (Michael W. Deem and Ramdas Pophale) SiO2 
 PCOD9016583
Probable space group: P -1
;
_chemical_formula_sum "Si O2"
_cell_formula_units_Z 14
_cell_length_a 12.108138
_cell_length_b 10.515199
_cell_length_c 16.703187
_cell_angle_alpha 47.877697
_cell_angle_beta 153.749290
_cell_angle_gamma 143.090210
_cell_volume 556.204980
_symmetry_space_group_name_H-M "P -1"
_symmetry_group_IT_number 2
_symmetry_cell_setting 'triclinic'
loop_
_space_group_symop_operation_xyz
x,y,z
-x,-y,-z
loop_
_atom_site_type_symbol
_atom_site_label
_atom_site_fract_x
_atom_site_fract_y
_atom_site_fract_z
Si Si1 0.230800 0.137948 0.893092
Si Si2 0.667286 0.371051 0.945986
Si Si3 0.862859 0.664356 0.681483
Si Si4 0.801914 0.811362 0.884385
Si Si5 0.244198 0.773302 0.471241
Si Si6 0.839217 0.352284 0.282882
Si Si7 0.044059 0.097315 0.575208
O O1 0.455539 0.169027 0.955122
O O2 0.041819 0.218157 0.697462
O O3 0.498166 0.289169 0.070147
O O4 0.984678 0.920581 0.872836
O O5 0.766841 0.591300 0.959909
O O6 0.409153 0.296237 0.741557
O O7 0.974853 0.386243 0.124011
O O8 0.500000 0.500000 0.500000
O O9 0.008240 0.649519 0.699940
O O10 0.932722 0.893112 0.643190
O O11 0.451559 0.744480 0.677966
O O12 0.000000 0.000000 0.000000
O O13 0.079432 0.580601 0.382498
O O14 0.500000 0.000000 0.500000
O O15 0.829318 0.176068 0.404357
O O16 0.000000 0.000000 0.500000
#
# Coordination Sequence:
#
# PCOD9016583 Si02
#       7
#     2   2   2   2   2   2   2
#     4  10  25  41  68  98 140 176 219 269 334 412
#     4  11  24  46  70  96 137 182 219 277 350 391
#     4  10  24  41  68  96 129 172 229 285 336 397
#     4  11  26  42  66 104 139 177 226 270 328 414
#     4  10  22  40  64  99 136 173 220 270 328 411
#     4  10  21  42  68  94 133 176 220 275 344 391
#     4  10  22  45  67  94 130 172 231 282 331 398
#
# _framework density 25.170574999999999
#
# number of rings (size 3 to 8) (size 9 to 14) (size 15 to 20)
#    0.000    1.714    1.429    0.857   12.000    4.000 
#    0.000    2.857    0.000    0.000    0.000    0.000 
#    0.000    0.000    0.000    0.000    0.000    0.000 
#
# Total GULP energy -78195.266251 kJ/mol
# GULP energy per Si atom -5585.376161 kJ/mol
# Density = 2.511329 g / cm^3
# Si number density = 25.170575 Si / 1000 Ang^3
#
#
#
# Elastic Constant Matrix: (Units=GPa)
#
#
# Indices 1 2 3 4 5 6 
#
# 1 49.6618 14.6949 11.3229 7.0451 6.0949 -1.5009
# 2 14.6949 128.2581 46.3612 6.8804 2.4039 -17.5901
# 3 11.3229 46.3612 215.9584 9.3392 2.5955 -10.7693
# 4 7.0451 6.8804 9.3392 47.6521 -5.4239 -6.7494
# 5 6.0949 2.4039 2.5955 -5.4239 40.9292 7.3993
# 6 -1.5009 -17.5901 -10.7693 -6.7494 7.3993 36.3283
#
#
#
# Elastic Compliance Matrix: (Units=1/GPa)
#
#
# Indices 1 2 3 4 5 6 
#
# 1 0.021754 -0.002088 -0.000519 -0.003232 -0.003484 -0.000157
# 2 -0.002088 0.009212 -0.001647 -0.000229 -0.000883 0.004023
# 3 -0.000519 -0.001647 0.005075 -0.000629 -0.000347 0.000639
# 4 -0.003232 -0.000229 -0.000629 0.022398 0.002936 0.003132
# 5 -0.003484 -0.000883 -0.000347 0.002936 0.026410 -0.005508
# 6 -0.000157 0.004023 0.000639 0.003132 -0.005508 0.031362
#
#
# Mechanical properties :
#
#
# Convention : Reuss Voigt Hill
#
# Bulk Modulus (GPa) = 36.31948 59.84848 48.08398
# Shear Modulus (GPa) = 37.34315 46.41521 41.87918
#
# Velocity S-wave (km/s) = 3.85594 4.29887 4.08341
# Velocity P-wave (km/s) = 5.85534 6.96198 6.43250
#
# Compressibility (1/GPa) = 0.02753344
#
# Stress axis : x y z
#
# Youngs Moduli (GPa) = 45.96961 108.55481 197.06304
#
# Poissons Ratio (x) = 0.22664 0.10219
# Poissons Ratio (y) = 0.09597 0.32455
# Poissons Ratio (z) = 0.02384 0.17879
#
# Static dielectric constant tensor:
#      x y z
#    x 2.165890 0.047960 -0.114640 
#    y 0.047960 1.956310 -0.085370 
#    z -0.114640 -0.085370 2.113500 
# 
# From -- ./inp_files/382089.got.cif
#   From: 2010.05.17/outbox.cif.g08.bks.cpg/sg2_192_cif.got.tgz:382089.got - 2010.06.03 11:33:40.
