data_PCOD9016830
_publ_section_title
;
Structure prediction by ZEFSAII (Michael W. Deem and Ramdas Pophale) SiO2 
 PCOD9016830
Probable space group: P -1
;
_chemical_formula_sum "Si O2"
_cell_formula_units_Z 12
_cell_length_a 9.824033
_cell_length_b 8.755240
_cell_length_c 12.287170
_cell_angle_alpha 127.341241
_cell_angle_beta 136.987219
_cell_angle_gamma 66.514158
_cell_volume 571.195100
_symmetry_space_group_name_H-M "P -1"
_symmetry_group_IT_number 2
_symmetry_cell_setting 'triclinic'
loop_
_space_group_symop_operation_xyz
x,y,z
-x,-y,-z
loop_
_atom_site_type_symbol
_atom_site_label
_atom_site_fract_x
_atom_site_fract_y
_atom_site_fract_z
Si Si1 0.162795 0.667974 0.204418
Si Si2 0.192809 0.451287 0.667252
Si Si3 0.582155 0.788171 0.455888
Si Si4 0.685403 0.158483 0.165321
Si Si5 0.957566 0.962594 0.834244
Si Si6 0.077899 0.787023 0.450255
O O1 0.395664 0.637218 0.307313
O O2 0.115249 0.845992 0.178197
O O3 0.149881 0.735412 0.350876
O O4 0.000000 0.500000 0.000000
O O5 0.308673 0.272045 0.615552
O O6 0.345644 0.639504 0.825300
O O7 0.000000 0.500000 0.500000
O O8 0.094781 0.380477 0.691794
O O9 0.500000 0.000000 0.500000
O O10 0.771660 0.799062 0.651604
O O11 0.764676 0.205696 0.354573
O O12 0.860495 0.085981 0.158696
O O13 0.500000 0.000000 0.000000
O O14 0.000000 0.000000 0.000000
O O15 0.000000 0.000000 0.500000
#
# Coordination Sequence:
#
# PCOD9016830 Si02
#       6
#     2   2   2   2   2   2
#     4  11  26  42  66 102 136 176 232 285 342 406
#     4  10  21  42  69  95 133 178 224 277 341 405
#     4  10  21  44  67  96 132 179 224 276 345 408
#     4  11  25  43  68 102 134 178 235 283 340 410
#     4  11  24  44  66  95 140 177 229 282 343 409
#     4  11  21  45  71  94 140 179 226 287 340 412
#
# _framework density 21.008583000000002
#
# number of rings (size 3 to 8) (size 9 to 14) (size 15 to 20)
#    0.000    1.333    5.000    1.000    7.000    0.000 
#    0.000    5.833    0.000    0.000    0.000    0.000 
#    0.000    0.000    0.000    0.000    0.000    0.000 
#
# Total GULP energy -66875.521162 kJ/mol
# GULP energy per Si atom -5572.960097 kJ/mol
# Density = 2.096077 g / cm^3
# Si number density = 21.008583 Si / 1000 Ang^3
#
#
#
# Elastic Constant Matrix: (Units=GPa)
#
#
# Indices 1 2 3 4 5 6 
#
# 1 140.3569 27.0859 73.7714 -16.7766 6.1515 3.9418
# 2 27.0859 60.2228 10.7859 10.6334 5.1705 10.6524
# 3 73.7714 10.7859 137.0025 0.9817 14.4523 12.8641
# 4 -16.7766 10.6334 0.9817 24.5425 15.3381 -3.0558
# 5 6.1515 5.1705 14.4523 15.3381 40.7828 -0.7802
# 6 3.9418 10.6524 12.8641 -3.0558 -0.7802 39.7377
#
#
#
# Elastic Compliance Matrix: (Units=1/GPa)
#
#
# Indices 1 2 3 4 5 6 
#
# 1 0.015084 -0.009081 -0.007412 0.018467 -0.005354 0.004652
# 2 -0.009081 0.024900 0.003360 -0.021196 0.004833 -0.008397
# 3 -0.007412 0.003360 0.011587 -0.007001 -0.000867 -0.004472
# 4 0.018467 -0.021196 -0.007001 0.081938 -0.028207 0.011864
# 5 -0.005354 0.004833 -0.000867 -0.028207 0.035593 -0.001954
# 6 0.004652 -0.008397 -0.004472 0.011864 -0.001954 0.029276
#
#
# Mechanical properties :
#
#
# Convention : Reuss Voigt Hill
#
# Bulk Modulus (GPa) = 39.51622 62.31875 50.91748
# Shear Modulus (GPa) = 21.45194 36.07521 28.76357
#
# Velocity S-wave (km/s) = 3.19894 4.14836 3.70420
# Velocity P-wave (km/s) = 5.70041 7.25762 6.52563
#
# Compressibility (1/GPa) = 0.02530607
#
# Stress axis : x y z
#
# Youngs Moduli (GPa) = 66.29545 40.16020 86.30279
#
# Poissons Ratio (x) = 0.36468 0.63965
# Poissons Ratio (y) = 0.60201 -0.28996
# Poissons Ratio (z) = 0.49137 -0.13493
#
# Static dielectric constant tensor:
#      x y z
#    x 1.767730 -0.025020 0.020120 
#    y -0.025020 1.789820 0.007690 
#    z 0.020120 0.007690 1.853090 
# 
# From -- ./inp_files/148556.got.cif
#   From: 2010.05.17/outbox.cif.g08.bks.cpg/sg2_75_cif.got.tgz:148556.got - 2010.06.03 11:33:40.
