data_PCOD9016958
_publ_section_title
;
Structure prediction by ZEFSAII (Michael W. Deem and Ramdas Pophale) SiO2 
 PCOD9016958
Probable space group: P -1
;
_chemical_formula_sum "Si O2"
_cell_formula_units_Z 15
_cell_length_a 18.790594
_cell_length_b 5.445321
_cell_length_c 5.113821
_cell_angle_alpha 88.300269
_cell_angle_beta 97.814859
_cell_angle_gamma 86.647449
_cell_volume 517.129154
_symmetry_space_group_name_H-M "P -1"
_symmetry_group_IT_number 2
_symmetry_cell_setting 'triclinic'
loop_
_space_group_symop_operation_xyz
x,y,z
-x,-y,-z
loop_
_atom_site_type_symbol
_atom_site_label
_atom_site_fract_x
_atom_site_fract_y
_atom_site_fract_z
Si Si1 0.185876 0.018347 0.526885
Si Si2 0.546492 0.244032 0.513615
Si Si3 0.000000 0.500000 0.500000
Si Si4 0.261096 0.627653 0.204541
Si Si5 0.959201 0.958250 0.266722
Si Si6 0.110411 0.392481 0.104956
Si Si7 0.302335 0.378760 0.728704
Si Si8 0.585255 0.048237 0.041672
O O1 0.243274 0.847854 0.394318
O O2 0.124395 0.939428 0.701477
O O3 0.138981 0.139959 0.263555
O O4 0.232251 0.213667 0.696897
O O5 0.500000 0.500000 0.500000
O O6 0.588929 0.240949 0.268601
O O7 0.500000 0.000000 0.500000
O O8 0.600757 0.179424 0.776193
O O9 0.002317 0.806975 0.556248
O O10 0.938845 0.474697 0.706380
O O11 0.181260 0.536911 0.122526
O O12 0.308165 0.439035 0.422104
O O13 0.287865 0.600524 0.920635
O O14 0.931190 0.657938 0.186705
O O15 0.000000 0.000000 0.000000
O O16 0.368161 0.198680 0.868164
O O17 0.500000 0.000000 0.000000
#
# Coordination Sequence:
#
# PCOD9016958 Si02
#       8
#     2   2   1   2   2   2   2   2
#     4  10  24  42  64  95 127 177 224 282 337 416
#     4  10  21  42  70 104 148 193 237 295 368 441
#     4  10  22  36  58  92 118 174 206 282 336 406
#     4  11  24  43  71  93 135 181 229 281 349 409
#     4  11  22  38  60  91 128 163 221 276 342 405
#     4  10  22  41  62  88 135 165 226 278 343 409
#     4  11  24  46  68 100 135 179 234 285 340 428
#     4  10  22  44  70 101 146 180 236 297 364 430
#
# _framework density 29.006297
#
# number of rings (size 3 to 8) (size 9 to 14) (size 15 to 20)
#    0.000    1.600    1.333    2.400    1.867    3.200 
#   14.400    0.000    0.000    0.000    0.000    0.000 
#    0.000    0.000    0.000    0.000    0.000    0.000 
#
# Total GULP energy -83855.171700 kJ/mol
# GULP energy per Si atom -5590.344780 kJ/mol
# Density = 2.894028 g / cm^3
# Si number density = 29.006297 Si / 1000 Ang^3
#
#
#
# Elastic Constant Matrix: (Units=GPa)
#
#
# Indices 1 2 3 4 5 6 
#
# 1 147.9661 12.9572 55.3263 10.6581 0.7206 0.9130
# 2 12.9572 178.3135 74.1290 9.9815 -11.2809 -15.1081
# 3 55.3263 74.1290 254.2015 37.6392 -8.8379 -14.6695
# 4 10.6581 9.9815 37.6392 78.7495 -2.5449 2.7448
# 5 0.7206 -11.2809 -8.8379 -2.5449 62.3615 10.9025
# 6 0.9130 -15.1081 -14.6695 2.7448 10.9025 59.9250
#
#
#
# Elastic Compliance Matrix: (Units=1/GPa)
#
#
# Indices 1 2 3 4 5 6 
#
# 1 0.007381 0.000105 -0.001637 -0.000222 -0.000231 -0.000434
# 2 0.000105 0.006497 -0.001835 0.000026 0.000731 0.001053
# 3 -0.001637 -0.001835 0.005187 -0.002050 0.000182 0.000893
# 4 -0.000222 0.000026 -0.002050 0.013763 0.000490 -0.001211
# 5 -0.000231 0.000731 0.000182 0.000490 0.016711 -0.002830
# 6 -0.000434 0.001053 0.000893 -0.001211 -0.002830 0.017749
#
#
# Mechanical properties :
#
#
# Convention : Reuss Voigt Hill
#
# Bulk Modulus (GPa) = 81.09972 96.14514 88.62243
# Shear Modulus (GPa) = 63.99300 69.41177 66.70239
#
# Velocity S-wave (km/s) = 4.70209 4.89713 4.80060
# Velocity P-wave (km/s) = 7.58285 8.07428 7.83242
#
# Compressibility (1/GPa) = 0.01233050
#
# Stress axis : x y z
#
# Youngs Moduli (GPa) = 135.48038 153.90636 192.79281
#
# Poissons Ratio (x) = -0.01621 0.31569
# Poissons Ratio (y) = -0.01427 0.35385
# Poissons Ratio (z) = 0.22184 0.28248
#
# Static dielectric constant tensor:
#      x y z
#    x 2.133280 0.096060 -0.063550 
#    y 0.096060 1.858740 0.479890 
#    z -0.063550 0.479890 1.738230 
# 
# From -- ./inp_files/114007.got.cif
#   From: 2010.05.17/outbox.cif.g08.bks.cpg/sg2_58_cif.got.tgz:114007.got - 2010.06.03 11:33:40.
