data_PCOD9016879
_publ_section_title
;
Structure prediction by ZEFSAII (Michael W. Deem and Ramdas Pophale) SiO2 
 PCOD9016879
Probable space group: P -1
;
_chemical_formula_sum "Si O2"
_cell_formula_units_Z 16
_cell_length_a 19.950853
_cell_length_b 8.923271
_cell_length_c 13.817898
_cell_angle_alpha 46.448484
_cell_angle_beta 157.857322
_cell_angle_gamma 131.091112
_cell_volume 670.348943
_symmetry_space_group_name_H-M "P -1"
_symmetry_group_IT_number 2
_symmetry_cell_setting 'triclinic'
loop_
_space_group_symop_operation_xyz
x,y,z
-x,-y,-z
loop_
_atom_site_type_symbol
_atom_site_label
_atom_site_fract_x
_atom_site_fract_y
_atom_site_fract_z
Si Si1 0.664992 0.534217 0.435524
Si Si2 0.549172 0.682791 0.909800
Si Si3 0.033643 0.667381 0.184573
Si Si4 0.990201 0.023033 0.834325
Si Si5 0.689940 0.430097 0.743763
Si Si6 0.387767 0.975706 0.703871
Si Si7 0.868905 0.991635 0.185123
Si Si8 0.275074 0.982579 0.747094
O O1 0.498821 0.401299 0.223521
O O2 0.691306 0.471087 0.610460
O O3 0.667070 0.780950 0.313699
O O4 0.825402 0.481453 0.601945
O O5 0.426127 0.855901 0.710506
O O6 0.500000 0.500000 0.000000
O O7 0.746265 0.787766 0.138858
O O8 0.027811 0.747443 0.250543
O O9 0.843093 0.564371 0.946148
O O10 0.084477 0.879787 0.099076
O O11 0.087809 0.018834 0.866136
O O12 0.790424 0.913585 0.606470
O O13 0.500000 0.500000 0.500000
O O14 0.756097 0.196171 0.952248
O O15 0.310136 0.856688 0.751007
O O16 0.581088 0.069721 0.956734
O O17 0.069143 0.982043 0.500838
#
# Coordination Sequence:
#
# PCOD9016879 Si02
#       8
#     2   2   2   2   2   2   2   2
#     4  12  23  45  72 100 143 185 229 285 360 424
#     4  12  27  46  68  99 141 190 238 294 352 416
#     4  11  22  42  71 102 144 182 230 282 362 428
#     4  10  22  41  70 106 141 190 223 290 354 426
#     4  12  27  41  68 110 143 180 234 294 349 426
#     4  10  21  42  69  98 133 181 239 277 348 411
#     4  11  25  44  69 103 146 181 239 289 356 416
#     4  10  22  43  72 100 135 186 232 289 346 420
#
# _framework density 23.868165000000001
#
# number of rings (size 3 to 8) (size 9 to 14) (size 15 to 20)
#    0.000    1.000    5.000    1.875    5.250    1.000 
#    0.000    2.500    2.750    0.000    0.000    0.000 
#    0.000    0.000    0.000    0.000    0.000    0.000 
#
# Total GULP energy -89225.967217 kJ/mol
# GULP energy per Si atom -5576.622951 kJ/mol
# Density = 2.381384 g / cm^3
# Si number density = 23.868165 Si / 1000 Ang^3
#
#
#
# Elastic Constant Matrix: (Units=GPa)
#
#
# Indices 1 2 3 4 5 6 
#
# 1 115.5344 41.2417 38.5184 4.0987 16.2532 -22.0378
# 2 41.2417 94.2627 56.9117 23.1452 15.1105 -7.5992
# 3 38.5184 56.9117 150.3465 19.8046 23.0938 -1.1639
# 4 4.0987 23.1452 19.8046 33.4787 -10.6961 1.4403
# 5 16.2532 15.1105 23.0938 -10.6961 40.5009 7.0924
# 6 -22.0378 -7.5992 -1.1639 1.4403 7.0924 40.9743
#
#
#
# Elastic Compliance Matrix: (Units=1/GPa)
#
#
# Indices 1 2 3 4 5 6 
#
# 1 0.012070 -0.003413 -0.001115 -0.000047 -0.004092 0.006537
# 2 -0.003413 0.018930 -0.003270 -0.013431 -0.007977 0.003435
# 3 -0.001115 -0.003270 0.009617 -0.004941 -0.005144 0.000131
# 4 -0.000047 -0.013431 -0.004941 0.049594 0.022394 -0.008276
# 5 -0.004092 -0.007977 -0.005144 0.022394 0.040182 -0.011568
# 6 0.006537 0.003435 0.000131 -0.008276 -0.011568 0.030855
#
#
# Mechanical properties :
#
#
# Convention : Reuss Voigt Hill
#
# Bulk Modulus (GPa) = 39.96869 70.38747 55.17808
# Shear Modulus (GPa) = 27.00024 37.88889 32.44457
#
# Velocity S-wave (km/s) = 3.36702 3.98857 3.69090
# Velocity P-wave (km/s) = 5.64780 7.12501 6.42897
#
# Compressibility (1/GPa) = 0.02501958
#
# Stress axis : x y z
#
# Youngs Moduli (GPa) = 82.85247 52.82693 103.98541
#
# Poissons Ratio (x) = 0.18031 0.11594
# Poissons Ratio (y) = 0.28279 0.34005
# Poissons Ratio (z) = 0.09238 0.17275
#
# Static dielectric constant tensor:
#      x y z
#    x 2.026340 -0.109080 -0.042880 
#    y -0.109080 2.051960 0.001350 
#    z -0.042880 0.001350 1.990400 
# 
# From -- ./inp_files/540423.got.cif
#   From: 2010.05.17/outbox.cif.g08.bks.cpg/sg2_271_cif.got.tgz:540423.got - 2010.06.03 11:33:40.
