data_PCOD9016239
_publ_section_title
;
Structure prediction by ZEFSAII (Michael W. Deem and Ramdas Pophale) SiO2 
 PCOD9016239
Probable space group: P -1
;
_chemical_formula_sum "Si O2"
_cell_formula_units_Z 14
_cell_length_a 5.868421
_cell_length_b 9.550574
_cell_length_c 13.243410
_cell_angle_alpha 72.460308
_cell_angle_beta 64.173548
_cell_angle_gamma 99.039946
_cell_volume 600.005492
_symmetry_space_group_name_H-M "P -1"
_symmetry_group_IT_number 2
_symmetry_cell_setting 'triclinic'
loop_
_space_group_symop_operation_xyz
x,y,z
-x,-y,-z
loop_
_atom_site_type_symbol
_atom_site_label
_atom_site_fract_x
_atom_site_fract_y
_atom_site_fract_z
Si Si1 0.553874 0.415728 0.909267
Si Si2 0.936701 0.607273 0.279940
Si Si3 0.303711 0.878725 0.641589
Si Si4 0.906328 0.332113 0.456714
Si Si5 0.315104 0.082017 0.955009
Si Si6 0.346356 0.149285 0.709911
Si Si7 0.441891 0.361518 0.327110
O O1 0.341549 0.243437 0.971525
O O2 0.552032 0.530550 0.792958
O O3 0.841077 0.388555 0.848015
O O4 0.500000 0.500000 0.000000
O O5 0.000491 0.519593 0.384174
O O6 0.873451 0.764749 0.266038
O O7 0.655958 0.478331 0.332928
O O8 0.102975 0.751212 0.634873
O O9 0.465941 0.782741 0.687809
O O10 0.500000 0.000000 0.500000
O O11 0.218187 0.984101 0.714590
O O12 0.617168 0.252969 0.577585
O O13 0.164781 0.298859 0.456510
O O14 0.442081 0.130058 0.808718
O O15 0.500000 0.000000 0.000000
O O16 0.000000 0.000000 0.000000
#
# Coordination Sequence:
#
# PCOD9016239 Si02
#       7
#     2   2   2   2   2   2   2
#     4  11  26  48  76  99 139 199 248 314 370 447
#     4  10  21  44  67 106 139 177 244 294 369 443
#     4   9  21  40  63 101 144 187 232 285 360 446
#     4   9  21  41  69 106 142 190 235 290 369 451
#     4  12  29  52  72 110 150 196 261 320 382 442
#     4  11  22  44  69 101 148 190 232 308 375 439
#     4  10  21  42  67 103 139 177 246 287 354 453
#
# _framework density 23.333117999999999
#
# number of rings (size 3 to 8) (size 9 to 14) (size 15 to 20)
#    0.000    1.714    1.429    1.286    2.000    6.857 
#   18.000    0.000    0.000    0.000    0.000    0.000 
#    0.000    0.000    0.000    0.000    0.000    0.000 
#
# Total GULP energy -78131.821185 kJ/mol
# GULP energy per Si atom -5580.844370 kJ/mol
# Density = 2.328001 g / cm^3
# Si number density = 23.333118 Si / 1000 Ang^3
#
#
#
# Elastic Constant Matrix: (Units=GPa)
#
#
# Indices 1 2 3 4 5 6 
#
# 1 103.4376 57.9808 41.5637 -1.2457 -13.1294 -15.7481
# 2 57.9808 204.0450 46.0362 9.9706 1.5744 -25.1498
# 3 41.5637 46.0362 82.9250 5.4695 3.0755 -11.1169
# 4 -1.2457 9.9706 5.4695 41.0354 -1.5184 0.6734
# 5 -13.1294 1.5744 3.0755 -1.5184 45.4285 -4.0968
# 6 -15.7481 -25.1498 -11.1169 0.6734 -4.0968 40.6648
#
#
#
# Elastic Compliance Matrix: (Units=1/GPa)
#
#
# Indices 1 2 3 4 5 6 
#
# 1 0.014555 -0.002610 -0.005772 0.001983 0.005017 0.002917
# 2 -0.002610 0.006427 -0.001813 -0.001464 -0.000685 0.002424
# 3 -0.005772 -0.001813 0.016308 -0.002022 -0.002699 0.000863
# 4 0.001983 -0.001464 -0.002022 0.025126 0.001515 -0.000954
# 5 0.005017 -0.000685 -0.002699 0.001515 0.024006 0.003175
# 6 0.002917 0.002424 0.000863 -0.000954 0.003175 0.027792
#
#
# Mechanical properties :
#
#
# Convention : Reuss Voigt Hill
#
# Bulk Modulus (GPa) = 59.17157 75.72989 67.45073
# Shear Modulus (GPa) = 35.65393 41.74754 38.70073
#
# Velocity S-wave (km/s) = 3.91326 4.23448 4.07703
# Velocity P-wave (km/s) = 6.76998 7.51227 7.15076
#
# Compressibility (1/GPa) = 0.01690001
#
# Stress axis : x y z
#
# Youngs Moduli (GPa) = 68.70655 155.59177 61.31958
#
# Poissons Ratio (x) = 0.40602 0.35395
# Poissons Ratio (y) = 0.17929 0.11118
# Poissons Ratio (z) = 0.39659 0.28211
#
# Static dielectric constant tensor:
#      x y z
#    x 2.089760 0.001590 0.136450 
#    y 0.001590 1.901230 0.003350 
#    z 0.136450 0.003350 2.068960 
# 
# From -- ./inp_files/111600.got.cif
#   From: 2010.05.17/outbox.cif.g08.bks.cpg/sg2_56_cif.got.tgz:111600.got - 2010.06.03 11:33:40.
