data_PCOD9016504
_publ_section_title
;
Structure prediction by ZEFSAII (Michael W. Deem and Ramdas Pophale) SiO2 
 PCOD9016504
Probable space group: P -1
;
_chemical_formula_sum "Si O2"
_cell_formula_units_Z 10
_cell_length_a 14.010067
_cell_length_b 11.489605
_cell_length_c 13.445075
_cell_angle_alpha 144.146489
_cell_angle_beta 27.579612
_cell_angle_gamma 158.006791
_cell_volume 374.444181
_symmetry_space_group_name_H-M "P -1"
_symmetry_group_IT_number 2
_symmetry_cell_setting 'triclinic'
loop_
_space_group_symop_operation_xyz
x,y,z
-x,-y,-z
loop_
_atom_site_type_symbol
_atom_site_label
_atom_site_fract_x
_atom_site_fract_y
_atom_site_fract_z
Si Si1 0.699462 0.701930 0.858006
Si Si2 0.744758 0.699324 0.162921
Si Si3 0.552242 0.045755 0.751862
Si Si4 0.629378 0.761328 0.639041
Si Si5 0.799591 0.267714 0.338162
O O1 0.563111 0.469833 0.734479
O O2 0.500000 0.500000 0.000000
O O3 0.631743 0.880074 0.011323
O O4 0.073585 0.986887 0.734228
O O5 0.611466 0.443172 0.187601
O O6 0.000871 0.787880 0.913043
O O7 0.917148 0.394685 0.637894
O O8 0.583164 0.932780 0.742218
O O9 0.345748 0.789676 0.677015
O O10 0.500000 0.500000 0.500000
O O11 0.000000 0.000000 0.500000
O O12 0.500000 0.000000 0.500000
#
# Coordination Sequence:
#
# PCOD9016504 Si02
#       5
#     2   2   2   2   2
#     4  10  21  42  68 103 134 170 226 286 349 422
#     4  10  23  43  68  98 133 184 225 285 347 399
#     4  10  23  43  68  98 133 184 225 285 347 399
#     4  12  26  48  66  98 142 184 244 284 326 408
#     4  10  21  42  68 103 134 170 226 286 349 422
#
# _framework density 26.706247999999999
#
# number of rings (size 3 to 8) (size 9 to 14) (size 15 to 20)
#    0.000    1.600    0.000    3.600    0.000    6.400 
#   43.200    0.000    0.000    0.000    0.000    0.000 
#    0.000    0.000    0.000    0.000    0.000    0.000 
#
# Total GULP energy -56022.063663 kJ/mol
# GULP energy per Si atom -5602.206366 kJ/mol
# Density = 2.664546 g / cm^3
# Si number density = 26.706248 Si / 1000 Ang^3
#
#
#
# Elastic Constant Matrix: (Units=GPa)
#
#
# Indices 1 2 3 4 5 6 
#
# 1 160.0794 66.8770 8.2563 5.3892 -5.2713 24.6576
# 2 66.8770 183.5439 17.9962 -6.5289 5.5217 38.4899
# 3 8.2563 17.9962 91.5788 -12.6304 -13.0441 8.0639
# 4 5.3892 -6.5289 -12.6304 43.5619 -2.2166 -4.9228
# 5 -5.2713 5.5217 -13.0441 -2.2166 54.9710 -7.8249
# 6 24.6576 38.4899 8.0639 -4.9228 -7.8249 80.8866
#
#
#
# Elastic Compliance Matrix: (Units=1/GPa)
#
#
# Indices 1 2 3 4 5 6 
#
# 1 0.007578 -0.002592 -0.000176 -0.001462 0.000733 -0.001077
# 2 -0.002592 0.007113 -0.001060 0.000707 -0.001556 -0.002596
# 3 -0.000176 -0.001060 0.012077 0.003506 0.003078 -0.000135
# 4 -0.001462 0.000707 0.003506 0.024513 0.001812 0.001427
# 5 0.000733 -0.001556 0.003078 0.001812 0.019536 0.002210
# 6 -0.001077 -0.002596 -0.000135 0.001427 0.002210 0.014241
#
#
# Mechanical properties :
#
#
# Convention : Reuss Voigt Hill
#
# Bulk Modulus (GPa) = 52.32016 69.05124 60.68570
# Shear Modulus (GPa) = 50.46184 58.68873 54.57529
#
# Velocity S-wave (km/s) = 4.35157 4.69291 4.52546
# Velocity P-wave (km/s) = 6.69938 7.43481 7.07666
#
# Compressibility (1/GPa) = 0.01911309
#
# Stress axis : x y z
#
# Youngs Moduli (GPa) = 131.95826 140.58636 82.79892
#
# Poissons Ratio (x) = 0.36441 0.01458
# Poissons Ratio (y) = 0.34205 0.08773
# Poissons Ratio (z) = 0.02324 0.14896
#
# Static dielectric constant tensor:
#      x y z
#    x 2.113320 0.069730 -0.009830 
#    y 0.069730 2.106700 0.059220 
#    z -0.009830 0.059220 2.109390 
# 
# From -- ./inp_files/25405.got.cif
#   From: 2010.05.17/outbox.cif.g08.bks.cpg/sg2_13_cif.got.tgz:25405.got - 2010.06.03 11:33:40.
