data_PCOD9016126
_publ_section_title
;
Structure prediction by ZEFSAII (Michael W. Deem and Ramdas Pophale) SiO2 
 PCOD9016126
Probable space group: P -1
;
_chemical_formula_sum "Si O2"
_cell_formula_units_Z 16
_cell_length_a 11.118183
_cell_length_b 5.494901
_cell_length_c 12.385557
_cell_angle_alpha 108.042351
_cell_angle_beta 123.426014
_cell_angle_gamma 78.472001
_cell_volume 600.058337
_symmetry_space_group_name_H-M "P -1"
_symmetry_group_IT_number 2
_symmetry_cell_setting 'triclinic'
loop_
_space_group_symop_operation_xyz
x,y,z
-x,-y,-z
loop_
_atom_site_type_symbol
_atom_site_label
_atom_site_fract_x
_atom_site_fract_y
_atom_site_fract_z
Si Si1 0.618321 0.297190 0.570265
Si Si2 0.193389 0.110081 0.011806
Si Si3 0.541552 0.203006 0.954830
Si Si4 0.113499 0.924862 0.385787
Si Si5 0.137015 0.406618 0.832146
Si Si6 0.159468 0.388776 0.600042
Si Si7 0.907629 0.846021 0.813992
Si Si8 0.450854 0.212711 0.668113
O O1 0.500000 0.500000 0.500000
O O2 0.782218 0.322725 0.617119
O O3 0.594057 0.295473 0.687315
O O4 0.586157 0.034154 0.455032
O O5 0.231081 0.317890 0.969060
O O6 0.020046 0.077879 0.916511
O O7 0.212525 0.163684 0.154943
O O8 0.288730 0.859367 0.992442
O O9 0.471292 0.148346 0.795350
O O10 0.500000 0.500000 0.000000
O O11 0.500000 0.000000 0.000000
O O12 0.950479 0.846940 0.280736
O O13 0.142718 0.084174 0.528850
O O14 0.147849 0.109357 0.327565
O O15 0.186893 0.479425 0.747530
O O16 0.017652 0.607274 0.842543
O O17 0.315265 0.420227 0.623853
O O18 0.000000 0.500000 0.500000
#
# Coordination Sequence:
#
# PCOD9016126 Si02
#       8
#     2   2   2   2   2   2   2   2
#     4  10  23  42  69  95 138 178 233 294 349 420
#     4  10  24  42  67  97 132 171 235 279 341 405
#     4  12  29  49  74 103 146 196 239 292 351 426
#     4  10  22  38  61  99 124 168 219 272 345 411
#     4  11  22  38  66  96 130 170 216 276 350 409
#     4  11  22  39  65  91 133 166 212 275 345 410
#     4  10  21  42  66  96 131 170 221 292 342 408
#     4  10  25  45  65 101 133 182 237 284 353 420
#
# _framework density 26.664076000000001
#
# number of rings (size 3 to 8) (size 9 to 14) (size 15 to 20)
#    0.000    1.500    1.250    2.250    7.000    2.000 
#    0.000    0.000    0.000    0.000    0.000    0.000 
#    0.000    0.000    0.000    0.000    0.000    0.000 
#
# Total GULP energy -89340.543124 kJ/mol
# GULP energy per Si atom -5583.783945 kJ/mol
# Density = 2.660339 g / cm^3
# Si number density = 26.664076 Si / 1000 Ang^3
#
#
#
# Elastic Constant Matrix: (Units=GPa)
#
#
# Indices 1 2 3 4 5 6 
#
# 1 114.1172 43.6879 46.4592 -0.3322 -25.8963 -32.9413
# 2 43.6879 121.7437 39.3345 -17.3995 -31.1290 -36.5882
# 3 46.4592 39.3345 143.7564 -13.4193 -42.2388 -8.8161
# 4 -0.3322 -17.3995 -13.4193 43.3422 -4.9930 1.2293
# 5 -25.8963 -31.1290 -42.2388 -4.9930 50.5282 7.7355
# 6 -32.9413 -36.5882 -8.8161 1.2293 7.7355 48.6213
#
#
#
# Elastic Compliance Matrix: (Units=1/GPa)
#
#
# Indices 1 2 3 4 5 6 
#
# 1 0.012924 -0.001189 -0.002853 -0.001193 0.002316 0.007006
# 2 -0.001189 0.013902 -0.000270 0.006064 0.007053 0.008331
# 3 -0.002853 -0.000270 0.010534 0.004077 0.007821 -0.001573
# 4 -0.001193 0.006064 0.004077 0.027719 0.008908 0.002376
# 5 0.002316 0.007053 0.007821 0.008908 0.032293 0.002932
# 6 0.007006 0.008331 -0.001573 0.002376 0.002932 0.030771
#
#
# Mechanical properties :
#
#
# Convention : Reuss Voigt Hill
#
# Bulk Modulus (GPa) = 34.79907 70.95340 52.87624
# Shear Modulus (GPa) = 34.16584 45.17406 39.66995
#
# Velocity S-wave (km/s) = 3.58347 4.12052 3.86134
# Velocity P-wave (km/s) = 5.49554 7.02183 6.30504
#
# Compressibility (1/GPa) = 0.02873640
#
# Stress axis : x y z
#
# Youngs Moduli (GPa) = 77.37632 71.93212 94.92893
#
# Poissons Ratio (x) = 0.08553 0.27080
# Poissons Ratio (y) = 0.09200 0.02565
# Poissons Ratio (z) = 0.22073 0.01943
#
# Static dielectric constant tensor:
#      x y z
#    x 2.351380 0.106300 0.045270 
#    y 0.106300 2.091000 -0.006360 
#    z 0.045270 -0.006360 2.137780 
# 
# From -- ./inp_files/95146.got.cif
#   From: 2010.05.17/outbox.cif.g08.bks.cpg/sg2_48_cif.got.tgz:95146.got - 2010.06.03 11:33:40.
