data_PCOD9016852
_publ_section_title
;
Structure prediction by ZEFSAII (Michael W. Deem and Ramdas Pophale) SiO2 
 PCOD9016852
Probable space group: P -1
;
_chemical_formula_sum "Si O2"
_cell_formula_units_Z 16
_cell_length_a 23.626751
_cell_length_b 5.422445
_cell_length_c 5.219776
_cell_angle_alpha 94.330786
_cell_angle_beta 66.848538
_cell_angle_gamma 103.813435
_cell_volume 596.967161
_symmetry_space_group_name_H-M "P -1"
_symmetry_group_IT_number 2
_symmetry_cell_setting 'triclinic'
loop_
_space_group_symop_operation_xyz
x,y,z
-x,-y,-z
loop_
_atom_site_type_symbol
_atom_site_label
_atom_site_fract_x
_atom_site_fract_y
_atom_site_fract_z
Si Si1 0.281467 0.460588 0.456752
Si Si2 0.906701 0.361300 0.122607
Si Si3 0.544407 0.551878 0.678869
Si Si4 0.783920 0.275869 0.041642
Si Si5 0.679769 0.003544 0.872709
Si Si6 0.573473 0.062342 0.452337
Si Si7 0.944282 0.140450 0.557725
Si Si8 0.149557 0.319444 0.434152
O O1 0.263180 0.542156 0.777222
O O2 0.212630 0.311606 0.467564
O O3 0.301893 0.737604 0.306152
O O4 0.322169 0.260203 0.289963
O O5 0.831669 0.242912 0.181796
O O6 0.935976 0.229041 0.290254
O O7 0.902013 0.633144 0.264725
O O8 0.944580 0.349655 0.793390
O O9 0.500000 0.500000 0.500000
O O10 0.587535 0.347358 0.558384
O O11 0.577316 0.847662 0.633563
O O12 0.500000 0.500000 0.000000
O O13 0.735642 0.036715 0.990948
O O14 0.830646 0.433040 0.759830
O O15 0.616695 0.017713 0.139086
O O16 0.500000 0.000000 0.500000
O O17 0.880175 0.923091 0.697338
O O18 0.000000 0.000000 0.500000
#
# Coordination Sequence:
#
# PCOD9016852 Si02
#       8
#     2   2   2   2   2   2   2   2
#     4  10  24  40  72 100 141 185 240 306 363 430
#     4  11  24  46  68  98 138 184 233 291 356 422
#     4  10  21  42  69  96 134 183 237 278 341 423
#     4  10  23  45  70 103 131 191 241 301 364 434
#     4  11  23  46  66 106 146 183 244 304 366 433
#     4  10  22  43  69  99 143 191 234 292 362 438
#     4  12  27  43  70 106 144 185 237 291 356 433
#     4  10  24  43  72  95 137 188 234 295 362 427
#
# _framework density 26.802144999999999
#
# number of rings (size 3 to 8) (size 9 to 14) (size 15 to 20)
#    0.000    1.500    1.250    2.250    7.000    3.000 
#   13.500    0.000    0.000    0.000    0.000    0.000 
#    0.000    0.000    0.000    0.000    0.000    0.000 
#
# Total GULP energy -89611.724770 kJ/mol
# GULP energy per Si atom -5600.732798 kJ/mol
# Density = 2.674114 g / cm^3
# Si number density = 26.802145 Si / 1000 Ang^3
#
#
#
# Elastic Constant Matrix: (Units=GPa)
#
#
# Indices 1 2 3 4 5 6 
#
# 1 108.2332 20.5134 24.8995 8.9066 13.1510 -8.9822
# 2 20.5134 156.2392 36.2310 40.2512 1.5851 -5.0261
# 3 24.8995 36.2310 144.4087 36.4219 6.4338 -8.6056
# 4 8.9066 40.2512 36.4219 52.6333 -7.7019 -7.8170
# 5 13.1510 1.5851 6.4338 -7.7019 41.5422 -0.2299
# 6 -8.9822 -5.0261 -8.6056 -7.8170 -0.2299 42.1291
#
#
#
# Elastic Compliance Matrix: (Units=1/GPa)
#
#
# Indices 1 2 3 4 5 6 
#
# 1 0.010235 -0.000867 -0.001196 -0.000436 -0.003093 0.001737
# 2 -0.000867 0.008158 -0.000338 -0.006083 -0.001114 -0.000415
# 3 -0.001196 -0.000338 0.008815 -0.005881 -0.002062 0.000403
# 4 -0.000436 -0.006083 -0.005881 0.029292 0.006731 0.003452
# 5 -0.003093 -0.001114 -0.002062 0.006731 0.026662 0.000181
# 6 0.001737 -0.000415 0.000403 0.003452 0.000181 0.024781
#
#
# Mechanical properties :
#
#
# Convention : Reuss Voigt Hill
#
# Bulk Modulus (GPa) = 44.63252 63.57432 54.10342
# Shear Modulus (GPa) = 41.59316 49.07673 45.33494
#
# Velocity S-wave (km/s) = 3.94364 4.28375 4.11721
# Velocity P-wave (km/s) = 6.11761 6.94541 6.54461
#
# Compressibility (1/GPa) = 0.02240519
#
# Stress axis : x y z
#
# Youngs Moduli (GPa) = 97.70834 122.58412 113.44404
#
# Poissons Ratio (x) = 0.10626 0.13567
# Poissons Ratio (y) = 0.08470 0.03837
# Poissons Ratio (z) = 0.11685 0.04146
#
# Static dielectric constant tensor:
#      x y z
#    x 2.118160 -0.041220 0.004720 
#    y -0.041220 2.090850 -0.003060 
#    z 0.004720 -0.003060 2.089960 
# 
# From -- ./inp_files/125597.got.cif
#   From: 2010.05.17/outbox.cif.g08.bks.cpg/sg2_63_cif.got.tgz:125597.got - 2010.06.03 11:33:40.
