data_PCOD9016419
_publ_section_title
;
Structure prediction by ZEFSAII (Michael W. Deem and Ramdas Pophale) SiO2 
 PCOD9016419
Probable space group: P -1
;
_chemical_formula_sum "Si O2"
_cell_formula_units_Z 13
_cell_length_a 23.753420
_cell_length_b 12.104857
_cell_length_c 8.902416
_cell_angle_alpha 36.030064
_cell_angle_beta 148.239703
_cell_angle_gamma 151.806128
_cell_volume 618.185076
_symmetry_space_group_name_H-M "P -1"
_symmetry_group_IT_number 2
_symmetry_cell_setting 'triclinic'
loop_
_space_group_symop_operation_xyz
x,y,z
-x,-y,-z
loop_
_atom_site_type_symbol
_atom_site_label
_atom_site_fract_x
_atom_site_fract_y
_atom_site_fract_z
Si Si1 0.810307 0.241210 0.752311
Si Si2 0.577076 0.389598 0.784151
Si Si3 0.502601 0.050269 0.710587
Si Si4 0.000000 0.500000 0.500000
Si Si5 0.884467 0.683928 0.232460
Si Si6 0.993818 0.874754 0.775026
Si Si7 0.206012 0.664045 0.060236
O O1 0.855766 0.485576 0.507451
O O2 0.841754 0.281628 0.956232
O O3 0.646225 0.047389 0.576366
O O4 0.891820 0.166577 0.931488
O O5 0.500000 0.500000 0.500000
O O6 0.553672 0.260537 0.714943
O O7 0.736268 0.598672 0.946236
O O8 0.523142 0.176277 0.015462
O O9 0.630019 0.158701 0.770235
O O10 0.054188 0.357394 0.723489
O O11 0.131318 0.658821 0.747812
O O12 0.974615 0.946282 0.218338
O O13 0.850888 0.609747 0.751245
O O14 0.000000 0.000000 0.500000
#
# Coordination Sequence:
#
# PCOD9016419 Si02
#       7
#     2   2   2   1   2   2   2
#     4  11  23  46  70  92 138 182 226 275 337 408
#     4  10  21  42  67  97 136 174 223 273 342 403
#     4  10  23  43  67  98 134 180 222 278 338 396
#     4  12  24  42  68 100 140 170 222 290 340 396
#     4  11  23  43  68  98 133 182 223 277 340 400
#     4  12  24  43  70  98 135 182 226 277 338 401
#     4  12  24  44  67 103 136 173 230 278 337 400
#
# _framework density 21.029301
#
# number of rings (size 3 to 8) (size 9 to 14) (size 15 to 20)
#    0.000    0.923    4.615    2.769    0.000    1.846 
#    5.538    0.769    0.000    0.000    0.000    0.000 
#    0.000    0.000    0.000    0.000    0.000    0.000 
#
# Total GULP energy -72428.584250 kJ/mol
# GULP energy per Si atom -5571.429558 kJ/mol
# Density = 2.098144 g / cm^3
# Si number density = 21.029301 Si / 1000 Ang^3
#
#
#
# Elastic Constant Matrix: (Units=GPa)
#
#
# Indices 1 2 3 4 5 6 
#
# 1 70.4931 18.3841 8.1303 -10.3546 17.3228 -25.4064
# 2 18.3841 31.4358 -3.6588 6.4829 -1.0062 -0.7183
# 3 8.1303 -3.6588 84.3439 5.8478 19.8962 -4.2736
# 4 -10.3546 6.4829 5.8478 25.4265 -9.7533 5.6032
# 5 17.3228 -1.0062 19.8962 -9.7533 34.4879 2.3407
# 6 -25.4064 -0.7183 -4.2736 5.6032 2.3407 39.3336
#
#
#
# Elastic Compliance Matrix: (Units=1/GPa)
#
#
# Indices 1 2 3 4 5 6 
#
# 1 0.031520 -0.019965 0.000341 0.007365 -0.015881 0.019927
# 2 -0.019965 0.047300 0.003394 -0.016807 0.005347 -0.009587
# 3 0.000341 0.003394 0.015766 -0.009973 -0.012270 0.004146
# 4 0.007365 -0.016807 -0.009973 0.057149 0.018123 -0.005853
# 5 -0.015881 0.005347 -0.012270 0.018123 0.050491 -0.017079
# 6 0.019927 -0.009587 0.004146 -0.005853 -0.017079 0.040421
#
#
# Mechanical properties :
#
#
# Convention : Reuss Voigt Hill
#
# Bulk Modulus (GPa) = 16.09627 25.77600 20.93614
# Shear Modulus (GPa) = 16.90244 30.74408 23.82326
#
# Velocity S-wave (km/s) = 2.83814 3.82771 3.36945
# Velocity P-wave (km/s) = 4.29079 5.64083 5.01148
#
# Compressibility (1/GPa) = 0.06212618
#
# Stress axis : x y z
#
# Youngs Moduli (GPa) = 31.72629 21.14164 63.42572
#
# Poissons Ratio (x) = 0.42210 -0.02161
# Poissons Ratio (y) = 0.63342 -0.21530
# Poissons Ratio (z) = -0.01081 -0.07177
#
# Static dielectric constant tensor:
#      x y z
#    x 1.775200 0.061030 -0.015270 
#    y 0.061030 1.718130 -0.028440 
#    z -0.015270 -0.028440 1.703870 
# 
# From -- ./inp_files/65231.got.cif
#   From: 2010.05.17/outbox.cif.g08.bks.cpg/sg2_33_cif.got.tgz:65231.got - 2010.06.03 11:33:40.
