data_PCOD9016692
_publ_section_title
;
Structure prediction by ZEFSAII (Michael W. Deem and Ramdas Pophale) SiO2 
 PCOD9016692
Probable space group: P -1
;
_chemical_formula_sum "Si O2"
_cell_formula_units_Z 14
_cell_length_a 13.468151
_cell_length_b 14.940597
_cell_length_c 7.043467
_cell_angle_alpha 69.226479
_cell_angle_beta 94.257100
_cell_angle_gamma 151.499120
_cell_volume 535.327062
_symmetry_space_group_name_H-M "P -1"
_symmetry_group_IT_number 2
_symmetry_cell_setting 'triclinic'
loop_
_space_group_symop_operation_xyz
x,y,z
-x,-y,-z
loop_
_atom_site_type_symbol
_atom_site_label
_atom_site_fract_x
_atom_site_fract_y
_atom_site_fract_z
Si Si1 0.697391 0.521108 0.987011
Si Si2 0.427252 0.865053 0.263608
Si Si3 0.722153 0.691527 0.537520
Si Si4 0.920737 0.020260 0.103068
Si Si5 0.037224 0.645630 0.952210
Si Si6 0.790392 0.991315 0.753852
Si Si7 0.005409 0.627787 0.419300
O O1 0.642426 0.563384 0.808561
O O2 0.856360 0.712144 0.028347
O O3 0.859580 0.572583 0.899694
O O4 0.441662 0.248811 0.214400
O O5 0.273058 0.636214 0.352911
O O6 0.201203 0.719453 0.443908
O O7 0.678681 0.074879 0.253246
O O8 0.500000 0.000000 0.000000
O O9 0.500000 0.500000 0.500000
O O10 0.958350 0.838045 0.398705
O O11 0.823991 0.889977 0.383514
O O12 0.731707 0.909781 0.026118
O O13 0.000000 0.000000 0.000000
O O14 0.000000 0.500000 0.000000
O O15 0.999950 0.625330 0.190274
O O16 0.859605 0.161079 0.644463
#
# Coordination Sequence:
#
# PCOD9016692 Si02
#       7
#     2   2   2   2   2   2   2
#     4  12  25  45  73 104 147 190 242 298 369 427
#     4   9  21  40  67  96 138 186 233 293 355 416
#     4  11  25  45  70 106 140 187 240 303 367 431
#     4  10  23  47  69 100 140 185 235 301 357 431
#     4  11  24  41  67 107 146 186 242 300 356 439
#     4  11  24  44  71  99 143 188 239 292 364 433
#     4  10  21  42  68  99 139 197 237 293 363 428
#
# _framework density 26.152235000000001
#
# number of rings (size 3 to 8) (size 9 to 14) (size 15 to 20)
#    0.000    1.429    2.857    1.286    0.000   10.857 
#    5.143    0.000    0.000    0.000    0.000    0.000 
#    0.000    0.000    0.000    0.000    0.000    0.000 
#
# Total GULP energy -78193.761326 kJ/mol
# GULP energy per Si atom -5585.268666 kJ/mol
# Density = 2.609271 g / cm^3
# Si number density = 26.152235 Si / 1000 Ang^3
#
#
#
# Elastic Constant Matrix: (Units=GPa)
#
#
# Indices 1 2 3 4 5 6 
#
# 1 119.1625 54.7773 43.3091 -18.4850 -6.3966 2.8498
# 2 54.7773 156.8933 57.7902 -43.4359 -8.2738 -20.9710
# 3 43.3091 57.7902 106.5557 -29.1563 8.1845 -12.8602
# 4 -18.4850 -43.4359 -29.1563 65.5011 4.8178 4.7933
# 5 -6.3966 -8.2738 8.1845 4.8178 34.3935 -13.4374
# 6 2.8498 -20.9710 -12.8602 4.7933 -13.4374 42.9827
#
#
#
# Elastic Compliance Matrix: (Units=1/GPa)
#
#
# Indices 1 2 3 4 5 6 
#
# 1 0.011092 -0.003031 -0.003357 -0.000241 0.001048 -0.002864
# 2 -0.003031 0.010653 -0.003098 0.004127 0.004244 0.005338
# 3 -0.003357 -0.003098 0.013857 0.003445 -0.004766 0.000983
# 4 -0.000241 0.004127 0.003445 0.019657 -0.002604 0.000054
# 5 0.001048 0.004244 -0.004766 -0.002604 0.036598 0.012307
# 6 -0.002864 0.005338 0.000983 0.000054 0.012307 0.030195
#
#
# Mechanical properties :
#
#
# Convention : Reuss Voigt Hill
#
# Bulk Modulus (GPa) = 60.13024 77.15162 68.64093
# Shear Modulus (GPa) = 34.11416 43.69112 38.90264
#
# Velocity S-wave (km/s) = 3.61563 4.09179 3.86106
# Velocity P-wave (km/s) = 6.36181 7.20338 6.79564
#
# Compressibility (1/GPa) = 0.01663057
#
# Stress axis : x y z
#
# Youngs Moduli (GPa) = 90.15176 93.87067 72.16726
#
# Poissons Ratio (x) = 0.28448 0.24226
# Poissons Ratio (y) = 0.27321 0.22359
# Poissons Ratio (z) = 0.30263 0.29084
#
# Static dielectric constant tensor:
#      x y z
#    x 2.127600 -0.043000 0.069350 
#    y -0.043000 2.141080 0.019970 
#    z 0.069350 0.019970 2.218210 
# 
# From -- ./inp_files/314948.got.cif
#   From: 2010.05.17/outbox.cif.g08.bks.cpg/sg2_158_cif.got.tgz:314948.got - 2010.06.03 11:33:40.
