data_PCOD9016169
_publ_section_title
;
Structure prediction by ZEFSAII (Michael W. Deem and Ramdas Pophale) SiO2 
 PCOD9016169
Probable space group: P -1
;
_chemical_formula_sum "Si O2"
_cell_formula_units_Z 16
_cell_length_a 20.278579
_cell_length_b 17.121827
_cell_length_c 11.610980
_cell_angle_alpha 27.082584
_cell_angle_beta 140.708839
_cell_angle_gamma 156.991849
_cell_volume 693.448604
_symmetry_space_group_name_H-M "P -1"
_symmetry_group_IT_number 2
_symmetry_cell_setting 'triclinic'
loop_
_space_group_symop_operation_xyz
x,y,z
-x,-y,-z
loop_
_atom_site_type_symbol
_atom_site_label
_atom_site_fract_x
_atom_site_fract_y
_atom_site_fract_z
Si Si1 0.049533 0.716808 0.868688
Si Si2 0.216744 0.716131 0.274909
Si Si3 0.528351 0.752591 0.904925
Si Si4 0.689557 0.366569 0.899037
Si Si5 0.223825 0.175132 0.962455
Si Si6 0.369023 0.377709 0.382657
Si Si7 0.571107 0.247256 0.643783
Si Si8 0.841580 0.663496 0.140033
O O1 0.885209 0.620338 0.787082
O O2 0.209657 0.038447 0.617045
O O3 0.094122 0.696721 0.080030
O O4 0.000000 0.500000 0.000000
O O5 0.311471 0.756615 0.239547
O O6 0.129694 0.450303 0.579293
O O7 0.355585 0.984732 0.195261
O O8 0.661690 0.846003 0.869376
O O9 0.455238 0.498907 0.215874
O O10 0.352721 0.618393 0.804572
O O11 0.678475 0.489102 0.824187
O O12 0.583221 0.283422 0.750058
O O13 0.619879 0.083585 0.207658
O O14 0.341468 0.478966 0.663627
O O15 0.187755 0.196596 0.014470
O O16 0.023340 0.904786 0.997341
O O17 0.500000 0.500000 0.500000
#
# Coordination Sequence:
#
# PCOD9016169 Si02
#       8
#     2   2   2   2   2   2   2   2
#     4  12  26  42  68 105 140 183 233 287 351 420
#     4  11  23  47  64  99 141 177 229 292 337 415
#     4  12  24  43  73 100 137 184 232 290 353 407
#     4  11  23  41  69  99 138 186 228 281 357 418
#     4  10  24  44  70 102 135 179 236 292 341 418
#     4  12  25  44  67 102 142 177 229 288 352 417
#     4  10  21  42  66  97 140 178 225 284 348 416
#     4  10  25  47  70  97 138 185 236 283 351 414
#
# _framework density 23.073087000000001
#
# number of rings (size 3 to 8) (size 9 to 14) (size 15 to 20)
#    0.000    1.000    3.750    1.875    5.250    2.500 
#    4.500    0.000    0.000    0.000    0.000    0.000 
#    0.000    0.000    0.000    0.000    0.000    0.000 
#
# Total GULP energy -89347.206138 kJ/mol
# GULP energy per Si atom -5584.200384 kJ/mol
# Density = 2.302057 g / cm^3
# Si number density = 23.073087 Si / 1000 Ang^3
#
#
#
# Elastic Constant Matrix: (Units=GPa)
#
#
# Indices 1 2 3 4 5 6 
#
# 1 83.0967 20.0349 14.9360 -17.6838 6.7598 6.0689
# 2 20.0349 94.5431 32.9766 -28.5569 7.4040 -6.6940
# 3 14.9360 32.9766 101.2429 -28.7763 -7.5913 -1.5718
# 4 -17.6838 -28.5569 -28.7763 39.8558 -1.5818 -2.9645
# 5 6.7598 7.4040 -7.5913 -1.5818 23.4718 -6.7292
# 6 6.0689 -6.6940 -1.5718 -2.9645 -6.7292 29.7214
#
#
#
# Elastic Compliance Matrix: (Units=1/GPa)
#
#
# Indices 1 2 3 4 5 6 
#
# 1 0.014069 -0.001312 -0.000871 0.004197 -0.004747 -0.003870
# 2 -0.001312 0.014750 -0.002449 0.008340 -0.003502 0.003500
# 3 -0.000871 -0.002449 0.013688 0.008212 0.006779 0.002704
# 4 0.004197 0.008340 0.008212 0.039441 0.003229 0.006121
# 5 -0.004747 -0.003502 0.006779 0.003229 0.051046 0.012418
# 6 -0.003870 0.003500 0.002704 0.006121 0.012418 0.038789
#
#
# Mechanical properties :
#
#
# Convention : Reuss Voigt Hill
#
# Bulk Modulus (GPa) = 30.08156 46.08642 38.08399
# Shear Modulus (GPa) = 26.02425 32.67214 29.34819
#
# Velocity S-wave (km/s) = 3.36207 3.76710 3.57033
# Velocity P-wave (km/s) = 5.30445 6.24010 5.79120
#
# Compressibility (1/GPa) = 0.03324296
#
# Stress axis : x y z
#
# Youngs Moduli (GPa) = 71.07782 67.79455 73.05859
#
# Poissons Ratio (x) = 0.08896 0.06365
# Poissons Ratio (y) = 0.09327 0.17890
# Poissons Ratio (z) = 0.06193 0.16601
#
# Static dielectric constant tensor:
#      x y z
#    x 1.936810 0.061070 -0.021620 
#    y 0.061070 2.017130 -0.036340 
#    z -0.021620 -0.036340 1.893180 
# 
# From -- ./inp_files/472345.got.cif
#   From: 2010.05.17/outbox.cif.g08.bks.cpg/sg2_237_cif.got.tgz:472345.got - 2010.06.03 11:33:40.
