data_PCOD9016249
_publ_section_title
;
Structure prediction by ZEFSAII (Michael W. Deem and Ramdas Pophale) SiO2 
 PCOD9016249
Probable space group: P -1
;
_chemical_formula_sum "Si O2"
_cell_formula_units_Z 12
_cell_length_a 5.072035
_cell_length_b 13.514758
_cell_length_c 8.782127
_cell_angle_alpha 79.820989
_cell_angle_beta 118.656750
_cell_angle_gamma 114.524882
_cell_volume 480.405953
_symmetry_space_group_name_H-M "P -1"
_symmetry_group_IT_number 2
_symmetry_cell_setting 'triclinic'
loop_
_space_group_symop_operation_xyz
x,y,z
-x,-y,-z
loop_
_atom_site_type_symbol
_atom_site_label
_atom_site_fract_x
_atom_site_fract_y
_atom_site_fract_z
Si Si1 0.395751 0.811399 0.401513
Si Si2 0.303817 0.414790 0.197843
Si Si3 0.662802 0.355730 0.830511
Si Si4 0.595626 0.752897 0.911667
Si Si5 0.771366 0.065600 0.940626
Si Si6 0.018426 0.779025 0.616152
O O1 0.328728 0.705696 0.304893
O O2 0.369592 0.904746 0.260634
O O3 0.137423 0.784994 0.473395
O O4 0.767967 0.839001 0.551174
O O5 0.439336 0.541201 0.240743
O O6 0.521502 0.361121 0.182315
O O7 0.173192 0.339858 0.330029
O O8 0.011710 0.396742 0.000895
O O9 0.428972 0.271305 0.910203
O O10 0.365235 0.815485 0.786779
O O11 0.968533 0.819474 0.955816
O O12 0.500000 0.000000 0.000000
O O13 0.000000 0.000000 0.000000
#
# Coordination Sequence:
#
# PCOD9016249 Si02
#       6
#     2   2   2   2   2   2
#     4  12  24  46  66 105 139 177 226 291 336 397
#     4  10  21  42  67 105 138 193 227 262 336 409
#     4  10  22  38  72 102 139 189 233 272 316 407
#     4  11  22  47  70  99 143 181 230 284 334 403
#     4  12  27  47  77  99 124 176 239 288 343 408
#     4  11  25  42  70  98 153 181 214 276 355 395
#
# _framework density 24.978876
#
# number of rings (size 3 to 8) (size 9 to 14) (size 15 to 20)
#    0.000    1.000    3.333    3.500    2.333    1.333 
#    0.000    5.000    0.000    0.000    0.000    0.000 
#    0.000    0.000    0.000    0.000    0.000    0.000 
#
# Total GULP energy -67190.375436 kJ/mol
# GULP energy per Si atom -5599.197953 kJ/mol
# Density = 2.492202 g / cm^3
# Si number density = 24.978876 Si / 1000 Ang^3
#
#
#
# Elastic Constant Matrix: (Units=GPa)
#
#
# Indices 1 2 3 4 5 6 
#
# 1 140.4568 9.3051 52.5923 -11.7492 3.7289 -7.6514
# 2 9.3051 51.4742 15.0423 -16.1271 5.1056 -12.6017
# 3 52.5923 15.0423 128.7623 -33.3440 4.8543 11.3241
# 4 -11.7492 -16.1271 -33.3440 26.6104 -7.1077 5.0230
# 5 3.7289 5.1056 4.8543 -7.1077 59.0665 -3.8300
# 6 -7.6514 -12.6017 11.3241 5.0230 -3.8300 40.3654
#
#
#
# Elastic Compliance Matrix: (Units=1/GPa)
#
#
# Indices 1 2 3 4 5 6 
#
# 1 0.008780 -0.000294 -0.004486 -0.002585 -0.000268 0.003127
# 2 -0.000294 0.025408 0.000434 0.014678 -0.000063 0.005922
# 3 -0.004486 0.000434 0.014961 0.018590 0.000789 -0.007150
# 4 -0.002585 0.014678 0.018590 0.071872 0.005396 -0.009554
# 5 -0.000268 -0.000063 0.000789 0.005396 0.017583 0.000705
# 6 0.003127 0.005922 -0.007150 -0.009554 0.000705 0.030477
#
#
# Mechanical properties :
#
#
# Convention : Reuss Voigt Hill
#
# Bulk Modulus (GPa) = 24.71689 52.73031 38.72360
# Shear Modulus (GPa) = 26.14270 41.45869 33.80069
#
# Velocity S-wave (km/s) = 3.23862 4.07842 3.68254
# Velocity P-wave (km/s) = 4.88891 6.58284 5.79807
#
# Compressibility (1/GPa) = 0.04045817
#
# Stress axis : x y z
#
# Youngs Moduli (GPa) = 113.89350 39.35730 66.84129
#
# Poissons Ratio (x) = 0.01156 0.29986
# Poissons Ratio (y) = 0.03346 -0.02903
# Poissons Ratio (z) = 0.51094 -0.01710
#
# Static dielectric constant tensor:
#      x y z
#    x 1.961390 -0.014610 0.033760 
#    y -0.014610 2.076670 0.058190 
#    z 0.033760 0.058190 1.995060 
# 
# From -- ./inp_files/109077.got.cif
#   From: 2010.05.17/outbox.cif.g08.bks.cpg/sg2_55_cif.got.tgz:109077.got - 2010.06.03 11:33:40.
