data_PCOD9016242
_publ_section_title
;
Structure prediction by ZEFSAII (Michael W. Deem and Ramdas Pophale) SiO2 
 PCOD9016242
Probable space group: P -1
;
_chemical_formula_sum "Si O2"
_cell_formula_units_Z 16
_cell_length_a 11.275465
_cell_length_b 13.806707
_cell_length_c 8.906433
_cell_angle_alpha 91.146130
_cell_angle_beta 97.170572
_cell_angle_gamma 149.451312
_cell_volume 676.502052
_symmetry_space_group_name_H-M "P -1"
_symmetry_group_IT_number 2
_symmetry_cell_setting 'triclinic'
loop_
_space_group_symop_operation_xyz
x,y,z
-x,-y,-z
loop_
_atom_site_type_symbol
_atom_site_label
_atom_site_fract_x
_atom_site_fract_y
_atom_site_fract_z
Si Si1 0.948914 0.238122 0.174945
Si Si2 0.654900 0.848526 0.753294
Si Si3 0.122675 0.490969 0.958147
Si Si4 0.320094 0.153146 0.914168
Si Si5 0.756323 0.567589 0.485731
Si Si6 0.408722 0.872544 0.706124
Si Si7 0.120782 0.156922 0.643451
Si Si8 0.857168 0.279396 0.615501
O O1 0.749625 0.174051 0.207791
O O2 0.011525 0.320188 0.021671
O O3 0.182294 0.402539 0.328234
O O4 0.847674 0.058028 0.152425
O O5 0.464168 0.652875 0.617421
O O6 0.539410 0.869405 0.784937
O O7 0.715112 0.837488 0.918660
O O8 0.895492 0.038573 0.701856
O O9 0.403420 0.686344 0.046575
O O10 0.000000 0.500000 0.000000
O O11 0.060596 0.451003 0.771846
O O12 0.274665 0.204315 0.788053
O O13 0.732379 0.658922 0.420417
O O14 0.012764 0.714063 0.455984
O O15 0.242438 0.722996 0.532665
O O16 0.623042 0.087678 0.672341
O O17 0.000000 0.000000 0.500000
#
# Coordination Sequence:
#
# PCOD9016242 Si02
#       8
#     2   2   2   2   2   2   2   2
#     4  11  26  43  72 107 148 188 235 286 358 426
#     4  12  26  45  77 105 140 188 236 296 358 423
#     4  12  26  42  71 108 149 185 233 292 357 420
#     4  12  27  49  71 107 145 190 237 297 354 418
#     4  11  25  46  71 105 135 189 243 290 349 426
#     4  10  22  42  74 102 149 186 230 283 358 426
#     4  12  28  50  75 101 142 188 245 299 357 414
#     4  10  21  42  67 103 141 188 229 288 348 425
#
# _framework density 23.651074999999999
#
# number of rings (size 3 to 8) (size 9 to 14) (size 15 to 20)
#    0.000    0.750    3.750    2.625    3.500    4.500 
#    0.000    0.000    0.000    0.000    0.000    0.000 
#    0.000    0.000    0.000    0.000    0.000    0.000 
#
# Total GULP energy -89558.155891 kJ/mol
# GULP energy per Si atom -5597.384743 kJ/mol
# Density = 2.359724 g / cm^3
# Si number density = 23.651075 Si / 1000 Ang^3
#
#
#
# Elastic Constant Matrix: (Units=GPa)
#
#
# Indices 1 2 3 4 5 6 
#
# 1 54.1794 11.1202 21.7775 -1.5288 19.2213 -3.4322
# 2 11.1202 73.3556 5.2299 1.5980 4.3218 8.7888
# 3 21.7775 5.2299 130.4291 7.1948 17.4873 5.8533
# 4 -1.5288 1.5980 7.1948 40.8621 -2.0476 -0.8152
# 5 19.2213 4.3218 17.4873 -2.0476 34.9061 -0.4158
# 6 -3.4322 8.7888 5.8533 -0.8152 -0.4158 29.0293
#
#
#
# Elastic Compliance Matrix: (Units=1/GPa)
#
#
# Indices 1 2 3 4 5 6 
#
# 1 0.024693 -0.003406 -0.002666 0.001025 -0.011728 0.004349
# 2 -0.003406 0.014753 0.000273 -0.000861 -0.000198 -0.004951
# 3 -0.002666 0.000273 0.008715 -0.001844 -0.003067 -0.002251
# 4 0.001025 -0.000861 -0.001844 0.024996 0.001950 0.001484
# 5 -0.011728 -0.000198 -0.003067 0.001950 0.036780 -0.000127
# 6 0.004349 -0.004951 -0.002251 0.001484 -0.000127 0.036955
#
#
# Mechanical properties :
#
#
# Convention : Reuss Voigt Hill
#
# Bulk Modulus (GPa) = 27.34886 37.13548 32.24217
# Shear Modulus (GPa) = 29.29518 35.61526 32.45522
#
# Velocity S-wave (km/s) = 3.52325 3.88475 3.70841
# Velocity P-wave (km/s) = 5.30468 5.98809 5.65672
#
# Compressibility (1/GPa) = 0.03656460
#
# Stress axis : x y z
#
# Youngs Moduli (GPa) = 40.49743 67.78449 114.74419
#
# Poissons Ratio (x) = 0.23085 0.30587
# Poissons Ratio (y) = 0.13792 -0.03136
# Poissons Ratio (z) = 0.10795 -0.01852
#
# Static dielectric constant tensor:
#      x y z
#    x 1.492040 -0.051250 0.153860 
#    y -0.051250 1.899470 0.021890 
#    z 0.153860 0.021890 1.846850 
# 
# From -- ./inp_files/186381.got.cif
#   From: 2010.05.17/outbox.cif.g08.bks.cpg/sg2_94_cif.got.tgz:186381.got - 2010.06.03 11:33:40.
