data_PCOD9016588
_publ_section_title
;
Structure prediction by ZEFSAII (Michael W. Deem and Ramdas Pophale) SiO2 
 PCOD9016588
Probable space group: P -1
;
_chemical_formula_sum "Si O2"
_cell_formula_units_Z 12
_cell_length_a 12.372628
_cell_length_b 7.618208
_cell_length_c 4.921354
_cell_angle_alpha 75.293507
_cell_angle_beta 104.461967
_cell_angle_gamma 89.488951
_cell_volume 433.162309
_symmetry_space_group_name_H-M "P -1"
_symmetry_group_IT_number 2
_symmetry_cell_setting 'triclinic'
loop_
_space_group_symop_operation_xyz
x,y,z
-x,-y,-z
loop_
_atom_site_type_symbol
_atom_site_label
_atom_site_fract_x
_atom_site_fract_y
_atom_site_fract_z
Si Si1 0.312087 0.357916 0.813609
Si Si2 0.915733 0.517508 0.191658
Si Si3 0.846684 0.981291 0.611923
Si Si4 0.908454 0.170271 0.075618
Si Si5 0.385288 0.996319 0.260577
Si Si6 0.620550 0.427775 0.720063
O O1 0.186056 0.342649 0.847467
O O2 0.377749 0.159228 0.968544
O O3 0.302322 0.458776 0.477508
O O4 0.369034 0.493817 0.002579
O O5 0.000000 0.500000 0.500000
O O6 0.853239 0.339758 0.137198
O O7 0.000000 0.500000 0.000000
O O8 0.864720 0.009640 0.293832
O O9 0.720906 0.952087 0.626245
O O10 0.874416 0.153235 0.751413
O O11 0.956303 0.849956 0.812868
O O12 0.629551 0.208007 0.781068
O O13 0.500000 0.000000 0.500000
O O14 0.500000 0.500000 0.500000
#
# Coordination Sequence:
#
# PCOD9016588 Si02
#       6
#     2   2   2   2   2   2
#     4  12  28  50  77 111 152 200 252 312 376 450
#     4  12  24  42  70 105 147 191 241 306 376 444
#     4  10  22  41  67 101 133 186 233 301 356 436
#     4  10  21  42  68  94 140 181 242 292 365 426
#     4  12  27  48  77 112 154 197 253 309 380 450
#     4  12  27  51  76 106 151 201 255 308 373 443
#
# _framework density 27.703237999999999
#
# number of rings (size 3 to 8) (size 9 to 14) (size 15 to 20)
#    0.000    0.667    1.667    5.500    0.000    6.000 
#    0.000    0.000    0.000    0.000    0.000    0.000 
#    0.000    0.000    0.000    0.000    0.000    0.000 
#
# Total GULP energy -67173.796635 kJ/mol
# GULP energy per Si atom -5597.816386 kJ/mol
# Density = 2.764018 g / cm^3
# Si number density = 27.703238 Si / 1000 Ang^3
#
#
#
# Elastic Constant Matrix: (Units=GPa)
#
#
# Indices 1 2 3 4 5 6 
#
# 1 135.8384 29.1253 22.9060 -10.6474 -4.3392 -16.9473
# 2 29.1253 202.6177 49.1215 0.3006 10.5024 22.2468
# 3 22.9060 49.1215 135.4247 11.9711 -10.6958 7.5907
# 4 -10.6474 0.3006 11.9711 39.8695 -9.4066 17.1533
# 5 -4.3392 10.5024 -10.6958 -9.4066 51.4715 -3.7358
# 6 -16.9473 22.2468 7.5907 17.1533 -3.7358 45.9420
#
#
#
# Elastic Compliance Matrix: (Units=1/GPa)
#
#
# Indices 1 2 3 4 5 6 
#
# 1 0.008448 -0.001397 -0.001143 0.001372 0.001270 0.003573
# 2 -0.001397 0.006145 -0.002046 0.001413 -0.001816 -0.003828
# 3 -0.001143 -0.002046 0.008668 -0.002605 0.001664 0.000245
# 4 0.001372 0.001413 -0.002605 0.032146 0.004333 -0.011398
# 5 0.001270 -0.001816 0.001664 0.004333 0.021129 0.001173
# 6 0.003573 -0.003828 0.000245 -0.011398 0.001173 0.029249
#
#
# Mechanical properties :
#
#
# Convention : Reuss Voigt Hill
#
# Bulk Modulus (GPa) = 70.98959 75.13182 73.06071
# Shear Modulus (GPa) = 41.78733 52.30513 47.04623
#
# Velocity S-wave (km/s) = 3.88802 4.34989 4.12542
# Velocity P-wave (km/s) = 6.77024 7.23932 7.00871
#
# Compressibility (1/GPa) = 0.01408657
#
# Stress axis : x y z
#
# Youngs Moduli (GPa) = 118.37189 162.74075 115.36955
#
# Poissons Ratio (x) = 0.22740 0.13191
# Poissons Ratio (y) = 0.16540 0.23608
# Poissons Ratio (z) = 0.13534 0.33302
#
# Static dielectric constant tensor:
#      x y z
#    x 2.286880 0.068220 -0.030410 
#    y 0.068220 2.173930 -0.009270 
#    z -0.030410 -0.009270 2.099940 
# 
# From -- ./inp_files/65028.got.cif
#   From: 2010.05.17/outbox.cif.g08.bks.cpg/sg2_33_cif.got.tgz:65028.got - 2010.06.03 11:33:40.
