data_PCOD9016691
_publ_section_title
;
Structure prediction by ZEFSAII (Michael W. Deem and Ramdas Pophale) SiO2 
 PCOD9016691
Probable space group: P -1
;
_chemical_formula_sum "Si O2"
_cell_formula_units_Z 14
_cell_length_a 13.791256
_cell_length_b 11.014242
_cell_length_c 7.532743
_cell_angle_alpha 105.194942
_cell_angle_beta 125.586322
_cell_angle_gamma 35.981203
_cell_volume 491.738367
_symmetry_space_group_name_H-M "P -1"
_symmetry_group_IT_number 2
_symmetry_cell_setting 'triclinic'
loop_
_space_group_symop_operation_xyz
x,y,z
-x,-y,-z
loop_
_atom_site_type_symbol
_atom_site_label
_atom_site_fract_x
_atom_site_fract_y
_atom_site_fract_z
Si Si1 0.881451 0.417253 0.114682
Si Si2 0.126001 0.058610 0.947933
Si Si3 0.124098 0.318996 0.912842
Si Si4 0.290716 0.715714 0.485360
Si Si5 0.568123 0.136239 0.259743
Si Si6 0.640963 0.556132 0.263152
Si Si7 0.603079 0.849324 0.281612
O O1 0.903760 0.550463 0.221926
O O2 0.780181 0.431095 0.179535
O O3 0.073234 0.177921 0.122540
O O4 0.669622 0.607851 0.825976
O O5 0.945622 0.109785 0.775791
O O6 0.626955 0.204093 0.920947
O O7 0.076017 0.213209 0.808063
O O8 0.363254 0.104128 0.179407
O O9 0.000000 0.500000 0.000000
O O10 0.500000 0.500000 0.500000
O O11 0.300549 0.852439 0.602086
O O12 0.307576 0.609812 0.631140
O O13 0.704104 0.898488 0.389306
O O14 0.486837 0.142342 0.991686
O O15 0.692109 0.656122 0.416222
#
# Coordination Sequence:
#
# PCOD9016691 Si02
#       7
#     2   2   2   2   2   2   2
#     4   9  17  38  69  96 134 180 227 288 333 405
#     4  10  21  42  68  99 138 183 227 278 351 416
#     4   8  15  31  66  98 128 175 227 275 342 405
#     4  12  25  43  66 100 150 179 217 297 353 401
#     4   9  17  35  65  93 130 179 216 273 345 394
#     4  10  23  42  72 103 128 186 240 274 342 419
#     4   8  16  34  65  94 121 173 233 269 324 406
#
# _framework density 28.470424999999999
#
# number of rings (size 3 to 8) (size 9 to 14) (size 15 to 20)
#    0.000    2.571    1.429    0.857    0.000    4.571 
#    0.000    9.286    0.000    1.714    0.000    2.000 
#    0.000    0.000    0.000    0.000    0.000    0.000 
#
# Total GULP energy -78017.158654 kJ/mol
# GULP energy per Si atom -5572.654190 kJ/mol
# Density = 2.840563 g / cm^3
# Si number density = 28.470425 Si / 1000 Ang^3
#
#
#
# Elastic Constant Matrix: (Units=GPa)
#
#
# Indices 1 2 3 4 5 6 
#
# 1 212.8086 67.5212 64.3959 23.6902 7.6133 26.7024
# 2 67.5212 139.7292 56.2881 13.3984 -1.9196 30.4030
# 3 64.3959 56.2881 88.4315 19.8831 16.6016 20.2504
# 4 23.6902 13.3984 19.8831 46.3691 17.5074 2.8009
# 5 7.6133 -1.9196 16.6016 17.5074 44.7631 14.6211
# 6 26.7024 30.4030 20.2504 2.8009 14.6211 82.5609
#
#
#
# Elastic Compliance Matrix: (Units=1/GPa)
#
#
# Indices 1 2 3 4 5 6 
#
# 1 0.006436 -0.001349 -0.003431 -0.001792 0.001108 -0.000878
# 2 -0.001349 0.010997 -0.005847 -0.001464 0.004392 -0.002907
# 3 -0.003431 -0.005847 0.019275 -0.002666 -0.005651 -0.000373
# 4 -0.001792 -0.001464 -0.002666 0.027868 -0.010549 0.002695
# 5 0.001108 0.004392 -0.005651 -0.010549 0.030395 -0.005615
# 6 -0.000878 -0.002907 -0.000373 0.002695 -0.005615 0.014461
#
#
# Mechanical properties :
#
#
# Convention : Reuss Voigt Hill
#
# Bulk Modulus (GPa) = 64.71745 90.81996 77.76871
# Shear Modulus (GPa) = 36.80839 51.58957 44.19898
#
# Velocity S-wave (km/s) = 3.59954 4.26143 3.94439
# Velocity P-wave (km/s) = 6.32901 7.49547 6.93680
#
# Compressibility (1/GPa) = 0.01545178
#
# Stress axis : x y z
#
# Youngs Moduli (GPa) = 155.38528 90.93014 51.88182
#
# Poissons Ratio (x) = 0.12270 0.17803
# Poissons Ratio (y) = 0.20968 0.30336
# Poissons Ratio (z) = 0.53320 0.53167
#
# Static dielectric constant tensor:
#      x y z
#    x 2.760760 -0.161130 -0.133180 
#    y -0.161130 2.397440 -0.060950 
#    z -0.133180 -0.060950 2.401090 
# 
# From -- ./inp_files/235313.got.cif
#   From: 2010.05.17/outbox.cif.g08.bks.cpg/sg2_118_cif.got.tgz:235313.got - 2010.06.03 11:33:40.
