data_PCOD9016388
_publ_section_title
;
Structure prediction by ZEFSAII (Michael W. Deem and Ramdas Pophale) SiO2 
 PCOD9016388
Probable space group: P -1
;
_chemical_formula_sum "Si O2"
_cell_formula_units_Z 16
_cell_length_a 12.479997
_cell_length_b 8.112875
_cell_length_c 7.446148
_cell_angle_alpha 124.313767
_cell_angle_beta 100.279788
_cell_angle_gamma 92.532658
_cell_volume 602.906132
_symmetry_space_group_name_H-M "P -1"
_symmetry_group_IT_number 2
_symmetry_cell_setting 'triclinic'
loop_
_space_group_symop_operation_xyz
x,y,z
-x,-y,-z
loop_
_atom_site_type_symbol
_atom_site_label
_atom_site_fract_x
_atom_site_fract_y
_atom_site_fract_z
Si Si1 0.209780 0.840724 0.358435
Si Si2 0.561132 0.415964 0.130900
Si Si3 0.089535 0.856005 0.947140
Si Si4 0.513064 0.971906 0.706390
Si Si5 0.731511 0.826891 0.819808
Si Si6 0.381679 0.597368 0.355849
Si Si7 0.784761 0.714552 0.387733
Si Si8 0.998654 0.425282 0.746776
O O1 0.143739 0.848976 0.157339
O O2 0.307109 0.713091 0.274933
O O3 0.121431 0.715807 0.393729
O O4 0.249969 0.076751 0.566691
O O5 0.502594 0.536305 0.334391
O O6 0.689868 0.515370 0.220280
O O7 0.500000 0.500000 0.000000
O O8 0.520494 0.177730 0.946135
O O9 0.192479 0.982859 0.946546
O O10 0.031243 0.625865 0.757394
O O11 0.000000 0.000000 0.000000
O O12 0.627946 0.903172 0.745745
O O13 0.413536 0.787804 0.619983
O O14 0.500000 0.000000 0.500000
O O15 0.691805 0.623911 0.792082
O O16 0.796731 0.746090 0.624210
O O17 0.900817 0.694821 0.323717
O O18 0.000000 0.500000 0.000000
#
# Coordination Sequence:
#
# PCOD9016388 Si02
#       8
#     2   2   2   2   2   2   2   2
#     4  10  23  43  70 100 139 181 232 297 342 416
#     4  12  25  39  73 104 140 192 233 281 351 417
#     4  10  21  42  67  96 132 180 231 285 350 405
#     4  12  23  45  69 103 141 189 234 285 346 410
#     4  11  24  44  68  99 150 183 228 299 344 418
#     4  12  25  45  68 106 147 186 235 282 351 419
#     4  11  23  43  69 102 136 189 232 285 359 412
#     4  10  22  41  68  99 131 175 236 290 340 417
#
# _framework density 26.538126999999999
#
# number of rings (size 3 to 8) (size 9 to 14) (size 15 to 20)
#    0.000    1.000    2.500    4.500    3.500    0.500 
#    2.250    8.125    0.000    0.000    0.000    0.000 
#    0.000    0.000    0.000    0.000    0.000    0.000 
#
# Total GULP energy -89333.757079 kJ/mol
# GULP energy per Si atom -5583.359817 kJ/mol
# Density = 2.647773 g / cm^3
# Si number density = 26.538127 Si / 1000 Ang^3
#
#
#
# Elastic Constant Matrix: (Units=GPa)
#
#
# Indices 1 2 3 4 5 6 
#
# 1 108.9781 35.0680 30.0341 21.6829 6.1774 -3.1529
# 2 35.0680 133.1763 44.2032 57.4327 12.1300 -15.7780
# 3 30.0341 44.2032 125.1213 34.7683 9.9527 -0.0029
# 4 21.6829 57.4327 34.7683 61.4029 9.0503 17.3273
# 5 6.1774 12.1300 9.9527 9.0503 50.7963 17.5035
# 6 -3.1529 -15.7780 -0.0029 17.3273 17.5035 56.3715
#
#
#
# Elastic Compliance Matrix: (Units=1/GPa)
#
#
# Indices 1 2 3 4 5 6 
#
# 1 0.010430 -0.001291 -0.001490 -0.001811 -0.000687 0.000992
# 2 -0.001291 0.018095 -0.000409 -0.018998 -0.004963 0.012373
# 3 -0.001490 -0.000409 0.010012 -0.005060 -0.001399 0.001793
# 4 -0.001811 -0.018998 -0.005060 0.042469 0.005092 -0.020054
# 5 -0.000687 -0.004963 -0.001399 0.005092 0.023912 -0.010417
# 6 0.000992 0.012373 0.001793 -0.020054 -0.010417 0.030657
#
#
# Mechanical properties :
#
#
# Convention : Reuss Voigt Hill
#
# Bulk Modulus (GPa) = 31.09624 65.09848 48.09736
# Shear Modulus (GPa) = 32.74985 50.91216 41.83101
#
# Velocity S-wave (km/s) = 3.51674 4.38477 3.97452
# Velocity P-wave (km/s) = 5.31347 7.08649 6.26304
#
# Compressibility (1/GPa) = 0.03215823
#
# Stress axis : x y z
#
# Youngs Moduli (GPa) = 95.87662 55.26294 99.88342
#
# Poissons Ratio (x) = 0.07134 0.14880
# Poissons Ratio (y) = 0.12378 0.04082
# Poissons Ratio (z) = 0.14283 0.02259
#
# Static dielectric constant tensor:
#      x y z
#    x 2.104140 0.116150 0.052000 
#    y 0.116150 2.323590 -0.000750 
#    z 0.052000 -0.000750 2.105790 
# 
# From -- ./inp_files/246085.got.cif
#   From: 2010.05.17/outbox.cif.g08.bks.cpg/sg2_124_cif.got.tgz:246085.got - 2010.06.03 11:33:40.
