data_PCOD9016346
_publ_section_title
;
Structure prediction by ZEFSAII (Michael W. Deem and Ramdas Pophale) SiO2 
 PCOD9016346
Probable space group: P -1
;
_chemical_formula_sum "Si O2"
_cell_formula_units_Z 14
_cell_length_a 15.154861
_cell_length_b 11.814940
_cell_length_c 14.174513
_cell_angle_alpha 29.137063
_cell_angle_beta 151.254364
_cell_angle_gamma 133.259153
_cell_volume 558.063408
_symmetry_space_group_name_H-M "P -1"
_symmetry_group_IT_number 2
_symmetry_cell_setting 'triclinic'
loop_
_space_group_symop_operation_xyz
x,y,z
-x,-y,-z
loop_
_atom_site_type_symbol
_atom_site_label
_atom_site_fract_x
_atom_site_fract_y
_atom_site_fract_z
Si Si1 0.380098 0.367358 0.816640
Si Si2 0.141093 0.436399 0.360765
Si Si3 0.287627 0.409275 0.200534
Si Si4 0.743028 0.091525 0.226828
Si Si5 0.098656 0.207041 0.788043
Si Si6 0.381059 0.853477 0.443275
Si Si7 0.962203 0.884843 0.752094
O O1 0.229075 0.480399 0.507917
O O2 0.292829 0.199919 0.918045
O O3 0.381544 0.623227 0.677276
O O4 0.579988 0.212246 0.066304
O O5 0.258510 0.157098 0.642997
O O6 0.910271 0.491597 0.121276
O O7 0.136432 0.635739 0.130018
O O8 0.480669 0.274244 0.422351
O O9 0.218057 0.222562 0.333168
O O10 0.296800 0.671734 0.051651
O O11 0.941051 0.992574 0.548840
O O12 0.000000 0.500000 0.500000
O O13 0.973278 0.086944 0.691844
O O14 0.177849 0.042059 0.075427
O O15 0.500000 0.000000 0.500000
#
# Coordination Sequence:
#
# PCOD9016346 Si02
#       7
#     2   2   2   2   2   2   2
#     4  11  25  43  64  96 134 161 213 269 307 383
#     4  10  21  42  67  94 131 170 207 257 318 373
#     4   9  22  38  66  91 129 159 213 259 307 376
#     4  11  21  41  68  97 126 172 210 254 319 374
#     4  12  28  43  67  92 128 172 212 262 324 375
#     4  11  25  44  66  93 125 166 215 268 322 365
#     4  10  23  41  63  94 131 160 218 258 307 380
#
# _framework density 25.086755
#
# number of rings (size 3 to 8) (size 9 to 14) (size 15 to 20)
#    0.857    0.571    1.429    3.000    8.000    1.143 
#    0.000    0.714    0.000    0.000    0.000    0.000 
#    0.000    0.000    0.000    0.000    0.000    0.000 
#
# Total GULP energy -78098.270711 kJ/mol
# GULP energy per Si atom -5578.447908 kJ/mol
# Density = 2.502966 g / cm^3
# Si number density = 25.086755 Si / 1000 Ang^3
#
#
#
# Elastic Constant Matrix: (Units=GPa)
#
#
# Indices 1 2 3 4 5 6 
#
# 1 58.4875 8.4164 23.3300 -18.9677 -7.3744 17.5968
# 2 8.4164 108.5947 23.1705 -42.0656 -12.8984 1.3513
# 3 23.3300 23.1705 119.2335 -37.5161 -7.5226 6.7287
# 4 -18.9677 -42.0656 -37.5161 43.4855 0.2841 -6.1478
# 5 -7.3744 -12.8984 -7.5226 0.2841 45.5506 -10.8687
# 6 17.5968 1.3513 6.7287 -6.1478 -10.8687 22.4287
#
#
#
# Elastic Compliance Matrix: (Units=1/GPa)
#
#
# Indices 1 2 3 4 5 6 
#
# 1 0.025682 0.002448 -0.001368 0.009999 0.000533 -0.016887
# 2 0.002448 0.017285 0.002906 0.020994 0.006895 0.005262
# 3 -0.001368 0.002906 0.012282 0.013117 0.003099 0.002311
# 4 0.009999 0.020994 0.013117 0.060183 0.011509 0.009028
# 5 0.000533 0.006895 0.003099 0.011509 0.028002 0.014960
# 6 -0.016887 0.005262 0.002311 0.009028 0.014960 0.066548
#
#
# Mechanical properties :
#
#
# Convention : Reuss Voigt Hill
#
# Bulk Modulus (GPa) = 15.81764 44.01658 29.91711
# Shear Modulus (GPa) = 22.41312 37.71956 30.06634
#
# Velocity S-wave (km/s) = 2.99226 3.88179 3.46568
# Velocity P-wave (km/s) = 4.27283 6.13799 5.28829
#
# Compressibility (1/GPa) = 0.06322055
#
# Stress axis : x y z
#
# Youngs Moduli (GPa) = 38.93825 57.85512 81.41912
#
# Poissons Ratio (x) = -0.14165 0.11138
# Poissons Ratio (y) = -0.09533 -0.23658
# Poissons Ratio (z) = 0.05327 -0.16811
#
# Static dielectric constant tensor:
#      x y z
#    x 2.098340 0.133510 -0.020170 
#    y 0.133510 2.085820 -0.077550 
#    z -0.020170 -0.077550 2.000910 
# 
# From -- ./inp_files/538397.got.cif
#   From: 2010.05.17/outbox.cif.g08.bks.cpg/sg2_270_cif.got.tgz:538397.got - 2010.06.03 11:33:40.
