data_PCOD9016196
_publ_section_title
;
Structure prediction by ZEFSAII (Michael W. Deem and Ramdas Pophale) SiO2 
 PCOD9016196
Probable space group: P -1
;
_chemical_formula_sum "Si O2"
_cell_formula_units_Z 14
_cell_length_a 7.051381
_cell_length_b 5.106612
_cell_length_c 29.415247
_cell_angle_alpha 110.238360
_cell_angle_beta 35.676721
_cell_angle_gamma 114.420045
_cell_volume 562.374374
_symmetry_space_group_name_H-M "P -1"
_symmetry_group_IT_number 2
_symmetry_cell_setting 'triclinic'
loop_
_space_group_symop_operation_xyz
x,y,z
-x,-y,-z
loop_
_atom_site_type_symbol
_atom_site_label
_atom_site_fract_x
_atom_site_fract_y
_atom_site_fract_z
Si Si1 0.124037 0.152724 0.923284
Si Si2 0.321752 0.377059 0.587341
Si Si3 0.240625 0.046498 0.499054
Si Si4 0.513569 0.400615 0.043708
Si Si5 0.623669 0.845410 0.811597
Si Si6 0.726049 0.162643 0.203103
Si Si7 0.040303 0.458692 0.744819
O O1 0.299707 0.364964 0.941613
O O2 0.249261 0.871661 0.898889
O O3 0.269326 0.142532 0.841681
O O4 0.745356 0.171960 0.991407
O O5 0.109806 0.177054 0.577522
O O6 0.445103 0.697407 0.562774
O O7 0.153812 0.383813 0.668836
O O8 0.634526 0.233099 0.527523
O O9 0.000000 0.000000 0.500000
O O10 0.119685 0.310040 0.126885
O O11 0.500000 0.500000 0.000000
O O12 0.562276 0.754346 0.765901
O O13 0.754030 0.625346 0.801948
O O14 0.888984 0.155892 0.781364
O O15 0.684235 0.295194 0.268230
#
# Coordination Sequence:
#
# PCOD9016196 Si02
#       7
#     2   2   2   2   2   2   2
#     4   9  23  39  55  95 112 161 215 260 319 380
#     4  10  23  39  67  98 129 172 210 249 309 368
#     4  10  21  42  66  99 134 163 212 259 296 360
#     4  11  22  38  65  84 123 160 211 273 325 378
#     4  10  26  40  64  90 128 163 214 258 310 387
#     4  10  23  40  61  89 126 161 211 264 324 374
#     4  12  24  45  64  93 133 169 206 258 313 374
#
# _framework density 24.894447
#
# number of rings (size 3 to 8) (size 9 to 14) (size 15 to 20)
#    0.857    0.857    1.429    1.714    4.000    4.000 
#    0.000    0.000    0.000    0.000    0.000    0.000 
#    0.000    0.000    0.000    0.000    0.000    0.000 
#
# Total GULP energy -77942.991694 kJ/mol
# GULP energy per Si atom -5567.356550 kJ/mol
# Density = 2.483779 g / cm^3
# Si number density = 24.894447 Si / 1000 Ang^3
#
#
#
# Elastic Constant Matrix: (Units=GPa)
#
#
# Indices 1 2 3 4 5 6 
#
# 1 166.1236 53.8995 13.6439 21.6110 12.6125 46.0231
# 2 53.8995 92.1218 24.1218 3.3645 9.6052 13.9561
# 3 13.6439 24.1218 48.1333 10.5290 32.4799 3.6769
# 4 21.6110 3.3645 10.5290 25.4652 6.4989 2.9029
# 5 12.6125 9.6052 32.4799 6.4989 38.0102 8.5104
# 6 46.0231 13.9561 3.6769 2.9029 8.5104 45.3437
#
#
#
# Elastic Compliance Matrix: (Units=1/GPa)
#
#
# Indices 1 2 3 4 5 6 
#
# 1 0.011420 -0.005664 0.003348 -0.008856 -0.001634 -0.009245
# 2 -0.005664 0.016717 -0.013813 0.006180 0.008460 -0.000260
# 3 0.003348 -0.013813 0.064194 -0.015184 -0.051277 0.006244
# 4 -0.008856 0.006180 -0.015184 0.050552 0.004771 0.004186
# 5 -0.001634 0.008460 -0.051277 0.004771 0.070005 -0.010231
# 6 -0.009245 -0.000260 0.006244 0.004186 -0.010231 0.032664
#
#
# Mechanical properties :
#
#
# Convention : Reuss Voigt Hill
#
# Bulk Modulus (GPa) = 16.64607 54.41214 35.52910
# Shear Modulus (GPa) = 16.78789 36.07806 26.43298
#
# Velocity S-wave (km/s) = 2.59967 3.81102 3.26207
# Velocity P-wave (km/s) = 3.96386 6.42415 5.33769
#
# Compressibility (1/GPa) = 0.06007425
#
# Stress axis : x y z
#
# Youngs Moduli (GPa) = 87.56702 59.81781 15.57769
#
# Poissons Ratio (x) = 0.33879 -0.05215
# Poissons Ratio (y) = 0.49595 0.21517
# Poissons Ratio (z) = -0.29315 0.82625
#
# Static dielectric constant tensor:
#      x y z
#    x 2.086290 0.000410 0.096360 
#    y 0.000410 2.131470 -0.028260 
#    z 0.096360 -0.028260 2.076550 
# 
# From -- ./inp_files/621540.got.cif
#   From: 2010.05.17/outbox.cif.g08.bks.cpg/sg2_311_cif.got.tgz:621540.got - 2010.06.03 11:33:40.
