data_PCOD9016475
_publ_section_title
;
Structure prediction by ZEFSAII (Michael W. Deem and Ramdas Pophale) SiO2 
 PCOD9016475
Probable space group: P -1
;
_chemical_formula_sum "Si O2"
_cell_formula_units_Z 12
_cell_length_a 5.050223
_cell_length_b 23.837210
_cell_length_c 13.694755
_cell_angle_alpha 22.408267
_cell_angle_beta 53.933716
_cell_angle_gamma 56.682633
_cell_volume 507.939765
_symmetry_space_group_name_H-M "P -1"
_symmetry_group_IT_number 2
_symmetry_cell_setting 'triclinic'
loop_
_space_group_symop_operation_xyz
x,y,z
-x,-y,-z
loop_
_atom_site_type_symbol
_atom_site_label
_atom_site_fract_x
_atom_site_fract_y
_atom_site_fract_z
Si Si1 0.789571 0.320252 0.501947
Si Si2 0.820402 0.354553 0.670199
Si Si3 0.337970 0.911644 0.589607
Si Si4 0.758538 0.901187 0.024961
Si Si5 0.401656 0.586914 0.178207
Si Si6 0.285232 0.092761 0.689260
O O1 0.744131 0.315311 0.638028
O O2 0.701741 0.490048 0.224561
O O3 0.129950 0.248042 0.508947
O O4 0.505650 0.215045 0.691823
O O5 0.546821 0.391461 0.750557
O O6 0.089309 0.481344 0.407633
O O7 0.995212 0.206504 0.913227
O O8 0.565484 0.906867 0.451913
O O9 0.500000 0.000000 0.500000
O O10 0.319857 0.740838 0.898828
O O11 0.000000 0.000000 0.500000
O O12 0.569453 0.020708 0.809247
O O13 0.978600 0.982015 0.926481
#
# Coordination Sequence:
#
# PCOD9016475 Si02
#       6
#     2   2   2   2   2   2
#     4  11  24  39  72 100 141 175 220 278 342 387
#     4  10  21  42  68 101 132 180 219 284 329 392
#     4  12  28  50  70  96 131 181 228 278 335 401
#     4  11  23  42  68 104 138 172 224 274 335 392
#     4  10  24  42  67  98 136 175 229 272 336 398
#     4  12  25  42  69 102 138 178 224 273 332 403
#
# _framework density 23.624849999999999
#
# number of rings (size 3 to 8) (size 9 to 14) (size 15 to 20)
#    0.000    1.000    1.667    4.500    7.000    0.667 
#    0.000    0.833    0.000    0.000    0.000    0.000 
#    0.000    0.000    0.000    0.000    0.000    0.000 
#
# Total GULP energy -67099.153374 kJ/mol
# GULP energy per Si atom -5591.596115 kJ/mol
# Density = 2.357108 g / cm^3
# Si number density = 23.624850 Si / 1000 Ang^3
#
#
#
# Elastic Constant Matrix: (Units=GPa)
#
#
# Indices 1 2 3 4 5 6 
#
# 1 141.7610 51.9389 40.5171 -18.4249 16.5209 9.7021
# 2 51.9389 197.7762 71.4695 -39.4445 20.6007 -10.7908
# 3 40.5171 71.4695 132.2536 -43.2313 21.7911 -4.6251
# 4 -18.4249 -39.4445 -43.2313 47.9897 -8.5410 15.6195
# 5 16.5209 20.6007 21.7911 -8.5410 26.5044 -11.1061
# 6 9.7021 -10.7908 -4.6251 15.6195 -11.1061 38.0796
#
#
#
# Elastic Compliance Matrix: (Units=1/GPa)
#
#
# Indices 1 2 3 4 5 6 
#
# 1 0.009082 -0.001405 -0.000362 0.002804 -0.005702 -0.005569
# 2 -0.001405 0.006952 -0.002099 0.002847 -0.001715 0.000405
# 3 -0.000362 -0.002099 0.013405 0.010587 -0.008089 -0.005576
# 4 0.002804 0.002847 0.010587 0.037780 -0.007298 -0.016247
# 5 -0.005702 -0.001715 -0.008089 -0.007298 0.054868 0.018980
# 6 -0.005569 0.000405 -0.005576 -0.016247 0.018980 0.039317
#
#
# Mechanical properties :
#
#
# Convention : Reuss Voigt Hill
#
# Bulk Modulus (GPa) = 46.06808 88.84910 67.45859
# Shear Modulus (GPa) = 28.34885 43.03909 35.69397
#
# Velocity S-wave (km/s) = 3.46780 4.27285 3.89120
# Velocity P-wave (km/s) = 5.96459 7.87610 6.98603
#
# Compressibility (1/GPa) = 0.02170700
#
# Stress axis : x y z
#
# Youngs Moduli (GPa) = 110.10209 143.83728 74.59952
#
# Poissons Ratio (x) = 0.20211 0.02699
# Poissons Ratio (y) = 0.15471 0.15661
# Poissons Ratio (z) = 0.03984 0.30196
#
# Static dielectric constant tensor:
#      x y z
#    x 1.984380 -0.055910 0.068270 
#    y -0.055910 2.035090 -0.054140 
#    z 0.068270 -0.054140 1.927360 
# 
# From -- ./inp_files/97526.got.cif
#   From: 2010.05.17/outbox.cif.g08.bks.cpg/sg2_49_cif.got.tgz:97526.got - 2010.06.03 11:33:40.
