data_PCOD9016061
_publ_section_title
;
Structure prediction by ZEFSAII (Michael W. Deem and Ramdas Pophale) SiO2 
 PCOD9016061
Probable space group: P -1
;
_chemical_formula_sum "Si O2"
_cell_formula_units_Z 14
_cell_length_a 9.535137
_cell_length_b 12.344492
_cell_length_c 8.490660
_cell_angle_alpha 113.517005
_cell_angle_beta 108.462349
_cell_angle_gamma 120.405010
_cell_volume 596.672440
_symmetry_space_group_name_H-M "P -1"
_symmetry_group_IT_number 2
_symmetry_cell_setting 'triclinic'
loop_
_space_group_symop_operation_xyz
x,y,z
-x,-y,-z
loop_
_atom_site_type_symbol
_atom_site_label
_atom_site_fract_x
_atom_site_fract_y
_atom_site_fract_z
Si Si1 0.208307 0.050272 0.671950
Si Si2 0.222742 0.643300 0.533703
Si Si3 0.040443 0.354216 0.065977
Si Si4 0.031278 0.896074 0.856942
Si Si5 0.294692 0.851485 0.437288
Si Si6 0.155152 0.412072 0.573095
Si Si7 0.609359 0.444136 0.948113
O O1 0.426287 0.238575 0.791994
O O2 0.191863 0.023809 0.841551
O O3 0.202891 0.915652 0.522189
O O4 0.000000 0.000000 0.500000
O O5 0.076164 0.483442 0.269290
O O6 0.373367 0.805299 0.570148
O O7 0.315843 0.596224 0.649779
O O8 0.076797 0.658249 0.573938
O O9 0.271818 0.471035 0.127825
O O10 0.953773 0.193437 0.047514
O O11 0.874596 0.291042 0.834269
O O12 0.850213 0.720223 0.582667
O O13 0.000000 0.000000 0.000000
O O14 0.500000 0.000000 0.500000
O O15 0.204876 0.456759 0.797771
O O16 0.500000 0.500000 0.000000
#
# Coordination Sequence:
#
# PCOD9016061 Si02
#       7
#     2   2   2   2   2   2   2
#     4  12  26  46  68  99 142 180 227 289 352 406
#     4  10  21  42  66  93 135 172 225 273 339 407
#     4  11  24  42  68 100 134 177 228 277 342 415
#     4  11  22  43  69  98 134 177 223 284 342 402
#     4  12  24  41  67 103 136 177 227 289 346 405
#     4  10  22  41  68  96 129 180 223 277 336 407
#     4  12  24  43  70  99 133 184 230 278 340 418
#
# _framework density 23.463460000000001
#
# number of rings (size 3 to 8) (size 9 to 14) (size 15 to 20)
#    0.000    0.857    2.857    4.714    2.000    1.143 
#    0.000   15.714    0.000    0.000    0.000    0.000 
#    0.000    0.000    0.000    0.000    0.000    0.000 
#
# Total GULP energy -78015.787304 kJ/mol
# GULP energy per Si atom -5572.556236 kJ/mol
# Density = 2.341006 g / cm^3
# Si number density = 23.463460 Si / 1000 Ang^3
#
#
#
# Elastic Constant Matrix: (Units=GPa)
#
#
# Indices 1 2 3 4 5 6 
#
# 1 81.0695 33.6488 21.8904 0.6670 -28.1721 10.5578
# 2 33.6488 189.7277 24.1352 -1.6828 -3.8243 15.3923
# 3 21.8904 24.1352 59.0127 5.2170 -19.6510 15.1288
# 4 0.6670 -1.6828 5.2170 38.4549 6.6211 -10.7196
# 5 -28.1721 -3.8243 -19.6510 6.6211 33.9294 4.1009
# 6 10.5578 15.3923 15.1288 -10.7196 4.1009 46.7224
#
#
#
# Elastic Compliance Matrix: (Units=1/GPa)
#
#
# Indices 1 2 3 4 5 6 
#
# 1 0.021496 -0.003182 0.003407 -0.007099 0.021871 -0.008461
# 2 -0.003182 0.006104 -0.002826 0.001464 -0.003913 0.000302
# 3 0.003407 -0.002826 0.029464 -0.012235 0.023687 -0.014265
# 4 -0.007099 0.001464 -0.012235 0.035815 -0.021641 0.015200
# 5 0.021871 -0.003913 0.023687 -0.021641 0.067822 -0.022241
# 6 -0.008461 0.000302 -0.014265 0.015200 -0.022241 0.033274
#
#
# Mechanical properties :
#
#
# Convention : Reuss Voigt Hill
#
# Bulk Modulus (GPa) = 19.28164 54.35095 36.81630
# Shear Modulus (GPa) = 23.09856 40.49705 31.79780
#
# Velocity S-wave (km/s) = 3.14100 4.15898 3.68530
# Velocity P-wave (km/s) = 4.62494 6.80273 5.81667
#
# Compressibility (1/GPa) = 0.05186280
#
# Stress axis : x y z
#
# Youngs Moduli (GPa) = 46.51969 163.82552 33.93983
#
# Poissons Ratio (x) = 0.52121 -0.11563
# Poissons Ratio (y) = 0.14800 0.09592
# Poissons Ratio (z) = -0.15849 0.46298
#
# Static dielectric constant tensor:
#      x y z
#    x 1.936590 -0.018790 0.136450 
#    y -0.018790 2.040630 -0.013950 
#    z 0.136450 -0.013950 1.984450 
# 
# From -- ./inp_files/189479.got.cif
#   From: 2010.05.17/outbox.cif.g08.bks.cpg/sg2_95_cif.got.tgz:189479.got - 2010.06.03 11:33:40.
