data_PCOD9016364
_publ_section_title
;
Structure prediction by ZEFSAII (Michael W. Deem and Ramdas Pophale) SiO2 
 PCOD9016364
Probable space group: P -1
;
_chemical_formula_sum "Si O2"
_cell_formula_units_Z 12
_cell_length_a 6.307780
_cell_length_b 11.471678
_cell_length_c 20.066698
_cell_angle_alpha 29.135834
_cell_angle_beta 116.835557
_cell_angle_gamma 99.457983
_cell_volume 535.193039
_symmetry_space_group_name_H-M "P -1"
_symmetry_group_IT_number 2
_symmetry_cell_setting 'triclinic'
loop_
_space_group_symop_operation_xyz
x,y,z
-x,-y,-z
loop_
_atom_site_type_symbol
_atom_site_label
_atom_site_fract_x
_atom_site_fract_y
_atom_site_fract_z
Si Si1 0.601928 0.200110 0.699430
Si Si2 0.122131 0.118007 0.626656
Si Si3 0.226391 0.165642 0.464344
Si Si4 0.591821 0.441943 0.227766
Si Si5 0.482417 0.554681 0.301147
Si Si6 0.090302 0.720847 0.917550
O O1 0.500000 0.500000 0.500000
O O2 0.346613 0.150448 0.683191
O O3 0.674922 0.211926 0.780959
O O4 0.857513 0.963996 0.810588
O O5 0.208881 0.087524 0.577435
O O6 0.809531 0.389404 0.450431
O O7 0.110893 0.859156 0.783627
O O8 0.379957 0.335463 0.401042
O O9 0.905301 0.365022 0.295663
O O10 0.368383 0.864595 0.598401
O O11 0.474089 0.625776 0.186644
O O12 0.380656 0.579641 0.068733
O O13 0.000000 0.500000 0.000000
#
# Coordination Sequence:
#
# PCOD9016364 Si02
#       6
#     2   2   2   2   2   2
#     4  12  24  42  70 100 130 175 223 268 327 391
#     4  11  22  41  72  96 130 172 226 269 321 387
#     4  10  21  42  67  95 129 177 222 263 327 391
#     4  10  24  40  63  97 134 174 214 272 326 390
#     4  11  22  41  68  95 130 176 221 266 324 392
#     4  12  27  44  66 102 135 169 220 275 329 387
#
# _framework density 22.421817000000001
#
# number of rings (size 3 to 8) (size 9 to 14) (size 15 to 20)
#    0.000    1.000    3.333    3.000    0.000    7.333 
#    0.000    1.667    0.000    0.000    0.000    0.000 
#    0.000    0.000    0.000    0.000    0.000    0.000 
#
# Total GULP energy -67181.510859 kJ/mol
# GULP energy per Si atom -5598.459238 kJ/mol
# Density = 2.237078 g / cm^3
# Si number density = 22.421817 Si / 1000 Ang^3
#
#
#
# Elastic Constant Matrix: (Units=GPa)
#
#
# Indices 1 2 3 4 5 6 
#
# 1 65.4671 19.1441 7.2540 -6.2692 3.7127 1.9042
# 2 19.1441 107.3122 17.6903 -4.0426 14.8839 -14.9313
# 3 7.2540 17.6903 59.8992 4.6082 14.8078 -10.5055
# 4 -6.2692 -4.0426 4.6082 38.5221 0.2245 -0.0529
# 5 3.7127 14.8839 14.8078 0.2245 27.0913 3.0944
# 6 1.9042 -14.9313 -10.5055 -0.0529 3.0944 39.8849
#
#
#
# Elastic Compliance Matrix: (Units=1/GPa)
#
#
# Indices 1 2 3 4 5 6 
#
# 1 0.016648 -0.002991 -0.001937 0.002620 0.000681 -0.002474
# 2 -0.002991 0.011505 -0.000785 0.000856 -0.006027 0.004712
# 3 -0.001937 -0.000785 0.021384 -0.002879 -0.011691 0.006334
# 4 0.002620 0.000856 -0.002879 0.026815 0.000587 -0.000573
# 5 0.000681 -0.006027 -0.011691 0.000587 0.047550 -0.009056
# 6 -0.002474 0.004712 0.006334 -0.000573 -0.009056 0.029324
#
#
# Mechanical properties :
#
#
# Convention : Reuss Voigt Hill
#
# Bulk Modulus (GPa) = 26.23842 35.65059 30.94451
# Shear Modulus (GPa) = 28.19184 33.67234 30.93209
#
# Velocity S-wave (km/s) = 3.54975 3.87947 3.71826
# Velocity P-wave (km/s) = 5.34121 6.00013 5.68023
#
# Compressibility (1/GPa) = 0.03811205
#
# Stress axis : x y z
#
# Youngs Moduli (GPa) = 60.06654 86.91564 46.76470
#
# Poissons Ratio (x) = 0.25994 0.09057
# Poissons Ratio (y) = 0.17964 0.03672
# Poissons Ratio (z) = 0.11633 0.06825
#
# Static dielectric constant tensor:
#      x y z
#    x 1.819740 -0.032750 0.012790 
#    y -0.032750 1.856500 -0.011830 
#    z 0.012790 -0.011830 1.817530 
# 
# From -- ./inp_files/24157.got.cif
#   From: 2010.05.17/outbox.cif.g08.bks.cpg/sg2_13_cif.got.tgz:24157.got - 2010.06.03 11:33:40.
