data_PCOD9016544
_publ_section_title
;
Structure prediction by ZEFSAII (Michael W. Deem and Ramdas Pophale) SiO2 
 PCOD9016544
Probable space group: P -1
;
_chemical_formula_sum "Si O2"
_cell_formula_units_Z 16
_cell_length_a 20.740634
_cell_length_b 8.773864
_cell_length_c 7.778776
_cell_angle_alpha 126.728859
_cell_angle_beta 91.543061
_cell_angle_gamma 126.224454
_cell_volume 740.130856
_symmetry_space_group_name_H-M "P -1"
_symmetry_group_IT_number 2
_symmetry_cell_setting 'triclinic'
loop_
_space_group_symop_operation_xyz
x,y,z
-x,-y,-z
loop_
_atom_site_type_symbol
_atom_site_label
_atom_site_fract_x
_atom_site_fract_y
_atom_site_fract_z
Si Si1 0.738538 0.390677 0.337386
Si Si2 0.586138 0.346093 0.207183
Si Si3 0.201633 0.150510 0.878246
Si Si4 0.098882 0.112134 0.527374
Si Si5 0.353187 0.162147 0.885031
Si Si6 0.561499 0.716930 0.405442
Si Si7 0.908520 0.920439 0.880369
Si Si8 0.601812 0.215580 0.759123
O O1 0.682546 0.467274 0.379050
O O2 0.808934 0.540374 0.276148
O O3 0.817296 0.570446 0.617328
O O4 0.662908 0.057620 0.146442
O O5 0.573901 0.540479 0.379739
O O6 0.598783 0.358144 0.010769
O O7 0.500000 0.000000 0.000000
O O8 0.127450 0.008249 0.935999
O O9 0.296009 0.505981 0.139849
O O10 0.140412 0.067843 0.647212
O O11 0.254663 0.066551 0.816062
O O12 0.079185 0.978489 0.246515
O O13 0.000000 0.000000 0.500000
O O14 0.383423 0.170615 0.700062
O O15 0.445970 0.477154 0.188586
O O16 0.600166 0.995801 0.682873
O O17 0.000000 0.000000 0.000000
O O18 0.500000 0.000000 0.500000
#
# Coordination Sequence:
#
# PCOD9016544 Si02
#       8
#     2   2   2   2   2   2   2   2
#     4  10  22  41  62  94 130 173 218 275 340 389
#     4  12  24  41  61  93 140 178 221 279 331 395
#     4  12  21  41  68  94 137 176 225 273 344 404
#     4  10  21  42  68  92 126 170 217 287 349 390
#     4  11  21  39  61  94 133 181 220 276 333 392
#     4  11  22  39  62  91 139 184 228 265 327 397
#     4  10  22  40  69  98 118 168 231 278 339 410
#     4  12  23  38  63  96 128 183 225 266 330 398
#
# _framework density 21.617799000000002
#
# number of rings (size 3 to 8) (size 9 to 14) (size 15 to 20)
#    0.750    0.250    6.250    1.500    1.750    0.500 
#    2.250    2.500    0.000    1.500    0.000    0.000 
#    0.000    0.000    0.000    0.000    0.000    0.000 
#
# Total GULP energy -89271.864032 kJ/mol
# GULP energy per Si atom -5579.491502 kJ/mol
# Density = 2.156860 g / cm^3
# Si number density = 21.617799 Si / 1000 Ang^3
#
#
#
# Elastic Constant Matrix: (Units=GPa)
#
#
# Indices 1 2 3 4 5 6 
#
# 1 156.8932 41.3388 30.4477 -12.6324 23.7823 -7.3454
# 2 41.3388 83.8255 3.2479 -19.6868 -1.0200 -0.1885
# 3 30.4477 3.2479 50.3199 -14.9386 14.5880 -10.2492
# 4 -12.6324 -19.6868 -14.9386 36.1836 -5.3029 -9.9569
# 5 23.7823 -1.0200 14.5880 -5.3029 40.3640 3.9543
# 6 -7.3454 -0.1885 -10.2492 -9.9569 3.9543 38.9127
#
#
#
# Elastic Compliance Matrix: (Units=1/GPa)
#
#
# Indices 1 2 3 4 5 6 
#
# 1 0.008961 -0.004691 -0.004315 -0.001664 -0.004108 0.000524
# 2 -0.004691 0.016560 0.004718 0.010484 0.002575 0.002858
# 3 -0.004315 0.004718 0.032002 0.016598 -0.007967 0.012694
# 4 -0.001664 0.010484 0.016598 0.043765 -0.000509 0.015359
# 5 -0.004108 0.002575 -0.007967 -0.000509 0.030671 -0.006109
# 6 0.000524 0.002858 0.012694 0.015359 -0.006109 0.033705
#
#
# Mechanical properties :
#
#
# Convention : Reuss Voigt Hill
#
# Bulk Modulus (GPa) = 20.43079 49.01194 34.72136
# Shear Modulus (GPa) = 26.23886 37.49231 31.86559
#
# Velocity S-wave (km/s) = 3.48769 4.16904 3.84349
# Velocity P-wave (km/s) = 5.06854 6.77464 5.98272
#
# Compressibility (1/GPa) = 0.04894574
#
# Stress axis : x y z
#
# Youngs Moduli (GPa) = 111.59924 60.38564 31.24784
#
# Poissons Ratio (x) = 0.28329 0.13484
# Poissons Ratio (y) = 0.52354 -0.14742
# Poissons Ratio (z) = 0.48158 -0.28489
#
# Static dielectric constant tensor:
#      x y z
#    x 1.794140 -0.008930 0.000460 
#    y -0.008930 1.898110 -0.012620 
#    z 0.000460 -0.012620 1.794600 
# 
# From -- ./inp_files/329599.got.cif
#   From: 2010.05.17/outbox.cif.g08.bks.cpg/sg2_165_cif.got.tgz:329599.got - 2010.06.03 11:33:40.
