data_PCOD9016099
_publ_section_title
;
Structure prediction by ZEFSAII (Michael W. Deem and Ramdas Pophale) SiO2 
 PCOD9016099
Probable space group: P -1
;
_chemical_formula_sum "Si O2"
_cell_formula_units_Z 16
_cell_length_a 11.445220
_cell_length_b 11.177283
_cell_length_c 11.653676
_cell_angle_alpha 27.460882
_cell_angle_beta 62.161014
_cell_angle_gamma 68.362417
_cell_volume 604.092574
_symmetry_space_group_name_H-M "P -1"
_symmetry_group_IT_number 2
_symmetry_cell_setting 'triclinic'
loop_
_space_group_symop_operation_xyz
x,y,z
-x,-y,-z
loop_
_atom_site_type_symbol
_atom_site_label
_atom_site_fract_x
_atom_site_fract_y
_atom_site_fract_z
Si Si1 0.676417 0.037925 0.169280
Si Si2 0.009492 0.154056 0.243353
Si Si3 0.241080 0.106441 0.508861
Si Si4 0.731794 0.489707 0.208044
Si Si5 0.363290 0.074348 0.951305
Si Si6 0.070214 0.562936 0.290513
Si Si7 0.165946 0.722317 0.450261
Si Si8 0.558555 0.633206 0.974351
O O1 0.562333 0.227171 0.038726
O O2 0.663887 0.943613 0.386313
O O3 0.647733 0.832890 0.253593
O O4 0.829295 0.173614 0.979401
O O5 0.076294 0.956017 0.298501
O O6 0.864216 0.142079 0.263284
O O7 0.000000 0.000000 0.500000
O O8 0.118200 0.404071 0.990506
O O9 0.163197 0.347287 0.384535
O O10 0.318970 0.177235 0.295625
O O11 0.749728 0.267073 0.480886
O O12 0.625613 0.453204 0.186900
O O13 0.681663 0.713328 0.121978
O O14 0.265728 0.802842 0.233938
O O15 0.500000 0.000000 0.000000
O O16 0.000000 0.500000 0.500000
O O17 0.938131 0.535437 0.294184
O O18 0.500000 0.500000 0.000000
#
# Coordination Sequence:
#
# PCOD9016099 Si02
#       8
#     2   2   2   2   2   2   2   2
#     4  12  25  43  69  96 134 177 217 270 329 387
#     4  10  21  42  66  95 128 166 220 268 321 393
#     4  11  25  43  68  97 132 175 216 272 332 383
#     4  11  24  44  66  94 133 170 215 273 327 386
#     4  11  24  43  64  96 131 171 222 265 318 396
#     4  11  23  44  65  98 136 165 221 273 319 397
#     4  10  24  41  65  95 128 170 213 269 330 378
#     4  12  25  46  67  97 135 173 223 267 323 402
#
# _framework density 26.486004999999999
#
# number of rings (size 3 to 8) (size 9 to 14) (size 15 to 20)
#    0.000    1.000    5.000    1.125    1.750    3.500 
#    0.000    0.000    0.000    0.000    0.000    0.000 
#    0.000    0.000    0.000    0.000    0.000    0.000 
#
# Total GULP energy -89533.961653 kJ/mol
# GULP energy per Si atom -5595.872603 kJ/mol
# Density = 2.642572 g / cm^3
# Si number density = 26.486005 Si / 1000 Ang^3
#
#
#
# Elastic Constant Matrix: (Units=GPa)
#
#
# Indices 1 2 3 4 5 6 
#
# 1 163.0654 33.9717 7.0081 6.1513 11.6898 21.6952
# 2 33.9717 93.5041 8.0026 9.2387 -13.6947 5.0374
# 3 7.0081 8.0026 42.7142 14.0553 2.3868 2.9922
# 4 6.1513 9.2387 14.0553 32.8501 2.3739 -1.2344
# 5 11.6898 -13.6947 2.3868 2.3739 40.9981 10.4017
# 6 21.6952 5.0374 2.9922 -1.2344 10.4017 56.4420
#
#
#
# Elastic Compliance Matrix: (Units=1/GPa)
#
#
# Indices 1 2 3 4 5 6 
#
# 1 0.007188 -0.002799 -0.000260 -0.000350 -0.002427 -0.002060
# 2 -0.002799 0.013012 -0.001205 -0.003073 0.005681 -0.001136
# 3 -0.000260 -0.001205 0.027574 -0.011393 -0.000936 -0.001331
# 4 -0.000350 -0.003073 -0.011393 0.036549 -0.002979 0.002361
# 5 -0.002427 0.005681 -0.000936 -0.002979 0.028433 -0.004830
# 6 -0.002060 -0.001136 -0.001331 0.002361 -0.004830 0.019623
#
#
# Mechanical properties :
#
#
# Convention : Reuss Voigt Hill
#
# Bulk Modulus (GPa) = 25.48097 44.13872 34.80985
# Shear Modulus (GPa) = 32.46971 42.74479 37.60725
#
# Velocity S-wave (km/s) = 3.50511 4.02165 3.77223
# Velocity P-wave (km/s) = 5.10123 6.18595 5.66959
#
# Compressibility (1/GPa) = 0.03924497
#
# Stress axis : x y z
#
# Youngs Moduli (GPa) = 139.12031 76.85437 36.26574
#
# Poissons Ratio (x) = 0.21513 0.00943
# Poissons Ratio (y) = 0.38942 0.04371
# Poissons Ratio (z) = 0.03617 0.09263
#
# Static dielectric constant tensor:
#      x y z
#    x 2.052930 -0.011490 -0.074970 
#    y -0.011490 2.185360 0.040620 
#    z -0.074970 0.040620 2.176970 
# 
# From -- ./inp_files/70366.got.cif
#   From: 2010.05.17/outbox.cif.g08.bks.cpg/sg2_36_cif.got.tgz:70366.got - 2010.06.03 11:33:40.
