data_PCOD9016837
_publ_section_title
;
Structure prediction by ZEFSAII (Michael W. Deem and Ramdas Pophale) SiO2 
 PCOD9016837
Probable space group: P -1
;
_chemical_formula_sum "Si O2"
_cell_formula_units_Z 16
_cell_length_a 6.259787
_cell_length_b 17.098313
_cell_length_c 9.127230
_cell_angle_alpha 132.818051
_cell_angle_beta 83.417426
_cell_angle_gamma 81.657797
_cell_volume 677.696817
_symmetry_space_group_name_H-M "P -1"
_symmetry_group_IT_number 2
_symmetry_cell_setting 'triclinic'
loop_
_space_group_symop_operation_xyz
x,y,z
-x,-y,-z
loop_
_atom_site_type_symbol
_atom_site_label
_atom_site_fract_x
_atom_site_fract_y
_atom_site_fract_z
Si Si1 0.442296 0.742293 0.681827
Si Si2 0.137758 0.698000 0.417126
Si Si3 0.259670 0.096517 0.195391
Si Si4 0.732272 0.019257 0.673945
Si Si5 0.126749 0.448323 0.569015
Si Si6 0.976339 0.397706 0.968626
Si Si7 0.018850 0.123367 0.954891
Si Si8 0.315838 0.183605 0.779190
O O1 0.361932 0.701033 0.483968
O O2 0.571002 0.832121 0.752147
O O3 0.630662 0.636453 0.597916
O O4 0.218677 0.794759 0.862634
O O5 0.959678 0.820541 0.602179
O O6 0.019277 0.620458 0.421231
O O7 0.160653 0.661187 0.200466
O O8 0.361990 0.001050 0.184517
O O9 0.158460 0.065780 0.013319
O O10 0.728169 0.911371 0.444202
O O11 0.572579 0.128851 0.743505
O O12 0.962683 0.040956 0.734768
O O13 0.000000 0.500000 0.500000
O O14 0.139969 0.546503 0.802605
O O15 0.216152 0.304061 0.864897
O O16 0.000000 0.500000 0.000000
O O17 0.164241 0.189001 0.942960
#
# Coordination Sequence:
#
# PCOD9016837 Si02
#       8
#     2   2   2   2   2   2   2   2
#     4  10  23  41  67  99 134 178 224 270 339 403
#     4   9  20  42  63  95 131 174 223 271 331 403
#     4  10  21  42  69  95 138 175 222 270 329 402
#     4  11  24  44  70 100 136 182 223 275 338 401
#     4  10  23  39  69  96 133 170 221 289 334 393
#     4  10  22  45  71  93 133 177 221 284 333 391
#     4  11  24  41  68  99 141 178 220 276 333 409
#     4  11  25  44  67 102 139 172 227 279 339 396
#
# _framework density 23.609378
#
# number of rings (size 3 to 8) (size 9 to 14) (size 15 to 20)
#    0.000    1.750    1.250    1.500    7.000    5.000 
#    4.500    0.000    0.000    0.000    0.000    0.000 
#    0.000    0.000    0.000    0.000    0.000    0.000 
#
# Total GULP energy -89453.622026 kJ/mol
# GULP energy per Si atom -5590.851377 kJ/mol
# Density = 2.355564 g / cm^3
# Si number density = 23.609378 Si / 1000 Ang^3
#
#
#
# Elastic Constant Matrix: (Units=GPa)
#
#
# Indices 1 2 3 4 5 6 
#
# 1 77.4253 23.1988 22.0731 -5.9199 7.0776 -13.7795
# 2 23.1988 118.6589 33.9490 1.6568 -3.3207 -34.3269
# 3 22.0731 33.9490 82.8816 -11.7120 17.5321 -13.5849
# 4 -5.9199 1.6568 -11.7120 36.6856 -12.3196 3.7682
# 5 7.0776 -3.3207 17.5321 -12.3196 39.4058 0.1015
# 6 -13.7795 -34.3269 -13.5849 3.7682 0.1015 20.1899
#
#
#
# Elastic Compliance Matrix: (Units=1/GPa)
#
#
# Indices 1 2 3 4 5 6 
#
# 1 0.015318 0.000358 -0.002290 0.000189 -0.001667 0.009495
# 2 0.000358 0.017905 -0.003626 -0.004347 0.001624 0.029050
# 3 -0.002290 -0.003626 0.016332 0.002584 -0.006360 0.002811
# 4 0.000189 -0.004347 0.002584 0.032394 0.008608 -0.011612
# 5 -0.001667 0.001624 -0.006360 0.008608 0.031345 -0.004421
# 6 0.009495 0.029050 0.002811 -0.011612 -0.004421 0.109482
#
#
# Mechanical properties :
#
#
# Convention : Reuss Voigt Hill
#
# Bulk Modulus (GPa) = 26.01546 48.60086 37.30816
# Shear Modulus (GPa) = 20.26721 32.57258 26.41989
#
# Velocity S-wave (km/s) = 2.93309 3.71839 3.34884
# Velocity P-wave (km/s) = 4.74487 6.25022 5.54883
#
# Compressibility (1/GPa) = 0.03843869
#
# Stress axis : x y z
#
# Youngs Moduli (GPa) = 65.28202 55.85101 61.23087
#
# Poissons Ratio (x) = -0.02000 0.14025
# Poissons Ratio (y) = -0.02338 0.22200
# Poissons Ratio (z) = 0.14952 0.20249
#
# Static dielectric constant tensor:
#      x y z
#    x 1.884030 0.010920 0.001160 
#    y 0.010920 1.924750 0.018060 
#    z 0.001160 0.018060 1.951630 
# 
# From -- ./inp_files/139550.got.cif
#   From: 2010.05.17/outbox.cif.g08.bks.cpg/sg2_70_cif.got.tgz:139550.got - 2010.06.03 11:33:40.
