data_PCOD9016572
_publ_section_title
;
Structure prediction by ZEFSAII (Michael W. Deem and Ramdas Pophale) SiO2 
 PCOD9016572
Probable space group: P -1
;
_chemical_formula_sum "Si O2"
_cell_formula_units_Z 15
_cell_length_a 12.091463
_cell_length_b 9.234745
_cell_length_c 7.946804
_cell_angle_alpha 113.023578
_cell_angle_beta 65.420592
_cell_angle_gamma 117.963905
_cell_volume 691.169461
_symmetry_space_group_name_H-M "P -1"
_symmetry_group_IT_number 2
_symmetry_cell_setting 'triclinic'
loop_
_space_group_symop_operation_xyz
x,y,z
-x,-y,-z
loop_
_atom_site_type_symbol
_atom_site_label
_atom_site_fract_x
_atom_site_fract_y
_atom_site_fract_z
Si Si1 0.718002 0.659745 0.531194
Si Si2 0.026741 0.666043 0.950099
Si Si3 0.684735 0.285056 0.264344
Si Si4 0.500000 0.000000 0.500000
Si Si5 0.938935 0.924049 0.325388
Si Si6 0.370130 0.245740 0.846618
Si Si7 0.464496 0.636260 0.869038
Si Si8 0.881589 0.763291 0.817612
O O1 0.696932 0.472215 0.399983
O O2 0.582325 0.671823 0.678195
O O3 0.806881 0.690773 0.658527
O O4 0.793342 0.800503 0.409369
O O5 0.173878 0.725251 0.821004
O O6 0.924756 0.638730 0.849464
O O7 0.006107 0.803714 0.147806
O O8 0.000000 0.500000 0.000000
O O9 0.633278 0.279930 0.103427
O O10 0.585965 0.143324 0.376761
O O11 0.591339 0.883937 0.347656
O O12 0.984436 0.083862 0.245204
O O13 0.000000 0.000000 0.500000
O O14 0.399156 0.433448 0.838328
O O15 0.470269 0.285469 0.960781
O O16 0.222705 0.183855 0.985015
#
# Coordination Sequence:
#
# PCOD9016572 Si02
#       8
#     2   2   2   1   2   2   2   2
#     4  10  21  42  68  94 120 167 218 255 315 379
#     4  12  24  42  65  97 131 169 211 260 318 373
#     4  12  25  42  63  98 131 166 211 265 315 375
#     4  12  26  40  64 102 132 156 218 270 314 366
#     4  10  22  43  66  94 123 168 217 257 314 380
#     4  10  22  43  67  97 123 168 213 260 318 376
#     4  10  22  43  71  87 128 173 212 251 321 386
#     4  10  23  42  69  91 130 170 211 259 314 382
#
# _framework density 21.702348000000001
#
# number of rings (size 3 to 8) (size 9 to 14) (size 15 to 20)
#    0.000    1.333    2.667    2.400    0.000    2.133 
#    0.000    1.333    0.000    0.000    0.000    0.000 
#    0.000    0.000    0.000    0.000    0.000    0.000 
#
# Total GULP energy -83603.600292 kJ/mol
# GULP energy per Si atom -5573.573353 kJ/mol
# Density = 2.165295 g / cm^3
# Si number density = 21.702348 Si / 1000 Ang^3
#
#
#
# Elastic Constant Matrix: (Units=GPa)
#
#
# Indices 1 2 3 4 5 6 
#
# 1 119.5843 23.3118 27.8576 -7.8578 5.0473 -6.5600
# 2 23.3118 102.4268 14.1022 -35.7779 13.6090 -9.7805
# 3 27.8576 14.1022 60.7131 -24.9911 -3.8008 -6.0522
# 4 -7.8578 -35.7779 -24.9911 37.4449 2.2840 -1.4229
# 5 5.0473 13.6090 -3.8008 2.2840 18.5531 2.2557
# 6 -6.5600 -9.7805 -6.0522 -1.4229 2.2557 23.1231
#
#
#
# Elastic Compliance Matrix: (Units=1/GPa)
#
#
# Indices 1 2 3 4 5 6 
#
# 1 0.010048 -0.002888 -0.005877 -0.004499 -0.001257 -0.000063
# 2 -0.002888 0.023646 0.008079 0.029192 -0.020330 0.015076
# 3 -0.005877 0.008079 0.029165 0.026564 -0.002998 0.011311
# 4 -0.004499 0.029192 0.026564 0.073983 -0.026919 0.025203
# 5 -0.001257 -0.020330 -0.002998 -0.026919 0.074119 -0.018628
# 6 -0.000063 0.015076 0.011311 0.025203 -0.018628 0.055934
#
#
# Mechanical properties :
#
#
# Convention : Reuss Voigt Hill
#
# Bulk Modulus (GPa) = 16.26331 45.91860 31.09096
# Shear Modulus (GPa) = 17.31529 30.32106 23.81817
#
# Velocity S-wave (km/s) = 2.82769 3.74188 3.31644
# Velocity P-wave (km/s) = 4.26277 6.31452 5.38722
#
# Compressibility (1/GPa) = 0.06148810
#
# Stress axis : x y z
#
# Youngs Moduli (GPa) = 99.51942 42.29089 34.28771
#
# Poissons Ratio (x) = 0.12215 0.20149
# Poissons Ratio (y) = 0.28744 -0.27702
# Poissons Ratio (z) = 0.58483 -0.34168
#
# Static dielectric constant tensor:
#      x y z
#    x 1.808960 0.044650 0.052100 
#    y 0.044650 1.795650 -0.007690 
#    z 0.052100 -0.007690 1.788850 
# 
# From -- ./inp_files/244911.got.cif
#   From: 2010.05.17/outbox.cif.g08.bks.cpg/sg2_123_cif.got.tgz:244911.got - 2010.06.03 11:33:40.
