data_PCOD9016750
_publ_section_title
;
Structure prediction by ZEFSAII (Michael W. Deem and Ramdas Pophale) SiO2 
 PCOD9016750
Probable space group: P -1
;
_chemical_formula_sum "Si O2"
_cell_formula_units_Z 15
_cell_length_a 26.731708
_cell_length_b 5.552305
_cell_length_c 5.310649
_cell_angle_alpha 83.698649
_cell_angle_beta 91.404916
_cell_angle_gamma 46.943044
_cell_volume 567.060917
_symmetry_space_group_name_H-M "P -1"
_symmetry_group_IT_number 2
_symmetry_cell_setting 'triclinic'
loop_
_space_group_symop_operation_xyz
x,y,z
-x,-y,-z
loop_
_atom_site_type_symbol
_atom_site_label
_atom_site_fract_x
_atom_site_fract_y
_atom_site_fract_z
Si Si1 0.437571 0.264600 0.164623
Si Si2 0.079596 0.652163 0.030100
Si Si3 0.385996 0.026113 0.535272
Si Si4 0.044041 0.597505 0.534905
Si Si5 0.758556 0.252035 0.534226
Si Si6 0.500000 0.500000 0.000000
Si Si7 0.304335 0.942988 0.166750
Si Si8 0.804778 0.346640 0.049818
O O1 0.355912 0.583516 0.072877
O O2 0.434550 0.048137 0.374957
O O3 0.426054 0.771018 0.801458
O O4 0.500000 0.000000 0.000000
O O5 0.081115 0.460134 0.823468
O O6 0.126623 0.722860 0.960403
O O7 0.093306 0.478010 0.316782
O O8 0.000000 0.000000 0.000000
O O9 0.321703 0.406222 0.571004
O O10 0.464780 0.438869 0.210748
O O11 0.349232 0.957215 0.357505
O O12 0.000000 0.500000 0.500000
O O13 0.000000 0.000000 0.500000
O O14 0.800804 0.175579 0.300332
O O15 0.749701 0.012111 0.664143
O O16 0.786330 0.300601 0.779224
O O17 0.258009 0.256369 0.942502
#
# Coordination Sequence:
#
# PCOD9016750 Si02
#       8
#     2   2   2   2   2   1   2   2
#     4  11  24  41  64  96 129 171 219 289 354 421
#     4  10  22  43  70 109 149 190 242 308 377 444
#     4  10  24  43  66  92 137 172 232 291 355 430
#     4  10  21  42  69 103 152 200 242 304 376 454
#     4  10  24  45  71  99 135 187 236 299 355 428
#     4  12  24  40  64  96 126 170 224 274 358 418
#     4  10  24  46  67  95 131 186 237 292 359 431
#     4  11  23  47  73 101 142 185 246 293 359 438
#
# _framework density 26.452185
#
# number of rings (size 3 to 8) (size 9 to 14) (size 15 to 20)
#    0.000    1.600    0.000    3.200    0.000   11.733 
#   14.400    1.333    0.000    0.000    0.000    0.000 
#    0.000    0.000    0.000    0.000    0.000    0.000 
#
# Total GULP energy -83640.253920 kJ/mol
# GULP energy per Si atom -5576.016928 kJ/mol
# Density = 2.639198 g / cm^3
# Si number density = 26.452185 Si / 1000 Ang^3
#
#
#
# Elastic Constant Matrix: (Units=GPa)
#
#
# Indices 1 2 3 4 5 6 
#
# 1 207.3051 26.2231 85.5785 -1.7301 -37.5949 5.9321
# 2 26.2231 107.9096 46.0093 -1.7564 -8.9790 -9.1684
# 3 85.5785 46.0093 184.6115 3.6124 -27.8910 -7.2469
# 4 -1.7301 -1.7564 3.6124 33.5919 -2.1879 -6.7116
# 5 -37.5949 -8.9790 -27.8910 -2.1879 53.4438 -0.7312
# 6 5.9321 -9.1684 -7.2469 -6.7116 -0.7312 37.9988
#
#
#
# Elastic Compliance Matrix: (Units=1/GPa)
#
#
# Indices 1 2 3 4 5 6 
#
# 1 0.006541 -0.000360 -0.002521 0.000512 0.003226 -0.001436
# 2 -0.000360 0.010615 -0.002351 0.001295 0.000389 0.002405
# 3 -0.002521 -0.002351 0.007492 -0.000714 0.001728 0.001162
# 4 0.000512 0.001295 -0.000714 0.031167 0.001559 0.005631
# 5 0.003226 0.000389 0.001728 0.001559 0.022020 0.000619
# 6 -0.001436 0.002405 0.001162 0.005631 0.000619 0.028349
#
#
# Mechanical properties :
#
#
# Convention : Reuss Voigt Hill
#
# Bulk Modulus (GPa) = 70.50324 90.60534 80.55429
# Shear Modulus (GPa) = 41.19479 47.80792 44.50136
#
# Velocity S-wave (km/s) = 3.95058 4.25589 4.10607
# Velocity P-wave (km/s) = 6.89351 7.64702 7.28002
#
# Compressibility (1/GPa) = 0.01418375
#
# Stress axis : x y z
#
# Youngs Moduli (GPa) = 152.89231 94.21036 133.47400
#
# Poissons Ratio (x) = 0.03388 0.33653
# Poissons Ratio (y) = 0.05499 0.31376
# Poissons Ratio (z) = 0.38549 0.22147
#
# Static dielectric constant tensor:
#      x y z
#    x 2.063940 -0.038560 0.070840 
#    y -0.038560 -1.702610 1.728740 
#    z 0.070840 1.728740 1.344570 
# 
# From -- ./inp_files/125546.got.cif
#   From: 2010.05.17/outbox.cif.g08.bks.cpg/sg2_63_cif.got.tgz:125546.got - 2010.06.03 11:33:40.
