data_PCOD9016011
_publ_section_title
;
Structure prediction by ZEFSAII (Michael W. Deem and Ramdas Pophale) SiO2 
 PCOD9016011
Probable space group: P -1
;
_chemical_formula_sum "Si O2"
_cell_formula_units_Z 16
_cell_length_a 19.733375
_cell_length_b 5.156350
_cell_length_c 8.397461
_cell_angle_alpha 57.525742
_cell_angle_beta 62.937729
_cell_angle_gamma 70.883692
_cell_volume 637.976764
_symmetry_space_group_name_H-M "P -1"
_symmetry_group_IT_number 2
_symmetry_cell_setting 'triclinic'
loop_
_space_group_symop_operation_xyz
x,y,z
-x,-y,-z
loop_
_atom_site_type_symbol
_atom_site_label
_atom_site_fract_x
_atom_site_fract_y
_atom_site_fract_z
Si Si1 0.755559 0.443035 0.441275
Si Si2 0.524959 0.341988 0.360655
Si Si3 0.126152 0.328870 0.968380
Si Si4 0.065898 0.788976 0.360440
Si Si5 0.348638 0.454096 0.024460
Si Si6 0.800455 0.726712 0.633853
Si Si7 0.393540 0.733726 0.212879
Si Si8 0.987084 0.626735 0.202687
O O1 0.791965 0.582933 0.200845
O O2 0.772023 0.641899 0.514470
O O3 0.666148 0.397779 0.556787
O O4 0.797401 0.094100 0.529942
O O5 0.500000 0.500000 0.500000
O O6 0.475346 0.546053 0.215047
O O7 0.500000 0.000000 0.500000
O O8 0.613140 0.376655 0.215988
O O9 0.084459 0.263266 0.867216
O O10 0.064187 0.583934 0.030016
O O11 0.122970 0.045233 0.185632
O O12 0.118422 0.468189 0.368624
O O13 0.004132 0.823865 0.273135
O O14 0.030555 0.703554 0.594928
O O15 0.259578 0.402953 0.137477
O O16 0.363856 0.656129 0.096118
O O17 0.389018 0.101487 0.116713
#
# Coordination Sequence:
#
# PCOD9016011 Si02
#       8
#     2   2   2   2   2   2   2   2
#     4  10  23  42  66  92 128 165 214 267 319 381
#     4  12  24  38  62 100 134 164 208 274 308 362
#     4  11  23  40  64  91 124 169 214 268 327 382
#     4  11  23  40  64  91 124 169 214 268 327 382
#     4  10  21  42  66  90 124 176 212 251 313 387
#     4  10  23  42  66  92 128 165 214 267 319 381
#     4  10  21  42  66  90 124 176 212 251 313 387
#     4  10  24  40  60  92 128 162 218 262 330 390
#
# _framework density 25.079281000000002
#
# number of rings (size 3 to 8) (size 9 to 14) (size 15 to 20)
#    0.000    1.500    1.250    3.000    3.500    5.000 
#    2.250    0.000    0.000    0.000    0.000    0.000 
#    0.000    0.000    0.000    0.000    0.000    0.000 
#
# Total GULP energy -89549.197807 kJ/mol
# GULP energy per Si atom -5596.824863 kJ/mol
# Density = 2.502220 g / cm^3
# Si number density = 25.079281 Si / 1000 Ang^3
#
#
#
# Elastic Constant Matrix: (Units=GPa)
#
#
# Indices 1 2 3 4 5 6 
#
# 1 36.5653 4.4337 28.7461 6.5681 -8.0339 10.0641
# 2 4.4337 82.7059 31.9574 1.1734 -14.6035 14.8441
# 3 28.7461 31.9574 195.1922 14.0300 -54.8914 16.0984
# 4 6.5681 1.1734 14.0300 40.5080 -2.0837 -0.1557
# 5 -8.0339 -14.6035 -54.8914 -2.0837 49.4587 2.4672
# 6 10.0641 14.8441 16.0984 -0.1557 2.4672 24.3650
#
#
#
# Elastic Compliance Matrix: (Units=1/GPa)
#
#
# Indices 1 2 3 4 5 6 
#
# 1 0.035011 0.002588 -0.003054 -0.004565 0.003589 -0.014413
# 2 0.002588 0.014837 -0.000664 -0.000424 0.004552 -0.010134
# 3 -0.003054 -0.000664 0.008884 -0.002102 0.009337 -0.005163
# 4 -0.004565 -0.000424 -0.002102 0.026064 -0.002298 0.003932
# 5 0.003589 0.004552 0.009337 -0.002298 0.033100 -0.013791
# 6 -0.014413 -0.010134 -0.005163 0.003932 -0.013791 0.058002
#
#
# Mechanical properties :
#
#
# Convention : Reuss Voigt Hill
#
# Bulk Modulus (GPa) = 17.70738 49.41532 33.56135
# Shear Modulus (GPa) = 25.38306 39.48809 32.43558
#
# Velocity S-wave (km/s) = 3.18482 3.97234 3.60018
# Velocity P-wave (km/s) = 4.53872 6.38637 5.54012
#
# Compressibility (1/GPa) = 0.05647364
#
# Stress axis : x y z
#
# Youngs Moduli (GPa) = 28.56265 67.39708 112.55884
#
# Poissons Ratio (x) = -0.17445 0.34373
# Poissons Ratio (y) = -0.07393 0.07474
# Poissons Ratio (z) = 0.08723 0.04475
#
# Static dielectric constant tensor:
#      x y z
#    x 1.978380 0.033080 -0.008570 
#    y 0.033080 2.013360 -0.000080 
#    z -0.008570 -0.000080 2.010380 
# 
# From -- ./inp_files/48453.got.cif
#   From: 2010.05.17/outbox.cif.g08.bks.cpg/sg2_25_cif.got.tgz:48453.got - 2010.06.03 11:33:40.
