data_PCOD9016724
_publ_section_title
;
Structure prediction by ZEFSAII (Michael W. Deem and Ramdas Pophale) SiO2 
 PCOD9016724
Probable space group: P -1
;
_chemical_formula_sum "Si O2"
_cell_formula_units_Z 15
_cell_length_a 9.589284
_cell_length_b 11.213790
_cell_length_c 9.860704
_cell_angle_alpha 108.783472
_cell_angle_beta 62.572614
_cell_angle_gamma 61.207734
_cell_volume 589.710715
_symmetry_space_group_name_H-M "P -1"
_symmetry_group_IT_number 2
_symmetry_cell_setting 'triclinic'
loop_
_space_group_symop_operation_xyz
x,y,z
-x,-y,-z
loop_
_atom_site_type_symbol
_atom_site_label
_atom_site_fract_x
_atom_site_fract_y
_atom_site_fract_z
Si Si1 0.887315 0.329164 0.180420
Si Si2 0.326059 0.220593 0.944098
Si Si3 0.734117 0.348022 0.690055
Si Si4 0.205324 0.566160 0.045531
Si Si5 0.529299 0.236905 0.107406
Si Si6 0.924437 0.074981 0.258547
Si Si7 0.540420 0.758205 0.554820
Si Si8 0.500000 0.000000 0.500000
O O1 0.870409 0.201322 0.203085
O O2 0.665013 0.549006 0.402118
O O3 0.899586 0.334785 0.015330
O O4 0.127658 0.245002 0.098242
O O5 0.490101 0.166832 0.974486
O O6 0.449774 0.087902 0.708867
O O7 0.189170 0.429763 0.036817
O O8 0.874987 0.294892 0.745043
O O9 0.871934 0.186339 0.457820
O O10 0.491552 0.418398 0.855635
O O11 0.643513 0.538460 0.747366
O O12 0.477411 0.207136 0.265379
O O13 0.799574 0.122018 0.939400
O O14 0.724999 0.087390 0.335599
O O15 0.660557 0.791272 0.421962
#
# Coordination Sequence:
#
# PCOD9016724 Si02
#       8
#     2   2   2   2   2   2   2   1
#     4  12  23  43  74  96 141 184 228 286 340 411
#     4  11  26  46  66 102 141 185 230 283 347 411
#     4  10  21  43  73 102 139 179 226 292 347 399
#     4  10  21  42  69 101 139 179 228 282 346 412
#     4  11  26  47  69 104 141 177 240 285 338 416
#     4  12  24  46  75 104 134 184 232 288 343 407
#     4  12  25  46  70 105 139 181 234 283 348 412
#     4  12  26  44  68 100 146 180 226 286 344 416
#
# _framework density 25.436202000000002
#
# number of rings (size 3 to 8) (size 9 to 14) (size 15 to 20)
#    0.000    0.800    4.000    2.800    0.000    4.800 
#    2.400    9.333    0.000    0.000    0.000    0.000 
#    0.000    0.000    0.000    0.000    0.000    0.000 
#
# Total GULP energy -83889.555765 kJ/mol
# GULP energy per Si atom -5592.637051 kJ/mol
# Density = 2.537831 g / cm^3
# Si number density = 25.436202 Si / 1000 Ang^3
#
#
#
# Elastic Constant Matrix: (Units=GPa)
#
#
# Indices 1 2 3 4 5 6 
#
# 1 84.1831 1.5952 47.5982 10.2964 28.8722 -24.5210
# 2 1.5952 60.0129 27.9846 -4.0135 8.6304 -10.4083
# 3 47.5982 27.9846 100.7348 -19.3146 38.5951 -19.3541
# 4 10.2964 -4.0135 -19.3146 30.5054 -16.4482 10.3411
# 5 28.8722 8.6304 38.5951 -16.4482 41.5655 -5.1038
# 6 -24.5210 -10.4083 -19.3541 10.3411 -5.1038 33.2080
#
#
#
# Elastic Compliance Matrix: (Units=1/GPa)
#
#
# Indices 1 2 3 4 5 6 
#
# 1 0.101748 0.031493 -0.029047 -0.128963 -0.089680 0.094451
# 2 0.031493 0.029313 -0.014290 -0.041593 -0.027112 0.032899
# 3 -0.029047 -0.014290 0.026869 0.037512 0.010542 -0.020329
# 4 -0.128963 -0.041593 0.037512 0.209327 0.130061 -0.131598
# 5 -0.089680 -0.027112 0.010542 0.130061 0.122580 -0.090236
# 6 0.094451 0.032899 -0.020329 -0.131598 -0.090236 0.125432
#
#
# Mechanical properties :
#
#
# Convention : Reuss Voigt Hill
#
# Bulk Modulus (GPa) = 7.44918 44.36520 25.90719
# Shear Modulus (GPa) = 7.31310 32.23929 19.77620
#
# Velocity S-wave (km/s) = 1.69744 3.56400 2.79136
# Velocity P-wave (km/s) = 2.60321 5.86649 4.53830
#
# Compressibility (1/GPa) = 0.13424291
#
# Stress axis : x y z
#
# Youngs Moduli (GPa) = 9.82817 34.11459 37.21703
#
# Poissons Ratio (x) = -1.07438 1.08103
# Poissons Ratio (y) = -0.30952 0.53185
# Poissons Ratio (z) = 0.28548 0.48751
#
# Static dielectric constant tensor:
#      x y z
#    x 2.033030 0.056160 -0.024710 
#    y 0.056160 2.036220 -0.019560 
#    z -0.024710 -0.019560 2.023630 
# 
# From -- ./inp_files/189122.got.cif
#   From: 2010.05.17/outbox.cif.g08.bks.cpg/sg2_95_cif.got.tgz:189122.got - 2010.06.03 11:33:40.
