data_PCOD9016565
_publ_section_title
;
Structure prediction by ZEFSAII (Michael W. Deem and Ramdas Pophale) SiO2 
 PCOD9016565
Probable space group: P -1
;
_chemical_formula_sum "Si O2"
_cell_formula_units_Z 16
_cell_length_a 9.811530
_cell_length_b 22.924212
_cell_length_c 6.752762
_cell_angle_alpha 54.384520
_cell_angle_beta 56.264630
_cell_angle_gamma 38.015184
_cell_volume 746.158391
_symmetry_space_group_name_H-M "P -1"
_symmetry_group_IT_number 2
_symmetry_cell_setting 'triclinic'
loop_
_space_group_symop_operation_xyz
x,y,z
-x,-y,-z
loop_
_atom_site_type_symbol
_atom_site_label
_atom_site_fract_x
_atom_site_fract_y
_atom_site_fract_z
Si Si1 0.017844 0.069171 0.962858
Si Si2 0.737475 0.865338 0.361399
Si Si3 0.612356 0.225863 0.207948
Si Si4 0.082021 0.582077 0.221752
Si Si5 0.735877 0.789327 0.910181
Si Si6 0.900553 0.269019 0.009270
Si Si7 0.369230 0.926361 0.263931
Si Si8 0.139644 0.435402 0.205889
O O1 0.763188 0.172684 0.994634
O O2 0.130318 0.023969 0.180000
O O3 0.179436 0.083291 0.721271
O O4 0.000000 0.000000 0.000000
O O5 0.699610 0.818460 0.654895
O O6 0.938422 0.780882 0.217003
O O7 0.511159 0.936815 0.270631
O O8 0.355480 0.324465 0.190630
O O9 0.638017 0.145376 0.468854
O O10 0.726399 0.257882 0.166600
O O11 0.202681 0.620460 0.101970
O O12 0.005337 0.566720 0.515284
O O13 0.203638 0.488530 0.169405
O O14 0.857393 0.678339 0.094704
O O15 0.923767 0.789280 0.837084
O O16 0.516421 0.866621 0.066649
O O17 0.000000 0.500000 0.000000
#
# Coordination Sequence:
#
# PCOD9016565 Si02
#       8
#     2   2   2   2   2   2   2   2
#     4  11  27  43  64  99 133 174 224 265 330 385
#     4  10  21  42  68  93 132 177 214 267 323 382
#     4  11  23  45  64  92 136 170 207 281 330 368
#     4   9  21  40  62  99 121 164 218 262 311 398
#     4   9  20  39  70  91 129 171 220 258 316 393
#     4   8  20  39  63  93 131 166 213 261 331 378
#     4  11  23  42  68  94 131 174 224 267 318 389
#     4  11  23  40  69  94 127 167 217 266 324 390
#
# _framework density 21.443166999999999
#
# number of rings (size 3 to 8) (size 9 to 14) (size 15 to 20)
#    0.750    1.250    1.250    0.750    7.000    1.000 
#    2.250    0.625    0.000    0.000    0.000    0.000 
#    0.000    0.000    0.000    0.000    0.000    0.000 
#
# Total GULP energy -89297.605080 kJ/mol
# GULP energy per Si atom -5581.100318 kJ/mol
# Density = 2.139436 g / cm^3
# Si number density = 21.443167 Si / 1000 Ang^3
#
#
#
# Elastic Constant Matrix: (Units=GPa)
#
#
# Indices 1 2 3 4 5 6 
#
# 1 75.1518 18.8872 38.8942 2.2073 -8.2059 18.7031
# 2 18.8872 77.1996 15.1985 -1.9457 -9.0973 6.3044
# 3 38.8942 15.1985 98.3306 -19.0361 11.0712 -7.2280
# 4 2.2073 -1.9457 -19.0361 26.3216 2.2251 -5.8279
# 5 -8.2059 -9.0973 11.0712 2.2251 30.4142 -12.7136
# 6 18.7031 6.3044 -7.2280 -5.8279 -12.7136 42.5410
#
#
#
# Elastic Compliance Matrix: (Units=1/GPa)
#
#
# Indices 1 2 3 4 5 6 
#
# 1 0.026704 -0.001848 -0.015555 -0.017418 0.007649 -0.014210
# 2 -0.001848 0.014381 -0.002194 -0.000851 0.004466 -0.000473
# 3 -0.015555 -0.002194 0.022608 0.020743 -0.010070 0.010837
# 4 -0.017418 -0.000851 0.020743 0.058863 -0.009958 0.016397
# 5 0.007649 0.004466 -0.010070 -0.009958 0.043088 0.005777
# 6 -0.014210 -0.000473 0.010837 0.016397 0.005777 0.035638
#
#
# Mechanical properties :
#
#
# Convention : Reuss Voigt Hill
#
# Bulk Modulus (GPa) = 40.81866 44.07133 42.44500
# Shear Modulus (GPa) = 20.10904 31.70215 25.90560
#
# Velocity S-wave (km/s) = 3.06565 3.84920 3.47955
# Velocity P-wave (km/s) = 5.62210 6.35235 5.99835
#
# Compressibility (1/GPa) = 0.02449860
#
# Stress axis : x y z
#
# Youngs Moduli (GPa) = 37.44691 69.53586 44.23248
#
# Poissons Ratio (x) = 0.12852 0.68804
# Poissons Ratio (y) = 0.06921 0.09705
# Poissons Ratio (z) = 0.58249 0.15257
#
# Static dielectric constant tensor:
#      x y z
#    x 1.805070 0.019430 -0.014690 
#    y 0.019430 1.805980 -0.008140 
#    z -0.014690 -0.008140 1.748490 
# 
# From -- ./inp_files/47373.got.cif
#   From: 2010.05.17/outbox.cif.g08.bks.cpg/sg2_24_cif.got.tgz:47373.got - 2010.06.03 11:33:40.
