data_PCOD9016138
_publ_section_title
;
Structure prediction by ZEFSAII (Michael W. Deem and Ramdas Pophale) SiO2 
 PCOD9016138
Probable space group: P -1
;
_chemical_formula_sum "Si O2"
_cell_formula_units_Z 14
_cell_length_a 9.653182
_cell_length_b 10.257899
_cell_length_c 13.162105
_cell_angle_alpha 145.243093
_cell_angle_beta 57.851774
_cell_angle_gamma 112.802737
_cell_volume 625.766515
_symmetry_space_group_name_H-M "P -1"
_symmetry_group_IT_number 2
_symmetry_cell_setting 'triclinic'
loop_
_space_group_symop_operation_xyz
x,y,z
-x,-y,-z
loop_
_atom_site_type_symbol
_atom_site_label
_atom_site_fract_x
_atom_site_fract_y
_atom_site_fract_z
Si Si1 0.923349 0.801341 0.835356
Si Si2 0.838515 0.315033 0.523606
Si Si3 0.332679 0.793120 0.841981
Si Si4 0.818900 0.421473 0.040165
Si Si5 0.644744 0.693203 0.555895
Si Si6 0.527011 0.780067 0.422813
Si Si7 0.936093 0.971912 0.617006
O O1 0.874570 0.546742 0.719204
O O2 0.050669 0.732977 0.651043
O O3 0.752906 0.952048 0.971721
O O4 0.000000 0.000000 0.000000
O O5 0.646792 0.326582 0.580422
O O6 0.902678 0.087289 0.416187
O O7 0.226999 0.681668 0.898817
O O8 0.529252 0.797715 0.759854
O O9 0.332765 0.585171 0.625856
O O10 0.675155 0.621499 0.210519
O O11 0.000000 0.500000 0.000000
O O12 0.817660 0.200302 0.830003
O O13 0.579817 0.785198 0.526684
O O14 0.824510 0.768679 0.545732
O O15 0.500000 0.000000 0.500000
O O16 0.000000 0.000000 0.500000
#
# Coordination Sequence:
#
# PCOD9016138 Si02
#       7
#     2   2   2   2   2   2   2
#     4  11  23  41  71 102 147 182 229 294 358 425
#     4  11  25  44  69 107 140 186 233 289 363 415
#     4  10  21  42  66  96 136 176 231 283 351 411
#     4  11  24  43  70  95 133 187 228 281 356 425
#     4  10  23  41  70 103 134 182 234 292 347 420
#     4  11  24  46  69  99 145 178 231 295 356 416
#     4  12  24  45  69  98 138 183 240 285 346 431
#
# _framework density 22.372561999999999
#
# number of rings (size 3 to 8) (size 9 to 14) (size 15 to 20)
#    0.000    1.143    1.429    5.143    2.000    6.286 
#    2.571    1.429    0.000    0.000    0.000    0.000 
#    0.000    0.000    0.000    0.000    0.000    0.000 
#
# Total GULP energy -77943.799217 kJ/mol
# GULP energy per Si atom -5567.414230 kJ/mol
# Density = 2.232164 g / cm^3
# Si number density = 22.372562 Si / 1000 Ang^3
#
#
#
# Elastic Constant Matrix: (Units=GPa)
#
#
# Indices 1 2 3 4 5 6 
#
# 1 79.2583 12.0092 41.8172 -7.1185 -18.3685 8.4077
# 2 12.0092 75.0399 49.3835 -12.5437 -16.9264 1.3210
# 3 41.8172 49.3835 170.3392 -2.7035 -32.6771 2.3227
# 4 -7.1185 -12.5437 -2.7035 45.2134 4.3717 -7.1981
# 5 -18.3685 -16.9264 -32.6771 4.3717 44.3397 -2.5897
# 6 8.4077 1.3210 2.3227 -7.1981 -2.5897 31.4121
#
#
#
# Elastic Compliance Matrix: (Units=1/GPa)
#
#
# Indices 1 2 3 4 5 6 
#
# 1 0.015628 0.000873 -0.003238 0.001593 0.004072 -0.003279
# 2 0.000873 0.017752 -0.004667 0.004574 0.003288 0.000684
# 3 -0.003238 -0.004667 0.008646 -0.001563 0.003423 0.000348
# 4 0.001593 0.004574 -0.001563 0.024427 -0.000861 0.005023
# 5 0.004072 0.003288 0.003423 -0.000861 0.028140 0.000641
# 6 -0.003279 0.000684 0.000348 0.005023 0.000641 0.033862
#
#
# Mechanical properties :
#
#
# Convention : Reuss Voigt Hill
#
# Bulk Modulus (GPa) = 35.76436 59.00635 47.38536
# Shear Modulus (GPa) = 32.92940 38.95487 35.94214
#
# Velocity S-wave (km/s) = 3.84065 4.17728 4.01250
# Velocity P-wave (km/s) = 5.97394 7.04968 6.53399
#
# Compressibility (1/GPa) = 0.02796080
#
# Stress axis : x y z
#
# Youngs Moduli (GPa) = 63.98750 56.33166 115.66442
#
# Poissons Ratio (x) = -0.04916 0.37457
# Poissons Ratio (y) = -0.05584 0.53978
# Poissons Ratio (z) = 0.20722 0.26289
#
# Static dielectric constant tensor:
#      x y z
#    x 1.921500 0.008770 0.053690 
#    y 0.008770 1.902700 0.073740 
#    z 0.053690 0.073740 1.806280 
# 
# From -- ./inp_files/501067.got.cif
#   From: 2010.05.17/outbox.cif.g08.bks.cpg/sg2_251_cif.got.tgz:501067.got - 2010.06.03 11:33:40.
