data_PCOD9016002
_publ_section_title
;
Structure prediction by ZEFSAII (Michael W. Deem and Ramdas Pophale) SiO2 
 PCOD9016002
Probable space group: P -1
;
_chemical_formula_sum "Si O2"
_cell_formula_units_Z 15
_cell_length_a 12.130777
_cell_length_b 11.796318
_cell_length_c 11.360788
_cell_angle_alpha 38.693632
_cell_angle_beta 107.970655
_cell_angle_gamma 78.660039
_cell_volume 654.873139
_symmetry_space_group_name_H-M "P -1"
_symmetry_group_IT_number 2
_symmetry_cell_setting 'triclinic'
loop_
_space_group_symop_operation_xyz
x,y,z
-x,-y,-z
loop_
_atom_site_type_symbol
_atom_site_label
_atom_site_fract_x
_atom_site_fract_y
_atom_site_fract_z
Si Si1 0.807641 0.430179 0.696850
Si Si2 0.640146 0.522301 0.111595
Si Si3 0.500000 0.000000 0.500000
Si Si4 0.273404 0.810645 0.788943
Si Si5 0.825144 0.044375 0.113273
Si Si6 0.837626 0.516411 0.368949
Si Si7 0.837547 0.656786 0.736986
Si Si8 0.568405 0.089836 0.871508
O O1 0.842594 0.468271 0.548225
O O2 0.871566 0.487044 0.775160
O O3 0.599631 0.656787 0.458359
O O4 0.875113 0.148750 0.958469
O O5 0.764966 0.263117 0.278634
O O6 0.731407 0.489558 0.283848
O O7 0.567675 0.771708 0.807744
O O8 0.480281 0.580147 0.048928
O O9 0.679358 0.769070 0.672049
O O10 0.197868 0.833646 0.867773
O O11 0.213047 0.086197 0.534613
O O12 0.971032 0.723151 0.421380
O O13 0.649459 0.150857 0.930046
O O14 0.728161 0.826052 0.064164
O O15 0.000000 0.500000 0.000000
O O16 0.500000 0.000000 0.000000
#
# Coordination Sequence:
#
# PCOD9016002 Si02
#       8
#     2   2   1   2   2   2   2   2
#     4  11  24  46  66  99 138 181 231 282 344 419
#     4  10  22  42  69  94 137 178 227 285 337 426
#     4  10  22  46  64 104 130 182 230 284 348 412
#     4  10  22  41  65  97 130 178 227 276 349 408
#     4  12  24  40  70 102 135 174 229 287 348 413
#     4  11  24  41  66  98 140 176 225 281 350 407
#     4  11  25  44  72  97 140 180 232 294 347 417
#     4  10  21  42  66  89 130 177 220 270 338 412
#
# _framework density 22.905201000000002
#
# number of rings (size 3 to 8) (size 9 to 14) (size 15 to 20)
#    0.000    1.333    0.000    6.800    3.733    0.533 
#    2.400    1.333    0.000    0.000    0.000    0.000 
#    0.000    0.000    0.000    0.000    0.000    0.000 
#
# Total GULP energy -83605.213654 kJ/mol
# GULP energy per Si atom -5573.680910 kJ/mol
# Density = 2.285307 g / cm^3
# Si number density = 22.905201 Si / 1000 Ang^3
#
#
#
# Elastic Constant Matrix: (Units=GPa)
#
#
# Indices 1 2 3 4 5 6 
#
# 1 37.4138 38.4271 14.4885 4.4730 -2.5389 -10.6187
# 2 38.4271 151.3058 27.7938 6.8593 16.5550 4.8817
# 3 14.4885 27.7938 53.8138 -5.9906 9.2118 1.4217
# 4 4.4730 6.8593 -5.9906 28.7719 8.2331 -0.5721
# 5 -2.5389 16.5550 9.2118 8.2331 27.1521 2.8735
# 6 -10.6187 4.8817 1.4217 -0.5721 2.8735 38.2445
#
#
#
# Elastic Compliance Matrix: (Units=1/GPa)
#
#
# Indices 1 2 3 4 5 6 
#
# 1 0.051802 -0.012881 -0.012394 -0.012761 0.019200 0.014854
# 2 -0.012881 0.010900 -0.000592 0.001370 -0.007604 -0.004354
# 3 -0.012394 -0.000592 0.025661 0.010916 -0.012473 -0.003219
# 4 -0.012761 0.001370 0.010916 0.044045 -0.018871 -0.002047
# 5 0.019200 -0.007604 -0.012473 -0.018871 0.052949 0.002504
# 6 0.014854 -0.004354 -0.003219 -0.002047 0.002504 0.030728
#
#
# Mechanical properties :
#
#
# Convention : Reuss Voigt Hill
#
# Bulk Modulus (GPa) = 27.30143 44.88357 36.09250
# Shear Modulus (GPa) = 17.85535 29.62197 23.73866
#
# Velocity S-wave (km/s) = 2.79504 3.60007 3.22279
# Velocity P-wave (km/s) = 4.72880 6.07606 5.44427
#
# Compressibility (1/GPa) = 0.03662812
#
# Stress axis : x y z
#
# Youngs Moduli (GPa) = 19.30442 91.74631 38.97025
#
# Poissons Ratio (x) = 1.18177 0.48298
# Poissons Ratio (y) = 0.24866 0.02309
# Poissons Ratio (z) = 0.23925 0.05435
#
# Static dielectric constant tensor:
#      x y z
#    x 1.883170 -0.015240 -0.016380 
#    y -0.015240 1.877760 -0.007580 
#    z -0.016380 -0.007580 1.912660 
# 
# From -- ./inp_files/425072.got.cif
#   From: 2010.05.17/outbox.cif.g08.bks.cpg/sg2_213_cif.got.tgz:425072.got - 2010.06.03 11:33:40.
