data_PCOD9016323
_publ_section_title
;
Structure prediction by ZEFSAII (Michael W. Deem and Ramdas Pophale) SiO2 
 PCOD9016323
Probable space group: P -1
;
_chemical_formula_sum "Si O2"
_cell_formula_units_Z 14
_cell_length_a 15.509034
_cell_length_b 14.186092
_cell_length_c 15.548520
_cell_angle_alpha 151.878639
_cell_angle_beta 152.929870
_cell_angle_gamma 27.634568
_cell_volume 648.081301
_symmetry_space_group_name_H-M "P -1"
_symmetry_group_IT_number 2
_symmetry_cell_setting 'triclinic'
loop_
_space_group_symop_operation_xyz
x,y,z
-x,-y,-z
loop_
_atom_site_type_symbol
_atom_site_label
_atom_site_fract_x
_atom_site_fract_y
_atom_site_fract_z
Si Si1 0.831594 0.164206 0.552307
Si Si2 0.008826 0.174647 0.080191
Si Si3 0.438362 0.397793 0.946741
Si Si4 0.471823 0.535764 0.264352
Si Si5 0.530933 0.935065 0.574440
Si Si6 0.351458 0.374578 0.335154
Si Si7 0.993707 0.215657 0.912310
O O1 0.592687 0.186351 0.370023
O O2 0.759942 0.424162 0.670685
O O3 0.956866 0.102902 0.704532
O O4 0.000000 0.000000 0.500000
O O5 0.802394 0.413318 0.097744
O O6 0.215000 0.208441 0.305043
O O7 0.026728 0.087429 0.928730
O O8 0.000000 0.000000 0.000000
O O9 0.458596 0.158983 0.746253
O O10 0.500000 0.500000 0.000000
O O11 0.555999 0.384487 0.131620
O O12 0.612735 0.508797 0.452466
O O13 0.241248 0.560395 0.107070
O O14 0.425127 0.783480 0.387552
O O15 0.500000 0.000000 0.500000
O O16 0.190011 0.271792 0.123118
#
# Coordination Sequence:
#
# PCOD9016323 Si02
#       7
#     2   2   2   2   2   2   2
#     4  10  23  42  67 101 128 165 219 266 333 403
#     4  11  22  40  65  94 132 177 220 268 327 382
#     4  11  22  40  61  90 128 175 224 271 322 383
#     4  10  22  42  63  95 132 171 220 273 326 388
#     4  12  22  40  63  89 132 174 221 275 321 382
#     4  10  21  44  68  91 135 169 206 278 333 381
#     4  10  21  42  67  93 133 173 213 270 326 387
#
# _framework density 21.602226999999999
#
# number of rings (size 3 to 8) (size 9 to 14) (size 15 to 20)
#    0.000    1.429    4.286    1.286    0.000    2.286 
#   10.286    0.000    0.000    0.000    0.000    0.000 
#    0.000    0.000    0.000    0.000    0.000    0.000 
#
# Total GULP energy -78115.371400 kJ/mol
# GULP energy per Si atom -5579.669386 kJ/mol
# Density = 2.155306 g / cm^3
# Si number density = 21.602227 Si / 1000 Ang^3
#
#
#
# Elastic Constant Matrix: (Units=GPa)
#
#
# Indices 1 2 3 4 5 6 
#
# 1 137.5668 36.3281 57.1919 -11.6208 -14.4324 -9.6988
# 2 36.3281 72.8067 36.7552 -7.2285 -0.5144 -24.4189
# 3 57.1919 36.7552 99.4108 -11.7468 -0.9609 -22.4315
# 4 -11.6208 -7.2285 -11.7468 41.6372 -6.1441 -1.2490
# 5 -14.4324 -0.5144 -0.9609 -6.1441 56.2754 -4.1732
# 6 -9.6988 -24.4189 -22.4315 -1.2490 -4.1732 41.2868
#
#
#
# Elastic Compliance Matrix: (Units=1/GPa)
#
#
# Indices 1 2 3 4 5 6 
#
# 1 0.010464 -0.003124 -0.005113 0.001258 0.002566 -0.001870
# 2 -0.003124 0.020407 -0.003333 0.002058 0.000266 0.009614
# 3 -0.005113 -0.003333 0.015754 0.002544 -0.000393 0.005424
# 4 0.001258 0.002058 0.002544 0.026086 0.003533 0.004041
# 5 0.002566 0.000266 -0.000393 0.003533 0.019000 0.002574
# 6 -0.001870 0.009614 0.005424 0.004041 0.002574 0.032797
#
#
# Mechanical properties :
#
#
# Convention : Reuss Voigt Hill
#
# Bulk Modulus (GPa) = 42.58092 63.37052 52.97572
# Shear Modulus (GPa) = 32.15941 39.80715 35.98328
#
# Velocity S-wave (km/s) = 3.86256 4.29736 4.08575
# Velocity P-wave (km/s) = 6.29656 7.34996 6.84356
#
# Compressibility (1/GPa) = 0.02348469
#
# Stress axis : x y z
#
# Youngs Moduli (GPa) = 95.56943 49.00293 63.47615
#
# Poissons Ratio (x) = 0.15308 0.32458
# Poissons Ratio (y) = 0.29854 0.21155
# Poissons Ratio (z) = 0.48868 0.16331
#
# Static dielectric constant tensor:
#      x y z
#    x 1.923680 -0.001060 0.010330 
#    y -0.001060 1.785490 -0.040250 
#    z 0.010330 -0.040250 1.825670 
# 
# From -- ./inp_files/534183.got.cif
#   From: 2010.05.17/outbox.cif.g08.bks.cpg/sg2_268_cif.got.tgz:534183.got - 2010.06.03 11:33:40.
