data_PCOD9016337
_publ_section_title
;
Structure prediction by ZEFSAII (Michael W. Deem and Ramdas Pophale) SiO2 
 PCOD9016337
Probable space group: P -1
;
_chemical_formula_sum "Si O2"
_cell_formula_units_Z 16
_cell_length_a 9.394449
_cell_length_b 11.889412
_cell_length_c 22.026809
_cell_angle_alpha 149.406257
_cell_angle_beta 144.929683
_cell_angle_gamma 48.064944
_cell_volume 713.918814
_symmetry_space_group_name_H-M "P -1"
_symmetry_group_IT_number 2
_symmetry_cell_setting 'triclinic'
loop_
_space_group_symop_operation_xyz
x,y,z
-x,-y,-z
loop_
_atom_site_type_symbol
_atom_site_label
_atom_site_fract_x
_atom_site_fract_y
_atom_site_fract_z
Si Si1 0.402458 0.560593 0.661949
Si Si2 0.224667 0.106091 0.671720
Si Si3 0.375715 0.005437 0.025533
Si Si4 0.173947 0.575775 0.715838
Si Si5 0.670772 0.957480 0.597385
Si Si6 0.335040 0.669325 0.550939
Si Si7 0.816186 0.827293 0.171370
Si Si8 0.414697 0.620652 0.160044
O O1 0.198306 0.583034 0.654633
O O2 0.411603 0.299404 0.534568
O O3 0.356832 0.655768 0.624398
O O4 0.640803 0.736073 0.847401
O O5 0.145117 0.164557 0.739020
O O6 0.390821 0.314260 0.796272
O O7 0.392379 0.908366 0.651811
O O8 0.000000 0.000000 0.500000
O O9 0.559959 0.909579 0.094552
O O10 0.145638 0.815632 0.847017
O O11 0.500000 0.000000 0.000000
O O12 0.433128 0.491726 0.786874
O O13 0.959623 0.407430 0.592680
O O14 0.500000 0.000000 0.500000
O O15 0.645059 0.144221 0.725755
O O16 0.958035 0.007824 0.701082
O O17 0.500000 0.500000 0.500000
O O18 0.802037 0.570847 0.024994
#
# Coordination Sequence:
#
# PCOD9016337 Si02
#       8
#     2   2   2   2   2   2   2   2
#     4  11  22  41  68  95 130 170 224 275 326 393
#     4  12  23  44  69  95 135 184 225 267 334 407
#     4   9  21  39  68  95 127 170 218 271 332 395
#     4  10  21  42  67  94 127 175 218 268 337 390
#     4  12  24  40  65 103 135 170 223 282 333 388
#     4  12  25  41  64  98 132 172 224 278 329 390
#     4  11  24  42  69  97 131 175 227 270 333 401
#     4  11  23  44  64  95 137 175 215 274 330 399
#
# _framework density 22.411511000000001
#
# number of rings (size 3 to 8) (size 9 to 14) (size 15 to 20)
#    0.000    1.000    3.750    3.375    3.500    0.000 
#    0.000    0.625    0.000    0.000    0.000    0.000 
#    0.000    0.000    0.000    0.000    0.000    0.000 
#
# Total GULP energy -89275.382624 kJ/mol
# GULP energy per Si atom -5579.711414 kJ/mol
# Density = 2.236050 g / cm^3
# Si number density = 22.411511 Si / 1000 Ang^3
#
#
#
# Elastic Constant Matrix: (Units=GPa)
#
#
# Indices 1 2 3 4 5 6 
#
# 1 63.8922 20.2064 13.2356 -3.3494 -19.7873 17.0570
# 2 20.2064 79.0654 42.9543 17.3272 -12.4086 22.8863
# 3 13.2356 42.9543 129.4140 35.3601 -31.5087 8.2257
# 4 -3.3494 17.3272 35.3601 45.0925 2.1839 -3.3400
# 5 -19.7873 -12.4086 -31.5087 2.1839 26.5667 8.7249
# 6 17.0570 22.8863 8.2257 -3.3400 8.7249 36.1115
#
#
#
# Elastic Compliance Matrix: (Units=1/GPa)
#
#
# Indices 1 2 3 4 5 6 
#
# 1 0.064358 0.019593 0.037528 -0.045192 0.134200 -0.087969
# 2 0.019593 0.030993 0.014974 -0.029163 0.065955 -0.050940
# 3 0.037528 0.014974 0.044484 -0.048544 0.114523 -0.069509
# 4 -0.045192 -0.029163 -0.048544 0.081845 -0.142054 0.092778
# 5 0.134200 0.065955 0.114523 -0.142054 0.394648 -0.239765
# 6 -0.087969 -0.050940 -0.069509 0.092778 -0.239765 0.183871
#
#
# Mechanical properties :
#
#
# Convention : Reuss Voigt Hill
#
# Bulk Modulus (GPa) = 3.52082 47.24047 25.38065
# Shear Modulus (GPa) = 6.66059 34.61916 20.63987
#
# Velocity S-wave (km/s) = 1.72580 3.93454 3.03801
# Velocity P-wave (km/s) = 2.35491 6.46260 4.86368
#
# Compressibility (1/GPa) = 0.28402440
#
# Stress axis : x y z
#
# Youngs Moduli (GPa) = 15.53816 32.26531 22.47991
#
# Poissons Ratio (x) = -0.63217 -0.84363
# Poissons Ratio (y) = -0.30444 -0.33660
# Poissons Ratio (z) = -0.58312 -0.48313
#
# Static dielectric constant tensor:
#      x y z
#    x 1.800290 -0.027370 -0.013420 
#    y -0.027370 1.865160 0.008430 
#    z -0.013420 0.008430 1.949520 
# 
# From -- ./inp_files/392855.got.cif
#   From: 2010.05.17/outbox.cif.g08.bks.cpg/sg2_197_cif.got.tgz:392855.got - 2010.06.03 11:33:40.
