data_PCOD9016361
_publ_section_title
;
Structure prediction by ZEFSAII (Michael W. Deem and Ramdas Pophale) SiO2 
 PCOD9016361
Probable space group: P -1
;
_chemical_formula_sum "Si O2"
_cell_formula_units_Z 14
_cell_length_a 11.699199
_cell_length_b 10.806984
_cell_length_c 7.727195
_cell_angle_alpha 74.241531
_cell_angle_beta 116.651033
_cell_angle_gamma 141.808818
_cell_volume 534.047254
_symmetry_space_group_name_H-M "P -1"
_symmetry_group_IT_number 2
_symmetry_cell_setting 'triclinic'
loop_
_space_group_symop_operation_xyz
x,y,z
-x,-y,-z
loop_
_atom_site_type_symbol
_atom_site_label
_atom_site_fract_x
_atom_site_fract_y
_atom_site_fract_z
Si Si1 0.807761 0.484495 0.952790
Si Si2 0.224714 0.838545 0.992020
Si Si3 0.148157 0.872707 0.559602
Si Si4 0.242049 0.390023 0.444036
Si Si5 0.307267 0.220298 0.308907
Si Si6 0.391292 0.837060 0.640543
Si Si7 0.520790 0.363127 0.100119
O O1 0.805346 0.330394 0.029736
O O2 0.767129 0.487888 0.722654
O O3 0.636038 0.412835 0.981756
O O4 0.038030 0.711767 0.046389
O O5 0.443604 0.016587 0.152197
O O6 0.210562 0.920103 0.786101
O O7 0.189766 0.761222 0.565250
O O8 0.918486 0.738896 0.462847
O O9 0.275100 0.069118 0.457858
O O10 0.188526 0.238897 0.322373
O O11 0.464915 0.546437 0.608868
O O12 0.299545 0.177448 0.117408
O O13 0.370544 0.667097 0.693958
O O14 0.500000 0.000000 0.500000
O O15 0.500000 0.500000 0.000000
#
# Coordination Sequence:
#
# PCOD9016361 Si02
#       7
#     2   2   2   2   2   2   2
#     4  10  21  42  67  95 127 173 225 273 336 404
#     4  10  23  41  69  96 127 172 224 281 334 395
#     4  11  22  41  66  97 125 171 230 276 327 394
#     4  10  23  40  66  94 130 176 221 277 331 402
#     4  11  23  41  65  96 136 174 222 274 340 399
#     4  12  25  42  66 100 136 173 224 283 334 397
#     4  12  25  43  63  94 140 179 215 273 345 403
#
# _framework density 26.214908000000001
#
# number of rings (size 3 to 8) (size 9 to 14) (size 15 to 20)
#    0.000    1.143    4.286    1.714    2.000    1.143 
#    0.000    2.143    0.000    0.000    0.000    0.000 
#    0.000    0.000    0.000    0.000    0.000    0.000 
#
# Total GULP energy -78043.809011 kJ/mol
# GULP energy per Si atom -5574.557786 kJ/mol
# Density = 2.615524 g / cm^3
# Si number density = 26.214908 Si / 1000 Ang^3
#
#
#
# Elastic Constant Matrix: (Units=GPa)
#
#
# Indices 1 2 3 4 5 6 
#
# 1 178.8955 47.6787 9.4665 -17.0020 6.8986 11.5823
# 2 47.6787 96.6475 40.8952 -19.8906 -3.2254 11.6967
# 3 9.4665 40.8952 113.9482 -49.7369 3.1109 0.0519
# 4 -17.0020 -19.8906 -49.7369 39.9488 3.1189 2.1997
# 5 6.8986 -3.2254 3.1109 3.1189 41.1166 -15.4719
# 6 11.5823 11.6967 0.0519 2.1997 -15.4719 25.6983
#
#
#
# Elastic Compliance Matrix: (Units=1/GPa)
#
#
# Indices 1 2 3 4 5 6 
#
# 1 0.007375 -0.003356 0.003502 0.006408 -0.004055 -0.004793
# 2 -0.003356 0.014738 -0.005084 -0.000160 0.000220 -0.005039
# 3 0.003502 -0.005084 0.022868 0.028319 -0.007133 -0.006029
# 4 0.006408 -0.000160 0.028319 0.065032 -0.014660 -0.017265
# 5 -0.004055 0.000220 -0.007133 -0.014660 0.035941 0.024635
# 6 -0.004793 -0.005039 -0.006029 -0.017265 0.024635 0.059689
#
#
# Mechanical properties :
#
#
# Convention : Reuss Voigt Hill
#
# Bulk Modulus (GPa) = 28.48706 65.06356 46.77531
# Shear Modulus (GPa) = 22.00497 40.78280 31.39388
#
# Velocity S-wave (km/s) = 2.90039 3.94853 3.46433
# Velocity P-wave (km/s) = 4.70178 6.75729 5.82098
#
# Compressibility (1/GPa) = 0.03510366
#
# Stress axis : x y z
#
# Youngs Moduli (GPa) = 135.59710 67.85075 43.72936
#
# Poissons Ratio (x) = 0.22773 -0.15313
# Poissons Ratio (y) = 0.45511 0.22232
# Poissons Ratio (z) = -0.47482 0.34495
#
# Static dielectric constant tensor:
#      x y z
#    x 2.300550 -0.098830 -0.161590 
#    y -0.098830 2.159390 0.163010 
#    z -0.161590 0.163010 2.214210 
# 
# From -- ./inp_files/255785.got.cif
#   From: 2010.05.17/outbox.cif.g08.bks.cpg/sg2_128_cif.got.tgz:255785.got - 2010.06.03 11:33:40.
