data_PCOD9016497
_publ_section_title
;
Structure prediction by ZEFSAII (Michael W. Deem and Ramdas Pophale) SiO2 
 PCOD9016497
Probable space group: P -1
;
_chemical_formula_sum "Si O2"
_cell_formula_units_Z 14
_cell_length_a 17.296789
_cell_length_b 8.098048
_cell_length_c 11.985599
_cell_angle_alpha 138.361916
_cell_angle_beta 144.371491
_cell_angle_gamma 65.852508
_cell_volume 557.945955
_symmetry_space_group_name_H-M "P -1"
_symmetry_group_IT_number 2
_symmetry_cell_setting 'triclinic'
loop_
_space_group_symop_operation_xyz
x,y,z
-x,-y,-z
loop_
_atom_site_type_symbol
_atom_site_label
_atom_site_fract_x
_atom_site_fract_y
_atom_site_fract_z
Si Si1 0.151031 0.298494 0.288972
Si Si2 0.279414 0.230028 0.012734
Si Si3 0.133032 0.896533 0.887972
Si Si4 0.203451 0.257432 0.565856
Si Si5 0.580239 0.227996 0.410735
Si Si6 0.802369 0.142300 0.478920
Si Si7 0.602304 0.200578 0.821444
O O1 0.256718 0.345180 0.544551
O O2 0.123502 0.556331 0.351183
O O3 0.199989 0.201056 0.186299
O O4 0.000000 0.000000 0.000000
O O5 0.457102 0.305720 0.255936
O O6 0.294326 0.514608 0.231235
O O7 0.181696 0.977224 0.858715
O O8 0.208939 0.091585 0.741733
O O9 0.949662 0.715820 0.595073
O O10 0.232639 0.771523 0.991526
O O11 0.138649 0.934703 0.376733
O O12 0.345016 0.472523 0.919571
O O13 0.650799 0.132335 0.346474
O O14 0.479956 0.972688 0.250614
O O15 0.500000 0.000000 0.500000
#
# Coordination Sequence:
#
# PCOD9016497 Si02
#       7
#     2   2   2   2   2   2   2
#     4  10  23  45  70 103 148 191 235 305 365 426
#     4  10  21  42  68 102 141 194 242 292 369 430
#     4  10  22  45  72  99 148 192 239 308 361 426
#     4  11  26  45  72 111 142 192 249 297 370 435
#     4  10  22  41  66 101 149 191 236 299 364 435
#     4  12  24  43  72 107 142 191 245 300 365 441
#     4  11  24  44  69 106 149 193 242 303 362 433
#
# _framework density 25.092034000000002
#
# number of rings (size 3 to 8) (size 9 to 14) (size 15 to 20)
#    0.000    1.429    1.429    3.429    2.000    4.571 
#    2.571    0.000    0.000    0.000    0.000    0.000 
#    0.000    0.000    0.000    0.000    0.000    0.000 
#
# Total GULP energy -78048.907224 kJ/mol
# GULP energy per Si atom -5574.921945 kJ/mol
# Density = 2.503492 g / cm^3
# Si number density = 25.092034 Si / 1000 Ang^3
#
#
#
# Elastic Constant Matrix: (Units=GPa)
#
#
# Indices 1 2 3 4 5 6 
#
# 1 93.5859 5.6291 23.1379 -9.7268 -14.0262 11.7879
# 2 5.6291 90.6224 24.8816 10.6832 -5.8413 32.2292
# 3 23.1379 24.8816 106.5625 3.2144 -28.3108 16.3015
# 4 -9.7268 10.6832 3.2144 27.4103 -0.2509 5.0105
# 5 -14.0262 -5.8413 -28.3108 -0.2509 34.6411 -4.3860
# 6 11.7879 32.2292 16.3015 5.0105 -4.3860 35.6743
#
#
#
# Elastic Compliance Matrix: (Units=1/GPa)
#
#
# Indices 1 2 3 4 5 6 
#
# 1 0.012641 0.000862 -0.001466 0.005191 0.003523 -0.004582
# 2 0.000862 0.016987 -0.001911 -0.003480 -0.000183 -0.014292
# 3 -0.001466 -0.001911 0.013060 -0.000765 0.009437 -0.002489
# 4 0.005191 -0.003480 -0.000765 0.040476 0.000699 -0.003821
# 5 0.003523 -0.000183 0.009437 0.000699 0.037885 -0.000751
# 6 -0.004582 -0.014292 -0.002489 -0.003821 -0.000751 0.044039
#
#
# Mechanical properties :
#
#
# Convention : Reuss Voigt Hill
#
# Bulk Modulus (GPa) = 26.55467 44.22977 35.39222
# Shear Modulus (GPa) = 27.37187 35.35330 31.36258
#
# Velocity S-wave (km/s) = 3.30640 3.75766 3.53923
# Velocity P-wave (km/s) = 5.01819 6.04086 5.55312
#
# Compressibility (1/GPa) = 0.03765816
#
# Stress axis : x y z
#
# Youngs Moduli (GPa) = 79.11021 58.86772 76.57252
#
# Poissons Ratio (x) = -0.05073 0.11222
# Poissons Ratio (y) = -0.06817 0.14632
# Poissons Ratio (z) = 0.11594 0.11248
#
# Static dielectric constant tensor:
#      x y z
#    x 2.015370 -0.026700 -0.088270 
#    y -0.026700 2.068530 0.025460 
#    z -0.088270 0.025460 2.143880 
# 
# From -- ./inp_files/462600.got.cif
#   From: 2010.05.17/outbox.cif.g08.bks.cpg/sg2_232_cif.got.tgz:462600.got - 2010.06.03 11:33:40.
