data_PCOD9016368
_publ_section_title
;
Structure prediction by ZEFSAII (Michael W. Deem and Ramdas Pophale) SiO2 
 PCOD9016368
Probable space group: P -1
;
_chemical_formula_sum "Si O2"
_cell_formula_units_Z 16
_cell_length_a 12.138222
_cell_length_b 17.572637
_cell_length_c 19.145813
_cell_angle_alpha 156.365524
_cell_angle_beta 27.055576
_cell_angle_gamma 139.277573
_cell_volume 706.032771
_symmetry_space_group_name_H-M "P -1"
_symmetry_group_IT_number 2
_symmetry_cell_setting 'triclinic'
loop_
_space_group_symop_operation_xyz
x,y,z
-x,-y,-z
loop_
_atom_site_type_symbol
_atom_site_label
_atom_site_fract_x
_atom_site_fract_y
_atom_site_fract_z
Si Si1 0.746131 0.259713 0.357471
Si Si2 0.945739 0.549782 0.750525
Si Si3 0.767616 0.906841 0.809874
Si Si4 0.207681 0.583648 0.917188
Si Si5 0.008444 0.040394 0.407881
Si Si6 0.977270 0.459841 0.816120
Si Si7 0.518674 0.329379 0.986510
Si Si8 0.209840 0.120590 0.067301
O O1 0.935873 0.294248 0.219937
O O2 0.488124 0.440798 0.654426
O O3 0.910985 0.229255 0.309572
O O4 0.697970 0.057461 0.190677
O O5 0.146693 0.332993 0.438787
O O6 0.917988 0.557799 0.855906
O O7 0.684019 0.572160 0.876601
O O8 0.754799 0.963600 0.945541
O O9 0.970477 0.956004 0.684965
O O10 0.500000 0.000000 0.000000
O O11 0.144955 0.558842 0.850188
O O12 0.000000 0.500000 0.000000
O O13 0.150604 0.816388 0.163525
O O14 0.114625 0.218765 0.524820
O O15 0.720536 0.125011 0.669540
O O16 0.707250 0.460572 0.003307
O O17 0.363963 0.272912 0.089448
#
# Coordination Sequence:
#
# PCOD9016368 Si02
#       8
#     2   2   2   2   2   2   2   2
#     4  10  24  42  65  95 136 174 223 273 336 403
#     4  10  21  42  67  95 131 178 222 271 344 393
#     4  11  24  39  65 101 131 171 226 273 334 403
#     4  12  25  42  66 100 132 177 233 267 334 406
#     4   9  23  44  63 100 133 172 220 276 333 393
#     4   9  23  39  67  98 131 178 211 286 332 385
#     4   9  20  44  69  92 136 177 221 273 337 400
#     4  10  23  43  68  95 134 180 215 282 335 391
#
# _framework density 22.661837999999999
#
# number of rings (size 3 to 8) (size 9 to 14) (size 15 to 20)
#    0.750    1.250    0.000    1.875    5.250    6.000 
#    0.000    0.625    0.000    0.000    0.000    0.000 
#    0.000    0.000    0.000    0.000    0.000    0.000 
#
# Total GULP energy -89383.774566 kJ/mol
# GULP energy per Si atom -5586.485910 kJ/mol
# Density = 2.261026 g / cm^3
# Si number density = 22.661838 Si / 1000 Ang^3
#
#
#
# Elastic Constant Matrix: (Units=GPa)
#
#
# Indices 1 2 3 4 5 6 
#
# 1 130.9702 16.7037 50.2614 -7.1944 -24.3657 -4.6696
# 2 16.7037 51.0341 -7.3233 -2.5046 -2.9838 -4.5561
# 3 50.2614 -7.3233 90.5241 9.1795 -26.9584 6.4969
# 4 -7.1944 -2.5046 9.1795 39.2984 -0.7367 3.8555
# 5 -24.3657 -2.9838 -26.9584 -0.7367 31.2771 0.4328
# 6 -4.6696 -4.5561 6.4969 3.8555 0.4328 25.8335
#
#
#
# Elastic Compliance Matrix: (Units=1/GPa)
#
#
# Indices 1 2 3 4 5 6 
#
# 1 0.011371 -0.004058 -0.006177 0.003092 0.003187 0.002378
# 2 -0.004058 0.021946 0.004871 -0.000616 0.003089 0.001952
# 3 -0.006177 0.004871 0.019327 -0.004651 0.012266 -0.004629
# 4 0.003092 -0.000616 -0.004651 0.027280 -0.000982 -0.002435
# 5 0.003187 0.003089 0.012266 -0.000982 0.045334 -0.002577
# 6 0.002378 0.001952 -0.004629 -0.002435 -0.002577 0.041054
#
#
# Mechanical properties :
#
#
# Convention : Reuss Voigt Hill
#
# Bulk Modulus (GPa) = 23.85686 43.53467 33.69577
# Shear Modulus (GPa) = 26.17624 33.47424 29.82524
#
# Velocity S-wave (km/s) = 3.40233 3.84750 3.63174
# Velocity P-wave (km/s) = 5.09752 6.24419 5.69976
#
# Compressibility (1/GPa) = 0.04191666
#
# Stress axis : x y z
#
# Youngs Moduli (GPa) = 87.94435 45.56539 51.74127
#
# Poissons Ratio (x) = 0.18489 0.31959
# Poissons Ratio (y) = 0.35685 -0.25201
# Poissons Ratio (z) = 0.54321 -0.22193
#
# Static dielectric constant tensor:
#      x y z
#    x 1.885250 -0.014450 0.026050 
#    y -0.014450 1.850990 -0.019490 
#    z 0.026050 -0.019490 1.833640 
# 
# From -- ./inp_files/569962.got.cif
#   From: 2010.05.17/outbox.cif.g08.bks.cpg/sg2_285_cif.got.tgz:569962.got - 2010.06.03 11:33:40.
