data_PCOD9016240
_publ_section_title
;
Structure prediction by ZEFSAII (Michael W. Deem and Ramdas Pophale) SiO2 
 PCOD9016240
Probable space group: P -1
;
_chemical_formula_sum "Si O2"
_cell_formula_units_Z 12
_cell_length_a 8.309777
_cell_length_b 5.154700
_cell_length_c 16.238167
_cell_angle_alpha 105.290832
_cell_angle_beta 45.269405
_cell_angle_gamma 119.357818
_cell_volume 426.947357
_symmetry_space_group_name_H-M "P -1"
_symmetry_group_IT_number 2
_symmetry_cell_setting 'triclinic'
loop_
_space_group_symop_operation_xyz
x,y,z
-x,-y,-z
loop_
_atom_site_type_symbol
_atom_site_label
_atom_site_fract_x
_atom_site_fract_y
_atom_site_fract_z
Si Si1 0.654729 0.460030 0.577538
Si Si2 0.058255 0.111943 0.886473
Si Si3 0.331847 0.816261 0.682847
Si Si4 0.165568 0.736773 0.171244
Si Si5 0.158091 0.570735 0.306961
Si Si6 0.630588 0.536943 0.063897
O O1 0.512470 0.662998 0.624613
O O2 0.727747 0.461411 0.646788
O O3 0.897865 0.552973 0.440943
O O4 0.468747 0.106758 0.601260
O O5 0.210310 0.419608 0.906183
O O6 0.000807 0.165116 0.818583
O O7 0.235052 0.941658 0.805241
O O8 0.794015 0.877389 0.999580
O O9 0.056272 0.568105 0.729542
O O10 0.267687 0.880637 0.234858
O O11 0.329846 0.665761 0.037993
O O12 0.342659 0.451115 0.177531
#
# Coordination Sequence:
#
# PCOD9016240 Si02
#       6
#     2   2   2   2   2   2
#     4  11  26  49  72 100 139 196 228 278 348 422
#     4  10  21  42  72 103 133 188 231 284 344 420
#     4  11  22  49  73  99 137 185 242 273 341 421
#     4  11  23  42  73 107 139 177 235 298 344 398
#     4  11  25  45  66 108 143 182 229 294 347 410
#     4  10  21  42  67 103 139 188 225 286 347 421
#
# _framework density 28.106511999999999
#
# number of rings (size 3 to 8) (size 9 to 14) (size 15 to 20)
#    0.000    1.333    3.333    1.000    0.000    7.333 
#   15.000    0.000    0.000    0.000    0.000    0.000 
#    0.000    0.000    0.000    0.000    0.000    0.000 
#
# Total GULP energy -66857.943647 kJ/mol
# GULP energy per Si atom -5571.495304 kJ/mol
# Density = 2.804254 g / cm^3
# Si number density = 28.106512 Si / 1000 Ang^3
#
#
#
# Elastic Constant Matrix: (Units=GPa)
#
#
# Indices 1 2 3 4 5 6 
#
# 1 173.7747 62.8520 129.6182 34.4417 -22.4900 -34.3439
# 2 62.8520 84.2429 89.0727 35.0666 -15.0108 -34.3013
# 3 129.6182 89.0727 242.0934 16.0045 -8.6376 -20.6974
# 4 34.4417 35.0666 16.0045 -14.9341 -5.7440 9.5705
# 5 -22.4900 -15.0108 -8.6376 -5.7440 76.8234 6.7830
# 6 -34.3439 -34.3013 -20.6974 9.5705 6.7830 39.6236
#
#
#
# Elastic Compliance Matrix: (Units=1/GPa)
#
#
# Indices 1 2 3 4 5 6 
#
# 1 0.009385 -0.005223 -0.003368 0.005291 0.001719 0.000282
# 2 -0.005223 0.013099 -0.002895 0.015700 0.001773 0.001205
# 3 -0.003368 -0.002895 0.007371 -0.006135 -0.001191 0.000111
# 4 0.005291 0.015700 -0.006135 -0.013448 0.001333 0.017993
# 5 0.001719 0.001773 -0.001191 0.001333 0.013858 -0.000292
# 6 0.000282 0.001205 0.000111 0.017993 -0.000292 0.022287
#
#
# Mechanical properties :
#
#
# Convention : Reuss Voigt Hill
#
# Bulk Modulus (GPa) = 145.24527 118.13299 131.68913
# Shear Modulus (GPa) = 64.25363 34.87380 49.56372
#
# Velocity S-wave (km/s) = 4.78648 3.52628 4.20387
# Velocity P-wave (km/s) = 9.07392 7.66168 8.39754
#
# Compressibility (1/GPa) = 0.00688491
#
# Stress axis : x y z
#
# Youngs Moduli (GPa) = 106.55447 76.34278 135.66177
#
# Poissons Ratio (x) = 0.39871 0.45684
# Poissons Ratio (y) = 0.55650 0.39272
# Poissons Ratio (z) = 0.35882 0.22100
#
# Static dielectric constant tensor:
#      x y z
#    x 2.684770 -0.005120 0.050700 
#    y -0.005120 2.506800 -0.039830 
#    z 0.050700 -0.039830 2.102280 
# 
# From -- ./inp_files/552652.got.cif
#   From: 2010.05.17/outbox.cif.g08.bks.cpg/sg2_277_cif.got.tgz:552652.got - 2010.06.03 11:33:40.
