data_PCOD9016468
_publ_section_title
;
Structure prediction by ZEFSAII (Michael W. Deem and Ramdas Pophale) SiO2 
 PCOD9016468
Probable space group: P -1
;
_chemical_formula_sum "Si O2"
_cell_formula_units_Z 14
_cell_length_a 7.865252
_cell_length_b 12.142099
_cell_length_c 9.193480
_cell_angle_alpha 115.867961
_cell_angle_beta 97.884787
_cell_angle_gamma 48.270497
_cell_volume 574.028409
_symmetry_space_group_name_H-M "P -1"
_symmetry_group_IT_number 2
_symmetry_cell_setting 'triclinic'
loop_
_space_group_symop_operation_xyz
x,y,z
-x,-y,-z
loop_
_atom_site_type_symbol
_atom_site_label
_atom_site_fract_x
_atom_site_fract_y
_atom_site_fract_z
Si Si1 0.245485 0.421439 0.053779
Si Si2 0.262663 0.604924 0.913069
Si Si3 0.863446 0.918844 0.443428
Si Si4 0.502198 0.911663 0.260390
Si Si5 0.650962 0.440449 0.630540
Si Si6 0.966300 0.972415 0.178207
Si Si7 0.851423 0.875658 0.867988
O O1 0.300116 0.508495 0.003706
O O2 0.415503 0.228949 0.924166
O O3 0.276016 0.459889 0.241619
O O4 0.000000 0.500000 0.000000
O O5 0.465665 0.485503 0.754448
O O6 0.022342 0.690827 0.846213
O O7 0.192042 0.777440 0.053610
O O8 0.724575 0.869177 0.331075
O O9 0.106297 0.751679 0.441779
O O10 0.911471 0.982406 0.347005
O O11 0.670959 0.057232 0.617630
O O12 0.339541 0.078287 0.239769
O O13 0.500000 0.500000 0.500000
O O14 0.003106 0.089697 0.185615
O O15 0.776789 0.990500 0.067739
#
# Coordination Sequence:
#
# PCOD9016468 Si02
#       7
#     2   2   2   2   2   2   2
#     4  12  24  46  71 104 136 183 229 277 351 410
#     4  10  21  42  68 100 140 176 227 280 345 401
#     4  11  24  44  66  98 137 183 224 279 347 401
#     4  11  24  43  68  97 138 178 226 281 340 411
#     4  12  24  43  71 100 139 182 226 284 343 399
#     4   9  19  40  65 101 128 175 229 273 334 408
#     4   9  20  39  65  98 130 174 226 277 328 406
#
# _framework density 24.389036000000001
#
# number of rings (size 3 to 8) (size 9 to 14) (size 15 to 20)
#    0.857    0.571    2.857    2.143    2.000    1.143 
#    2.571    0.714    0.000    0.000    0.000    0.000 
#    0.000    0.000    0.000    0.000    0.000    0.000 
#
# Total GULP energy -78121.981131 kJ/mol
# GULP energy per Si atom -5580.141509 kJ/mol
# Density = 2.433353 g / cm^3
# Si number density = 24.389036 Si / 1000 Ang^3
#
#
#
# Elastic Constant Matrix: (Units=GPa)
#
#
# Indices 1 2 3 4 5 6 
#
# 1 69.8080 23.0218 40.3427 -5.1835 7.2978 -25.5454
# 2 23.0218 124.5316 56.2030 -19.5697 8.3257 -29.6506
# 3 40.3427 56.2030 154.2073 -18.2998 9.8563 -21.0981
# 4 -5.1835 -19.5697 -18.2998 52.2580 -1.7494 11.6418
# 5 7.2978 8.3257 9.8563 -1.7494 36.8152 -8.7084
# 6 -25.5454 -29.6506 -21.0981 11.6418 -8.7084 34.2816
#
#
#
# Elastic Compliance Matrix: (Units=1/GPa)
#
#
# Indices 1 2 3 4 5 6 
#
# 1 0.021940 0.001236 -0.004346 -0.002347 0.000106 0.015567
# 2 0.001236 0.011460 -0.003185 0.001429 0.000072 0.008406
# 3 -0.004346 -0.003185 0.008866 0.001757 -0.001039 -0.001397
# 4 -0.002347 0.001429 0.001757 0.021582 -0.000960 -0.007005
# 5 0.000106 0.000072 -0.001039 -0.000960 0.029064 0.007211
# 6 0.015567 0.008406 -0.001397 -0.007005 0.007211 0.051391
#
#
# Mechanical properties :
#
#
# Convention : Reuss Voigt Hill
#
# Bulk Modulus (GPa) = 33.69631 65.29801 49.49716
# Shear Modulus (GPa) = 29.97855 39.93626 34.95741
#
# Velocity S-wave (km/s) = 3.50977 4.05095 3.79003
# Velocity P-wave (km/s) = 5.50189 6.97939 6.28422
#
# Compressibility (1/GPa) = 0.02967684
#
# Stress axis : x y z
#
# Youngs Moduli (GPa) = 45.57833 87.25817 112.78589
#
# Poissons Ratio (x) = -0.10784 0.49014
# Poissons Ratio (y) = -0.05633 0.35924
# Poissons Ratio (z) = 0.19807 0.27793
#
# Static dielectric constant tensor:
#      x y z
#    x 1.722380 0.206730 0.067050 
#    y 0.206730 1.718510 -0.027950 
#    z 0.067050 -0.027950 1.998530 
# 
# From -- ./inp_files/207750.got.cif
#   From: 2010.05.17/outbox.cif.g08.bks.cpg/sg2_104_cif.got.tgz:207750.got - 2010.06.03 11:33:40.
