data_PCOD9016251
_publ_section_title
;
Structure prediction by ZEFSAII (Michael W. Deem and Ramdas Pophale) SiO2 
 PCOD9016251
Probable space group: P -1
;
_chemical_formula_sum "Si O2"
_cell_formula_units_Z 16
_cell_length_a 5.133729
_cell_length_b 15.784882
_cell_length_c 23.745563
_cell_angle_alpha 21.059121
_cell_angle_beta 94.528542
_cell_angle_gamma 95.386679
_cell_volume 688.180461
_symmetry_space_group_name_H-M "P -1"
_symmetry_group_IT_number 2
_symmetry_cell_setting 'triclinic'
loop_
_space_group_symop_operation_xyz
x,y,z
-x,-y,-z
loop_
_atom_site_type_symbol
_atom_site_label
_atom_site_fract_x
_atom_site_fract_y
_atom_site_fract_z
Si Si1 0.286652 0.135017 0.375896
Si Si2 0.047890 0.730769 0.320006
Si Si3 0.184097 0.194600 0.556461
Si Si4 0.129262 0.273910 0.167359
Si Si5 0.483054 0.177095 0.804842
Si Si6 0.929268 0.651523 0.656124
Si Si7 0.302131 0.905254 0.321731
Si Si8 0.781743 0.795565 0.102098
O O1 0.293361 0.262155 0.235815
O O2 0.205579 0.336479 0.293231
O O3 0.500000 0.000000 0.500000
O O4 0.096239 0.902673 0.504520
O O5 0.199500 0.911439 0.253186
O O6 0.421389 0.202965 0.598618
O O7 0.000000 0.500000 0.500000
O O8 0.770035 0.816576 0.242723
O O9 0.697402 0.840165 0.807413
O O10 0.115334 0.919733 0.710565
O O11 0.241406 0.323865 0.418572
O O12 0.910834 0.249062 0.548065
O O13 0.000000 0.500000 0.000000
O O14 0.744775 0.304369 0.704511
O O15 0.379743 0.274753 0.801245
O O16 0.580983 0.919275 0.980980
O O17 0.089550 0.422144 0.790098
O O18 0.000000 0.000000 0.000000
#
# Coordination Sequence:
#
# PCOD9016251 Si02
#       8
#     2   2   2   2   2   2   2   2
#     4  10  21  42  67 106 136 178 247 300 363 438
#     4  12  26  45  71 104 143 191 241 302 361 436
#     4   9  21  41  66  95 130 176 235 279 354 423
#     4   9  21  40  64  99 134 181 223 288 362 435
#     4  11  26  48  69 104 148 182 257 296 360 448
#     4  10  23  41  70 101 137 186 237 309 358 432
#     4  10  22  41  62  96 135 179 223 283 349 421
#     4  11  25  48  72 104 144 199 241 308 371 433
#
# _framework density 23.249715999999999
#
# number of rings (size 3 to 8) (size 9 to 14) (size 15 to 20)
#    0.750    1.000    1.250    1.875    1.750    4.500 
#    2.250    0.000    0.000    0.000    0.000    0.000 
#    0.000    0.000    0.000    0.000    0.000    0.000 
#
# Total GULP energy -89249.803870 kJ/mol
# GULP energy per Si atom -5578.112742 kJ/mol
# Density = 2.319680 g / cm^3
# Si number density = 23.249716 Si / 1000 Ang^3
#
#
#
# Elastic Constant Matrix: (Units=GPa)
#
#
# Indices 1 2 3 4 5 6 
#
# 1 102.1178 21.7796 34.5585 14.1389 18.8919 6.9761
# 2 21.7796 100.4569 74.0270 1.4249 3.7009 -12.0453
# 3 34.5585 74.0270 143.9699 4.4567 44.3419 2.4470
# 4 14.1389 1.4249 4.4567 46.3523 3.9889 16.6352
# 5 18.8919 3.7009 44.3419 3.9889 36.3806 8.3324
# 6 6.9761 -12.0453 2.4470 16.6352 8.3324 34.9913
#
#
#
# Elastic Compliance Matrix: (Units=1/GPa)
#
#
# Indices 1 2 3 4 5 6 
#
# 1 0.011744 -0.002772 0.000578 -0.002835 -0.006087 -0.000539
# 2 -0.002772 0.023235 -0.017077 -0.002092 0.018678 0.006292
# 3 0.000578 -0.017077 0.024120 0.000968 -0.027714 -0.001541
# 4 -0.002835 -0.002092 0.000968 0.027116 0.000567 -0.013249
# 5 -0.006087 0.018678 -0.027714 0.000567 0.063812 -0.005884
# 6 -0.000539 0.006292 -0.001541 -0.013249 -0.005884 0.038660
#
#
# Mechanical properties :
#
#
# Convention : Reuss Voigt Hill
#
# Bulk Modulus (GPa) = 48.64481 67.47498 58.05990
# Shear Modulus (GPa) = 21.36010 37.95681 29.65845
#
# Velocity S-wave (km/s) = 3.03434 4.04489 3.57550
# Velocity P-wave (km/s) = 5.76580 7.13440 6.48630
#
# Compressibility (1/GPa) = 0.02055718
#
# Stress axis : x y z
#
# Youngs Moduli (GPa) = 85.15248 43.03764 41.45973
#
# Poissons Ratio (x) = 0.11931 -0.02396
# Poissons Ratio (y) = 0.23605 0.70800
# Poissons Ratio (z) = -0.04922 0.73494
#
# Static dielectric constant tensor:
#      x y z
#    x 1.933310 0.010140 -0.033380 
#    y 0.010140 1.962910 0.003970 
#    z -0.033380 0.003970 1.951630 
# 
# From -- ./inp_files/615782.got.cif
#   From: 2010.05.17/outbox.cif.g08.bks.cpg/sg2_308_cif.got.tgz:615782.got - 2010.06.03 11:33:40.
