data_PCOD9016440
_publ_section_title
;
Structure prediction by ZEFSAII (Michael W. Deem and Ramdas Pophale) SiO2 
 PCOD9016440
Probable space group: P -1
;
_chemical_formula_sum "Si O2"
_cell_formula_units_Z 16
_cell_length_a 16.010375
_cell_length_b 16.386662
_cell_length_c 13.276046
_cell_angle_alpha 34.376417
_cell_angle_beta 54.096363
_cell_angle_gamma 26.511378
_cell_volume 699.890568
_symmetry_space_group_name_H-M "P -1"
_symmetry_group_IT_number 2
_symmetry_cell_setting 'triclinic'
loop_
_space_group_symop_operation_xyz
x,y,z
-x,-y,-z
loop_
_atom_site_type_symbol
_atom_site_label
_atom_site_fract_x
_atom_site_fract_y
_atom_site_fract_z
Si Si1 0.390292 0.023851 0.630274
Si Si2 0.847538 0.877231 0.468133
Si Si3 0.023540 0.002278 0.819967
Si Si4 0.487739 0.455665 0.442380
Si Si5 0.558689 0.220714 0.979120
Si Si6 0.249977 0.128920 0.239537
Si Si7 0.932593 0.314777 0.760933
Si Si8 0.391644 0.109107 0.855777
O O1 0.265548 0.063759 0.606033
O O2 0.213853 0.353644 0.479391
O O3 0.500000 0.000000 0.500000
O O4 0.538978 0.750087 0.888107
O O5 0.757737 0.924745 0.587919
O O6 0.820870 0.084200 0.267786
O O7 0.125353 0.496413 0.654788
O O8 0.779330 0.260615 0.679149
O O9 0.951078 0.195710 0.768885
O O10 0.148917 0.700969 0.081606
O O11 0.500000 0.500000 0.500000
O O12 0.661975 0.104772 0.660154
O O13 0.560477 0.487024 0.278345
O O14 0.597363 0.067243 0.012843
O O15 0.810106 0.959191 0.107677
O O16 0.445615 0.005274 0.218369
O O17 0.000000 0.500000 0.000000
O O18 0.500000 0.000000 0.000000
#
# Coordination Sequence:
#
# PCOD9016440 Si02
#       8
#     2   2   2   2   2   2   2   2
#     4  12  25  41  66 105 146 181 231 300 353 424
#     4  12  24  43  72 105 142 188 239 292 358 425
#     4  10  22  41  70  97 134 189 231 284 351 425
#     4  11  26  46  72 102 142 189 237 295 362 427
#     4  11  23  43  68  98 136 190 238 285 355 434
#     4  12  27  45  71 109 140 182 247 296 352 432
#     4  10  21  42  67  98 134 184 237 274 351 428
#     4  12  23  44  73  98 143 194 239 294 362 422
#
# _framework density 22.860717999999999
#
# number of rings (size 3 to 8) (size 9 to 14) (size 15 to 20)
#    0.000    0.750    5.000    2.625    1.750    1.000 
#    0.000    3.750    0.000    0.000    0.000    0.000 
#    0.000    0.000    0.000    0.000    0.000    0.000 
#
# Total GULP energy -89532.296421 kJ/mol
# GULP energy per Si atom -5595.768526 kJ/mol
# Density = 2.280869 g / cm^3
# Si number density = 22.860718 Si / 1000 Ang^3
#
#
#
# Elastic Constant Matrix: (Units=GPa)
#
#
# Indices 1 2 3 4 5 6 
#
# 1 162.1108 28.8425 46.9533 12.6058 9.4941 14.0304
# 2 28.8425 67.8891 20.2479 31.5275 4.5887 -8.6503
# 3 46.9533 20.2479 97.8746 22.1640 -10.1875 1.1815
# 4 12.6058 31.5275 22.1640 47.1907 -0.5132 -8.7169
# 5 9.4941 4.5887 -10.1875 -0.5132 41.2420 12.1799
# 6 14.0304 -8.6503 1.1815 -8.7169 12.1799 34.7077
#
#
#
# Elastic Compliance Matrix: (Units=1/GPa)
#
#
# Indices 1 2 3 4 5 6 
#
# 1 0.008030 -0.003129 -0.003546 0.001014 -0.001434 -0.003147
# 2 -0.003129 0.023500 -0.000721 -0.013637 -0.003728 0.005029
# 3 -0.003546 -0.000721 0.013842 -0.005446 0.004932 -0.002316
# 4 0.001014 -0.013637 -0.005446 0.033539 -0.001184 0.005216
# 5 -0.001434 -0.003728 0.004932 -0.001184 0.029493 -0.011165
# 6 -0.003147 0.005029 -0.002316 0.005216 -0.011165 0.036645
#
#
# Mechanical properties :
#
#
# Convention : Reuss Voigt Hill
#
# Bulk Modulus (GPa) = 32.70052 57.77353 45.23703
# Shear Modulus (GPa) = 29.40602 40.08348 34.74475
#
# Velocity S-wave (km/s) = 3.59041 4.19188 3.90275
# Velocity P-wave (km/s) = 5.61457 6.98255 6.33559
#
# Compressibility (1/GPa) = 0.03058055
#
# Stress axis : x y z
#
# Youngs Moduli (GPa) = 124.53601 42.55310 72.24392
#
# Poissons Ratio (x) = 0.13314 0.25616
# Poissons Ratio (y) = 0.38964 0.05210
# Poissons Ratio (z) = 0.44157 0.03069
#
# Static dielectric constant tensor:
#      x y z
#    x 1.818100 -0.014860 -0.029340 
#    y -0.014860 1.917750 0.070250 
#    z -0.029340 0.070250 1.892010 
# 
# From -- ./inp_files/455474.got.cif
#   From: 2010.05.17/outbox.cif.g08.bks.cpg/sg2_228_cif.got.tgz:455474.got - 2010.06.03 11:33:40.
