data_PCOD9016122
_publ_section_title
;
Structure prediction by ZEFSAII (Michael W. Deem and Ramdas Pophale) SiO2 
 PCOD9016122
Probable space group: P -1
;
_chemical_formula_sum "Si O2"
_cell_formula_units_Z 16
_cell_length_a 9.235541
_cell_length_b 11.919217
_cell_length_c 17.449499
_cell_angle_alpha 137.421947
_cell_angle_beta 36.729999
_cell_angle_gamma 115.091497
_cell_volume 708.738498
_symmetry_space_group_name_H-M "P -1"
_symmetry_group_IT_number 2
_symmetry_cell_setting 'triclinic'
loop_
_space_group_symop_operation_xyz
x,y,z
-x,-y,-z
loop_
_atom_site_type_symbol
_atom_site_label
_atom_site_fract_x
_atom_site_fract_y
_atom_site_fract_z
Si Si1 0.371770 0.706036 0.779345
Si Si2 0.560887 0.109495 0.756784
Si Si3 0.350737 0.073848 0.021485
Si Si4 0.787800 0.199890 0.839037
Si Si5 0.860422 0.717393 0.500545
Si Si6 0.021887 0.341125 0.187752
Si Si7 0.284602 0.499339 0.860363
Si Si8 0.723989 0.143879 0.537653
O O1 0.677100 0.662791 0.609216
O O2 0.238087 0.668183 0.741640
O O3 0.309965 0.606863 0.828228
O O4 0.262858 0.920073 0.950844
O O5 0.753542 0.194139 0.758757
O O6 0.577823 0.129248 0.669487
O O7 0.674818 0.896614 0.622636
O O8 0.262803 0.218694 0.968428
O O9 0.102491 0.259159 0.198087
O O10 0.589144 0.105001 0.895050
O O11 0.500000 0.000000 0.000000
O O12 0.677679 0.389587 0.025752
O O13 0.080740 0.061736 0.672627
O O14 0.994884 0.544995 0.302583
O O15 0.073428 0.765955 0.479954
O O16 0.501788 0.292793 0.655594
O O17 0.000000 0.500000 0.000000
#
# Coordination Sequence:
#
# PCOD9016122 Si02
#       8
#     2   2   2   2   2   2   2   2
#     4  12  24  44  67  99 142 170 223 282 324 403
#     4  10  22  41  69  97 132 176 224 276 323 404
#     4  11  21  41  72  99 129 179 223 271 331 393
#     4  10  21  42  66  96 129 168 230 278 320 396
#     4  11  23  41  69 101 128 171 233 271 330 396
#     4  11  24  42  67 100 138 175 215 277 345 383
#     4  12  28  44  63  96 138 178 221 274 338 403
#     4  11  23  42  68  96 130 180 227 275 331 391
#
# _framework density 22.575320999999999
#
# number of rings (size 3 to 8) (size 9 to 14) (size 15 to 20)
#    0.000    1.000    5.000    4.500    0.000    7.000 
#    0.000    0.000    0.000    0.000    0.000    0.000 
#    0.000    0.000    0.000    0.000    0.000    0.000 
#
# Total GULP energy -89270.912348 kJ/mol
# GULP energy per Si atom -5579.432022 kJ/mol
# Density = 2.252394 g / cm^3
# Si number density = 22.575321 Si / 1000 Ang^3
#
#
#
# Elastic Constant Matrix: (Units=GPa)
#
#
# Indices 1 2 3 4 5 6 
#
# 1 42.0099 13.6570 -11.3829 9.2216 5.6035 2.9070
# 2 13.6570 96.0719 2.3558 -10.3900 -8.3402 -4.1404
# 3 -11.3829 2.3558 48.5317 11.0543 -13.8562 -6.8886
# 4 9.2216 -10.3900 11.0543 36.7386 7.1627 -1.1550
# 5 5.6035 -8.3402 -13.8562 7.1627 20.2669 -3.3971
# 6 2.9070 -4.1404 -6.8886 -1.1550 -3.3971 22.8277
#
#
#
# Elastic Compliance Matrix: (Units=1/GPa)
#
#
# Indices 1 2 3 4 5 6 
#
# 1 0.031642 -0.006281 0.010141 -0.012790 -0.000351 -0.002808
# 2 -0.006281 0.012423 -0.001141 0.004560 0.005077 0.003695
# 3 0.010141 -0.001141 0.039302 -0.020741 0.033319 0.014270
# 4 -0.012790 0.004560 -0.020741 0.042612 -0.024720 -0.005326
# 5 -0.000351 0.005077 0.033319 -0.024720 0.086848 0.022694
# 6 -0.002808 0.003695 0.014270 -0.005326 0.022694 0.052248
#
#
# Mechanical properties :
#
#
# Convention : Reuss Voigt Hill
#
# Bulk Modulus (GPa) = 11.26070 21.76371 16.51220
# Shear Modulus (GPa) = 17.28672 28.09888 22.69280
#
# Velocity S-wave (km/s) = 2.77019 3.53182 3.17393
# Velocity P-wave (km/s) = 3.90267 5.12768 4.55653
#
# Compressibility (1/GPa) = 0.08880440
#
# Stress axis : x y z
#
# Youngs Moduli (GPa) = 31.60318 80.49673 25.44421
#
# Poissons Ratio (x) = 0.50564 -0.25803
# Poissons Ratio (y) = 0.19851 0.02903
# Poissons Ratio (z) = -0.32049 0.09184
#
# Static dielectric constant tensor:
#      x y z
#    x 2.046910 -0.130980 0.092470 
#    y -0.130980 1.892800 -0.063180 
#    z 0.092470 -0.063180 1.939180 
# 
# From -- ./inp_files/595123.got.cif
#   From: 2010.05.17/outbox.cif.g08.bks.cpg/sg2_298_cif.got.tgz:595123.got - 2010.06.03 11:33:40.
