data_PCOD9016439
_publ_section_title
;
Structure prediction by ZEFSAII (Michael W. Deem and Ramdas Pophale) SiO2 
 PCOD9016439
Probable space group: P -1
;
_chemical_formula_sum "Si O2"
_cell_formula_units_Z 16
_cell_length_a 8.508716
_cell_length_b 6.732014
_cell_length_c 15.140682
_cell_angle_alpha 61.669771
_cell_angle_beta 87.841570
_cell_angle_gamma 112.875264
_cell_volume 676.458498
_symmetry_space_group_name_H-M "P -1"
_symmetry_group_IT_number 2
_symmetry_cell_setting 'triclinic'
loop_
_space_group_symop_operation_xyz
x,y,z
-x,-y,-z
loop_
_atom_site_type_symbol
_atom_site_label
_atom_site_fract_x
_atom_site_fract_y
_atom_site_fract_z
Si Si1 0.454868 0.948617 0.788791
Si Si2 0.243951 0.234404 0.682221
Si Si3 0.251922 0.063935 0.310264
Si Si4 0.300530 0.777822 0.532513
Si Si5 0.062600 0.916027 0.155470
Si Si6 0.334832 0.775409 0.104216
Si Si7 0.987752 0.141803 0.383741
Si Si8 0.819700 0.520653 0.993919
O O1 0.375564 0.112672 0.708460
O O2 0.582592 0.151256 0.815703
O O3 0.546304 0.834409 0.744175
O O4 0.310938 0.701053 0.893340
O O5 0.317214 0.521196 0.589060
O O6 0.109735 0.065140 0.645274
O O7 0.142186 0.195238 0.787153
O O8 0.153101 0.955195 0.242462
O O9 0.188281 0.256813 0.316237
O O10 0.232322 0.847837 0.427994
O O11 0.141226 0.737513 0.613936
O O12 0.500000 0.000000 0.500000
O O13 0.131557 0.189699 0.050302
O O14 0.144530 0.775451 0.123136
O O15 0.275740 0.540919 0.087400
O O16 0.500000 0.000000 0.000000
O O17 0.000000 0.000000 0.500000
O O18 0.000000 0.500000 0.000000
#
# Coordination Sequence:
#
# PCOD9016439 Si02
#       8
#     2   2   2   2   2   2   2   2
#     4  10  21  42  67  98 133 174 218 269 328 386
#     4  11  23  42  66  96 135 172 218 275 329 386
#     4   9  21  40  64  91 128 167 215 268 319 382
#     4  11  24  42  64  97 129 174 221 272 330 391
#     4  10  22  41  65  94 126 170 216 269 324 384
#     4   9  22  41  63  93 129 171 219 262 323 388
#     4   9  21  41  65  93 127 171 220 267 328 389
#     4  11  22  42  67  96 131 170 215 271 325 384
#
# _framework density 23.652598000000001
#
# number of rings (size 3 to 8) (size 9 to 14) (size 15 to 20)
#    0.000    2.000    1.250    0.750    0.000   14.500 
#    2.250    8.750    0.000    0.000    0.000    0.000 
#    0.000    0.000    0.000    0.000    0.000    0.000 
#
# Total GULP energy -89148.161631 kJ/mol
# GULP energy per Si atom -5571.760102 kJ/mol
# Density = 2.359876 g / cm^3
# Si number density = 23.652598 Si / 1000 Ang^3
#
#
#
# Elastic Constant Matrix: (Units=GPa)
#
#
# Indices 1 2 3 4 5 6 
#
# 1 105.8493 11.5734 35.9682 6.1541 -14.6479 -24.0711
# 2 11.5734 37.9813 21.6450 -7.3946 -2.3369 -4.6246
# 3 35.9682 21.6450 79.9943 -0.4697 -8.2255 -14.4468
# 4 6.1541 -7.3946 -0.4697 27.0308 -9.8298 -3.8496
# 5 -14.6479 -2.3369 -8.2255 -9.8298 41.5030 6.7775
# 6 -24.0711 -4.6246 -14.4468 -3.8496 6.7775 28.2144
#
#
#
# Elastic Compliance Matrix: (Units=1/GPa)
#
#
# Indices 1 2 3 4 5 6 
#
# 1 0.013163 -0.000863 -0.003963 -0.001336 0.002129 0.008366
# 2 -0.000863 0.033530 -0.008138 0.010219 0.002151 0.001471
# 3 -0.003963 -0.008138 0.017280 -0.000142 0.000898 0.003898
# 4 -0.001336 0.010219 -0.000142 0.044276 0.009888 0.004128
# 5 0.002129 0.002151 0.000898 0.009888 0.027933 -0.002732
# 6 0.008366 0.001471 0.003898 0.004128 -0.002732 0.046037
#
#
# Mechanical properties :
#
#
# Convention : Reuss Voigt Hill
#
# Bulk Modulus (GPa) = 26.28424 40.24424 33.26424
# Shear Modulus (GPa) = 22.64186 29.65885 26.15036
#
# Velocity S-wave (km/s) = 3.09733 3.54494 3.32867
# Velocity P-wave (km/s) = 4.89163 5.81439 5.37285
#
# Compressibility (1/GPa) = 0.03804562
#
# Stress axis : x y z
#
# Youngs Moduli (GPa) = 75.96909 29.82370 57.86927
#
# Poissons Ratio (x) = 0.02574 0.22935
# Poissons Ratio (y) = 0.06556 0.47094
# Poissons Ratio (z) = 0.30108 0.24270
#
# Static dielectric constant tensor:
#      x y z
#    x 2.046820 -0.037850 -0.037040 
#    y -0.037850 1.880280 0.003070 
#    z -0.037040 0.003070 1.928730 
# 
# From -- ./inp_files/488157.got.cif
#   From: 2010.05.17/outbox.cif.g08.bks.cpg/sg2_245_cif.got.tgz:488157.got - 2010.06.03 11:33:40.
