data_PCOD9016599
_publ_section_title
;
Structure prediction by ZEFSAII (Michael W. Deem and Ramdas Pophale) SiO2 
 PCOD9016599
Probable space group: P -1
;
_chemical_formula_sum "Si O2"
_cell_formula_units_Z 16
_cell_length_a 17.953264
_cell_length_b 8.538507
_cell_length_c 21.540119
_cell_angle_alpha 34.890140
_cell_angle_beta 20.449307
_cell_angle_gamma 37.835094
_cell_volume 656.156049
_symmetry_space_group_name_H-M "P -1"
_symmetry_group_IT_number 2
_symmetry_cell_setting 'triclinic'
loop_
_space_group_symop_operation_xyz
x,y,z
-x,-y,-z
loop_
_atom_site_type_symbol
_atom_site_label
_atom_site_fract_x
_atom_site_fract_y
_atom_site_fract_z
Si Si1 0.092727 0.527861 0.484953
Si Si2 0.524755 0.631709 0.255764
Si Si3 0.994136 0.508772 0.926954
Si Si4 0.683864 0.987113 0.809556
Si Si5 0.707169 0.430374 0.905854
Si Si6 0.984089 0.908064 0.150414
Si Si7 0.712487 0.570610 0.382830
Si Si8 0.398197 0.116014 0.448895
O O1 0.132963 0.842671 0.362644
O O2 0.304074 0.316518 0.401835
O O3 0.000000 0.500000 0.500000
O O4 0.912824 0.444502 0.698130
O O5 0.381898 0.850705 0.255225
O O6 0.435323 0.613805 0.400907
O O7 0.504164 0.327873 0.342660
O O8 0.768059 0.685855 0.035283
O O9 0.180562 0.582842 0.711283
O O10 0.000000 0.500000 0.000000
O O11 0.986067 0.188026 0.020018
O O12 0.720476 0.674224 0.864668
O O13 0.500000 0.000000 0.000000
O O14 0.782166 0.164538 0.976387
O O15 0.500000 0.500000 0.000000
O O16 0.895580 0.670185 0.254259
O O17 0.803876 0.966807 0.326264
O O18 0.561696 0.851387 0.392937
#
# Coordination Sequence:
#
# PCOD9016599 Si02
#       8
#     2   2   2   2   2   2   2   2
#     4  10  22  43  68 101 138 184 232 293 349 421
#     4  10  22  44  65  98 136 170 231 283 338 420
#     4  12  26  39  64 103 138 170 224 286 350 411
#     4  11  25  44  70  98 142 186 233 291 351 415
#     4  11  25  43  67 101 138 186 237 283 351 417
#     4  10  21  42  68  95 130 174 233 282 337 427
#     4  11  21  42  73  95 128 185 220 281 355 415
#     4   9  18  40  70  94 129 174 225 283 344 413
#
# _framework density 24.384442
#
# number of rings (size 3 to 8) (size 9 to 14) (size 15 to 20)
#    0.000    1.500    2.500    3.000    3.500    2.500 
#    0.000    0.000    0.000    0.000    0.000    0.000 
#    0.000    0.000    0.000    0.000    0.000    0.000 
#
# Total GULP energy -89434.834029 kJ/mol
# GULP energy per Si atom -5589.677127 kJ/mol
# Density = 2.432894 g / cm^3
# Si number density = 24.384442 Si / 1000 Ang^3
#
#
#
# Elastic Constant Matrix: (Units=GPa)
#
#
# Indices 1 2 3 4 5 6 
#
# 1 105.5562 30.1033 35.6203 29.5725 -0.7867 8.4331
# 2 30.1033 55.8867 27.1250 11.8778 -1.7808 4.1712
# 3 35.6203 27.1250 89.3205 22.6409 15.5672 -3.9841
# 4 29.5725 11.8778 22.6409 36.7034 3.9665 1.1827
# 5 -0.7867 -1.7808 15.5672 3.9665 49.7991 11.6582
# 6 8.4331 4.1712 -3.9841 1.1827 11.6582 11.6065
#
#
#
# Elastic Compliance Matrix: (Units=1/GPa)
#
#
# Indices 1 2 3 4 5 6 
#
# 1 0.016071 -0.002503 -0.005431 -0.008937 0.006956 -0.018718
# 2 -0.002503 0.025207 -0.008524 -0.001150 0.007806 -0.017891
# 3 -0.005431 -0.008524 0.020745 -0.005155 -0.012938 0.027652
# 4 -0.008937 -0.001150 -0.005155 0.038147 -0.002487 0.003748
# 5 0.006956 0.007806 -0.012938 -0.002487 0.035998 -0.048206
# 6 -0.018718 -0.017891 0.027652 0.003748 -0.048206 0.163720
#
#
# Mechanical properties :
#
#
# Convention : Reuss Voigt Hill
#
# Bulk Modulus (GPa) = 34.35410 48.49563 41.42486
# Shear Modulus (GPa) = 14.59832 30.14947 22.37389
#
# Velocity S-wave (km/s) = 2.44944 3.52009 3.03239
# Velocity P-wave (km/s) = 4.70306 6.03759 5.41162
#
# Compressibility (1/GPa) = 0.02910861
#
# Stress axis : x y z
#
# Youngs Moduli (GPa) = 62.22329 39.67151 48.20395
#
# Poissons Ratio (x) = 0.09928 0.26179
# Poissons Ratio (y) = 0.15572 0.41089
# Poissons Ratio (z) = 0.33793 0.33816
#
# Static dielectric constant tensor:
#      x y z
#    x 2.059240 0.000610 0.017650 
#    y 0.000610 2.011450 -0.013470 
#    z 0.017650 -0.013470 1.996120 
# 
# From -- ./inp_files/599698.got.cif
#   From: 2010.05.17/outbox.cif.g08.bks.cpg/sg2_300_cif.got.tgz:599698.got - 2010.06.03 11:33:40.
