data_PCOD9016199
_publ_section_title
;
Structure prediction by ZEFSAII (Michael W. Deem and Ramdas Pophale) SiO2 
 PCOD9016199
Probable space group: P -1
;
_chemical_formula_sum "Si O2"
_cell_formula_units_Z 16
_cell_length_a 12.142545
_cell_length_b 5.393875
_cell_length_c 12.772931
_cell_angle_alpha 97.748805
_cell_angle_beta 106.113061
_cell_angle_gamma 50.344438
_cell_volume 617.755598
_symmetry_space_group_name_H-M "P -1"
_symmetry_group_IT_number 2
_symmetry_cell_setting 'triclinic'
loop_
_space_group_symop_operation_xyz
x,y,z
-x,-y,-z
loop_
_atom_site_type_symbol
_atom_site_label
_atom_site_fract_x
_atom_site_fract_y
_atom_site_fract_z
Si Si1 0.821859 0.829867 0.829733
Si Si2 0.058612 0.858488 0.392190
Si Si3 0.940437 0.490116 0.263454
Si Si4 0.318074 0.822478 0.410855
Si Si5 0.339379 0.629345 0.002188
Si Si6 0.593855 0.802219 0.826669
Si Si7 0.609961 0.284882 0.365366
Si Si8 0.307321 0.480044 0.773469
O O1 0.996527 0.604676 0.843402
O O2 0.754866 0.647706 0.817837
O O3 0.759123 0.992447 0.707723
O O4 0.755230 0.081734 0.922183
O O5 0.008123 0.648674 0.338334
O O6 0.233502 0.677683 0.410866
O O7 0.986565 0.171959 0.317684
O O8 0.000000 0.000000 0.500000
O O9 0.765916 0.694166 0.245077
O O10 0.489708 0.619107 0.414774
O O11 0.305030 0.971954 0.531373
O O12 0.378346 0.321337 0.055665
O O13 0.500000 0.500000 0.000000
O O14 0.255604 0.697908 0.875520
O O15 0.506360 0.716388 0.732722
O O16 0.483148 0.187435 0.809892
O O17 0.707670 0.327746 0.321004
#
# Coordination Sequence:
#
# PCOD9016199 Si02
#       8
#     2   2   2   2   2   2   2   2
#     4  11  24  46  68 101 140 190 239 282 364 432
#     4  11  24  47  71  99 145 197 243 279 361 433
#     4  11  28  45  71 103 147 190 233 302 354 429
#     4  10  21  42  66  99 138 184 224 296 346 433
#     4  12  23  44  71 101 135 185 239 299 360 417
#     4  12  22  41  71  98 137 180 235 296 352 428
#     4  11  22  40  65 102 138 171 237 290 360 409
#     4  12  26  43  68 105 138 181 244 297 354 422
#
# _framework density 25.900210000000001
#
# number of rings (size 3 to 8) (size 9 to 14) (size 15 to 20)
#    0.000    0.750    5.000    2.250    5.250    1.000 
#    2.250    0.625    0.000    0.000    0.000    0.000 
#    0.000    0.000    0.000    0.000    0.000    0.000 
#
# Total GULP energy -89295.120462 kJ/mol
# GULP energy per Si atom -5580.945029 kJ/mol
# Density = 2.584126 g / cm^3
# Si number density = 25.900210 Si / 1000 Ang^3
#
#
#
# Elastic Constant Matrix: (Units=GPa)
#
#
# Indices 1 2 3 4 5 6 
#
# 1 204.5299 15.2778 61.6074 14.2834 -30.9156 15.7059
# 2 15.2778 53.7185 22.2292 16.9099 -7.6562 6.0356
# 3 61.6074 22.2292 149.8996 11.1540 -38.2983 12.8613
# 4 14.2834 16.9099 11.1540 36.7293 1.8762 -1.2608
# 5 -30.9156 -7.6562 -38.2983 1.8762 46.2638 0.6798
# 6 15.7059 6.0356 12.8613 -1.2608 0.6798 32.4750
#
#
#
# Elastic Compliance Matrix: (Units=1/GPa)
#
#
# Indices 1 2 3 4 5 6 
#
# 1 0.006118 0.000309 -0.001352 -0.002363 0.003155 -0.002639
# 2 0.000309 0.023547 -0.001603 -0.010793 0.003279 -0.004379
# 3 -0.001352 -0.001603 0.009671 -0.002136 0.006969 -0.003107
# 4 -0.002363 -0.010793 -0.002136 0.034287 -0.006604 0.005464
# 5 0.003155 0.003279 0.006969 -0.006604 0.030388 -0.005788
# 6 -0.002639 -0.004379 -0.003107 0.005464 -0.005788 0.034447
#
#
# Mechanical properties :
#
#
# Convention : Reuss Voigt Hill
#
# Bulk Modulus (GPa) = 29.37259 67.37518 48.37388
# Shear Modulus (GPa) = 32.23797 43.69585 37.96691
#
# Velocity S-wave (km/s) = 3.53186 4.11187 3.83285
# Velocity P-wave (km/s) = 5.29125 6.97231 6.18912
#
# Compressibility (1/GPa) = 0.03404535
#
# Stress axis : x y z
#
# Youngs Moduli (GPa) = 163.45512 42.46755 103.40725
#
# Poissons Ratio (x) = -0.01314 0.13981
# Poissons Ratio (y) = -0.05057 0.16572
# Poissons Ratio (z) = 0.22100 0.06806
#
# Static dielectric constant tensor:
#      x y z
#    x 2.147410 -0.111470 0.125350 
#    y -0.111470 2.232210 0.026950 
#    z 0.125350 0.026950 2.117530 
# 
# From -- ./inp_files/68439.got.cif
#   From: 2010.05.17/outbox.cif.g08.bks.cpg/sg2_35_cif.got.tgz:68439.got - 2010.06.03 11:33:40.
