data_PCOD9016132
_publ_section_title
;
Structure prediction by ZEFSAII (Michael W. Deem and Ramdas Pophale) SiO2 
 PCOD9016132
Probable space group: P -1
;
_chemical_formula_sum "Si O2"
_cell_formula_units_Z 14
_cell_length_a 13.002108
_cell_length_b 12.330730
_cell_length_c 10.471350
_cell_angle_alpha 82.147919
_cell_angle_beta 107.252670
_cell_angle_gamma 34.192774
_cell_volume 632.993446
_symmetry_space_group_name_H-M "P -1"
_symmetry_group_IT_number 2
_symmetry_cell_setting 'triclinic'
loop_
_space_group_symop_operation_xyz
x,y,z
-x,-y,-z
loop_
_atom_site_type_symbol
_atom_site_label
_atom_site_fract_x
_atom_site_fract_y
_atom_site_fract_z
Si Si1 0.436882 0.862753 0.204336
Si Si2 0.527748 0.571752 0.832916
Si Si3 0.940050 0.367496 0.298420
Si Si4 0.330530 0.720132 0.294240
Si Si5 0.565866 0.954810 0.384771
Si Si6 0.879508 0.189804 0.248085
Si Si7 0.145435 0.521143 0.050315
O O1 0.635216 0.667696 0.188416
O O2 0.420743 0.758997 0.283349
O O3 0.577494 0.825198 0.346867
O O4 0.126862 0.193012 0.018244
O O5 0.655769 0.365841 0.813501
O O6 0.225035 0.808890 0.700734
O O7 0.632479 0.591178 0.823675
O O8 0.626387 0.477825 0.032013
O O9 0.012467 0.170909 0.366102
O O10 0.154868 0.237318 0.479762
O O11 0.946633 0.390445 0.146455
O O12 0.500000 0.500000 0.500000
O O13 0.052119 0.989628 0.224062
O O14 0.500000 0.000000 0.500000
O O15 0.310758 0.257536 0.182450
#
# Coordination Sequence:
#
# PCOD9016132 Si02
#       7
#     2   2   2   2   2   2   2
#     4  12  25  48  70 102 140 184 232 288 341 412
#     4  10  22  39  69  94 132 172 229 266 344 402
#     4  11  24  47  73 100 142 177 237 286 344 408
#     4  12  25  39  66 101 138 178 221 279 343 409
#     4  12  26  48  74  99 142 182 234 289 347 406
#     4  10  21  42  66  96 133 180 217 281 337 404
#     4  11  26  46  74 102 137 189 227 287 349 407
#
# _framework density 22.117132999999999
#
# number of rings (size 3 to 8) (size 9 to 14) (size 15 to 20)
#    0.000    0.857    5.714    1.286    4.000    2.286 
#    2.571    0.000    0.000    0.000    0.000    0.000 
#    0.000    0.000    0.000    0.000    0.000    0.000 
#
# Total GULP energy -78109.396120 kJ/mol
# GULP energy per Si atom -5579.242580 kJ/mol
# Density = 2.206679 g / cm^3
# Si number density = 22.117133 Si / 1000 Ang^3
#
#
#
# Elastic Constant Matrix: (Units=GPa)
#
#
# Indices 1 2 3 4 5 6 
#
# 1 113.3667 31.5126 38.8457 9.7970 11.9508 9.4646
# 2 31.5126 141.7209 -0.0445 2.8106 15.0456 -6.3891
# 3 38.8457 -0.0445 101.0049 5.2862 4.5634 5.6723
# 4 9.7970 2.8106 5.2862 28.9494 6.8129 17.8607
# 5 11.9508 15.0456 4.5634 6.8129 31.2027 -7.1478
# 6 9.4646 -6.3891 5.6723 17.8607 -7.1478 46.4931
#
#
#
# Elastic Compliance Matrix: (Units=1/GPa)
#
#
# Indices 1 2 3 4 5 6 
#
# 1 0.011447 -0.002314 -0.004096 -0.000750 -0.003039 -0.002328
# 2 -0.002314 0.007919 0.000968 -0.000171 -0.002789 0.001078
# 3 -0.004096 0.000968 0.011546 -0.000468 -0.000564 -0.000349
# 4 -0.000750 -0.000171 -0.000468 0.052601 -0.016204 -0.022512
# 5 -0.003039 -0.002789 -0.000564 -0.016204 0.041122 0.012851
# 6 -0.002328 0.001078 -0.000349 -0.022512 0.012851 0.032797
#
#
# Mechanical properties :
#
#
# Convention : Reuss Voigt Hill
#
# Bulk Modulus (GPa) = 49.93174 55.19111 52.56143
# Shear Modulus (GPa) = 28.57252 40.38096 34.47674
#
# Velocity S-wave (km/s) = 3.59816 4.27755 3.95248
# Velocity P-wave (km/s) = 6.31565 7.02885 6.68177
#
# Compressibility (1/GPa) = 0.02002734
#
# Stress axis : x y z
#
# Youngs Moduli (GPa) = 87.35680 126.27672 86.61085
#
# Poissons Ratio (x) = 0.29222 0.35478
# Poissons Ratio (y) = 0.20215 -0.08383
# Poissons Ratio (z) = 0.35784 -0.12223
#
# Static dielectric constant tensor:
#      x y z
#    x 1.839570 -0.082890 0.164600 
#    y -0.082890 1.544520 0.240550 
#    z 0.164600 0.240550 1.563460 
# 
# From -- ./inp_files/428176.got.cif
#   From: 2010.05.17/outbox.cif.g08.bks.cpg/sg2_215_cif.got.tgz:428176.got - 2010.06.03 11:33:40.
