data_PCOD9016487
_publ_section_title
;
Structure prediction by ZEFSAII (Michael W. Deem and Ramdas Pophale) SiO2 
 PCOD9016487
Probable space group: P -1
;
_chemical_formula_sum "Si O2"
_cell_formula_units_Z 13
_cell_length_a 11.797137
_cell_length_b 9.264174
_cell_length_c 8.736651
_cell_angle_alpha 99.836941
_cell_angle_beta 77.109896
_cell_angle_gamma 144.644299
_cell_volume 538.488240
_symmetry_space_group_name_H-M "P -1"
_symmetry_group_IT_number 2
_symmetry_cell_setting 'triclinic'
loop_
_space_group_symop_operation_xyz
x,y,z
-x,-y,-z
loop_
_atom_site_type_symbol
_atom_site_label
_atom_site_fract_x
_atom_site_fract_y
_atom_site_fract_z
Si Si1 0.208185 0.589667 0.434604
Si Si2 0.466889 0.810309 0.897932
Si Si3 0.136330 0.347545 0.101533
Si Si4 0.607293 0.933429 0.533931
Si Si5 0.909985 0.781939 0.380095
Si Si6 0.210507 0.092282 0.067362
Si Si7 0.500000 0.500000 0.500000
O O1 0.152287 0.468631 0.264576
O O2 0.442672 0.791194 0.427065
O O3 0.103427 0.384253 0.556408
O O4 0.212762 0.768956 0.490533
O O5 0.519521 0.883300 0.718171
O O6 0.610820 0.832409 0.930882
O O7 0.246601 0.536847 0.961132
O O8 0.500000 0.000000 0.000000
O O9 0.247444 0.304836 0.089754
O O10 0.910039 0.077324 0.078673
O O11 0.636251 0.789713 0.501952
O O12 0.682355 0.593355 0.384258
O O13 0.000000 0.000000 0.500000
O O14 0.052075 0.916225 0.218857
#
# Coordination Sequence:
#
# PCOD9016487 Si02
#       7
#     2   2   2   2   2   2   1
#     4  10  21  42  68 101 141 180 232 295 349 414
#     4  12  25  47  73 100 143 192 234 293 358 419
#     4  11  23  47  68 104 144 184 239 289 354 422
#     4  10  22  42  69 102 134 182 238 284 352 417
#     4  11  21  42  69 100 140 177 237 282 350 413
#     4  11  26  45  72 103 142 192 238 290 347 429
#     4  10  22  40  70  98 128 182 224 290 342 414
#
# _framework density 24.141660999999999
#
# number of rings (size 3 to 8) (size 9 to 14) (size 15 to 20)
#    0.000    1.231    3.077    3.231    2.154    0.615 
#   11.077    4.615    0.000    0.000    0.000    0.000 
#    0.000    0.000    0.000    0.000    0.000    0.000 
#
# Total GULP energy -72490.090356 kJ/mol
# GULP energy per Si atom -5576.160797 kJ/mol
# Density = 2.408671 g / cm^3
# Si number density = 24.141661 Si / 1000 Ang^3
#
#
#
# Elastic Constant Matrix: (Units=GPa)
#
#
# Indices 1 2 3 4 5 6 
#
# 1 72.7952 23.2451 22.5554 9.0718 -12.6407 -7.8793
# 2 23.2451 161.5862 31.9606 6.5448 -4.2124 -54.8013
# 3 22.5554 31.9606 89.8871 15.0282 5.0165 -15.4742
# 4 9.0718 6.5448 15.0282 51.9645 -5.5398 -0.0688
# 5 -12.6407 -4.2124 5.0165 -5.5398 23.8048 2.6220
# 6 -7.8793 -54.8013 -15.4742 -0.0688 2.6220 55.4808
#
#
#
# Elastic Compliance Matrix: (Units=1/GPa)
#
#
# Indices 1 2 3 4 5 6 
#
# 1 0.017281 -0.001631 -0.004361 -0.000509 0.009780 -0.000836
# 2 -0.001631 0.009795 -0.001434 -0.000517 0.000053 0.009041
# 3 -0.004361 -0.001434 0.014128 -0.003854 -0.006688 0.002216
# 4 -0.000509 -0.000517 -0.003854 0.021104 0.005571 -0.001895
# 5 0.009780 0.000053 -0.006688 0.005571 0.050224 -0.002790
# 6 -0.000836 0.009041 0.002216 -0.001895 -0.002790 0.027583
#
#
# Mechanical properties :
#
#
# Convention : Reuss Voigt Hill
#
# Bulk Modulus (GPa) = 37.94791 53.31007 45.62899
# Shear Modulus (GPa) = 30.53413 42.68385 36.60899
#
# Velocity S-wave (km/s) = 3.56025 4.20939 3.89835
# Velocity P-wave (km/s) = 5.71432 6.76427 6.26134
#
# Compressibility (1/GPa) = 0.02635192
#
# Stress axis : x y z
#
# Youngs Moduli (GPa) = 57.86864 102.08956 70.78006
#
# Poissons Ratio (x) = 0.16656 0.30867
# Poissons Ratio (y) = 0.09441 0.10148
# Poissons Ratio (z) = 0.25236 0.14637
#
# Static dielectric constant tensor:
#      x y z
#    x 1.967360 0.042920 0.052950 
#    y 0.042920 1.962910 0.028360 
#    z 0.052950 0.028360 1.873560 
# 
# From -- ./inp_files/240332.got.cif
#   From: 2010.05.17/outbox.cif.g08.bks.cpg/sg2_121_cif.got.tgz:240332.got - 2010.06.03 11:33:40.
