data_PCOD9016730
_publ_section_title
;
Structure prediction by ZEFSAII (Michael W. Deem and Ramdas Pophale) SiO2 
 PCOD9016730
Probable space group: P -1
;
_chemical_formula_sum "Si O2"
_cell_formula_units_Z 16
_cell_length_a 10.950156
_cell_length_b 11.839268
_cell_length_c 11.371852
_cell_angle_alpha 70.106337
_cell_angle_beta 99.898869
_cell_angle_gamma 42.427766
_cell_volume 696.924688
_symmetry_space_group_name_H-M "P -1"
_symmetry_group_IT_number 2
_symmetry_cell_setting 'triclinic'
loop_
_space_group_symop_operation_xyz
x,y,z
-x,-y,-z
loop_
_atom_site_type_symbol
_atom_site_label
_atom_site_fract_x
_atom_site_fract_y
_atom_site_fract_z
Si Si1 0.144418 0.958533 0.626967
Si Si2 0.937622 0.069335 0.810609
Si Si3 0.353840 0.551630 0.058044
Si Si4 0.000423 0.339523 0.522825
Si Si5 0.458954 0.049140 0.613862
Si Si6 0.187854 0.441611 0.098525
Si Si7 0.048383 0.238319 0.837311
Si Si8 0.424590 0.842308 0.235442
O O1 0.426433 0.691257 0.748409
O O2 0.083714 0.147959 0.540295
O O3 0.000000 0.000000 0.500000
O O4 0.033942 0.010304 0.715663
O O5 0.709462 0.170869 0.749727
O O6 0.914328 0.223069 0.799515
O O7 0.169852 0.801217 0.994153
O O8 0.204672 0.556099 0.994139
O O9 0.500000 0.500000 0.000000
O O10 0.175065 0.294143 0.512011
O O11 0.073476 0.265735 0.699329
O O12 0.713993 0.586892 0.362380
O O13 0.596780 0.044902 0.700531
O O14 0.500000 0.000000 0.500000
O O15 0.564428 0.839720 0.763829
O O16 0.107996 0.546470 0.179702
O O17 0.000000 0.500000 0.000000
O O18 0.290440 0.006073 0.037690
#
# Coordination Sequence:
#
# PCOD9016730 Si02
#       8
#     2   2   2   2   2   2   2   2
#     4  10  23  39  66 103 141 189 236 300 368 432
#     4  10  23  43  68 107 142 189 244 296 366 442
#     4  10  21  42  69 101 148 182 241 308 355 433
#     4  11  27  48  68 109 144 191 245 305 369 439
#     4  12  27  50  73 103 147 192 249 307 367 449
#     4  12  23  46  74 105 141 195 248 299 372 441
#     4  11  25  46  75 106 149 189 246 304 367 444
#     4  12  25  46  74 104 147 194 242 300 374 436
#
# _framework density 22.958003999999999
#
# number of rings (size 3 to 8) (size 9 to 14) (size 15 to 20)
#    0.000    1.000    3.750    1.500    3.500    3.500 
#    2.250    0.000    0.000    0.000    0.000    0.000 
#    0.000    0.000    0.000    0.000    0.000    0.000 
#
# Total GULP energy -89332.006035 kJ/mol
# GULP energy per Si atom -5583.250377 kJ/mol
# Density = 2.290575 g / cm^3
# Si number density = 22.958004 Si / 1000 Ang^3
#
#
#
# Elastic Constant Matrix: (Units=GPa)
#
#
# Indices 1 2 3 4 5 6 
#
# 1 134.6312 38.9099 28.8133 5.8559 24.2980 14.4590
# 2 38.9099 86.8853 17.8399 2.9256 25.2526 21.7541
# 3 28.8133 17.8399 74.5724 -9.1608 31.6113 7.7942
# 4 5.8559 2.9256 -9.1608 52.8817 -3.7660 1.0524
# 5 24.2980 25.2526 31.6113 -3.7660 40.6053 -0.4675
# 6 14.4590 21.7541 7.7942 1.0524 -0.4675 56.3979
#
#
#
# Elastic Compliance Matrix: (Units=1/GPa)
#
#
# Indices 1 2 3 4 5 6 
#
# 1 0.009245 -0.002714 -0.001928 -0.001363 -0.002482 -0.001052
# 2 -0.002714 0.017003 0.002057 -0.000923 -0.010709 -0.006219
# 3 -0.001928 0.002057 0.021369 0.002691 -0.016551 -0.003440
# 4 -0.001363 -0.000923 0.002691 0.019658 0.001118 -0.000024
# 5 -0.002482 -0.010709 -0.016551 0.001118 0.045846 0.007414
# 6 -0.001052 -0.006219 -0.003440 -0.000024 0.007414 0.020937
#
#
# Mechanical properties :
#
#
# Convention : Reuss Voigt Hill
#
# Bulk Modulus (GPa) = 23.55892 51.91280 37.73586
# Shear Modulus (GPa) = 32.59946 44.01204 38.30575
#
# Velocity S-wave (km/s) = 3.77232 4.38318 4.08918
# Velocity P-wave (km/s) = 5.40906 6.94820 6.22637
#
# Compressibility (1/GPa) = 0.04244678
#
# Stress axis : x y z
#
# Youngs Moduli (GPa) = 108.16826 58.81383 46.79708
#
# Poissons Ratio (x) = 0.15959 0.09024
# Poissons Ratio (y) = 0.29352 -0.09626
# Poissons Ratio (z) = 0.20859 -0.12098
#
# Static dielectric constant tensor:
#      x y z
#    x 1.914040 -0.036270 -0.004340 
#    y -0.036270 1.992590 -0.042170 
#    z -0.004340 -0.042170 1.898920 
# 
# From -- ./inp_files/428186.got.cif
#   From: 2010.05.17/outbox.cif.g08.bks.cpg/sg2_215_cif.got.tgz:428186.got - 2010.06.03 11:33:40.
