data_PCOD9016404
_publ_section_title
;
Structure prediction by ZEFSAII (Michael W. Deem and Ramdas Pophale) SiO2 
 PCOD9016404
Probable space group: P -1
;
_chemical_formula_sum "Si O2"
_cell_formula_units_Z 16
_cell_length_a 15.692692
_cell_length_b 8.414161
_cell_length_c 11.041566
_cell_angle_alpha 65.485835
_cell_angle_beta 36.915859
_cell_angle_gamma 51.753820
_cell_volume 677.769907
_symmetry_space_group_name_H-M "P -1"
_symmetry_group_IT_number 2
_symmetry_cell_setting 'triclinic'
loop_
_space_group_symop_operation_xyz
x,y,z
-x,-y,-z
loop_
_atom_site_type_symbol
_atom_site_label
_atom_site_fract_x
_atom_site_fract_y
_atom_site_fract_z
Si Si1 0.526957 0.778060 0.812731
Si Si2 0.370443 0.863882 0.227457
Si Si3 0.191541 0.619336 0.474865
Si Si4 0.946617 0.726254 0.527716
Si Si5 0.119333 0.354028 0.806341
Si Si6 0.395036 0.876396 0.450099
Si Si7 0.003557 0.149833 0.810943
Si Si8 0.687609 0.114610 0.207016
O O1 0.682469 0.547337 0.711984
O O2 0.398389 0.790945 0.852904
O O3 0.580414 0.930616 0.647529
O O4 0.455906 0.833754 0.010932
O O5 0.252069 0.772275 0.383714
O O6 0.472515 0.767799 0.267421
O O7 0.249535 0.108550 0.307441
O O8 0.196568 0.478090 0.622073
O O9 0.010214 0.733222 0.585621
O O10 0.000000 0.500000 0.500000
O O11 0.033260 0.784899 0.307389
O O12 0.019904 0.310178 0.827856
O O13 0.250239 0.127451 0.780314
O O14 0.000000 0.500000 0.000000
O O15 0.434013 0.782903 0.570189
O O16 0.196360 0.961576 0.644306
O O17 0.857959 0.115451 0.027856
#
# Coordination Sequence:
#
# PCOD9016404 Si02
#       8
#     2   2   2   2   2   2   2   2
#     4  12  24  46  68  99 139 185 223 274 342 406
#     4  11  26  40  70 101 133 179 228 282 333 407
#     4  12  24  43  66 100 143 175 225 280 340 396
#     4  11  22  43  68  99 132 172 226 283 340 393
#     4  11  24  38  67 102 135 173 227 283 332 401
#     4  10  21  43  66  94 131 175 222 274 334 394
#     4  10  21  42  67  97 127 174 222 278 334 396
#     4  11  24  42  70  97 135 178 225 273 347 393
#
# _framework density 23.606829000000001
#
# number of rings (size 3 to 8) (size 9 to 14) (size 15 to 20)
#    0.000    1.000    3.750    4.500    7.000    0.000 
#    0.000    1.875    0.000    0.000    0.000    0.000 
#    0.000    0.000    0.000    0.000    0.000    0.000 
#
# Total GULP energy -89370.578168 kJ/mol
# GULP energy per Si atom -5585.661136 kJ/mol
# Density = 2.355310 g / cm^3
# Si number density = 23.606829 Si / 1000 Ang^3
#
#
#
# Elastic Constant Matrix: (Units=GPa)
#
#
# Indices 1 2 3 4 5 6 
#
# 1 87.4455 3.2550 42.4521 2.8949 8.6059 -4.9219
# 2 3.2550 42.5665 27.9829 -11.6146 4.8830 2.7457
# 3 42.4521 27.9829 133.2076 -11.3680 31.8404 3.6453
# 4 2.8949 -11.6146 -11.3680 31.4062 12.9832 2.3765
# 5 8.6059 4.8830 31.8404 12.9832 56.2475 -3.0352
# 6 -4.9219 2.7457 3.6453 2.3765 -3.0352 27.5511
#
#
#
# Elastic Compliance Matrix: (Units=1/GPa)
#
#
# Indices 1 2 3 4 5 6 
#
# 1 0.014339 0.001057 -0.005770 -0.004200 0.002156 0.003820
# 2 0.001057 0.030113 -0.005080 0.010485 -0.002500 -0.003320
# 3 -0.005770 -0.005080 0.012961 0.006845 -0.007792 -0.003688
# 4 -0.004200 0.010485 0.006845 0.045443 -0.015079 -0.008282
# 5 0.002156 -0.002500 -0.007792 -0.015079 0.025871 0.005816
# 6 0.003820 -0.003320 -0.003688 -0.008282 0.005816 0.039153
#
#
# Mechanical properties :
#
#
# Convention : Reuss Voigt Hill
#
# Bulk Modulus (GPa) = 26.43576 45.62217 36.02897
# Shear Modulus (GPa) = 24.99074 35.67626 30.33350
#
# Velocity S-wave (km/s) = 3.25718 3.89172 3.58850
# Velocity P-wave (km/s) = 5.03669 6.28982 5.69781
#
# Compressibility (1/GPa) = 0.03782754
#
# Stress axis : x y z
#
# Youngs Moduli (GPa) = 69.73760 33.20838 77.15667
#
# Poissons Ratio (x) = -0.03511 0.44522
# Poissons Ratio (y) = -0.07372 0.39192
# Poissons Ratio (z) = 0.40241 0.16868
#
# Static dielectric constant tensor:
#      x y z
#    x 1.998580 -0.016210 0.026100 
#    y -0.016210 1.892010 -0.010380 
#    z 0.026100 -0.010380 1.912000 
# 
# From -- ./inp_files/461980.got.cif
#   From: 2010.05.17/outbox.cif.g08.bks.cpg/sg2_231_cif.got.tgz:461980.got - 2010.06.03 11:33:40.
