data_PCOD9016618
_publ_section_title
;
Structure prediction by ZEFSAII (Michael W. Deem and Ramdas Pophale) SiO2 
 PCOD9016618
Probable space group: P -1
;
_chemical_formula_sum "Si O2"
_cell_formula_units_Z 16
_cell_length_a 8.801606
_cell_length_b 14.911557
_cell_length_c 14.122347
_cell_angle_alpha 27.149151
_cell_angle_beta 125.519116
_cell_angle_gamma 126.126691
_cell_volume 675.103924
_symmetry_space_group_name_H-M "P -1"
_symmetry_group_IT_number 2
_symmetry_cell_setting 'triclinic'
loop_
_space_group_symop_operation_xyz
x,y,z
-x,-y,-z
loop_
_atom_site_type_symbol
_atom_site_label
_atom_site_fract_x
_atom_site_fract_y
_atom_site_fract_z
Si Si1 0.064037 0.478959 0.146804
Si Si2 0.339734 0.125718 0.198830
Si Si3 0.641921 0.770532 0.535744
Si Si4 0.974357 0.241724 0.982476
Si Si5 0.759246 0.265436 0.569015
Si Si6 0.651316 0.884692 0.212138
Si Si7 0.749966 0.100171 0.419001
Si Si8 0.183663 0.462592 0.480675
O O1 0.269186 0.422376 0.271788
O O2 0.032285 0.686678 0.981596
O O3 0.927247 0.281737 0.324895
O O4 0.000000 0.500000 0.000000
O O5 0.565630 0.189815 0.233347
O O6 0.286872 0.976126 0.230572
O O7 0.283157 0.006055 0.390384
O O8 0.191312 0.273114 0.997722
O O9 0.438636 0.701609 0.579452
O O10 0.623349 0.862459 0.336922
O O11 0.761203 0.934950 0.496123
O O12 0.851431 0.388431 0.753778
O O13 0.858947 0.019714 0.139843
O O14 0.760610 0.390533 0.548441
O O15 0.970875 0.336080 0.540634
O O16 0.668851 0.675085 0.366226
O O17 0.500000 0.000000 0.000000
#
# Coordination Sequence:
#
# PCOD9016618 Si02
#       8
#     2   2   2   2   2   2   2   2
#     4  12  24  38  63  99 134 173 219 270 329 397
#     4  10  21  42  68  96 129 179 221 274 329 388
#     4  11  23  44  68  97 137 172 219 277 330 393
#     4  12  24  41  70  97 133 177 224 269 336 395
#     4  10  23  44  67  96 134 177 218 275 328 388
#     4  12  26  45  71  99 136 175 218 276 337 396
#     4  10  22  42  67  94 135 173 222 276 328 387
#     4  11  24  46  68  98 135 174 221 279 325 400
#
# _framework density 23.700054000000002
#
# number of rings (size 3 to 8) (size 9 to 14) (size 15 to 20)
#    0.000    1.000    2.500    4.125    1.750    3.000 
#    9.000    0.000    0.000    0.000    0.000    0.000 
#    0.000    0.000    0.000    0.000    0.000    0.000 
#
# Total GULP energy -89272.183633 kJ/mol
# GULP energy per Si atom -5579.511477 kJ/mol
# Density = 2.364611 g / cm^3
# Si number density = 23.700054 Si / 1000 Ang^3
#
#
#
# Elastic Constant Matrix: (Units=GPa)
#
#
# Indices 1 2 3 4 5 6 
#
# 1 87.3489 34.8726 43.7090 -37.4967 19.8284 1.3683
# 2 34.8726 104.2748 35.8681 -42.6428 -9.5448 -4.8970
# 3 43.7090 35.8681 83.8011 -22.1904 14.4747 -7.2531
# 4 -37.4967 -42.6428 -22.1904 76.8906 32.9116 -14.5600
# 5 19.8284 -9.5448 14.4747 32.9116 72.3258 -13.1401
# 6 1.3683 -4.8970 -7.2531 -14.5600 -13.1401 55.8192
#
#
#
# Elastic Compliance Matrix: (Units=1/GPa)
#
#
# Indices 1 2 3 4 5 6 
#
# 1 0.023859 -0.001167 -0.006133 0.014270 -0.012071 -0.000603
# 2 -0.001167 0.014006 -0.003500 0.006520 0.000373 0.002591
# 3 -0.006133 -0.003500 0.017738 0.001741 -0.002768 0.001951
# 4 0.014270 0.006520 0.001741 0.032385 -0.017259 0.004833
# 5 -0.012071 0.000373 -0.002768 -0.017259 0.025876 0.001558
# 6 -0.000603 0.002591 0.001951 0.004833 0.001558 0.020038
#
#
# Mechanical properties :
#
#
# Convention : Reuss Voigt Hill
#
# Bulk Modulus (GPa) = 29.40945 56.03604 42.72275
# Shear Modulus (GPa) = 29.96943 51.73880 40.85411
#
# Velocity S-wave (km/s) = 3.55988 4.67740 4.15637
# Velocity P-wave (km/s) = 5.41599 7.27090 6.41088
#
# Compressibility (1/GPa) = 0.03400267
#
# Stress axis : x y z
#
# Youngs Moduli (GPa) = 41.91357 71.39721 56.37522
#
# Poissons Ratio (x) = 0.08331 0.34577
# Poissons Ratio (y) = 0.04891 0.19731
# Poissons Ratio (z) = 0.25707 0.24989
#
# Static dielectric constant tensor:
#      x y z
#    x 1.918180 0.119300 -0.039270 
#    y 0.119300 0.063070 0.763940 
#    z -0.039270 0.763940 1.617320 
# 
# From -- ./inp_files/314659.got.cif
#   From: 2010.05.17/outbox.cif.g08.bks.cpg/sg2_158_cif.got.tgz:314659.got - 2010.06.03 11:33:40.
