data_PCOD9016557
_publ_section_title
;
Structure prediction by ZEFSAII (Michael W. Deem and Ramdas Pophale) SiO2 
 PCOD9016557
Probable space group: P -1
;
_chemical_formula_sum "Si O2"
_cell_formula_units_Z 12
_cell_length_a 15.218271
_cell_length_b 4.979470
_cell_length_c 9.346594
_cell_angle_alpha 104.942512
_cell_angle_beta 41.120223
_cell_angle_gamma 87.375271
_cell_volume 416.690578
_symmetry_space_group_name_H-M "P -1"
_symmetry_group_IT_number 2
_symmetry_cell_setting 'triclinic'
loop_
_space_group_symop_operation_xyz
x,y,z
-x,-y,-z
loop_
_atom_site_type_symbol
_atom_site_label
_atom_site_fract_x
_atom_site_fract_y
_atom_site_fract_z
Si Si1 0.991970 0.868567 0.713448
Si Si2 0.868513 0.445627 0.225516
Si Si3 0.572194 0.290132 0.063678
Si Si4 0.391561 0.952779 0.341436
Si Si5 0.843400 0.447091 0.804678
Si Si6 0.621128 0.287850 0.425196
O O1 0.855887 0.761641 0.868096
O O2 0.070105 0.798650 0.758444
O O3 0.102155 0.635447 0.435410
O O4 0.954763 0.190588 0.732628
O O5 0.772659 0.317017 0.226092
O O6 0.756233 0.755893 0.469622
O O7 0.000000 0.500000 0.000000
O O8 0.430294 0.594257 0.323136
O O9 0.535572 0.037744 0.156824
O O10 0.597270 0.203355 0.857359
O O11 0.697090 0.387484 0.983641
O O12 0.368307 0.023053 0.566992
O O13 0.500000 0.500000 0.500000
#
# Coordination Sequence:
#
# PCOD9016557 Si02
#       6
#     2   2   2   2   2   2
#     4  10  24  40  63  98 131 166 220 263 319 392
#     4  11  25  41  65  96 137 170 209 270 329 377
#     4   9  19  37  65  84 121 160 216 258 313 370
#     4   9  21  40  57  92 120 163 213 258 309 386
#     4  10  21  42  68  93 127 173 214 268 320 382
#     4   9  22  39  60  89 126 167 215 256 306 388
#
# _framework density 28.798345999999999
#
# number of rings (size 3 to 8) (size 9 to 14) (size 15 to 20)
#    1.000    1.333    0.000    1.000    4.667    4.667 
#    0.000    4.167    0.000    0.000    0.000    0.000 
#    0.000    0.000    0.000    0.000    0.000    0.000 
#
# Total GULP energy -67116.285688 kJ/mol
# GULP energy per Si atom -5593.023807 kJ/mol
# Density = 2.873280 g / cm^3
# Si number density = 28.798346 Si / 1000 Ang^3
#
#
#
# Elastic Constant Matrix: (Units=GPa)
#
#
# Indices 1 2 3 4 5 6 
#
# 1 158.5352 70.8857 64.8819 -31.9552 -17.1131 -10.1889
# 2 70.8857 168.9641 29.6557 -19.3333 -0.7870 -8.2824
# 3 64.8819 29.6557 131.1192 -15.4607 -1.4777 -3.1665
# 4 -31.9552 -19.3333 -15.4607 54.7967 6.6191 14.6753
# 5 -17.1131 -0.7870 -1.4777 6.6191 63.4433 -8.7062
# 6 -10.1889 -8.2824 -3.1665 14.6753 -8.7062 57.8562
#
#
#
# Elastic Compliance Matrix: (Units=1/GPa)
#
#
# Indices 1 2 3 4 5 6 
#
# 1 0.010333 -0.003219 -0.003952 0.003307 0.002402 0.000665
# 2 -0.003219 0.007360 0.000015 0.000781 -0.000836 0.000164
# 3 -0.003952 0.000015 0.009635 0.000666 -0.000977 -0.000483
# 4 0.003307 0.000781 0.000666 0.022304 -0.002130 -0.005247
# 5 0.002402 -0.000836 -0.000977 -0.002130 0.017060 0.003357
# 6 0.000665 0.000164 -0.000483 -0.005247 0.003357 0.019235
#
#
# Mechanical properties :
#
#
# Convention : Reuss Voigt Hill
#
# Bulk Modulus (GPa) = 76.83379 87.71833 82.27606
# Shear Modulus (GPa) = 47.81195 54.76558 51.28877
#
# Velocity S-wave (km/s) = 4.07902 4.36557 4.22472
# Velocity P-wave (km/s) = 6.99445 7.47908 7.24082
#
# Compressibility (1/GPa) = 0.01301511
#
# Stress axis : x y z
#
# Youngs Moduli (GPa) = 96.77673 135.87280 103.79124
#
# Poissons Ratio (x) = 0.43741 0.41018
# Poissons Ratio (y) = 0.31155 -0.00155
# Poissons Ratio (z) = 0.38246 -0.00203
#
# Static dielectric constant tensor:
#      x y z
#    x 2.351790 0.060630 0.079900 
#    y 0.060630 2.170090 0.109840 
#    z 0.079900 0.109840 2.312210 
# 
# From -- ./inp_files/288723.got.cif
#   From: 2010.05.17/outbox.cif.g08.bks.cpg/sg2_145_cif.got.tgz:288723.got - 2010.06.03 11:33:40.
