data_PCOD9016353
_publ_section_title
;
Structure prediction by ZEFSAII (Michael W. Deem and Ramdas Pophale) SiO2 
 PCOD9016353
Probable space group: P -1
;
_chemical_formula_sum "Si O2"
_cell_formula_units_Z 16
_cell_length_a 10.906985
_cell_length_b 13.334972
_cell_length_c 9.066018
_cell_angle_alpha 77.308900
_cell_angle_beta 92.705881
_cell_angle_gamma 146.638649
_cell_volume 684.199982
_symmetry_space_group_name_H-M "P -1"
_symmetry_group_IT_number 2
_symmetry_cell_setting 'triclinic'
loop_
_space_group_symop_operation_xyz
x,y,z
-x,-y,-z
loop_
_atom_site_type_symbol
_atom_site_label
_atom_site_fract_x
_atom_site_fract_y
_atom_site_fract_z
Si Si1 0.272533 0.587786 0.263347
Si Si2 0.547292 0.592695 0.719152
Si Si3 0.465333 0.166634 0.075181
Si Si4 0.743181 0.407417 0.271831
Si Si5 0.229873 0.798962 0.193186
Si Si6 0.769252 0.222620 0.471284
Si Si7 0.116989 0.093790 0.137207
Si Si8 0.661250 0.726445 0.363709
O O1 0.306459 0.735025 0.232800
O O2 0.436608 0.639002 0.363655
O O3 0.001488 0.366310 0.338589
O O4 0.391654 0.660665 0.085262
O O5 0.414220 0.606255 0.709887
O O6 0.698638 0.696709 0.843567
O O7 0.682051 0.690316 0.537867
O O8 0.369832 0.376440 0.740137
O O9 0.633843 0.259280 0.187981
O O10 0.254339 0.083230 0.153639
O O11 0.374415 0.993180 0.069727
O O12 0.771536 0.349430 0.427643
O O13 0.986011 0.618685 0.158791
O O14 0.178969 0.790955 0.363499
O O15 0.500000 0.000000 0.500000
O O16 0.896844 0.951511 0.275153
O O17 0.000000 0.000000 0.000000
#
# Coordination Sequence:
#
# PCOD9016353 Si02
#       8
#     2   2   2   2   2   2   2   2
#     4  11  24  42  66  95 140 168 220 280 328 401
#     4  10  23  41  70  97 127 181 221 283 328 396
#     4  11  23  43  64  99 131 178 214 274 338 403
#     4  10  21  42  67  94 134 168 223 274 335 396
#     4  11  22  41  67  95 127 175 218 270 341 394
#     4  11  22  42  66  95 127 172 216 275 332 392
#     4  11  23  43  66  94 138 172 223 269 337 402
#     4  11  22  45  65 100 135 171 231 273 333 393
#
# _framework density 23.384976000000002
#
# number of rings (size 3 to 8) (size 9 to 14) (size 15 to 20)
#    0.000    1.250    2.500    4.500    0.000    3.500 
#    9.000    0.000    0.000    0.000    0.000    0.000 
#    0.000    0.000    0.000    0.000    0.000    0.000 
#
# Total GULP energy -89078.291162 kJ/mol
# GULP energy per Si atom -5567.393198 kJ/mol
# Density = 2.333175 g / cm^3
# Si number density = 23.384976 Si / 1000 Ang^3
#
#
#
# Elastic Constant Matrix: (Units=GPa)
#
#
# Indices 1 2 3 4 5 6 
#
# 1 56.9787 41.4415 2.9287 -4.0258 -11.7475 10.4733
# 2 41.4415 139.6400 31.7401 -11.1818 3.0173 5.2275
# 3 2.9287 31.7401 64.2728 -12.9703 14.3810 13.2561
# 4 -4.0258 -11.1818 -12.9703 40.9615 4.4656 -1.1015
# 5 -11.7475 3.0173 14.3810 4.4656 19.5459 2.2567
# 6 10.4733 5.2275 13.2561 -1.1015 2.2567 31.3439
#
#
#
# Elastic Compliance Matrix: (Units=1/GPa)
#
#
# Indices 1 2 3 4 5 6 
#
# 1 0.030452 -0.009313 0.000143 -0.002104 0.021303 -0.010290
# 2 -0.009313 0.011003 -0.004409 0.001306 -0.004758 0.003530
# 3 0.000143 -0.004409 0.025476 0.008722 -0.018999 -0.008412
# 4 -0.002104 0.001306 0.008722 0.028857 -0.014343 -0.001157
# 5 0.021303 -0.004758 -0.018999 -0.014343 0.082502 -0.004734
# 6 -0.010290 0.003530 -0.008412 -0.001157 -0.004734 0.038612
#
#
# Mechanical properties :
#
#
# Convention : Reuss Voigt Hill
#
# Bulk Modulus (GPa) = 25.14398 45.90134 35.52266
# Shear Modulus (GPa) = 19.43128 30.68901 25.06015
#
# Velocity S-wave (km/s) = 2.88571 3.62655 3.27713
# Velocity P-wave (km/s) = 4.67746 6.09975 5.43533
#
# Compressibility (1/GPa) = 0.03977095
#
# Stress axis : x y z
#
# Youngs Moduli (GPa) = 32.83879 90.88748 39.25308
#
# Poissons Ratio (x) = 0.84646 -0.00561
# Poissons Ratio (y) = 0.30584 0.17307
# Poissons Ratio (z) = -0.00469 0.40073
#
# Static dielectric constant tensor:
#      x y z
#    x 1.865630 0.025570 -0.044890 
#    y 0.025570 1.895300 -0.013720 
#    z -0.044890 -0.013720 2.030780 
# 
# From -- ./inp_files/272925.got.cif
#   From: 2010.05.17/outbox.cif.g08.bks.cpg/sg2_137_cif.got.tgz:272925.got - 2010.06.03 11:33:40.
