data_PCOD9016176
_publ_section_title
;
Structure prediction by ZEFSAII (Michael W. Deem and Ramdas Pophale) SiO2 
 PCOD9016176
Probable space group: P -1
;
_chemical_formula_sum "Si O2"
_cell_formula_units_Z 14
_cell_length_a 7.456159
_cell_length_b 8.145431
_cell_length_c 11.832015
_cell_angle_alpha 84.928586
_cell_angle_beta 47.166696
_cell_angle_gamma 81.666319
_cell_volume 521.359887
_symmetry_space_group_name_H-M "P -1"
_symmetry_group_IT_number 2
_symmetry_cell_setting 'triclinic'
loop_
_space_group_symop_operation_xyz
x,y,z
-x,-y,-z
loop_
_atom_site_type_symbol
_atom_site_label
_atom_site_fract_x
_atom_site_fract_y
_atom_site_fract_z
Si Si1 0.587956 0.344139 0.347534
Si Si2 0.794575 0.997617 0.865827
Si Si3 0.150384 0.837336 0.388182
Si Si4 0.323906 0.336199 0.117081
Si Si5 0.882343 0.461594 0.420089
Si Si6 0.326788 0.328503 0.849151
Si Si7 0.190571 0.809426 0.944227
O O1 0.718272 0.365983 0.408382
O O2 0.297503 0.370272 0.491036
O O3 0.640004 0.506475 0.243716
O O4 0.692700 0.193133 0.231548
O O5 0.882521 0.128157 0.733605
O O6 0.870466 0.030012 0.958749
O O7 0.842237 0.817400 0.801545
O O8 0.500000 0.000000 0.000000
O O9 0.085830 0.665106 0.480280
O O10 0.451997 0.813787 0.271342
O O11 0.000000 0.000000 0.500000
O O12 0.421797 0.713979 0.923543
O O13 0.143957 0.475937 0.248970
O O14 0.356141 0.360910 0.968609
O O15 0.052043 0.284649 0.948021
#
# Coordination Sequence:
#
# PCOD9016176 Si02
#       7
#     2   2   2   2   2   2   2
#     4  10  23  44  67  98 136 177 220 272 330 395
#     4  10  21  42  66  98 130 166 226 270 319 395
#     4  11  21  41  70  92 135 177 212 273 341 382
#     4  11  22  42  68  96 136 175 217 279 323 390
#     4  10  22  42  67  95 141 175 212 279 336 381
#     4  11  23  43  68  98 133 176 220 279 320 389
#     4  11  23  40  70 102 127 176 231 262 332 396
#
# _framework density 26.85285
#
# number of rings (size 3 to 8) (size 9 to 14) (size 15 to 20)
#    0.000    1.429    5.714    0.429    0.000    1.714 
#    0.000    5.000    0.000    0.000    0.000    0.000 
#    0.000    0.000    0.000    0.000    0.000    0.000 
#
# Total GULP energy -78343.107689 kJ/mol
# GULP energy per Si atom -5595.936263 kJ/mol
# Density = 2.679173 g / cm^3
# Si number density = 26.852850 Si / 1000 Ang^3
#
#
#
# Elastic Constant Matrix: (Units=GPa)
#
#
# Indices 1 2 3 4 5 6 
#
# 1 136.5008 -9.8124 49.4155 14.4661 -6.7078 13.4484
# 2 -9.8124 81.2847 26.2871 13.9696 -13.2134 -9.0483
# 3 49.4155 26.2871 165.5829 30.9307 -19.3829 -8.2291
# 4 14.4661 13.9696 30.9307 62.3809 -20.0172 -2.7111
# 5 -6.7078 -13.2134 -19.3829 -20.0172 67.5947 10.6094
# 6 13.4484 -9.0483 -8.2291 -2.7111 10.6094 33.6842
#
#
#
# Elastic Compliance Matrix: (Units=1/GPa)
#
#
# Indices 1 2 3 4 5 6 
#
# 1 0.009079 0.001881 -0.002937 -0.001000 0.000784 -0.004164
# 2 0.001881 0.014006 -0.002158 -0.001962 0.001430 0.001876
# 3 -0.002937 -0.002158 0.007888 -0.002503 0.000467 0.002171
# 4 -0.001000 -0.001962 -0.002503 0.019406 0.004647 -0.000641
# 5 0.000784 0.001430 0.000467 0.004647 0.017436 -0.004932
# 6 -0.004164 0.001876 0.002171 -0.000641 -0.004932 0.033886
#
#
# Mechanical properties :
#
#
# Convention : Reuss Voigt Hill
#
# Bulk Modulus (GPa) = 40.73726 57.23875 48.98800
# Shear Modulus (GPa) = 42.98864 53.89717 48.44291
#
# Velocity S-wave (km/s) = 4.00546 4.48496 4.25198
# Velocity P-wave (km/s) = 6.04939 6.94131 6.51064
#
# Compressibility (1/GPa) = 0.02454755
#
# Stress axis : x y z
#
# Youngs Moduli (GPa) = 110.14330 71.39837 126.77010
#
# Poissons Ratio (x) = -0.13433 0.37227
# Poissons Ratio (y) = -0.20723 0.27354
# Poissons Ratio (z) = 0.32344 0.15406
#
# Static dielectric constant tensor:
#      x y z
#    x 2.107050 -0.033990 0.021200 
#    y -0.033990 2.264580 0.132280 
#    z 0.021200 0.132280 2.116610 
# 
# From -- ./inp_files/379380.got.cif
#   From: 2010.05.17/outbox.cif.g08.bks.cpg/sg2_190_cif.got.tgz:379380.got - 2010.06.03 11:33:40.
