data_PCOD9016975
_publ_section_title
;
Structure prediction by ZEFSAII (Michael W. Deem and Ramdas Pophale) SiO2 
 PCOD9016975
Probable space group: P -1
;
_chemical_formula_sum "Si O2"
_cell_formula_units_Z 16
_cell_length_a 13.980443
_cell_length_b 9.441793
_cell_length_c 14.084873
_cell_angle_alpha 62.569503
_cell_angle_beta 29.443141
_cell_angle_gamma 53.929764
_cell_volume 732.342984
_symmetry_space_group_name_H-M "P -1"
_symmetry_group_IT_number 2
_symmetry_cell_setting 'triclinic'
loop_
_space_group_symop_operation_xyz
x,y,z
-x,-y,-z
loop_
_atom_site_type_symbol
_atom_site_label
_atom_site_fract_x
_atom_site_fract_y
_atom_site_fract_z
Si Si1 0.172856 0.341146 0.149736
Si Si2 0.962557 0.611937 0.095348
Si Si3 0.288810 0.011119 0.023087
Si Si4 0.545185 0.373483 0.909618
Si Si5 0.186556 0.811535 0.927391
Si Si6 0.452048 0.013183 0.677527
Si Si7 0.063366 0.081912 0.703232
Si Si8 0.013566 0.665580 0.487159
O O1 0.984506 0.484707 0.205051
O O2 0.278311 0.165685 0.051100
O O3 0.112727 0.291831 0.319163
O O4 0.346487 0.414676 0.001082
O O5 0.154044 0.674889 0.927341
O O6 0.739207 0.791353 0.237800
O O7 0.000000 0.500000 0.000000
O O8 0.379283 0.824806 0.055607
O O9 0.434249 0.995646 0.811492
O O10 0.046528 0.049810 0.184808
O O11 0.741306 0.384270 0.682723
O O12 0.500000 0.500000 0.000000
O O13 0.102594 0.795249 0.111192
O O14 0.394175 0.854849 0.737896
O O15 0.000000 0.000000 0.000000
O O16 0.690259 0.991117 0.452462
O O17 0.051632 0.186898 0.583782
O O18 0.000000 0.500000 0.500000
#
# Coordination Sequence:
#
# PCOD9016975 Si02
#       8
#     2   2   2   2   2   2   2   2
#     4  12  24  42  68  92 136 171 214 267 329 383
#     4  11  23  43  64  95 133 172 219 267 315 385
#     4  10  23  42  65  97 131 170 212 267 325 389
#     4  11  24  41  69  97 128 169 214 261 330 394
#     4   9  21  39  67  90 123 169 219 265 317 369
#     4  10  21  42  70  91 127 174 217 265 324 375
#     4  10  22  40  69  94 129 163 222 266 319 392
#     4  11  23  40  64 100 130 162 212 274 324 386
#
# _framework density 21.847685999999999
#
# number of rings (size 3 to 8) (size 9 to 14) (size 15 to 20)
#    0.000    1.500    2.500    1.875    3.500    5.000 
#    0.000    4.375    0.000    0.000    0.000    0.000 
#    0.000    0.000    0.000    0.000    0.000    0.000 
#
# Total GULP energy -89363.714495 kJ/mol
# GULP energy per Si atom -5585.232156 kJ/mol
# Density = 2.179796 g / cm^3
# Si number density = 21.847686 Si / 1000 Ang^3
#
#
#
# Elastic Constant Matrix: (Units=GPa)
#
#
# Indices 1 2 3 4 5 6 
#
# 1 121.5954 42.8006 44.7227 -3.2256 -1.4812 23.5700
# 2 42.8006 93.4474 12.7676 3.8186 -2.7185 20.3870
# 3 44.7227 12.7676 96.5600 -11.1696 -23.9182 15.0388
# 4 -3.2256 3.8186 -11.1696 12.7766 -5.3759 5.0659
# 5 -1.4812 -2.7185 -23.9182 -5.3759 38.2245 -2.6842
# 6 23.5700 20.3870 15.0388 5.0659 -2.6842 51.8099
#
#
#
# Elastic Compliance Matrix: (Units=1/GPa)
#
#
# Indices 1 2 3 4 5 6 
#
# 1 0.012280 -0.004389 -0.005907 -0.001522 -0.003901 -0.002198
# 2 -0.004389 0.013474 0.000430 -0.003384 0.000365 -0.003080
# 3 -0.005907 0.000430 0.020700 0.025218 0.015941 -0.005130
# 4 -0.001522 -0.003384 0.025218 0.120232 0.031306 -0.015430
# 5 -0.003901 0.000365 0.015941 0.031306 0.040134 -0.003978
# 6 -0.002198 -0.003080 -0.005130 -0.015430 -0.003978 0.024305
#
#
# Mechanical properties :
#
#
# Convention : Reuss Voigt Hill
#
# Bulk Modulus (GPa) = 37.42418 56.90941 47.16680
# Shear Modulus (GPa) = 19.24825 34.64966 26.94896
#
# Velocity S-wave (km/s) = 2.97142 3.98674 3.51592
# Velocity P-wave (km/s) = 5.37952 6.87727 6.17398
#
# Compressibility (1/GPa) = 0.02672069
#
# Stress axis : x y z
#
# Youngs Moduli (GPa) = 81.43522 74.21925 48.30902
#
# Poissons Ratio (x) = 0.32575 0.28537
# Poissons Ratio (y) = 0.35742 -0.02077
# Poissons Ratio (z) = 0.48105 -0.03190
#
# Static dielectric constant tensor:
#      x y z
#    x 1.995780 -0.035380 0.294780 
#    y -0.035380 1.804170 -0.001060 
#    z 0.294780 -0.001060 2.580180 
# 
# From -- ./inp_files/529518.got.cif
#   From: 2010.05.17/outbox.cif.g08.bks.cpg/sg2_265_cif.got.tgz:529518.got - 2010.06.03 11:33:40.
