data_PCOD9016842
_publ_section_title
;
Structure prediction by ZEFSAII (Michael W. Deem and Ramdas Pophale) SiO2 
 PCOD9016842
Probable space group: P -1
;
_chemical_formula_sum "Si O2"
_cell_formula_units_Z 16
_cell_length_a 21.666857
_cell_length_b 12.081895
_cell_length_c 19.986922
_cell_angle_alpha 151.875929
_cell_angle_beta 161.758185
_cell_angle_gamma 31.569581
_cell_volume 768.344751
_symmetry_space_group_name_H-M "P -1"
_symmetry_group_IT_number 2
_symmetry_cell_setting 'triclinic'
loop_
_space_group_symop_operation_xyz
x,y,z
-x,-y,-z
loop_
_atom_site_type_symbol
_atom_site_label
_atom_site_fract_x
_atom_site_fract_y
_atom_site_fract_z
Si Si1 0.989002 0.396476 0.223807
Si Si2 0.032235 0.915659 0.563746
Si Si3 0.082317 0.017546 0.877009
Si Si4 0.282316 0.073800 0.640545
Si Si5 0.182652 0.684313 0.138315
Si Si6 0.694651 0.782463 0.905536
Si Si7 0.326283 0.610718 0.985863
Si Si8 0.625462 0.923125 0.522608
O O1 0.086351 0.635327 0.468636
O O2 0.891478 0.419635 0.062791
O O3 0.156696 0.180795 0.285777
O O4 0.820600 0.370253 0.091268
O O5 0.829678 0.953419 0.418543
O O6 0.000000 0.000000 0.500000
O O7 0.195825 0.051900 0.841992
O O8 0.201577 0.179174 0.037967
O O9 0.886871 0.952916 0.602589
O O10 0.652545 0.144423 0.620984
O O11 0.002418 0.160874 0.936104
O O12 0.353148 0.335870 0.848183
O O13 0.465764 0.878767 0.717860
O O14 0.264266 0.480532 0.164301
O O15 0.783055 0.220755 0.092840
O O16 0.522010 0.725507 0.270429
O O17 0.500000 0.000000 0.500000
#
# Coordination Sequence:
#
# PCOD9016842 Si02
#       8
#     2   2   2   2   2   2   2   2
#     4  11  22  43  67  96 134 164 217 278 323 382
#     4  10  21  42  69  96 126 169 210 267 335 376
#     4  11  25  45  67  93 132 178 217 263 326 381
#     4  10  25  44  67  99 127 169 224 268 320 383
#     4  12  24  44  65  95 140 173 212 267 322 393
#     4  11  25  45  65  99 133 173 218 262 321 391
#     4  11  23  45  69  96 128 168 221 275 324 376
#     4  12  24  39  65 103 128 172 217 263 335 382
#
# _framework density 20.823986999999999
#
# number of rings (size 3 to 8) (size 9 to 14) (size 15 to 20)
#    0.000    1.000    3.750    2.625    1.750    2.500 
#    4.500    0.000    0.000    0.000    0.000    0.000 
#    0.000    0.000    0.000    0.000    0.000    0.000 
#
# Total GULP energy -89540.748143 kJ/mol
# GULP energy per Si atom -5596.296759 kJ/mol
# Density = 2.077659 g / cm^3
# Si number density = 20.823987 Si / 1000 Ang^3
#
#
#
# Elastic Constant Matrix: (Units=GPa)
#
#
# Indices 1 2 3 4 5 6 
#
# 1 78.9291 10.6704 4.7847 6.3976 14.0180 19.5306
# 2 10.6704 80.6210 18.2633 1.4189 12.9727 16.3355
# 3 4.7847 18.2633 71.3212 0.7597 6.9512 10.9674
# 4 6.3976 1.4189 0.7597 31.2234 5.9449 1.2934
# 5 14.0180 12.9727 6.9512 5.9449 13.4214 3.6563
# 6 19.5306 16.3355 10.9674 1.2934 3.6563 32.5248
#
#
#
# Elastic Compliance Matrix: (Units=1/GPa)
#
#
# Indices 1 2 3 4 5 6 
#
# 1 0.018329 0.002507 0.001676 0.000273 -0.019661 -0.010632
# 2 0.002507 0.016631 -0.001660 0.002280 -0.016801 -0.007501
# 3 0.001676 -0.001660 0.015772 0.000964 -0.007464 -0.004690
# 4 0.000273 0.002280 0.000964 0.035387 -0.018398 -0.000973
# 5 -0.019661 -0.016801 -0.007464 -0.018398 0.120590 0.009936
# 6 -0.010632 -0.007501 -0.004690 -0.000973 0.009936 0.041401
#
#
# Mechanical properties :
#
#
# Convention : Reuss Voigt Hill
#
# Bulk Modulus (GPa) = 17.92771 33.14533 25.53652
# Shear Modulus (GPa) = 19.10899 28.57746 23.84322
#
# Velocity S-wave (km/s) = 3.03255 3.70852 3.38744
# Velocity P-wave (km/s) = 4.57052 5.85568 5.25255
#
# Compressibility (1/GPa) = 0.05577957
#
# Stress axis : x y z
#
# Youngs Moduli (GPa) = 54.55706 60.12858 63.40248
#
# Poissons Ratio (x) = -0.15076 -0.10629
# Poissons Ratio (y) = -0.13679 0.10527
# Poissons Ratio (z) = -0.09146 0.09984
#
# Static dielectric constant tensor:
#      x y z
#    x 1.732620 -0.006460 -0.008670 
#    y -0.006460 1.724410 0.026150 
#    z -0.008670 0.026150 1.732540 
# 
# From -- ./inp_files/601459.got.cif
#   From: 2010.05.17/outbox.cif.g08.bks.cpg/sg2_301_cif.got.tgz:601459.got - 2010.06.03 11:33:40.
