data_PCOD9016702
_publ_section_title
;
Structure prediction by ZEFSAII (Michael W. Deem and Ramdas Pophale) SiO2 
 PCOD9016702
Probable space group: P -1
;
_chemical_formula_sum "Si O2"
_cell_formula_units_Z 16
_cell_length_a 19.216921
_cell_length_b 7.370811
_cell_length_c 5.250084
_cell_angle_alpha 115.441895
_cell_angle_beta 103.061559
_cell_angle_gamma 107.702001
_cell_volume 582.171565
_symmetry_space_group_name_H-M "P -1"
_symmetry_group_IT_number 2
_symmetry_cell_setting 'triclinic'
loop_
_space_group_symop_operation_xyz
x,y,z
-x,-y,-z
loop_
_atom_site_type_symbol
_atom_site_label
_atom_site_fract_x
_atom_site_fract_y
_atom_site_fract_z
Si Si1 0.563615 0.243442 0.805349
Si Si2 0.789745 0.084040 0.222180
Si Si3 0.583554 0.740975 0.389633
Si Si4 0.710984 0.619041 0.185932
Si Si5 0.628748 0.041957 0.107219
Si Si6 0.150068 0.150076 0.214988
Si Si7 0.979510 0.883119 0.199908
Si Si8 0.030365 0.614955 0.316600
O O1 0.513655 0.379363 0.772934
O O2 0.581598 0.181094 0.067223
O O3 0.500000 0.000000 0.500000
O O4 0.654480 0.383669 0.857780
O O5 0.745368 0.837629 0.168012
O O6 0.872832 0.244719 0.520680
O O7 0.814474 0.022538 0.931609
O O8 0.724649 0.175133 0.237269
O O9 0.642518 0.631158 0.318443
O O10 0.605942 0.855736 0.752524
O O11 0.606802 0.921075 0.285646
O O12 0.786614 0.657854 0.442452
O O13 0.117720 0.221717 0.981885
O O14 0.062287 0.020529 0.187631
O O15 0.982089 0.625994 0.006370
O O16 0.012264 0.857187 0.504207
O O17 0.000000 0.500000 0.500000
#
# Coordination Sequence:
#
# PCOD9016702 Si02
#       8
#     2   2   2   2   2   2   2   2
#     4  10  23  45  65 104 141 175 229 293 354 416
#     4  11  23  45  66 100 136 184 236 283 345 427
#     4  10  21  42  69 100 133 186 230 276 350 423
#     4  11  22  42  73  97 135 187 234 288 342 421
#     4  10  22  42  70  95 140 178 222 294 347 404
#     4  11  21  41  72  99 139 173 253 284 337 416
#     4  11  23  42  73  98 136 191 231 293 344 422
#     4  12  27  44  70 101 143 184 227 291 360 412
#
# _framework density 27.483305999999999
#
# number of rings (size 3 to 8) (size 9 to 14) (size 15 to 20)
#    0.000    1.250    3.750    1.500    1.750    1.000 
#   11.250    5.625    0.000    0.000    0.000    0.000 
#    0.000    0.000    0.000    0.000    0.000    0.000 
#
# Total GULP energy -89270.189690 kJ/mol
# GULP energy per Si atom -5579.386856 kJ/mol
# Density = 2.742075 g / cm^3
# Si number density = 27.483306 Si / 1000 Ang^3
#
#
#
# Elastic Constant Matrix: (Units=GPa)
#
#
# Indices 1 2 3 4 5 6 
#
# 1 148.0738 30.2765 60.9476 1.7901 27.7317 13.1659
# 2 30.2765 120.3442 62.0591 30.6303 15.8822 4.4616
# 3 60.9476 62.0591 166.1428 17.3568 32.6145 17.6241
# 4 1.7901 30.6303 17.3568 38.6495 6.2156 5.6251
# 5 27.7317 15.8822 32.6145 6.2156 83.5999 6.2879
# 6 13.1659 4.4616 17.6241 5.6251 6.2879 45.3621
#
#
#
# Elastic Compliance Matrix: (Units=1/GPa)
#
#
# Indices 1 2 3 4 5 6 
#
# 1 0.008383 -0.001125 -0.002389 0.002053 -0.001681 -0.001416
# 2 -0.001125 0.012530 -0.003519 -0.008502 -0.000118 0.001532
# 3 -0.002389 -0.003519 0.008832 -0.000475 -0.001793 -0.002085
# 4 0.002053 -0.008502 -0.000475 0.033425 -0.001097 -0.003568
# 5 -0.001681 -0.000118 -0.001793 -0.001097 0.013362 -0.000520
# 6 -0.001416 0.001532 -0.002085 -0.003568 -0.000520 0.023629
#
#
# Mechanical properties :
#
#
# Convention : Reuss Voigt Hill
#
# Bulk Modulus (GPa) = 63.77978 82.34746 73.06362
# Shear Modulus (GPa) = 41.85731 52.27414 47.06573
#
# Velocity S-wave (km/s) = 3.90681 4.36596 4.14275
# Velocity P-wave (km/s) = 6.60363 7.44602 7.03744
#
# Compressibility (1/GPa) = 0.01567895
#
# Stress axis : x y z
#
# Youngs Moduli (GPa) = 119.29359 79.81055 113.21944
#
# Poissons Ratio (x) = 0.08979 0.27050
# Poissons Ratio (y) = 0.13421 0.39839
# Poissons Ratio (z) = 0.28501 0.28083
#
# Static dielectric constant tensor:
#      x y z
#    x 2.244630 -0.187780 -0.181560 
#    y -0.187780 2.629990 -0.281260 
#    z -0.181560 -0.281260 2.836890 
# 
# From -- ./inp_files/117257.got.cif
#   From: 2010.05.17/outbox.cif.g08.bks.cpg/sg2_59_cif.got.tgz:117257.got - 2010.06.03 11:33:40.
