data_PCOD9016537
_publ_section_title
;
Structure prediction by ZEFSAII (Michael W. Deem and Ramdas Pophale) SiO2 
 PCOD9016537
Probable space group: P -1
;
_chemical_formula_sum "Si O2"
_cell_formula_units_Z 15
_cell_length_a 8.098432
_cell_length_b 14.228412
_cell_length_c 11.297070
_cell_angle_alpha 47.508046
_cell_angle_beta 76.534888
_cell_angle_gamma 110.828451
_cell_volume 652.443279
_symmetry_space_group_name_H-M "P -1"
_symmetry_group_IT_number 2
_symmetry_cell_setting 'triclinic'
loop_
_space_group_symop_operation_xyz
x,y,z
-x,-y,-z
loop_
_atom_site_type_symbol
_atom_site_label
_atom_site_fract_x
_atom_site_fract_y
_atom_site_fract_z
Si Si1 0.847916 0.489258 0.434512
Si Si2 0.753986 0.377002 0.891380
Si Si3 0.428368 0.032311 0.365724
Si Si4 0.539907 0.631684 0.247944
Si Si5 0.883092 0.688924 0.737651
Si Si6 0.000000 0.000000 0.000000
Si Si7 0.451855 0.140925 0.652284
Si Si8 0.566103 0.429026 0.220933
O O1 0.689753 0.514625 0.499928
O O2 0.650811 0.284993 0.593586
O O3 0.000000 0.500000 0.500000
O O4 0.047528 0.618295 0.190326
O O5 0.571087 0.323496 0.864191
O O6 0.902349 0.579656 0.738136
O O7 0.586822 0.242324 0.141091
O O8 0.511353 0.984192 0.286025
O O9 0.140138 0.895970 0.526802
O O10 0.500000 0.000000 0.500000
O O11 0.582264 0.530850 0.245878
O O12 0.768431 0.814338 0.120680
O O13 0.670343 0.659836 0.741375
O O14 0.793770 0.584293 0.967078
O O15 0.194576 0.043279 0.832495
O O16 0.523907 0.267436 0.419547
#
# Coordination Sequence:
#
# PCOD9016537 Si02
#       8
#     2   2   2   2   2   1   2   2
#     4   9  19  40  65  90 125 165 213 257 313 375
#     4  10  21  42  68  91 128 168 207 262 316 372
#     4  12  27  40  66  99 127 168 212 259 318 378
#     4   9  21  41  64  92 125 169 210 257 320 375
#     4  10  23  46  64  96 127 163 220 256 314 384
#     4  10  24  40  58 100 134 154 220 262 308 386
#     4  11  24  41  63  96 131 166 208 265 317 372
#     4  10  23  42  69  88 125 177 202 265 322 367
#
# _framework density 22.990506
#
# number of rings (size 3 to 8) (size 9 to 14) (size 15 to 20)
#    0.000    1.867    1.333    0.800    5.600    4.267 
#    0.000   10.000    0.000    0.000    0.000    0.000 
#    0.000    0.000    0.000    0.000    0.000    0.000 
#
# Total GULP energy -83594.180220 kJ/mol
# GULP energy per Si atom -5572.945348 kJ/mol
# Density = 2.293818 g / cm^3
# Si number density = 22.990506 Si / 1000 Ang^3
#
#
#
# Elastic Constant Matrix: (Units=GPa)
#
#
# Indices 1 2 3 4 5 6 
#
# 1 58.5774 11.5642 26.3589 -0.2617 -19.7749 5.3930
# 2 11.5642 74.2030 5.2123 6.7737 -15.2272 6.2434
# 3 26.3589 5.2123 93.6192 4.0720 -42.3141 9.0679
# 4 -0.2617 6.7737 4.0720 33.1204 -1.4370 -8.0383
# 5 -19.7749 -15.2272 -42.3141 -1.4370 37.1236 1.5417
# 6 5.3930 6.2434 9.0679 -8.0383 1.5417 35.3638
#
#
#
# Elastic Compliance Matrix: (Units=1/GPa)
#
#
# Indices 1 2 3 4 5 6 
#
# 1 0.021402 -0.001033 -0.001347 0.000208 0.009578 -0.003106
# 2 -0.001033 0.017023 0.006418 -0.005203 0.013807 -0.006278
# 3 -0.001347 0.006418 0.026671 -0.005737 0.032529 -0.010489
# 4 0.000208 -0.005203 -0.005737 0.034169 -0.007674 0.010459
# 5 0.009578 0.013807 0.032529 -0.007674 0.075198 -0.017262
# 6 -0.003106 -0.006278 -0.010489 0.010459 -0.017262 0.035679
#
#
# Mechanical properties :
#
#
# Convention : Reuss Voigt Hill
#
# Bulk Modulus (GPa) = 13.66654 34.74116 24.20385
# Shear Modulus (GPa) = 22.07905 33.33919 27.70912
#
# Velocity S-wave (km/s) = 3.10232 3.81219 3.47543
# Velocity P-wave (km/s) = 4.33473 5.87545 5.16289
#
# Compressibility (1/GPa) = 0.07317143
#
# Stress axis : x y z
#
# Youngs Moduli (GPa) = 46.72478 58.74329 37.49337
#
# Poissons Ratio (x) = 0.06068 0.05052
# Poissons Ratio (y) = 0.04826 -0.24063
# Poissons Ratio (z) = 0.06296 -0.37701
#
# Static dielectric constant tensor:
#      x y z
#    x 1.868590 -0.021870 0.000960 
#    y -0.021870 1.864360 0.058410 
#    z 0.000960 0.058410 1.850930 
# 
# From -- ./inp_files/52763.got.cif
#   From: 2010.05.17/outbox.cif.g08.bks.cpg/sg2_27_cif.got.tgz:52763.got - 2010.06.03 11:33:40.
