data_PCOD9016638
_publ_section_title
;
Structure prediction by ZEFSAII (Michael W. Deem and Ramdas Pophale) SiO2 
 PCOD9016638
Probable space group: P -1
;
_chemical_formula_sum "Si O2"
_cell_formula_units_Z 14
_cell_length_a 8.429483
_cell_length_b 14.056745
_cell_length_c 9.059713
_cell_angle_alpha 133.782280
_cell_angle_beta 63.932040
_cell_angle_gamma 124.254843
_cell_volume 638.349763
_symmetry_space_group_name_H-M "P -1"
_symmetry_group_IT_number 2
_symmetry_cell_setting 'triclinic'
loop_
_space_group_symop_operation_xyz
x,y,z
-x,-y,-z
loop_
_atom_site_type_symbol
_atom_site_label
_atom_site_fract_x
_atom_site_fract_y
_atom_site_fract_z
Si Si1 0.566874 0.100072 0.718329
Si Si2 0.842646 0.470214 0.164427
Si Si3 0.814333 0.163952 0.950616
Si Si4 0.778203 0.941551 0.967614
Si Si5 0.704691 0.631122 0.600993
Si Si6 0.228415 0.346592 0.052437
Si Si7 0.641461 0.391247 0.892780
O O1 0.704404 0.076221 0.758559
O O2 0.378533 0.098091 0.879456
O O3 0.683449 0.253844 0.761206
O O4 0.500000 0.000000 0.500000
O O5 0.860723 0.591291 0.404575
O O6 0.790819 0.316641 0.103055
O O7 0.667342 0.462394 0.120282
O O8 0.000000 0.500000 0.000000
O O9 0.043728 0.218687 0.927057
O O10 0.746741 0.064166 0.014867
O O11 0.724371 0.793922 0.737641
O O12 0.000000 0.000000 0.000000
O O13 0.500000 0.500000 0.500000
O O14 0.756921 0.645127 0.768900
O O15 0.418225 0.342701 0.895920
O O16 0.227955 0.497167 0.158186
#
# Coordination Sequence:
#
# PCOD9016638 Si02
#       7
#     2   2   2   2   2   2   2
#     4  11  25  45  69 102 140 185 228 294 355 414
#     4  11  23  43  66 103 138 177 230 297 347 407
#     4  11  24  45  71 101 144 180 234 296 355 414
#     4  12  25  49  70 103 148 188 235 287 353 431
#     4  12  24  44  73 101 136 191 237 281 346 424
#     4  11  21  42  70 100 134 185 233 286 348 416
#     4  10  21  42  68  96 146 174 233 287 350 415
#
# _framework density 21.931552
#
# number of rings (size 3 to 8) (size 9 to 14) (size 15 to 20)
#    0.000    0.857    5.714    1.286    0.000    5.143 
#    0.000    2.143    0.000    0.000    0.000    0.000 
#    0.000    0.000    0.000    0.000    0.000    0.000 
#
# Total GULP energy -78004.205591 kJ/mol
# GULP energy per Si atom -5571.728971 kJ/mol
# Density = 2.188163 g / cm^3
# Si number density = 21.931552 Si / 1000 Ang^3
#
#
#
# Elastic Constant Matrix: (Units=GPa)
#
#
# Indices 1 2 3 4 5 6 
#
# 1 97.7280 26.3535 31.0647 -3.1222 24.5359 11.3594
# 2 26.3535 128.7911 30.8915 3.7478 -2.0544 -14.2563
# 3 31.0647 30.8915 114.5568 2.8206 5.2108 10.2289
# 4 -3.1222 3.7478 2.8206 19.7394 2.9875 7.2408
# 5 24.5359 -2.0544 5.2108 2.9875 33.0598 4.3516
# 6 11.3594 -14.2563 10.2289 7.2408 4.3516 48.8135
#
#
#
# Elastic Compliance Matrix: (Units=1/GPa)
#
#
# Indices 1 2 3 4 5 6 
#
# 1 0.015500 -0.003373 -0.002580 0.006659 -0.011378 -0.004025
# 2 -0.003373 0.009617 -0.002113 -0.004148 0.003235 0.004363
# 3 -0.002580 -0.002113 0.010180 -0.000777 0.000523 -0.002081
# 4 0.006659 -0.004148 -0.000777 0.057768 -0.008933 -0.010371
# 5 -0.011378 0.003235 0.000523 -0.008933 0.039449 0.001291
# 6 -0.004025 0.004363 -0.002081 -0.010371 0.001291 0.024557
#
#
# Mechanical properties :
#
#
# Convention : Reuss Voigt Hill
#
# Bulk Modulus (GPa) = 52.18505 57.52171 54.85338
# Shear Modulus (GPa) = 27.84100 37.17362 32.50731
#
# Velocity S-wave (km/s) = 3.56680 4.12148 3.85413
# Velocity P-wave (km/s) = 6.38818 6.99526 6.69860
#
# Compressibility (1/GPa) = 0.01916258
#
# Stress axis : x y z
#
# Youngs Moduli (GPa) = 64.51767 103.98302 98.23139
#
# Poissons Ratio (x) = 0.35078 0.25348
# Poissons Ratio (y) = 0.21765 0.20758
# Poissons Ratio (z) = 0.16648 0.21973
#
# Static dielectric constant tensor:
#      x y z
#    x 2.037290 0.066030 0.062140 
#    y 0.066030 1.923760 0.096570 
#    z 0.062140 0.096570 1.842270 
# 
# From -- ./inp_files/198308.got.cif
#   From: 2010.05.17/outbox.cif.g08.bks.cpg/sg2_100_cif.got.tgz:198308.got - 2010.06.03 11:33:40.
