data_PCOD9016728
_publ_section_title
;
Structure prediction by ZEFSAII (Michael W. Deem and Ramdas Pophale) SiO2 
 PCOD9016728
Probable space group: P -1
;
_chemical_formula_sum "Si O2"
_cell_formula_units_Z 12
_cell_length_a 17.159517
_cell_length_b 14.547299
_cell_length_c 9.567167
_cell_angle_alpha 57.536184
_cell_angle_beta 47.510331
_cell_angle_gamma 17.467385
_cell_volume 462.014519
_symmetry_space_group_name_H-M "P -1"
_symmetry_group_IT_number 2
_symmetry_cell_setting 'triclinic'
loop_
_space_group_symop_operation_xyz
x,y,z
-x,-y,-z
loop_
_atom_site_type_symbol
_atom_site_label
_atom_site_fract_x
_atom_site_fract_y
_atom_site_fract_z
Si Si1 0.404190 0.859672 0.000653
Si Si2 0.774961 0.826835 0.285360
Si Si3 0.267605 0.614537 0.582278
Si Si4 0.714730 0.343718 0.149281
Si Si5 0.920767 0.660473 0.816089
Si Si6 0.342315 0.981103 0.442620
O O1 0.670499 0.505574 0.003515
O O2 0.371459 0.006645 0.000787
O O3 0.067278 0.127386 0.248135
O O4 0.367120 0.930909 0.826382
O O5 0.051540 0.494760 0.125459
O O6 0.500000 0.000000 0.500000
O O7 0.879150 0.765168 0.362280
O O8 0.372511 0.605236 0.353982
O O9 0.220276 0.704238 0.724685
O O10 0.578694 0.222883 0.516000
O O11 0.000000 0.000000 0.000000
O O12 0.286642 0.335240 0.703252
O O13 0.836854 0.796134 0.658060
#
# Coordination Sequence:
#
# PCOD9016728 Si02
#       6
#     2   2   2   2   2   2
#     4  11  23  46  70 102 147 190 241 302 364 437
#     4  10  23  42  67 108 141 192 242 296 360 439
#     4  10  24  46  68 107 139 191 237 307 366 436
#     4  11  25  45  73 102 142 186 248 301 372 435
#     4  10  21  43  68 101 142 195 235 297 362 431
#     4  10  21  42  69 101 146 186 239 298 362 432
#
# _framework density 25.973210000000002
#
# number of rings (size 3 to 8) (size 9 to 14) (size 15 to 20)
#    0.000    1.667    1.667    1.500    2.333    3.333 
#    9.000    5.000    0.000    0.000    0.000    0.000 
#    0.000    0.000    0.000    0.000    0.000    0.000 
#
# Total GULP energy -67111.549219 kJ/mol
# GULP energy per Si atom -5592.629102 kJ/mol
# Density = 2.591409 g / cm^3
# Si number density = 25.973210 Si / 1000 Ang^3
#
#
#
# Elastic Constant Matrix: (Units=GPa)
#
#
# Indices 1 2 3 4 5 6 
#
# 1 87.0006 39.6471 47.4068 9.7213 24.3118 8.1423
# 2 39.6471 145.9487 59.3114 -14.5831 19.2684 26.5600
# 3 47.4068 59.3114 119.1493 -17.3466 9.9868 9.0414
# 4 9.7213 -14.5831 -17.3466 58.2042 -0.8133 14.0728
# 5 24.3118 19.2684 9.9868 -0.8133 68.2940 21.2921
# 6 8.1423 26.5600 9.0414 14.0728 21.2921 49.1762
#
#
#
# Elastic Compliance Matrix: (Units=1/GPa)
#
#
# Indices 1 2 3 4 5 6 
#
# 1 0.018700 -0.003026 -0.006782 -0.007091 -0.006314 0.004548
# 2 -0.003026 0.010210 -0.002966 0.003558 0.000443 -0.005678
# 3 -0.006782 -0.002966 0.013255 0.004840 0.001980 -0.001954
# 4 -0.007091 0.003558 0.004840 0.023204 0.004242 -0.010115
# 5 -0.006314 0.000443 0.001980 0.004242 0.019383 -0.009165
# 6 0.004548 -0.005678 -0.001954 -0.010115 -0.009165 0.029871
#
#
# Mechanical properties :
#
#
# Convention : Reuss Voigt Hill
#
# Bulk Modulus (GPa) = 60.18683 71.64770 65.91726
# Shear Modulus (GPa) = 34.31474 48.85044 41.58259
#
# Velocity S-wave (km/s) = 3.63872 4.34153 4.00557
# Velocity P-wave (km/s) = 6.39349 7.26477 6.84301
#
# Compressibility (1/GPa) = 0.01661493
#
# Stress axis : x y z
#
# Youngs Moduli (GPa) = 53.47662 97.94651 75.44415
#
# Poissons Ratio (x) = 0.29642 0.51166
# Poissons Ratio (y) = 0.16184 0.22380
# Poissons Ratio (z) = 0.36268 0.29055
#
# Static dielectric constant tensor:
#      x y z
#    x 2.109730 0.006080 -0.071230 
#    y 0.006080 2.110290 0.089330 
#    z -0.071230 0.089330 2.112090 
# 
# From -- ./inp_files/335197.got.cif
#   From: 2010.05.17/outbox.cif.g08.bks.cpg/sg2_168_cif.got.tgz:335197.got - 2010.06.03 11:33:40.
