data_PCOD9016407
_publ_section_title
;
Structure prediction by ZEFSAII (Michael W. Deem and Ramdas Pophale) SiO2 
 PCOD9016407
Probable space group: P -1
;
_chemical_formula_sum "Si O2"
_cell_formula_units_Z 14
_cell_length_a 11.195099
_cell_length_b 5.758866
_cell_length_c 10.656859
_cell_angle_alpha 49.816677
_cell_angle_beta 92.020502
_cell_angle_gamma 89.034082
_cell_volume 523.869480
_symmetry_space_group_name_H-M "P -1"
_symmetry_group_IT_number 2
_symmetry_cell_setting 'triclinic'
loop_
_space_group_symop_operation_xyz
x,y,z
-x,-y,-z
loop_
_atom_site_type_symbol
_atom_site_label
_atom_site_fract_x
_atom_site_fract_y
_atom_site_fract_z
Si Si1 0.609416 0.300470 0.138401
Si Si2 0.053433 0.161289 0.137316
Si Si3 0.727436 0.162951 0.830695
Si Si4 0.167288 0.208440 0.390059
Si Si5 0.335785 0.701990 0.505091
Si Si6 0.834820 0.865013 0.298478
Si Si7 0.524479 0.702459 0.217554
O O1 0.611835 0.532190 0.177022
O O2 0.748272 0.173260 0.169455
O O3 0.557810 0.969406 0.220326
O O4 0.500000 0.500000 0.000000
O O5 0.093502 0.108664 0.302300
O O6 0.173001 0.107008 0.077433
O O7 0.950717 0.919331 0.198777
O O8 0.000000 0.500000 0.000000
O O9 0.799020 0.455420 0.761520
O O10 0.680374 0.210699 0.670539
O O11 0.601649 0.186851 0.890322
O O12 0.121645 0.181387 0.539020
O O13 0.289521 0.000281 0.472537
O O14 0.242259 0.433214 0.620169
O O15 0.468539 0.595013 0.588885
#
# Coordination Sequence:
#
# PCOD9016407 Si02
#       7
#     2   2   2   2   2   2   2
#     4  11  25  43  69 102 135 192 230 286 349 411
#     4  11  26  43  64  97 137 179 229 286 350 407
#     4  10  24  39  65 101 135 179 226 282 350 414
#     4  10  21  42  67  97 129 181 229 280 346 407
#     4   9  20  40  66 101 130 177 224 288 345 406
#     4  10  22  43  67  95 134 178 237 280 341 417
#     4  11  23  42  69 101 144 175 235 284 350 415
#
# _framework density 26.724212000000001
#
# number of rings (size 3 to 8) (size 9 to 14) (size 15 to 20)
#    0.000    1.714    1.429    1.286    6.000    7.429 
#    0.000    0.000    0.000    0.000    0.000    0.000 
#    0.000    0.000    0.000    0.000    0.000    0.000 
#
# Total GULP energy -77941.784202 kJ/mol
# GULP energy per Si atom -5567.270300 kJ/mol
# Density = 2.666339 g / cm^3
# Si number density = 26.724212 Si / 1000 Ang^3
#
#
#
# Elastic Constant Matrix: (Units=GPa)
#
#
# Indices 1 2 3 4 5 6 
#
# 1 143.1426 47.0522 23.4200 -17.8181 0.5844 -17.0552
# 2 47.0522 101.6396 21.5709 -25.9563 3.5245 -19.7107
# 3 23.4200 21.5709 71.3508 -19.5081 24.9495 -5.6534
# 4 -17.8181 -25.9563 -19.5081 50.7395 -8.0782 22.0034
# 5 0.5844 3.5245 24.9495 -8.0782 41.8982 -7.3104
# 6 -17.0552 -19.7107 -5.6534 22.0034 -7.3104 28.5859
#
#
#
# Elastic Compliance Matrix: (Units=1/GPa)
#
#
# Indices 1 2 3 4 5 6 
#
# 1 0.008762 -0.003038 -0.002647 -0.000780 0.002218 0.003777
# 2 -0.003038 0.013468 -0.002532 0.002877 0.001887 0.005242
# 3 -0.002647 -0.002532 0.021428 0.007529 -0.012467 -0.008071
# 4 -0.000780 0.002877 0.007529 0.033600 -0.002328 -0.023451
# 5 0.002218 0.001887 -0.012467 -0.002328 0.032440 0.010247
# 6 0.003777 0.005242 -0.008071 -0.023451 0.010247 0.059925
#
#
# Mechanical properties :
#
#
# Convention : Reuss Voigt Hill
#
# Bulk Modulus (GPa) = 36.73371 55.57990 46.15680
# Shear Modulus (GPa) = 25.62374 39.18404 32.40389
#
# Velocity S-wave (km/s) = 3.09984 3.83330 3.48592
# Velocity P-wave (km/s) = 5.15629 6.35885 5.78888
#
# Compressibility (1/GPa) = 0.02722295
#
# Stress axis : x y z
#
# Youngs Moduli (GPa) = 114.13472 74.24923 46.66809
#
# Poissons Ratio (x) = 0.22556 0.12353
# Poissons Ratio (y) = 0.34672 0.11819
# Poissons Ratio (z) = 0.30212 0.18803
#
# Static dielectric constant tensor:
#      x y z
#    x 1.794650 0.186780 -0.066750 
#    y 0.186780 1.941270 0.138560 
#    z -0.066750 0.138560 2.254770 
# 
# From -- ./inp_files/27917.got.cif
#   From: 2010.05.17/outbox.cif.g08.bks.cpg/sg2_14_cif.got.tgz:27917.got - 2010.06.03 11:33:40.
