data_PCOD9016517
_publ_section_title
;
Structure prediction by ZEFSAII (Michael W. Deem and Ramdas Pophale) SiO2 
 PCOD9016517
Probable space group: P -1
;
_chemical_formula_sum "Si O2"
_cell_formula_units_Z 12
_cell_length_a 9.321976
_cell_length_b 10.991449
_cell_length_c 10.147070
_cell_angle_alpha 100.786499
_cell_angle_beta 33.478124
_cell_angle_gamma 114.986655
_cell_volume 490.648054
_symmetry_space_group_name_H-M "P -1"
_symmetry_group_IT_number 2
_symmetry_cell_setting 'triclinic'
loop_
_space_group_symop_operation_xyz
x,y,z
-x,-y,-z
loop_
_atom_site_type_symbol
_atom_site_label
_atom_site_fract_x
_atom_site_fract_y
_atom_site_fract_z
Si Si1 0.216643 0.164376 0.821960
Si Si2 0.378431 0.120027 0.139400
Si Si3 0.746870 0.550602 0.201604
Si Si4 0.723321 0.947171 0.512651
Si Si5 0.650847 0.592631 0.777253
Si Si6 0.298209 0.787719 0.346984
O O1 0.107482 0.277851 0.895614
O O2 0.357204 0.146911 0.573968
O O3 0.448221 0.230146 0.778078
O O4 0.000000 0.000000 0.000000
O O5 0.463280 0.119357 0.225610
O O6 0.344740 0.258743 0.182259
O O7 0.609707 0.140759 0.852928
O O8 0.059375 0.990945 0.310901
O O9 0.500000 0.500000 0.500000
O O10 0.536890 0.479670 0.222237
O O11 0.000000 0.500000 0.000000
O O12 0.729033 0.096182 0.517158
O O13 0.999716 0.642551 0.523118
O O14 0.500000 0.500000 0.000000
#
# Coordination Sequence:
#
# PCOD9016517 Si02
#       6
#     2   2   2   2   2   2
#     4  12  26  48  80 120 160 210 269 341 407 491
#     4  10  21  42  68 109 150 205 256 321 397 481
#     4  12  32  57  83 119 166 222 275 340 416 490
#     4  10  22  42  70 113 155 200 254 327 402 478
#     4  11  27  48  77 109 156 210 275 332 398 490
#     4  11  24  44  80 111 156 208 264 330 410 477
#
# _framework density 24.457447999999999
#
# number of rings (size 3 to 8) (size 9 to 14) (size 15 to 20)
#    0.000    1.000    1.667    3.000    7.000    4.000 
#    0.000    0.000    0.000    0.000    0.000    0.000 
#    0.000    0.000    0.000    0.000    0.000    0.000 
#
# Total GULP energy -67093.628595 kJ/mol
# GULP energy per Si atom -5591.135716 kJ/mol
# Density = 2.440178 g / cm^3
# Si number density = 24.457448 Si / 1000 Ang^3
#
#
#
# Elastic Constant Matrix: (Units=GPa)
#
#
# Indices 1 2 3 4 5 6 
#
# 1 172.6249 64.2039 82.1582 -8.3257 9.6523 12.6700
# 2 64.2039 130.2124 40.0761 12.8637 -3.6227 -21.0697
# 3 82.1582 40.0761 138.0049 -5.6376 12.7819 10.8511
# 4 -8.3257 12.8637 -5.6376 33.4538 8.7126 -0.6171
# 5 9.6523 -3.6227 12.7819 8.7126 44.7223 8.3847
# 6 12.6700 -21.0697 10.8511 -0.6171 8.3847 56.1269
#
#
#
# Elastic Compliance Matrix: (Units=1/GPa)
#
#
# Indices 1 2 3 4 5 6 
#
# 1 0.009882 -0.004518 -0.004043 0.003868 -0.001559 -0.002870
# 2 -0.004518 0.012061 -0.001764 -0.006674 0.002743 0.005405
# 3 -0.004043 -0.001764 0.010586 0.002064 -0.002434 -0.001410
# 4 0.003868 -0.006674 0.002064 0.035964 -0.008578 -0.002101
# 5 -0.001559 0.002743 -0.002434 -0.008578 0.025675 -0.002078
# 6 -0.002870 0.005405 -0.001410 -0.002101 -0.002078 0.021054
#
#
# Mechanical properties :
#
#
# Convention : Reuss Voigt Hill
#
# Bulk Modulus (GPa) = 84.18986 90.41320 87.30153
# Shear Modulus (GPa) = 35.75742 43.82087 39.78914
#
# Velocity S-wave (km/s) = 3.82779 4.23746 4.03783
# Velocity P-wave (km/s) = 7.35076 7.80956 7.58363
#
# Compressibility (1/GPa) = 0.01187791
#
# Stress axis : x y z
#
# Youngs Moduli (GPa) = 101.19659 82.91313 94.46518
#
# Poissons Ratio (x) = 0.37460 0.38191
# Poissons Ratio (y) = 0.45721 0.16668
# Poissons Ratio (z) = 0.40912 0.14630
#
# Static dielectric constant tensor:
#      x y z
#    x 1.963590 -0.125610 -0.074560 
#    y -0.125610 2.038210 0.051210 
#    z -0.074560 0.051210 2.043070 
# 
# From -- ./inp_files/82057.got.cif
#   From: 2010.05.17/outbox.cif.g08.bks.cpg/sg2_42_cif.got.tgz:82057.got - 2010.06.03 11:33:40.
