data_PCOD9016068
_publ_section_title
;
Structure prediction by ZEFSAII (Michael W. Deem and Ramdas Pophale) SiO2 
 PCOD9016068
Probable space group: P -1
;
_chemical_formula_sum "Si O2"
_cell_formula_units_Z 12
_cell_length_a 11.647830
_cell_length_b 9.285432
_cell_length_c 9.272887
_cell_angle_alpha 131.663896
_cell_angle_beta 62.560004
_cell_angle_gamma 135.478227
_cell_volume 525.180861
_symmetry_space_group_name_H-M "P -1"
_symmetry_group_IT_number 2
_symmetry_cell_setting 'triclinic'
loop_
_space_group_symop_operation_xyz
x,y,z
-x,-y,-z
loop_
_atom_site_type_symbol
_atom_site_label
_atom_site_fract_x
_atom_site_fract_y
_atom_site_fract_z
Si Si1 0.384292 0.743373 0.975008
Si Si2 0.010783 0.100083 0.306197
Si Si3 0.553430 0.962835 0.294464
Si Si4 0.040227 0.290233 0.101926
Si Si5 0.841299 0.458706 0.290437
Si Si6 0.673700 0.685176 0.175065
O O1 0.223172 0.584528 0.864266
O O2 0.438365 0.566975 0.840299
O O3 0.500000 0.000000 0.000000
O O4 0.403050 0.839585 0.189289
O O5 0.002203 0.219403 0.244125
O O6 0.120598 0.304877 0.496449
O O7 0.820605 0.907059 0.335704
O O8 0.064104 0.940621 0.103218
O O9 0.705600 0.215313 0.300777
O O10 0.500000 0.000000 0.500000
O O11 0.597297 0.782114 0.188325
O O12 0.002841 0.474877 0.212292
O O13 0.216491 0.356203 0.016334
#
# Coordination Sequence:
#
# PCOD9016068 Si02
#       6
#     2   2   2   2   2   2
#     4  10  25  44  59  91 137 175 208 261 316 385
#     4   9  19  35  66 103 118 160 209 276 319 363
#     4  11  24  41  66  92 124 182 220 254 301 399
#     4   9  19  37  68 100 123 162 205 285 308 375
#     4  11  21  42  65  98 136 156 214 267 336 371
#     4  10  21  42  66  94 125 165 226 259 319 379
#
# _framework density 22.849271000000002
#
# number of rings (size 3 to 8) (size 9 to 14) (size 15 to 20)
#    1.000    1.000    1.667    1.000    2.333    1.333 
#    9.000    1.667    0.000    0.000    0.000    0.000 
#    0.000    0.000    0.000    0.000    0.000    0.000 
#
# Total GULP energy -66810.881910 kJ/mol
# GULP energy per Si atom -5567.573493 kJ/mol
# Density = 2.279727 g / cm^3
# Si number density = 22.849271 Si / 1000 Ang^3
#
#
#
# Elastic Constant Matrix: (Units=GPa)
#
#
# Indices 1 2 3 4 5 6 
#
# 1 67.1790 29.0023 43.6157 -13.9783 10.3589 -5.6022
# 2 29.0023 100.3737 33.1104 13.6534 11.4249 -8.7903
# 3 43.6157 33.1104 123.1236 -7.2473 30.1372 0.2390
# 4 -13.9783 13.6534 -7.2473 23.5313 2.3850 5.2171
# 5 10.3589 11.4249 30.1372 2.3850 35.5385 2.0174
# 6 -5.6022 -8.7903 0.2390 5.2171 2.0174 22.3001
#
#
#
# Elastic Compliance Matrix: (Units=1/GPa)
#
#
# Indices 1 2 3 4 5 6 
#
# 1 0.026130 -0.008192 -0.005579 0.018905 -0.001470 -0.000895
# 2 -0.008192 0.016151 -0.002425 -0.016810 -0.000090 0.008275
# 3 -0.005579 -0.002425 0.013126 0.003593 -0.008822 -0.002541
# 4 0.018905 -0.016810 0.003593 0.069151 -0.006802 -0.017478
# 5 -0.001470 -0.000090 -0.008822 -0.006802 0.036649 -0.002034
# 6 -0.000895 0.008275 -0.002541 -0.017478 -0.002034 0.052180
#
#
# Mechanical properties :
#
#
# Convention : Reuss Voigt Hill
#
# Bulk Modulus (GPa) = 43.45004 55.79256 49.62130
# Shear Modulus (GPa) = 19.72749 28.60384 24.16566
#
# Velocity S-wave (km/s) = 2.94151 3.54199 3.25562
# Velocity P-wave (km/s) = 5.53117 6.41858 5.99133
#
# Compressibility (1/GPa) = 0.02301494
#
# Stress axis : x y z
#
# Youngs Moduli (GPa) = 38.26993 61.91415 76.18281
#
# Poissons Ratio (x) = 0.50722 0.42504
# Poissons Ratio (y) = 0.31352 0.18474
# Poissons Ratio (z) = 0.21351 0.15014
#
# Static dielectric constant tensor:
#      x y z
#    x 1.861100 0.055490 0.041350 
#    y 0.055490 2.041630 0.041620 
#    z 0.041350 0.041620 1.850070 
# 
# From -- ./inp_files/245822.got.cif
#   From: 2010.05.17/outbox.cif.g08.bks.cpg/sg2_123_cif.got.tgz:245822.got - 2010.06.03 11:33:40.
