data_PCOD9016803
_publ_section_title
;
Structure prediction by ZEFSAII (Michael W. Deem and Ramdas Pophale) SiO2 
 PCOD9016803
Probable space group: P -1
;
_chemical_formula_sum "Si O2"
_cell_formula_units_Z 16
_cell_length_a 21.107214
_cell_length_b 14.979060
_cell_length_c 8.277343
_cell_angle_alpha 124.216811
_cell_angle_beta 56.254131
_cell_angle_gamma 159.529992
_cell_volume 753.071509
_symmetry_space_group_name_H-M "P -1"
_symmetry_group_IT_number 2
_symmetry_cell_setting 'triclinic'
loop_
_space_group_symop_operation_xyz
x,y,z
-x,-y,-z
loop_
_atom_site_type_symbol
_atom_site_label
_atom_site_fract_x
_atom_site_fract_y
_atom_site_fract_z
Si Si1 0.894319 0.939592 0.464692
Si Si2 0.695809 0.137469 0.474434
Si Si3 0.943434 0.807782 0.838612
Si Si4 0.687349 0.072678 0.048371
Si Si5 0.931678 0.254534 0.405981
Si Si6 0.348916 0.554240 0.855949
Si Si7 0.927410 0.212742 0.739880
Si Si8 0.660305 0.271634 0.222795
O O1 0.737233 0.664719 0.323753
O O2 0.836912 0.979614 0.665051
O O3 0.000000 0.000000 0.500000
O O4 0.036631 0.160483 0.349193
O O5 0.652137 0.069497 0.276647
O O6 0.791979 0.149994 0.404854
O O7 0.859139 0.433212 0.578924
O O8 0.514043 0.927839 0.620430
O O9 0.070573 0.872140 0.776843
O O10 0.759284 0.553751 0.937654
O O11 0.000000 0.000000 0.000000
O O12 0.659821 0.143559 0.048028
O O13 0.872993 0.243126 0.960613
O O14 0.552374 0.811371 0.894974
O O15 0.882351 0.191522 0.600613
O O16 0.330362 0.627207 0.827873
O O17 0.143371 0.472135 0.709256
#
# Coordination Sequence:
#
# PCOD9016803 Si02
#       8
#     2   2   2   2   2   2   2   2
#     4  10  21  42  69  94 122 172 216 262 321 380
#     4  11  25  40  66  94 132 173 214 262 326 386
#     4   9  21  39  66  95 126 164 215 264 317 374
#     4  12  26  40  62 101 132 166 216 270 323 382
#     4  10  22  42  65  92 133 172 212 266 323 380
#     4  11  24  40  67  92 133 169 217 262 319 388
#     4  11  24  42  67  93 131 168 217 268 321 384
#     4  12  24  42  65  96 131 175 210 262 329 389
#
# _framework density 21.246320999999998
#
# number of rings (size 3 to 8) (size 9 to 14) (size 15 to 20)
#    0.000    1.250    2.500    2.625    5.250    1.500 
#    0.000    1.250    0.000    8.250    0.000    0.000 
#    0.000    0.000    0.000    0.000    0.000    0.000 
#
# Total GULP energy -89220.638947 kJ/mol
# GULP energy per Si atom -5576.289934 kJ/mol
# Density = 2.119796 g / cm^3
# Si number density = 21.246321 Si / 1000 Ang^3
#
#
#
# Elastic Constant Matrix: (Units=GPa)
#
#
# Indices 1 2 3 4 5 6 
#
# 1 111.9570 44.8609 26.8500 -10.3905 -17.8498 -17.9462
# 2 44.8609 97.2230 50.9848 -0.4196 -12.1074 1.4143
# 3 26.8500 50.9848 75.8418 3.0127 -33.3418 -8.3131
# 4 -10.3905 -0.4196 3.0127 34.9702 0.6310 1.1985
# 5 -17.8498 -12.1074 -33.3418 0.6310 36.1835 4.6160
# 6 -17.9462 1.4143 -8.3131 1.1985 4.6160 28.5169
#
#
#
# Elastic Compliance Matrix: (Units=1/GPa)
#
#
# Indices 1 2 3 4 5 6 
#
# 1 0.013983 -0.008010 0.004418 0.003235 0.007058 0.009207
# 2 -0.008010 0.022426 -0.018820 0.000066 -0.012565 -0.009608
# 3 0.004418 -0.018820 0.038934 -0.003169 0.030505 0.010259
# 4 0.003235 0.000066 -0.003169 0.029859 -0.001842 0.000152
# 5 0.007058 -0.012565 0.030505 -0.001842 0.054388 0.005231
# 6 0.009207 -0.009608 0.010259 0.000152 0.005231 0.043475
#
#
# Mechanical properties :
#
#
# Convention : Reuss Voigt Hill
#
# Bulk Modulus (GPa) = 32.76619 58.93479 45.85049
# Shear Modulus (GPa) = 19.37508 30.75583 25.06545
#
# Velocity S-wave (km/s) = 3.02309 3.80884 3.43848
# Velocity P-wave (km/s) = 5.25747 6.86601 6.11486
#
# Compressibility (1/GPa) = 0.03051926
#
# Stress axis : x y z
#
# Youngs Moduli (GPa) = 71.51337 44.59051 25.68442
#
# Poissons Ratio (x) = 0.35717 -0.11346
# Poissons Ratio (y) = 0.57282 0.48338
# Poissons Ratio (z) = -0.31591 0.83919
#
# Static dielectric constant tensor:
#      x y z
#    x 1.764460 -0.018280 -0.019370 
#    y -0.018280 1.845460 0.012860 
#    z -0.019370 0.012860 1.881200 
# 
# From -- ./inp_files/245362.got.cif
#   From: 2010.05.17/outbox.cif.g08.bks.cpg/sg2_123_cif.got.tgz:245362.got - 2010.06.03 11:33:40.
