data_PCOD9016938
_publ_section_title
;
Structure prediction by ZEFSAII (Michael W. Deem and Ramdas Pophale) SiO2 
 PCOD9016938
Probable space group: P -1
;
_chemical_formula_sum "Si O2"
_cell_formula_units_Z 16
_cell_length_a 24.995700
_cell_length_b 13.456542
_cell_length_c 8.068222
_cell_angle_alpha 55.670388
_cell_angle_beta 133.049865
_cell_angle_gamma 158.944650
_cell_volume 684.300204
_symmetry_space_group_name_H-M "P -1"
_symmetry_group_IT_number 2
_symmetry_cell_setting 'triclinic'
loop_
_space_group_symop_operation_xyz
x,y,z
-x,-y,-z
loop_
_atom_site_type_symbol
_atom_site_label
_atom_site_fract_x
_atom_site_fract_y
_atom_site_fract_z
Si Si1 0.637089 0.729477 0.722103
Si Si2 0.852991 0.742118 0.057636
Si Si3 0.023296 0.868853 0.856845
Si Si4 0.224832 0.618054 0.657114
Si Si5 0.072321 0.723833 0.842785
Si Si6 0.449753 0.255658 0.982854
Si Si7 0.354227 0.684170 0.535764
Si Si8 0.550251 0.831465 0.303199
O O1 0.500000 0.500000 0.500000
O O2 0.561315 0.540918 0.895716
O O3 0.631441 0.865353 0.582958
O O4 0.833650 0.979382 0.860568
O O5 0.845979 0.588734 0.178391
O O6 0.908328 0.890854 0.208261
O O7 0.658595 0.491638 0.833604
O O8 0.000000 0.000000 0.000000
O O9 0.270536 0.008177 0.934300
O O10 0.812953 0.561438 0.710050
O O11 0.285554 0.629040 0.618962
O O12 0.385864 0.939252 0.748475
O O13 0.064164 0.464074 0.417914
O O14 0.056226 0.825529 0.815043
O O15 0.000000 0.500000 0.000000
O O16 0.397138 0.123973 0.814817
O O17 0.564410 0.326694 0.254974
O O18 0.500000 0.000000 0.500000
#
# Coordination Sequence:
#
# PCOD9016938 Si02
#       8
#     2   2   2   2   2   2   2   2
#     4  10  21  42  70 101 143 179 234 294 356 415
#     4  12  27  44  72 107 140 187 239 294 365 418
#     4  11  24  48  68 100 149 182 236 299 342 430
#     4  11  25  46  70 105 144 187 240 294 354 431
#     4  11  26  45  69 104 144 189 242 284 361 426
#     4  11  23  44  71 106 139 188 242 287 359 422
#     4  11  25  43  73 103 146 191 242 287 362 422
#     4  11  24  46  74 104 149 179 242 302 354 425
#
# _framework density 23.381550000000001
#
# number of rings (size 3 to 8) (size 9 to 14) (size 15 to 20)
#    0.000    1.000    3.750    2.625    3.500    6.500 
#    0.000    1.250    0.000    0.000    0.000    0.000 
#    0.000    0.000    0.000    0.000    0.000    0.000 
#
# Total GULP energy -89328.624156 kJ/mol
# GULP energy per Si atom -5583.039010 kJ/mol
# Density = 2.332833 g / cm^3
# Si number density = 23.381550 Si / 1000 Ang^3
#
#
#
# Elastic Constant Matrix: (Units=GPa)
#
#
# Indices 1 2 3 4 5 6 
#
# 1 90.2344 65.5543 35.6003 7.0981 14.5199 -3.1203
# 2 65.5543 202.8172 91.1856 4.8015 29.1510 -14.8088
# 3 35.6003 91.1856 142.4669 10.7841 37.6077 2.1648
# 4 7.0981 4.8015 10.7841 50.2415 -7.3722 2.0373
# 5 14.5199 29.1510 37.6077 -7.3722 35.6896 7.9560
# 6 -3.1203 -14.8088 2.1648 2.0373 7.9560 47.2378
#
#
#
# Elastic Compliance Matrix: (Units=1/GPa)
#
#
# Indices 1 2 3 4 5 6 
#
# 1 0.014873 -0.004302 -0.000006 -0.002143 -0.003027 0.000236
# 2 -0.004302 0.008572 -0.004079 0.000327 -0.001517 0.002831
# 3 -0.000006 -0.004079 0.012855 -0.004001 -0.011077 0.000170
# 4 -0.002143 0.000327 -0.004001 0.022612 0.010055 -0.002524
# 5 -0.003027 -0.001517 -0.011077 0.010055 0.046104 -0.008367
# 6 0.000236 0.002831 0.000170 -0.002524 -0.008367 0.023583
#
#
# Mechanical properties :
#
#
# Convention : Reuss Voigt Hill
#
# Bulk Modulus (GPa) = 51.20765 91.13319 71.17042
# Shear Modulus (GPa) = 32.92038 42.84568 37.88303
#
# Velocity S-wave (km/s) = 3.75636 4.28536 4.02955
# Velocity P-wave (km/s) = 6.38452 7.97163 7.22181
#
# Compressibility (1/GPa) = 0.01952833
#
# Stress axis : x y z
#
# Youngs Moduli (GPa) = 67.23383 116.66204 77.78790
#
# Poissons Ratio (x) = 0.50186 0.00045
# Poissons Ratio (y) = 0.28923 0.31727
# Poissons Ratio (z) = 0.00038 0.47582
#
# Static dielectric constant tensor:
#      x y z
#    x 1.976900 -0.065490 -0.016280 
#    y -0.065490 1.962470 -0.057780 
#    z -0.016280 -0.057780 1.967380 
# 
# From -- ./inp_files/357407.got.cif
#   From: 2010.05.17/outbox.cif.g08.bks.cpg/sg2_179_cif.got.tgz:357407.got - 2010.06.03 11:33:40.
