data_PCOD9016530
_publ_section_title
;
Structure prediction by ZEFSAII (Michael W. Deem and Ramdas Pophale) SiO2 
 PCOD9016530
Probable space group: P -1
;
_chemical_formula_sum "Si O2"
_cell_formula_units_Z 14
_cell_length_a 5.200429
_cell_length_b 7.290125
_cell_length_c 21.435999
_cell_angle_alpha 127.060235
_cell_angle_beta 70.184845
_cell_angle_gamma 116.189457
_cell_volume 578.908177
_symmetry_space_group_name_H-M "P -1"
_symmetry_group_IT_number 2
_symmetry_cell_setting 'triclinic'
loop_
_space_group_symop_operation_xyz
x,y,z
-x,-y,-z
loop_
_atom_site_type_symbol
_atom_site_label
_atom_site_fract_x
_atom_site_fract_y
_atom_site_fract_z
Si Si1 0.239208 0.050269 0.066884
Si Si2 0.974780 0.279518 0.787928
Si Si3 0.649571 0.515090 0.765588
Si Si4 0.257321 0.279615 0.331489
Si Si5 0.296009 0.314014 0.564643
Si Si6 0.183424 0.402116 0.035097
Si Si7 0.143847 0.833000 0.541992
O O1 0.327560 0.218569 0.154363
O O2 0.151774 0.223930 0.060616
O O3 0.010728 0.784633 0.037301
O O4 0.500000 0.000000 0.000000
O O5 0.318840 0.348474 0.766185
O O6 0.913219 0.389238 0.881292
O O7 0.849427 0.404625 0.768128
O O8 0.804931 0.995441 0.740575
O O9 0.747352 0.556728 0.694630
O O10 0.564837 0.415494 0.366186
O O11 0.026066 0.262406 0.400966
O O12 0.560914 0.231546 0.497711
O O13 0.053981 0.271856 0.523583
O O14 0.193727 0.119912 0.589077
O O15 0.500000 0.500000 0.000000
#
# Coordination Sequence:
#
# PCOD9016530 Si02
#       7
#     2   2   2   2   2   2   2
#     4  10  21  42  68  89 133 180 231 286 345 400
#     4  11  27  46  65 103 142 179 230 289 352 410
#     4  11  27  46  67 102 143 182 231 293 345 408
#     4  12  26  44  75 101 142 183 228 277 356 414
#     4  10  23  44  70 100 137 175 226 280 337 405
#     4  10  23  41  67  96 129 178 239 290 340 414
#     4  10  23  44  70 102 132 178 229 278 332 412
#
# _framework density 24.183453
#
# number of rings (size 3 to 8) (size 9 to 14) (size 15 to 20)
#    0.000    1.429    1.429    1.714    2.000   12.000 
#    0.000    0.000    0.000    0.000    0.000    0.000 
#    0.000    0.000    0.000    0.000    0.000    0.000 
#
# Total GULP energy -78374.506677 kJ/mol
# GULP energy per Si atom -5598.179048 kJ/mol
# Density = 2.412841 g / cm^3
# Si number density = 24.183453 Si / 1000 Ang^3
#
#
#
# Elastic Constant Matrix: (Units=GPa)
#
#
# Indices 1 2 3 4 5 6 
#
# 1 79.5502 17.8425 20.0134 -4.2418 5.1139 8.2782
# 2 17.8425 146.3205 62.6475 9.4118 6.4469 17.3329
# 3 20.0134 62.6475 105.4528 15.8764 12.6089 -0.5315
# 4 -4.2418 9.4118 15.8764 68.4960 -0.5939 8.7004
# 5 5.1139 6.4469 12.6089 -0.5939 25.9146 3.3176
# 6 8.2782 17.3329 -0.5315 8.7004 3.3176 42.1973
#
#
#
# Elastic Compliance Matrix: (Units=1/GPa)
#
#
# Indices 1 2 3 4 5 6 
#
# 1 0.013759 -0.000287 -0.002623 0.001862 -0.000951 -0.002924
# 2 -0.000287 0.009886 -0.006060 0.000583 0.001108 -0.004288
# 3 -0.002623 -0.006060 0.014804 -0.003363 -0.005810 0.004341
# 4 0.001862 0.000583 -0.003363 0.015952 0.002013 -0.004094
# 5 -0.000951 0.001108 -0.005810 0.002013 0.041892 -0.004051
# 6 -0.002924 -0.004288 0.004341 -0.004094 -0.004051 0.027251
#
#
# Mechanical properties :
#
#
# Convention : Reuss Voigt Hill
#
# Bulk Modulus (GPa) = 48.75656 59.14779 53.95218
# Shear Modulus (GPa) = 33.71117 42.70959 38.21038
#
# Velocity S-wave (km/s) = 3.73765 4.20702 3.97926
# Velocity P-wave (km/s) = 6.23150 6.93612 6.59323
#
# Compressibility (1/GPa) = 0.02051006
#
# Stress axis : x y z
#
# Youngs Moduli (GPa) = 72.67735 101.15667 67.54974
#
# Poissons Ratio (x) = 0.02898 0.17715
# Poissons Ratio (y) = 0.02082 0.40938
# Poissons Ratio (z) = 0.19060 0.61305
#
# Static dielectric constant tensor:
#      x y z
#    x 1.867060 0.004730 -0.000550 
#    y 0.004730 1.880690 0.040040 
#    z -0.000550 0.040040 1.954570 
# 
# From -- ./inp_files/604058.got.cif
#   From: 2010.05.17/outbox.cif.g08.bks.cpg/sg2_303_cif.got.tgz:604058.got - 2010.06.03 11:33:40.
