data_PCOD9016696
_publ_section_title
;
Structure prediction by ZEFSAII (Michael W. Deem and Ramdas Pophale) SiO2 
 PCOD9016696
Probable space group: P -1
;
_chemical_formula_sum "Si O2"
_cell_formula_units_Z 14
_cell_length_a 5.414637
_cell_length_b 9.064935
_cell_length_c 15.741713
_cell_angle_alpha 119.286212
_cell_angle_beta 124.957677
_cell_angle_gamma 78.633646
_cell_volume 548.558268
_symmetry_space_group_name_H-M "P -1"
_symmetry_group_IT_number 2
_symmetry_cell_setting 'triclinic'
loop_
_space_group_symop_operation_xyz
x,y,z
-x,-y,-z
loop_
_atom_site_type_symbol
_atom_site_label
_atom_site_fract_x
_atom_site_fract_y
_atom_site_fract_z
Si Si1 0.244095 0.155022 0.066184
Si Si2 0.250743 0.376550 0.516322
Si Si3 0.126965 0.963469 0.824478
Si Si4 0.216585 0.347084 0.741374
Si Si5 0.848471 0.997372 0.595457
Si Si6 0.809107 0.615201 0.686005
Si Si7 0.891424 0.467550 0.873708
O O1 0.567597 0.122604 0.160031
O O2 0.160381 0.343647 0.115226
O O3 0.243826 0.119983 0.953120
O O4 0.000000 0.000000 0.000000
O O5 0.552836 0.481671 0.641292
O O6 0.318309 0.346664 0.421868
O O7 0.000000 0.500000 0.500000
O O8 0.111456 0.196748 0.475047
O O9 0.922778 0.808348 0.788489
O O10 0.949046 0.010760 0.718874
O O11 0.568687 0.352645 0.789740
O O12 0.045272 0.159487 0.639406
O O13 0.085605 0.499440 0.706479
O O14 0.127213 0.395603 0.834660
O O15 0.500000 0.000000 0.500000
O O16 0.000000 0.500000 0.000000
#
# Coordination Sequence:
#
# PCOD9016696 Si02
#       7
#     2   2   2   2   2   2   2
#     4  11  24  42  73 104 137 191 244 311 361 441
#     4  10  23  43  70  99 141 194 244 302 361 437
#     4  10  23  43  68 103 142 185 249 298 373 437
#     4  12  26  47  73 106 144 197 242 306 370 447
#     4  11  24  46  70 105 149 192 249 303 372 441
#     4  10  21  42  68  99 141 184 247 295 364 434
#     4  12  28  48  74 104 151 191 247 305 382 436
#
# _framework density 25.521443999999999
#
# number of rings (size 3 to 8) (size 9 to 14) (size 15 to 20)
#    0.000    1.143    2.857    2.143    6.000    2.286 
#    7.714    1.429    0.000    0.000    0.000    0.000 
#    0.000    0.000    0.000    0.000    0.000    0.000 
#
# Total GULP energy -78259.486341 kJ/mol
# GULP energy per Si atom -5589.963310 kJ/mol
# Density = 2.546336 g / cm^3
# Si number density = 25.521444 Si / 1000 Ang^3
#
#
#
# Elastic Constant Matrix: (Units=GPa)
#
#
# Indices 1 2 3 4 5 6 
#
# 1 90.3916 12.1117 28.9107 -0.3084 1.6152 19.7471
# 2 12.1117 129.9559 57.1003 18.7679 -14.2993 13.6149
# 3 28.9107 57.1003 136.2170 2.1471 10.0393 18.5915
# 4 -0.3084 18.7679 2.1471 69.0929 2.8415 -2.8363
# 5 1.6152 -14.2993 10.0393 2.8415 33.8630 0.2922
# 6 19.7471 13.6149 18.5915 -2.8363 0.2922 42.8153
#
#
#
# Elastic Compliance Matrix: (Units=1/GPa)
#
#
# Indices 1 2 3 4 5 6 
#
# 1 0.012823 0.000356 -0.002191 -0.000190 0.000248 -0.005090
# 2 0.000356 0.011207 -0.004948 -0.003230 0.006469 -0.001837
# 3 -0.002191 -0.004948 0.010498 0.001145 -0.005177 -0.001863
# 4 -0.000190 -0.003230 0.001145 0.015506 -0.003010 0.001666
# 5 0.000248 0.006469 -0.005177 -0.003010 0.034041 -0.000355
# 6 -0.005090 -0.001837 -0.001863 0.001666 -0.000355 0.027210
#
#
# Mechanical properties :
#
#
# Convention : Reuss Voigt Hill
#
# Bulk Modulus (GPa) = 47.70853 61.42334 54.56593
# Shear Modulus (GPa) = 37.92464 46.38371 42.15418
#
# Velocity S-wave (km/s) = 3.85904 4.26777 4.06854
# Velocity P-wave (km/s) = 6.21211 6.95735 6.59527
#
# Compressibility (1/GPa) = 0.02096061
#
# Stress axis : x y z
#
# Youngs Moduli (GPa) = 77.98443 89.23173 95.25221
#
# Poissons Ratio (x) = -0.03175 0.20872
# Poissons Ratio (y) = -0.02775 0.47134
# Poissons Ratio (z) = 0.17089 0.44155
#
# Static dielectric constant tensor:
#      x y z
#    x 2.169650 0.055990 -0.166160 
#    y 0.055990 1.987120 -0.080090 
#    z -0.166160 -0.080090 2.152980 
# 
# From -- ./inp_files/60424.got.cif
#   From: 2010.05.17/outbox.cif.g08.bks.cpg/sg2_31_cif.got.tgz:60424.got - 2010.06.03 11:33:40.
