data_PCOD9016222
_publ_section_title
;
Structure prediction by ZEFSAII (Michael W. Deem and Ramdas Pophale) SiO2 
 PCOD9016222
Probable space group: P -1
;
_chemical_formula_sum "Si O2"
_cell_formula_units_Z 16
_cell_length_a 9.700763
_cell_length_b 18.470876
_cell_length_c 21.708619
_cell_angle_alpha 18.694875
_cell_angle_beta 140.361216
_cell_angle_gamma 143.098686
_cell_volume 747.011754
_symmetry_space_group_name_H-M "P -1"
_symmetry_group_IT_number 2
_symmetry_cell_setting 'triclinic'
loop_
_space_group_symop_operation_xyz
x,y,z
-x,-y,-z
loop_
_atom_site_type_symbol
_atom_site_label
_atom_site_fract_x
_atom_site_fract_y
_atom_site_fract_z
Si Si1 0.498004 0.913218 0.443075
Si Si2 0.016519 0.780881 0.609632
Si Si3 0.851236 0.373511 0.351642
Si Si4 0.461255 0.325683 0.011516
Si Si5 0.324244 0.572296 0.424808
Si Si6 0.047818 0.404921 0.026899
Si Si7 0.440057 0.871552 0.927367
Si Si8 0.501746 0.440817 0.372373
O O1 0.352663 0.837579 0.515647
O O2 0.409972 0.689990 0.545753
O O3 0.773172 0.976487 0.497184
O O4 0.459801 0.140628 0.214215
O O5 0.078650 0.701889 0.628800
O O6 0.749743 0.753503 0.539999
O O7 0.029583 0.592382 0.818128
O O8 0.070955 0.452222 0.407998
O O9 0.757723 0.593669 0.132208
O O10 0.498881 0.205326 0.057272
O O11 0.686036 0.566020 0.904924
O O12 0.500000 0.500000 0.500000
O O13 0.350955 0.503138 0.560320
O O14 0.403210 0.861001 0.218908
O O15 0.832775 0.163446 0.136729
O O16 0.000000 0.500000 0.000000
O O17 0.474311 0.679035 0.142211
#
# Coordination Sequence:
#
# PCOD9016222 Si02
#       8
#     2   2   2   2   2   2   2   2
#     4  11  23  42  71 103 131 173 222 272 339 395
#     4  10  22  42  68 101 140 171 214 280 336 393
#     4  12  26  44  63 100 141 176 222 272 335 392
#     4  10  21  42  67 101 135 169 217 273 336 397
#     4  12  27  47  66  93 134 179 232 272 325 399
#     4   8  18  37  68 101 128 165 220 265 328 396
#     4  10  21  43  70  97 128 174 222 279 326 385
#     4  11  22  45  72  99 128 175 231 270 326 400
#
# _framework density 21.418672999999998
#
# number of rings (size 3 to 8) (size 9 to 14) (size 15 to 20)
#    0.000    1.500    3.750    0.750    0.000    5.500 
#    6.750    0.000    0.000    0.000    0.000    0.000 
#    0.000    0.000    0.000    0.000    0.000    0.000 
#
# Total GULP energy -89461.506391 kJ/mol
# GULP energy per Si atom -5591.344149 kJ/mol
# Density = 2.136992 g / cm^3
# Si number density = 21.418673 Si / 1000 Ang^3
#
#
#
# Elastic Constant Matrix: (Units=GPa)
#
#
# Indices 1 2 3 4 5 6 
#
# 1 96.0255 16.5485 25.2219 3.8753 -11.8407 -17.1354
# 2 16.5485 72.2641 22.3433 18.5768 -4.0653 -18.8980
# 3 25.2219 22.3433 92.2032 4.2435 -21.1859 -0.2887
# 4 3.8753 18.5768 4.2435 29.2522 4.7862 1.4904
# 5 -11.8407 -4.0653 -21.1859 4.7862 37.2434 5.1502
# 6 -17.1354 -18.8980 -0.2887 1.4904 5.1502 31.1386
#
#
#
# Elastic Compliance Matrix: (Units=1/GPa)
#
#
# Indices 1 2 3 4 5 6 
#
# 1 0.012699 0.000595 -0.003119 -0.002239 0.001626 0.007159
# 2 0.000595 0.022912 -0.005088 -0.014588 -0.000397 0.014950
# 3 -0.003119 -0.005088 0.014611 0.000599 0.007509 -0.005939
# 4 -0.002239 -0.014588 0.000599 0.045250 -0.006228 -0.011216
# 5 0.001626 -0.000397 0.007509 -0.006228 0.033009 -0.004438
# 6 0.007159 0.014950 -0.005939 -0.011216 -0.004438 0.046343
#
#
# Mechanical properties :
#
#
# Convention : Reuss Voigt Hill
#
# Bulk Modulus (GPa) = 28.57241 43.19114 35.88178
# Shear Modulus (GPa) = 24.78757 32.61876 28.70317
#
# Velocity S-wave (km/s) = 3.40558 3.90668 3.66471
# Velocity P-wave (km/s) = 5.36963 6.36856 5.89031
#
# Compressibility (1/GPa) = 0.03499879
#
# Stress axis : x y z
#
# Youngs Moduli (GPa) = 78.74762 43.64444 68.44183
#
# Poissons Ratio (x) = -0.02599 0.21347
# Poissons Ratio (y) = -0.04689 0.34824
# Poissons Ratio (z) = 0.24561 0.22207
#
# Static dielectric constant tensor:
#      x y z
#    x 1.767530 -0.000980 -0.012280 
#    y -0.000980 1.807740 0.020150 
#    z -0.012280 0.020150 1.779230 
# 
# From -- ./inp_files/399967.got.cif
#   From: 2010.05.17/outbox.cif.g08.bks.cpg/sg2_200_cif.got.tgz:399967.got - 2010.06.03 11:33:40.
