data_PCOD9016943
_publ_section_title
;
Structure prediction by ZEFSAII (Michael W. Deem and Ramdas Pophale) SiO2 
 PCOD9016943
Probable space group: P -1
;
_chemical_formula_sum "Si O2"
_cell_formula_units_Z 16
_cell_length_a 25.090300
_cell_length_b 5.229410
_cell_length_c 5.388471
_cell_angle_alpha 94.499974
_cell_angle_beta 91.393205
_cell_angle_gamma 123.634487
_cell_volume 584.872088
_symmetry_space_group_name_H-M "P -1"
_symmetry_group_IT_number 2
_symmetry_cell_setting 'triclinic'
loop_
_space_group_symop_operation_xyz
x,y,z
-x,-y,-z
loop_
_atom_site_type_symbol
_atom_site_label
_atom_site_fract_x
_atom_site_fract_y
_atom_site_fract_z
Si Si1 0.102913 0.224244 0.612498
Si Si2 0.686139 0.698382 0.452928
Si Si3 0.425050 0.227259 0.482971
Si Si4 0.741643 0.618253 0.970861
Si Si5 0.130978 0.753383 0.041006
Si Si6 0.545187 0.874896 0.022040
Si Si7 0.784709 0.335781 0.621683
Si Si8 0.012088 0.268439 0.210495
O O1 0.122983 0.482488 0.844725
O O2 0.167859 0.335646 0.479217
O O3 0.055610 0.253655 0.427109
O O4 0.058447 0.875724 0.688811
O O5 0.701483 0.565417 0.207733
O O6 0.730215 0.067952 0.429441
O O7 0.615895 0.627808 0.472495
O O8 0.710005 0.656920 0.719794
O O9 0.500000 0.500000 0.500000
O O10 0.417858 0.029699 0.706748
O O11 0.411187 0.046955 0.209690
O O12 0.815793 0.914269 0.039466
O O13 0.750767 0.352982 0.863294
O O14 0.167767 0.756510 0.291039
O O15 0.058233 0.609472 0.120378
O O16 0.500000 0.500000 0.000000
O O17 0.500000 0.000000 0.000000
O O18 0.000000 0.000000 0.000000
#
# Coordination Sequence:
#
# PCOD9016943 Si02
#       8
#     2   2   2   2   2   2   2   2
#     4   9  15  31  56  80 121 156 209 256 326 381
#     4  11  24  45  64  94 131 167 219 272 324 400
#     4  10  22  44  69  96 136 174 223 279 346 412
#     4  11  24  40  66  92 127 170 218 265 330 387
#     4   9  18  35  57  82 124 157 211 262 322 384
#     4  10  21  42  70 102 140 182 227 278 347 420
#     4  10  22  38  60  90 120 168 211 269 322 392
#     4   8  15  27  53  86 111 165 196 260 327 379
#
# _framework density 27.356406
#
# number of rings (size 3 to 8) (size 9 to 14) (size 15 to 20)
#    0.000    2.250    1.250    1.125    1.750    0.000 
#   13.500    0.625    0.000   25.500    0.000    0.000 
#    0.000    0.000    0.000    0.000    0.000    0.000 
#
# Total GULP energy -89561.932839 kJ/mol
# GULP energy per Si atom -5597.620802 kJ/mol
# Density = 2.729414 g / cm^3
# Si number density = 27.356406 Si / 1000 Ang^3
#
#
#
# Elastic Constant Matrix: (Units=GPa)
#
#
# Indices 1 2 3 4 5 6 
#
# 1 123.3434 32.0672 41.2485 2.3622 -19.7775 22.6204
# 2 32.0672 106.4323 34.3863 -14.6335 -16.1000 10.6912
# 3 41.2485 34.3863 179.0550 -9.7849 -14.8316 3.0916
# 4 2.3622 -14.6335 -9.7849 24.0445 -9.7262 -11.0048
# 5 -19.7775 -16.1000 -14.8316 -9.7262 53.8931 -7.3455
# 6 22.6204 10.6912 3.0916 -11.0048 -7.3455 47.6665
#
#
#
# Elastic Compliance Matrix: (Units=1/GPa)
#
#
# Indices 1 2 3 4 5 6 
#
# 1 0.010775 -0.002682 -0.002126 -0.005813 0.000756 -0.005600
# 2 -0.002682 0.012378 -0.000870 0.009962 0.004482 0.001544
# 3 -0.002126 -0.000870 0.006569 0.003958 0.001749 0.001961
# 4 -0.005813 0.009962 0.003958 0.064323 0.015936 0.017574
# 5 0.000756 0.004482 0.001749 0.015936 0.024340 0.005953
# 6 -0.005600 0.001544 0.001961 0.017574 0.005953 0.028138
#
#
# Mechanical properties :
#
#
# Convention : Reuss Voigt Hill
#
# Bulk Modulus (GPa) = 54.44887 69.35939 61.90413
# Shear Modulus (GPa) = 30.48777 45.19608 37.84192
#
# Velocity S-wave (km/s) = 3.34198 4.06904 3.72330
# Velocity P-wave (km/s) = 5.90242 6.89094 6.41575
#
# Compressibility (1/GPa) = 0.01836585
#
# Stress axis : x y z
#
# Youngs Moduli (GPa) = 92.80759 80.79167 152.23130
#
# Poissons Ratio (x) = 0.21670 0.32357
# Poissons Ratio (y) = 0.24892 0.13246
# Poissons Ratio (z) = 0.19726 0.07030
#
# Static dielectric constant tensor:
#      x y z
#    x 2.073240 -0.033440 0.007020 
#    y -0.033440 2.165950 -0.080870 
#    z 0.007020 -0.080870 2.209260 
# 
# From -- ./inp_files/13000.got.cif
#   From: 2010.05.17/outbox.cif.g08.bks.cpg/sg2_7_cif.got.tgz:13000.got - 2010.06.03 11:33:40.
