data_PCOD9016452
_publ_section_title
;
Structure prediction by ZEFSAII (Michael W. Deem and Ramdas Pophale) SiO2 
 PCOD9016452
Probable space group: P -1
;
_chemical_formula_sum "Si O2"
_cell_formula_units_Z 16
_cell_length_a 11.275386
_cell_length_b 12.797237
_cell_length_c 6.401560
_cell_angle_alpha 123.625351
_cell_angle_beta 108.187041
_cell_angle_gamma 91.085719
_cell_volume 708.923149
_symmetry_space_group_name_H-M "P -1"
_symmetry_group_IT_number 2
_symmetry_cell_setting 'triclinic'
loop_
_space_group_symop_operation_xyz
x,y,z
-x,-y,-z
loop_
_atom_site_type_symbol
_atom_site_label
_atom_site_fract_x
_atom_site_fract_y
_atom_site_fract_z
Si Si1 0.445850 0.373845 0.695568
Si Si2 0.854032 0.752386 0.094414
Si Si3 0.332187 0.145779 0.628418
Si Si4 0.859036 0.955890 0.975290
Si Si5 0.896514 0.548758 0.128432
Si Si6 0.354613 0.945177 0.768109
Si Si7 0.202867 0.461319 0.510553
Si Si8 0.328706 0.643908 0.446054
O O1 0.447776 0.245013 0.685162
O O2 0.303963 0.385912 0.576540
O O3 0.527574 0.370493 0.529102
O O4 0.500000 0.500000 0.000000
O O5 0.892489 0.873742 0.100544
O O6 0.921995 0.703938 0.275835
O O7 0.855990 0.633410 0.812773
O O8 0.719941 0.766019 0.133312
O O9 0.228256 0.103732 0.339478
O O10 0.352256 0.024132 0.637157
O O11 0.760354 0.029966 0.117618
O O12 0.000000 0.000000 0.000000
O O13 0.759377 0.458091 0.875749
O O14 0.893117 0.526191 0.346768
O O15 0.000000 0.500000 0.000000
O O16 0.327193 0.790650 0.561394
O O17 0.500000 0.000000 0.000000
O O18 0.276306 0.594835 0.591169
#
# Coordination Sequence:
#
# PCOD9016452 Si02
#       8
#     2   2   2   2   2   2   2   2
#     4  12  21  40  71 100 128 174 222 280 342 411
#     4  10  21  42  67  99 130 172 227 281 342 405
#     4  11  24  45  70  99 140 181 235 283 342 416
#     4  11  25  45  72  98 132 188 240 290 342 412
#     4  11  24  42  66  97 135 177 219 284 348 407
#     4  11  28  45  65 101 143 187 230 288 353 412
#     4  11  22  42  66  97 133 167 218 279 342 402
#     4  11  26  40  63 100 134 174 221 277 342 409
#
# _framework density 22.569441000000001
#
# number of rings (size 3 to 8) (size 9 to 14) (size 15 to 20)
#    0.000    1.000    3.750    1.875    3.500   11.000 
#    0.000    0.000    0.000    0.000    0.000    0.000 
#    0.000    0.000    0.000    0.000    0.000    0.000 
#
# Total GULP energy -89163.985158 kJ/mol
# GULP energy per Si atom -5572.749072 kJ/mol
# Density = 2.251807 g / cm^3
# Si number density = 22.569441 Si / 1000 Ang^3
#
#
#
# Elastic Constant Matrix: (Units=GPa)
#
#
# Indices 1 2 3 4 5 6 
#
# 1 108.1428 48.3506 24.3902 -6.1446 -29.6788 8.5561
# 2 48.3506 169.8522 29.2036 -13.9629 -21.9013 2.1521
# 3 24.3902 29.2036 60.9917 -11.0593 -17.2072 4.9305
# 4 -6.1446 -13.9629 -11.0593 30.7939 0.1242 -11.0399
# 5 -29.6788 -21.9013 -17.2072 0.1242 35.3905 -9.9266
# 6 8.5561 2.1521 4.9305 -11.0399 -9.9266 35.0226
#
#
#
# Elastic Compliance Matrix: (Units=1/GPa)
#
#
# Indices 1 2 3 4 5 6 
#
# 1 0.013069 -0.002242 -0.001469 0.001021 0.008849 -0.000018
# 2 -0.002242 0.007328 -0.001533 0.003017 0.002448 0.001958
# 3 -0.001469 -0.001533 0.021380 0.007481 0.008835 0.002306
# 4 0.001021 0.003017 0.007481 0.041947 0.010326 0.014661
# 5 0.008849 0.002448 0.008835 0.010326 0.044939 0.012436
# 6 -0.000018 0.001958 0.002306 0.014661 0.012436 0.036259
#
#
# Mechanical properties :
#
#
# Convention : Reuss Voigt Hill
#
# Bulk Modulus (GPa) = 31.96129 60.31953 46.14041
# Shear Modulus (GPa) = 26.90475 36.04422 31.47449
#
# Velocity S-wave (km/s) = 3.45641 4.00063 3.73843
# Velocity P-wave (km/s) = 5.48827 6.93717 6.25481
#
# Compressibility (1/GPa) = 0.03128785
#
# Stress axis : x y z
#
# Youngs Moduli (GPa) = 76.51705 136.45926 46.77326
#
# Poissons Ratio (x) = 0.30600 0.06873
# Poissons Ratio (y) = 0.17158 0.07169
# Poissons Ratio (z) = 0.11243 0.20915
#
# Static dielectric constant tensor:
#      x y z
#    x 2.015660 -0.089900 0.175600 
#    y -0.089900 2.007670 -0.178090 
#    z 0.175600 -0.178090 2.071470 
# 
# From -- ./inp_files/72395.got.cif
#   From: 2010.05.17/outbox.cif.g08.bks.cpg/sg2_37_cif.got.tgz:72395.got - 2010.06.03 11:33:40.
