data_PCOD9016964
_publ_section_title
;
Structure prediction by ZEFSAII (Michael W. Deem and Ramdas Pophale) SiO2 
 PCOD9016964
Probable space group: P -1
;
_chemical_formula_sum "Si O2"
_cell_formula_units_Z 14
_cell_length_a 26.409706
_cell_length_b 6.324792
_cell_length_c 18.132297
_cell_angle_alpha 138.178265
_cell_angle_beta 161.715487
_cell_angle_gamma 51.715003
_cell_volume 574.808305
_symmetry_space_group_name_H-M "P -1"
_symmetry_group_IT_number 2
_symmetry_cell_setting 'triclinic'
loop_
_space_group_symop_operation_xyz
x,y,z
-x,-y,-z
loop_
_atom_site_type_symbol
_atom_site_label
_atom_site_fract_x
_atom_site_fract_y
_atom_site_fract_z
Si Si1 0.772048 0.180598 0.870166
Si Si2 0.458839 0.259807 0.808617
Si Si3 0.303246 0.064836 0.894697
Si Si4 0.869012 0.998123 0.216306
Si Si5 0.925140 0.089777 0.774982
Si Si6 0.207362 0.138070 0.635212
Si Si7 0.604344 0.122181 0.777084
O O1 0.671935 0.023151 0.768114
O O2 0.607878 0.050274 0.552195
O O3 0.846620 0.599159 0.083040
O O4 0.926174 0.051656 0.040263
O O5 0.522150 0.961461 0.840901
O O6 0.250106 0.103304 0.467217
O O7 0.500000 0.500000 0.000000
O O8 0.606049 0.521860 0.025676
O O9 0.334954 0.464569 0.039721
O O10 0.148094 0.883631 0.693332
O O11 0.252143 0.914597 0.702399
O O12 0.048417 0.202117 0.471333
O O13 0.703546 0.007832 0.946813
O O14 0.860781 0.012125 0.579347
O O15 0.000000 0.500000 0.000000
#
# Coordination Sequence:
#
# PCOD9016964 Si02
#       7
#     2   2   2   2   2   2   2
#     4  10  22  42  70 103 145 182 234 290 359 412
#     4  10  25  45  70 100 147 188 235 286 345 417
#     4  11  24  42  72 103 142 186 236 284 362 413
#     4  11  23  42  72 109 141 184 232 296 359 420
#     4  11  24  49  75 103 142 188 241 290 344 428
#     4  11  25  45  70 106 145 182 235 293 350 418
#     4  10  21  42  70 106 142 180 229 302 354 415
#
# _framework density 24.355947
#
# number of rings (size 3 to 8) (size 9 to 14) (size 15 to 20)
#    0.000    1.429    1.429    2.571    4.000    4.571 
#    5.143    2.143    0.000    0.000    0.000    0.000 
#    0.000    0.000    0.000    0.000    0.000    0.000 
#
# Total GULP energy -78314.422716 kJ/mol
# GULP energy per Si atom -5593.887337 kJ/mol
# Density = 2.430051 g / cm^3
# Si number density = 24.355947 Si / 1000 Ang^3
#
#
#
# Elastic Constant Matrix: (Units=GPa)
#
#
# Indices 1 2 3 4 5 6 
#
# 1 116.6569 50.6686 65.3655 -14.7267 28.6900 5.2579
# 2 50.6686 146.9371 73.2644 -26.1835 14.5984 -12.3776
# 3 65.3655 73.2644 185.0495 -26.1770 30.4685 -3.0250
# 4 -14.7267 -26.1835 -26.1770 45.4274 -5.9204 1.2858
# 5 28.6900 14.5984 30.4685 -5.9204 36.7674 -6.0525
# 6 5.2579 -12.3776 -3.0250 1.2858 -6.0525 33.3226
#
#
#
# Elastic Compliance Matrix: (Units=1/GPa)
#
#
# Indices 1 2 3 4 5 6 
#
# 1 0.013425 -0.003064 -0.002208 0.000388 -0.008183 -0.004958
# 2 -0.003064 0.009925 -0.002608 0.003346 0.001831 0.004137
# 3 -0.002208 -0.002608 0.008102 0.001980 -0.003743 -0.000641
# 4 0.000388 0.003346 0.001980 0.025310 0.000893 0.000547
# 5 -0.008183 0.001831 -0.003743 0.000893 0.037485 0.008406
# 6 -0.004958 0.004137 -0.000641 0.000547 0.008406 0.033776
#
#
# Mechanical properties :
#
#
# Convention : Reuss Voigt Hill
#
# Bulk Modulus (GPa) = 63.72204 91.91562 77.81883
# Shear Modulus (GPa) = 33.55380 40.39313 36.97346
#
# Velocity S-wave (km/s) = 3.71569 4.07683 3.90044
# Velocity P-wave (km/s) = 6.68042 7.74474 7.23219
#
# Compressibility (1/GPa) = 0.01569316
#
# Stress axis : x y z
#
# Youngs Moduli (GPa) = 74.48745 100.75198 123.42351
#
# Poissons Ratio (x) = 0.30871 0.27250
# Poissons Ratio (y) = 0.22824 0.32186
# Poissons Ratio (z) = 0.16446 0.26274
#
# Static dielectric constant tensor:
#      x y z
#    x 2.026890 0.031700 -0.015810 
#    y 0.031700 1.931680 -0.006550 
#    z -0.015810 -0.006550 1.970660 
# 
# From -- ./inp_files/579517.got.cif
#   From: 2010.05.17/outbox.cif.g08.bks.cpg/sg2_290_cif.got.tgz:579517.got - 2010.06.03 11:33:40.
