data_PCOD9016390
_publ_section_title
;
Structure prediction by ZEFSAII (Michael W. Deem and Ramdas Pophale) SiO2 
 PCOD9016390
Probable space group: P -1
;
_chemical_formula_sum "Si O2"
_cell_formula_units_Z 14
_cell_length_a 15.218031
_cell_length_b 11.008597
_cell_length_c 13.666820
_cell_angle_alpha 147.698356
_cell_angle_beta 142.249094
_cell_angle_gamma 33.796731
_cell_volume 649.873904
_symmetry_space_group_name_H-M "P -1"
_symmetry_group_IT_number 2
_symmetry_cell_setting 'triclinic'
loop_
_space_group_symop_operation_xyz
x,y,z
-x,-y,-z
loop_
_atom_site_type_symbol
_atom_site_label
_atom_site_fract_x
_atom_site_fract_y
_atom_site_fract_z
Si Si1 0.568738 0.393369 0.287143
Si Si2 0.181747 0.921884 0.141845
Si Si3 0.983661 0.593544 0.938998
Si Si4 0.545342 0.632091 0.040110
Si Si5 0.846419 0.962914 0.374708
Si Si6 0.210902 0.832116 0.317894
Si Si7 0.658052 0.838637 0.700016
O O1 0.563613 0.309442 0.114281
O O2 0.382899 0.554986 0.277346
O O3 0.627953 0.608486 0.481442
O O4 0.309766 0.844711 0.698742
O O5 0.280374 0.606163 0.001784
O O6 0.204745 0.982600 0.315537
O O7 0.263661 0.052903 0.237001
O O8 0.000000 0.000000 0.000000
O O9 0.095100 0.339017 0.798212
O O10 0.796172 0.721630 0.826114
O O11 0.055823 0.787770 0.133759
O O12 0.000000 0.500000 0.000000
O O13 0.500000 0.500000 0.000000
O O14 0.509505 0.911953 0.238204
O O15 0.808705 0.037797 0.505905
O O16 0.000000 0.000000 0.500000
#
# Coordination Sequence:
#
# PCOD9016390 Si02
#       7
#     2   2   2   2   2   2   2
#     4  11  24  43  65  98 135 166 217 273 316 389
#     4  10  21  42  67  96 133 167 215 271 317 386
#     4  12  23  40  68  94 127 173 220 266 324 383
#     4   9  22  38  66  93 127 173 211 256 322 381
#     4  12  24  41  68  98 127 172 221 268 329 381
#     4  11  25  42  65  96 133 168 217 275 320 389
#     4  11  22  42  68  93 133 175 213 261 330 380
#
# _framework density 21.542642000000001
#
# number of rings (size 3 to 8) (size 9 to 14) (size 15 to 20)
#    0.000    1.143    4.286    1.286    0.000    8.000 
#    0.000    2.143    0.000    0.000    0.000    0.000 
#    0.000    0.000    0.000    0.000    0.000    0.000 
#
# Total GULP energy -78247.411891 kJ/mol
# GULP energy per Si atom -5589.100849 kJ/mol
# Density = 2.149361 g / cm^3
# Si number density = 21.542642 Si / 1000 Ang^3
#
#
#
# Elastic Constant Matrix: (Units=GPa)
#
#
# Indices 1 2 3 4 5 6 
#
# 1 89.9114 15.5423 23.1374 -4.8521 -39.5487 3.4478
# 2 15.5423 95.1763 19.8984 -6.1735 -25.4446 1.5410
# 3 23.1374 19.8984 62.0196 1.6247 -23.6262 -1.3400
# 4 -4.8521 -6.1735 1.6247 39.4723 1.4878 -1.2822
# 5 -39.5487 -25.4446 -23.6262 1.4878 48.0762 -5.6256
# 6 3.4478 1.5410 -1.3400 -1.2822 -5.6256 28.3738
#
#
#
# Elastic Compliance Matrix: (Units=1/GPa)
#
#
# Indices 1 2 3 4 5 6 
#
# 1 0.017803 0.001455 -0.001557 0.001949 0.014670 0.000681
# 2 0.001455 0.012657 -0.002016 0.001998 0.006902 0.000499
# 3 -0.001557 -0.002016 0.020550 -0.001568 0.008129 0.002810
# 4 0.001949 0.001998 -0.001568 0.025938 0.001204 0.000991
# 5 0.014670 0.006902 0.008129 0.001204 0.041234 0.006456
# 6 0.000681 0.000499 0.002810 0.000991 0.006456 0.036591
#
#
# Mechanical properties :
#
#
# Convention : Reuss Voigt Hill
#
# Bulk Modulus (GPa) = 21.37871 40.47374 30.92623
# Shear Modulus (GPa) = 28.63699 35.75309 32.19504
#
# Velocity S-wave (km/s) = 3.64993 4.07829 3.87004
# Velocity P-wave (km/s) = 5.26385 6.40352 5.86145
#
# Compressibility (1/GPa) = 0.04677550
#
# Stress axis : x y z
#
# Youngs Moduli (GPa) = 56.17099 79.00540 48.66211
#
# Poissons Ratio (x) = -0.11499 0.07574
# Poissons Ratio (y) = -0.08176 0.09811
# Poissons Ratio (z) = 0.08743 0.15929
#
# Static dielectric constant tensor:
#      x y z
#    x 1.850590 -0.011690 0.024990 
#    y -0.011690 1.779070 0.004250 
#    z 0.024990 0.004250 1.779840 
# 
# From -- ./inp_files/532061.got.cif
#   From: 2010.05.17/outbox.cif.g08.bks.cpg/sg2_267_cif.got.tgz:532061.got - 2010.06.03 11:33:40.
