data_PCOD9016569
_publ_section_title
;
Structure prediction by ZEFSAII (Michael W. Deem and Ramdas Pophale) SiO2 
 PCOD9016569
Probable space group: P -1
;
_chemical_formula_sum "Si O2"
_cell_formula_units_Z 14
_cell_length_a 5.267329
_cell_length_b 5.310975
_cell_length_c 25.013868
_cell_angle_alpha 59.592712
_cell_angle_beta 116.219649
_cell_angle_gamma 90.475104
_cell_volume 520.016478
_symmetry_space_group_name_H-M "P -1"
_symmetry_group_IT_number 2
_symmetry_cell_setting 'triclinic'
loop_
_space_group_symop_operation_xyz
x,y,z
-x,-y,-z
loop_
_atom_site_type_symbol
_atom_site_label
_atom_site_fract_x
_atom_site_fract_y
_atom_site_fract_z
Si Si1 0.343805 0.263684 0.323530
Si Si2 0.397506 0.869844 0.950982
Si Si3 0.130794 0.210982 0.745333
Si Si4 0.216671 0.662550 0.556711
Si Si5 0.711809 0.856409 0.786639
Si Si6 0.173833 0.234570 0.084536
Si Si7 0.775630 0.335356 0.587827
O O1 0.018867 0.498578 0.263969
O O2 0.591365 0.370488 0.367351
O O3 0.433313 0.190074 0.278041
O O4 0.304237 0.982976 0.385704
O O5 0.543656 0.948362 0.902548
O O6 0.047870 0.967590 0.905351
O O7 0.500000 0.500000 0.000000
O O8 0.500000 0.000000 0.000000
O O9 0.005439 0.944098 0.786849
O O10 0.939349 0.305007 0.663634
O O11 0.466689 0.116439 0.768186
O O12 0.463176 0.591513 0.540407
O O13 0.017690 0.427387 0.564323
O O14 0.000000 0.000000 0.500000
O O15 0.784483 0.627993 0.868407
O O16 0.000000 0.500000 0.000000
#
# Coordination Sequence:
#
# PCOD9016569 Si02
#       7
#     2   2   2   2   2   2   2
#     4  10  24  45  72  96 142 190 230 295 362 409
#     4  10  21  42  68  93 135 180 223 283 356 432
#     4  10  22  41  66 100 129 178 231 288 338 419
#     4  11  24  41  66 106 139 178 238 286 343 424
#     4  11  23  43  67  99 135 175 239 285 353 426
#     4  10  22  43  67  99 134 174 228 291 353 433
#     4  10  22  41  67  93 139 179 230 282 346 418
#
# _framework density 26.922224
#
# number of rings (size 3 to 8) (size 9 to 14) (size 15 to 20)
#    0.000    1.714    0.000    4.286    0.000   11.429 
#   15.429    0.000    0.000    2.571    0.000    0.000 
#    0.000    0.000    0.000    0.000    0.000    0.000 
#
# Total GULP energy -78271.550855 kJ/mol
# GULP energy per Si atom -5590.825061 kJ/mol
# Density = 2.686095 g / cm^3
# Si number density = 26.922224 Si / 1000 Ang^3
#
#
#
# Elastic Constant Matrix: (Units=GPa)
#
#
# Indices 1 2 3 4 5 6 
#
# 1 220.2543 41.2977 46.8319 32.0252 -3.6409 -4.4763
# 2 41.2977 99.0478 20.5212 18.0937 -2.5592 -7.6614
# 3 46.8319 20.5212 98.2165 19.1246 -17.5614 -4.8639
# 4 32.0252 18.0937 19.1246 39.3008 -5.1818 5.8739
# 5 -3.6409 -2.5592 -17.5614 -5.1818 57.8425 6.3923
# 6 -4.4763 -7.6614 -4.8639 5.8739 6.3923 40.6533
#
#
#
# Elastic Compliance Matrix: (Units=1/GPa)
#
#
# Indices 1 2 3 4 5 6 
#
# 1 0.005670 -0.001337 -0.001862 -0.003291 -0.000643 0.000726
# 2 -0.001337 0.011843 -0.000948 -0.004374 -0.000537 0.002688
# 3 -0.001862 -0.000948 0.012672 -0.003971 0.003200 0.001203
# 4 -0.003291 -0.004374 -0.003971 0.033374 0.002137 -0.006820
# 5 -0.000643 -0.000537 0.003200 0.002137 0.018723 -0.003042
# 6 0.000726 0.002688 0.001203 -0.006820 -0.003042 0.026792
#
#
# Mechanical properties :
#
#
# Convention : Reuss Voigt Hill
#
# Bulk Modulus (GPa) = 45.68217 70.53559 58.10888
# Shear Modulus (GPa) = 40.10713 48.15052 44.12883
#
# Velocity S-wave (km/s) = 3.86390 4.23366 4.05300
# Velocity P-wave (km/s) = 6.07547 7.08203 6.59797
#
# Compressibility (1/GPa) = 0.02189038
#
# Stress axis : x y z
#
# Youngs Moduli (GPa) = 176.37987 84.43693 78.91168
#
# Poissons Ratio (x) = 0.11292 0.14694
# Poissons Ratio (y) = 0.23587 0.07481
# Poissons Ratio (z) = 0.32842 0.08005
#
# Static dielectric constant tensor:
#      x y z
#    x 2.169000 0.020020 -0.024740 
#    y 0.020020 2.147160 -0.081390 
#    z -0.024740 -0.081390 2.389240 
# 
# From -- ./inp_files/621564.got.cif
#   From: 2010.05.17/outbox.cif.g08.bks.cpg/sg2_311_cif.got.tgz:621564.got - 2010.06.03 11:33:40.
