data_PCOD9016161
_publ_section_title
;
Structure prediction by ZEFSAII (Michael W. Deem and Ramdas Pophale) SiO2 
 PCOD9016161
Probable space group: P -1
;
_chemical_formula_sum "Si O2"
_cell_formula_units_Z 15
_cell_length_a 9.213740
_cell_length_b 12.137812
_cell_length_c 9.303404
_cell_angle_alpha 108.534679
_cell_angle_beta 70.966101
_cell_angle_gamma 56.275736
_cell_volume 632.224115
_symmetry_space_group_name_H-M "P -1"
_symmetry_group_IT_number 2
_symmetry_cell_setting 'triclinic'
loop_
_space_group_symop_operation_xyz
x,y,z
-x,-y,-z
loop_
_atom_site_type_symbol
_atom_site_label
_atom_site_fract_x
_atom_site_fract_y
_atom_site_fract_z
Si Si1 0.760190 0.406613 0.724800
Si Si2 0.303515 0.538825 0.895723
Si Si3 0.728260 0.655279 0.670870
Si Si4 0.443053 0.883239 0.602950
Si Si5 0.007768 0.131239 0.030619
Si Si6 0.808564 0.871173 0.735308
Si Si7 0.000000 0.500000 0.000000
Si Si8 0.490428 0.122209 0.729250
O O1 0.792346 0.401693 0.883869
O O2 0.675897 0.579428 0.764365
O O3 0.988984 0.255007 0.499740
O O4 0.571640 0.411573 0.766894
O O5 0.176258 0.494233 0.866074
O O6 0.217611 0.688783 0.884227
O O7 0.589391 0.720143 0.593363
O O8 0.691753 0.811570 0.784152
O O9 0.000000 0.500000 0.500000
O O10 0.423471 0.861149 0.434369
O O11 0.550236 0.952975 0.607245
O O12 0.199934 0.039947 0.812298
O O13 0.081824 0.147093 0.161470
O O14 0.000000 0.000000 0.000000
O O15 0.632243 0.060886 0.802435
O O16 0.774715 0.701839 0.100474
#
# Coordination Sequence:
#
# PCOD9016161 Si02
#       8
#     2   2   2   2   2   2   1   2
#     4  10  23  46  71 104 146 183 238 299 362 423
#     4  11  26  44  70 105 143 190 237 296 356 425
#     4   9  20  37  69 104 135 181 230 293 353 419
#     4  10  21  42  66  97 136 184 229 286 353 419
#     4  12  26  44  67 100 144 188 235 294 356 425
#     4  10  24  43  71 103 140 191 241 292 357 433
#     4  12  26  40  72 106 140 184 240 294 348 430
#     4  10  23  43  70 101 137 182 240 294 347 423
#
# _framework density 23.725763000000001
#
# number of rings (size 3 to 8) (size 9 to 14) (size 15 to 20)
#    0.000    1.600    1.333    1.600    7.467    8.000 
#    0.000    2.000    0.000    0.000    0.000    0.000 
#    0.000    0.000    0.000    0.000    0.000    0.000 
#
# Total GULP energy -83530.294440 kJ/mol
# GULP energy per Si atom -5568.686296 kJ/mol
# Density = 2.367176 g / cm^3
# Si number density = 23.725763 Si / 1000 Ang^3
#
#
#
# Elastic Constant Matrix: (Units=GPa)
#
#
# Indices 1 2 3 4 5 6 
#
# 1 35.6640 27.7471 19.4187 -12.7764 -7.3607 7.5738
# 2 27.7471 159.5966 21.9911 -1.8991 15.6306 -18.5418
# 3 19.4187 21.9911 97.2140 -5.2319 -13.0485 -15.7261
# 4 -12.7764 -1.8991 -5.2319 31.3640 -5.0294 -4.7174
# 5 -7.3607 15.6306 -13.0485 -5.0294 20.9056 0.4775
# 6 7.5738 -18.5418 -15.7261 -4.7174 0.4775 48.1058
#
#
#
# Elastic Compliance Matrix: (Units=1/GPa)
#
#
# Indices 1 2 3 4 5 6 
#
# 1 0.064367 -0.015698 -0.005146 0.028231 0.038334 -0.015479
# 2 -0.015698 0.011386 -0.001147 -0.007695 -0.016743 0.005897
# 3 -0.005146 -0.001147 0.013543 0.002099 0.007892 0.004923
# 4 0.028231 -0.007695 0.002099 0.047481 0.028480 -0.002351
# 5 0.038334 -0.016743 0.007892 0.028480 0.085808 -0.007968
# 6 -0.015479 0.005897 0.004923 -0.002351 -0.007968 0.026955
#
#
# Mechanical properties :
#
#
# Convention : Reuss Voigt Hill
#
# Bulk Modulus (GPa) = 22.06865 47.86537 34.96701
# Shear Modulus (GPa) = 16.20072 34.96290 25.58181
#
# Velocity S-wave (km/s) = 2.61594 3.84295 3.28720
# Velocity P-wave (km/s) = 4.29487 6.31737 5.40163
#
# Compressibility (1/GPa) = 0.04531314
#
# Stress axis : x y z
#
# Youngs Moduli (GPa) = 15.53590 87.82354 73.84137
#
# Poissons Ratio (x) = 1.37869 0.37996
# Poissons Ratio (y) = 0.24389 0.08473
# Poissons Ratio (z) = 0.07994 0.10078
#
# Static dielectric constant tensor:
#      x y z
#    x 1.916450 -0.069100 0.104360 
#    y -0.069100 1.839350 0.058100 
#    z 0.104360 0.058100 1.876640 
# 
# From -- ./inp_files/189127.got.cif
#   From: 2010.05.17/outbox.cif.g08.bks.cpg/sg2_95_cif.got.tgz:189127.got - 2010.06.03 11:33:40.
