data_PCOD9016472
_publ_section_title
;
Structure prediction by ZEFSAII (Michael W. Deem and Ramdas Pophale) SiO2 
 PCOD9016472
Probable space group: P -1
;
_chemical_formula_sum "Si O2"
_cell_formula_units_Z 16
_cell_length_a 13.693308
_cell_length_b 7.895855
_cell_length_c 8.521166
_cell_angle_alpha 89.905413
_cell_angle_beta 127.016073
_cell_angle_gamma 82.469139
_cell_volume 725.505281
_symmetry_space_group_name_H-M "P -1"
_symmetry_group_IT_number 2
_symmetry_cell_setting 'triclinic'
loop_
_space_group_symop_operation_xyz
x,y,z
-x,-y,-z
loop_
_atom_site_type_symbol
_atom_site_label
_atom_site_fract_x
_atom_site_fract_y
_atom_site_fract_z
Si Si1 0.611220 0.233290 0.184481
Si Si2 0.598731 0.624886 0.213768
Si Si3 0.104517 0.547489 0.985935
Si Si4 0.713331 0.656115 0.654372
Si Si5 0.070256 0.118726 0.179676
Si Si6 0.541701 0.878409 0.690069
Si Si7 0.861459 0.006967 0.422917
Si Si8 0.239563 0.260334 0.890088
O O1 0.583973 0.428337 0.218766
O O2 0.562554 0.123222 0.277960
O O3 0.753850 0.167052 0.284682
O O4 0.526981 0.243925 0.945867
O O5 0.672549 0.669436 0.436006
O O6 0.674531 0.634463 0.127013
O O7 0.145774 0.400747 0.896371
O O8 0.040626 0.732789 0.864983
O O9 0.220807 0.528604 0.217297
O O10 0.000000 0.500000 0.000000
O O11 0.816562 0.785492 0.773167
O O12 0.592439 0.703083 0.645434
O O13 0.130386 0.008953 0.382697
O O14 0.000000 0.000000 0.000000
O O15 0.500000 0.000000 0.500000
O O16 0.668756 0.877116 0.914417
O O17 0.821223 0.845384 0.296715
O O18 0.000000 0.000000 0.500000
#
# Coordination Sequence:
#
# PCOD9016472 Si02
#       8
#     2   2   2   2   2   2   2   2
#     4  10  25  45  66 103 139 178 231 294 345 416
#     4  10  22  44  73  98 139 179 232 291 350 415
#     4   9  22  41  64  91 135 179 225 278 330 414
#     4  10  21  42  68 101 127 184 231 277 356 407
#     4  11  25  43  65  98 143 183 226 283 341 410
#     4  10  22  40  71  98 135 179 224 288 349 409
#     4  12  28  42  66 102 137 185 229 288 347 409
#     4  10  23  44  69  99 136 180 239 275 354 416
#
# _framework density 22.053595999999999
#
# number of rings (size 3 to 8) (size 9 to 14) (size 15 to 20)
#    0.000    1.750    1.250    0.750   10.500    3.000 
#    0.000    0.000    0.000    0.000    0.000    0.000 
#    0.000    0.000    0.000    0.000    0.000    0.000 
#
# Total GULP energy -89109.604920 kJ/mol
# GULP energy per Si atom -5569.350307 kJ/mol
# Density = 2.200340 g / cm^3
# Si number density = 22.053596 Si / 1000 Ang^3
#
#
#
# Elastic Constant Matrix: (Units=GPa)
#
#
# Indices 1 2 3 4 5 6 
#
# 1 54.3021 11.2265 16.0775 4.7662 16.4574 -16.7568
# 2 11.2265 71.4837 42.6982 -3.7997 13.5256 -13.5645
# 3 16.0775 42.6982 142.2002 4.4866 0.4294 -5.3904
# 4 4.7662 -3.7997 4.4866 39.2950 -6.0244 9.4175
# 5 16.4574 13.5256 0.4294 -6.0244 25.1090 -5.6394
# 6 -16.7568 -13.5645 -5.3904 9.4175 -5.6394 36.6710
#
#
#
# Elastic Compliance Matrix: (Units=1/GPa)
#
#
# Indices 1 2 3 4 5 6 
#
# 1 0.030073 0.003406 -0.003545 -0.009366 -0.020653 0.013710
# 2 0.003406 0.020694 -0.006271 -0.001156 -0.012037 0.006735
# 3 -0.003545 -0.006271 0.009233 -0.000014 0.005139 -0.001789
# 4 -0.009366 -0.001156 -0.000014 0.030870 0.011735 -0.010832
# 5 -0.020653 -0.012037 0.005139 0.011735 0.061057 -0.006759
# 6 0.013710 0.006735 -0.001789 -0.010832 -0.006759 0.037505
#
#
# Mechanical properties :
#
#
# Convention : Reuss Voigt Hill
#
# Bulk Modulus (GPa) = 21.19524 45.33228 33.26376
# Shear Modulus (GPa) = 22.93808 33.41393 28.17601
#
# Velocity S-wave (km/s) = 3.22857 3.89668 3.57825
# Velocity P-wave (km/s) = 4.85076 6.39106 5.67342
#
# Compressibility (1/GPa) = 0.04718040
#
# Stress axis : x y z
#
# Youngs Moduli (GPa) = 33.25246 48.32312 108.30454
#
# Poissons Ratio (x) = -0.16460 0.38398
# Poissons Ratio (y) = -0.11326 0.67915
# Poissons Ratio (z) = 0.11789 0.30302
#
# Static dielectric constant tensor:
#      x y z
#    x 1.943180 0.056020 0.138970 
#    y 0.056020 1.856050 -0.002970 
#    z 0.138970 -0.002970 1.988440 
# 
# From -- ./inp_files/298941.got.cif
#   From: 2010.05.17/outbox.cif.g08.bks.cpg/sg2_150_cif.got.tgz:298941.got - 2010.06.03 11:33:40.
