data_PCOD9016483
_publ_section_title
;
Structure prediction by ZEFSAII (Michael W. Deem and Ramdas Pophale) SiO2 
 PCOD9016483
Probable space group: P -1
;
_chemical_formula_sum "Si O2"
_cell_formula_units_Z 16
_cell_length_a 27.700695
_cell_length_b 18.840970
_cell_length_c 15.310634
_cell_angle_alpha 20.141254
_cell_angle_beta 161.693741
_cell_angle_gamma 160.988881
_cell_volume 748.239662
_symmetry_space_group_name_H-M "P -1"
_symmetry_group_IT_number 2
_symmetry_cell_setting 'triclinic'
loop_
_space_group_symop_operation_xyz
x,y,z
-x,-y,-z
loop_
_atom_site_type_symbol
_atom_site_label
_atom_site_fract_x
_atom_site_fract_y
_atom_site_fract_z
Si Si1 0.740675 0.948212 0.066120
Si Si2 0.499542 0.464722 0.643226
Si Si3 0.949930 0.707755 0.683308
Si Si4 0.159192 0.729522 0.292833
Si Si5 0.573707 0.128219 0.257195
Si Si6 0.987974 0.192278 0.643373
Si Si7 0.287784 0.114308 0.342072
Si Si8 0.883939 0.903790 0.627644
O O1 0.763280 0.713643 0.365117
O O2 0.933886 0.150268 0.197516
O O3 0.598242 0.927412 0.916433
O O4 0.718431 0.068940 0.800637
O O5 0.500000 0.500000 0.500000
O O6 0.589221 0.688366 0.603458
O O7 0.290873 0.286101 0.503552
O O8 0.594559 0.316065 0.002906
O O9 0.027245 0.866273 0.546589
O O10 0.000000 0.500000 0.000000
O O11 0.268230 0.761753 0.530001
O O12 0.067422 0.450146 0.437268
O O13 0.006681 0.789486 0.980495
O O14 0.585435 0.921379 0.465685
O O15 0.155947 0.177084 0.988605
O O16 0.849746 0.124489 0.564485
O O17 0.876872 0.995152 0.606517
#
# Coordination Sequence:
#
# PCOD9016483 Si02
#       8
#     2   2   2   2   2   2   2   2
#     4  10  23  43  66 103 140 180 239 285 345 422
#     4  12  26  46  68 102 141 180 233 297 354 416
#     4  10  21  42  68 101 137 184 227 288 352 412
#     4  11  24  43  74  98 141 188 232 289 353 415
#     4  12  25  46  68 102 143 186 230 296 354 413
#     4  11  23  44  69 105 135 185 237 289 348 426
#     4  11  26  43  71 100 142 184 238 285 358 419
#     4  11  23  44  70 103 137 178 238 289 348 425
#
# _framework density 21.383523
#
# number of rings (size 3 to 8) (size 9 to 14) (size 15 to 20)
#    0.000    1.000    5.000    1.125    1.750    3.000 
#    0.000    0.625    0.000    0.000    0.000    0.000 
#    0.000    0.000    0.000    0.000    0.000    0.000 
#
# Total GULP energy -89185.388585 kJ/mol
# GULP energy per Si atom -5574.086787 kJ/mol
# Density = 2.133485 g / cm^3
# Si number density = 21.383523 Si / 1000 Ang^3
#
#
#
# Elastic Constant Matrix: (Units=GPa)
#
#
# Indices 1 2 3 4 5 6 
#
# 1 114.0290 35.5950 94.0079 -3.8453 7.1661 -49.6683
# 2 35.5950 86.8277 60.4610 3.5301 9.5307 -32.5502
# 3 94.0079 60.4610 186.5768 -0.7061 0.2115 -40.9850
# 4 -3.8453 3.5301 -0.7061 30.6541 -9.5272 -6.7101
# 5 7.1661 9.5307 0.2115 -9.5272 46.3514 6.6271
# 6 -49.6683 -32.5502 -40.9850 -6.7101 6.6271 86.5344
#
#
#
# Elastic Compliance Matrix: (Units=1/GPa)
#
#
# Indices 1 2 3 4 5 6 
#
# 1 0.018888 0.001207 -0.008154 0.002619 -0.003725 0.007922
# 2 0.001207 0.016993 -0.005046 -0.002357 -0.004840 0.004883
# 3 -0.008154 -0.005046 0.010734 0.000228 0.002535 -0.001670
# 4 0.002619 -0.002357 0.000228 0.036076 0.007068 0.002980
# 5 -0.003725 -0.004840 0.002535 0.007068 0.025178 -0.004139
# 6 0.007922 0.004883 -0.001670 0.002980 -0.004139 0.017697
#
#
# Mechanical properties :
#
#
# Convention : Reuss Voigt Hill
#
# Bulk Modulus (GPa) = 44.18833 85.28459 64.73646
# Shear Modulus (GPa) = 31.82782 45.86595 38.84688
#
# Velocity S-wave (km/s) = 3.86220 4.63635 4.26687
# Velocity P-wave (km/s) = 6.37168 8.28438 7.39017
#
# Compressibility (1/GPa) = 0.02263041
#
# Stress axis : x y z
#
# Youngs Moduli (GPa) = 52.94396 58.84610 93.16151
#
# Poissons Ratio (x) = -0.07101 0.75960
# Poissons Ratio (y) = -0.06388 0.47006
# Poissons Ratio (z) = 0.43168 0.29691
#
# Static dielectric constant tensor:
#      x y z
#    x 1.834570 0.049570 0.019910 
#    y 0.049570 1.812350 -0.038970 
#    z 0.019910 -0.038970 1.777080 
# 
# From -- ./inp_files/544316.got.cif
#   From: 2010.05.17/outbox.cif.g08.bks.cpg/sg2_273_cif.got.tgz:544316.got - 2010.06.03 11:33:40.
