data_PCOD9016944
_publ_section_title
;
Structure prediction by ZEFSAII (Michael W. Deem and Ramdas Pophale) SiO2 
 PCOD9016944
Probable space group: P -1
;
_chemical_formula_sum "Si O2"
_cell_formula_units_Z 16
_cell_length_a 5.192067
_cell_length_b 5.369922
_cell_length_c 25.262883
_cell_angle_alpha 117.495056
_cell_angle_beta 110.660777
_cell_angle_gamma 86.864469
_cell_volume 579.626192
_symmetry_space_group_name_H-M "P -1"
_symmetry_group_IT_number 2
_symmetry_cell_setting 'triclinic'
loop_
_space_group_symop_operation_xyz
x,y,z
-x,-y,-z
loop_
_atom_site_type_symbol
_atom_site_label
_atom_site_fract_x
_atom_site_fract_y
_atom_site_fract_z
Si Si1 0.245801 0.757262 0.220021
Si Si2 0.204321 0.729625 0.871130
Si Si3 0.814701 0.336006 0.424521
Si Si4 0.783107 0.229376 0.010920
Si Si5 0.306342 0.567485 0.748754
Si Si6 0.325435 0.092229 0.545631
Si Si7 0.213084 0.804253 0.105612
Si Si8 0.003471 0.062375 0.314004
O O1 0.399516 0.544734 0.245172
O O2 0.361622 0.791222 0.172010
O O3 0.941481 0.595649 0.170908
O O4 0.229380 0.028631 0.281690
O O5 0.367804 0.776870 0.943213
O O6 0.325299 0.742489 0.822437
O O7 0.963439 0.931556 0.878019
O O8 0.629842 0.074613 0.413800
O O9 0.023131 0.226776 0.386900
O O10 0.000000 0.500000 0.500000
O O11 0.638214 0.571156 0.412135
O O12 0.983862 0.527171 0.057185
O O13 0.629324 0.207042 0.940666
O O14 0.000000 0.000000 0.000000
O O15 0.207146 0.759966 0.715076
O O16 0.108959 0.264334 0.710647
O O17 0.500000 0.000000 0.500000
O O18 0.000000 0.000000 0.500000
#
# Coordination Sequence:
#
# PCOD9016944 Si02
#       8
#     2   2   2   2   2   2   2   2
#     4  10  22  38  62  88 125 171 216 270 327 392
#     4   9  18  35  57  84 124 162 213 272 322 392
#     4  10  22  44  70 100 134 177 222 279 348 417
#     4   8  15  27  53  86 115 163 204 264 335 379
#     4  11  24  40  65  95 126 174 220 267 333 394
#     4  10  21  42  70 102 140 182 227 278 347 421
#     4   9  15  31  56  82 119 163 210 263 330 386
#     4  11  24  45  64  95 135 165 222 273 328 400
#
# _framework density 27.603995999999999
#
# number of rings (size 3 to 8) (size 9 to 14) (size 15 to 20)
#    0.000    2.250    1.250    1.125    1.750    0.000 
#   13.500    0.625    0.000   25.500    0.000    0.000 
#    0.000    0.000    0.000    0.000    0.000    0.000 
#
# Total GULP energy -89509.384575 kJ/mol
# GULP energy per Si atom -5594.336536 kJ/mol
# Density = 2.754117 g / cm^3
# Si number density = 27.603996 Si / 1000 Ang^3
#
#
#
# Elastic Constant Matrix: (Units=GPa)
#
#
# Indices 1 2 3 4 5 6 
#
# 1 85.9841 29.8902 38.3464 -3.5471 -34.0141 -9.9957
# 2 29.8902 153.5156 35.5444 0.7436 -14.2519 6.0946
# 3 38.3464 35.5444 217.7537 8.2538 -35.8103 -1.4052
# 4 -3.5471 0.7436 8.2538 41.8249 -0.5217 -5.9934
# 5 -34.0141 -14.2519 -35.8103 -0.5217 39.8599 1.5547
# 6 -9.9957 6.0946 -1.4052 -5.9934 1.5547 39.9271
#
#
#
# Elastic Compliance Matrix: (Units=1/GPa)
#
#
# Indices 1 2 3 4 5 6 
#
# 1 0.019361 -0.002452 -0.000626 0.002715 0.014922 0.005026
# 2 -0.002452 0.007230 -0.000764 -0.000446 -0.000129 -0.001806
# 3 -0.000626 -0.000764 0.005555 -0.001108 0.004176 -0.000173
# 4 0.002715 -0.000446 -0.001108 0.025015 0.001317 0.004412
# 5 0.014922 -0.000129 0.004176 0.001317 0.041447 0.002486
# 6 0.005026 -0.001806 -0.000173 0.004412 0.002486 0.027139
#
#
# Mechanical properties :
#
#
# Convention : Reuss Voigt Hill
#
# Bulk Modulus (GPa) = 40.88077 73.86839 57.37458
# Shear Modulus (GPa) = 35.31455 47.88720 41.60088
#
# Velocity S-wave (km/s) = 3.58065 4.16960 3.88630
# Velocity P-wave (km/s) = 5.65125 7.07099 6.40061
#
# Compressibility (1/GPa) = 0.02446138
#
# Stress axis : x y z
#
# Youngs Moduli (GPa) = 51.65112 138.30717 180.02158
#
# Poissons Ratio (x) = 0.33915 0.11264
# Poissons Ratio (y) = 0.12665 0.13762
# Poissons Ratio (z) = 0.03232 0.10573
#
# Static dielectric constant tensor:
#      x y z
#    x 2.167040 0.127740 -0.007210 
#    y 0.127740 2.279950 -0.028320 
#    z -0.007210 -0.028320 2.100430 
# 
# From -- ./inp_files/14971.got.cif
#   From: 2010.05.17/outbox.cif.g08.bks.cpg/sg2_8_cif.got.tgz:14971.got - 2010.06.03 11:33:40.
