data_PCOD9016972
_publ_section_title
;
Structure prediction by ZEFSAII (Michael W. Deem and Ramdas Pophale) SiO2 
 PCOD9016972
Probable space group: P -1
;
_chemical_formula_sum "Si O2"
_cell_formula_units_Z 16
_cell_length_a 14.248236
_cell_length_b 15.282534
_cell_length_c 9.154753
_cell_angle_alpha 74.553862
_cell_angle_beta 115.844871
_cell_angle_gamma 151.888640
_cell_volume 811.843634
_symmetry_space_group_name_H-M "P -1"
_symmetry_group_IT_number 2
_symmetry_cell_setting 'triclinic'
loop_
_space_group_symop_operation_xyz
x,y,z
-x,-y,-z
loop_
_atom_site_type_symbol
_atom_site_label
_atom_site_fract_x
_atom_site_fract_y
_atom_site_fract_z
Si Si1 0.155822 0.259883 0.875685
Si Si2 0.528942 0.970612 0.825920
Si Si3 0.666863 0.930036 0.716944
Si Si4 0.226911 0.650827 0.173410
Si Si5 0.568448 0.703899 0.954838
Si Si6 0.373111 0.104188 0.844114
Si Si7 0.088603 0.853828 0.490157
Si Si8 0.980969 0.408682 0.401595
O O1 0.247671 0.231055 0.982276
O O2 0.095924 0.225691 0.677723
O O3 0.346002 0.478262 0.942476
O O4 0.696934 0.965880 0.549714
O O5 0.579721 0.953331 0.721848
O O6 0.265268 0.771597 0.752677
O O7 0.637167 0.151314 0.808182
O O8 0.624892 0.985610 0.017337
O O9 0.923114 0.106755 0.860816
O O10 0.533411 0.742919 0.774699
O O11 0.392409 0.714125 0.164765
O O12 0.156643 0.560289 0.324740
O O13 0.000000 0.500000 0.000000
O O14 0.635834 0.819927 0.082952
O O15 0.169509 0.941585 0.665955
O O16 0.013928 0.691737 0.496619
O O17 0.000000 0.500000 0.500000
#
# Coordination Sequence:
#
# PCOD9016972 Si02
#       8
#     2   2   2   2   2   2   2   2
#     4   9  22  41  65  92 118 152 210 252 298 366
#     4  11  23  41  58  91 124 162 213 239 293 378
#     4   9  22  37  66  86 120 155 199 249 300 360
#     4  12  24  38  61  82 127 168 199 247 304 359
#     4  10  21  42  70  86 119 158 204 250 306 368
#     4  11  23  40  61  92 123 164 199 253 305 363
#     4  10  23  40  58  93 126 152 203 256 301 354
#     4  12  26  38  61  89 125 169 205 250 297 355
#
# _framework density 19.70823
#
# number of rings (size 3 to 8) (size 9 to 14) (size 15 to 20)
#    0.750    0.750    2.500    2.250    7.000    1.500 
#    0.000    0.000    0.000    2.250    0.000    0.000 
#    0.000    0.000    0.000    0.000    0.000    0.000 
#
# Total GULP energy -89311.475323 kJ/mol
# GULP energy per Si atom -5581.967208 kJ/mol
# Density = 1.966337 g / cm^3
# Si number density = 19.708230 Si / 1000 Ang^3
#
#
#
# Elastic Constant Matrix: (Units=GPa)
#
#
# Indices 1 2 3 4 5 6 
#
# 1 49.1325 34.7496 -7.8937 -7.6236 -2.9223 -5.3065
# 2 34.7496 96.7183 12.2395 -5.3663 -8.5607 -15.0781
# 3 -7.8937 12.2395 65.3078 -2.0765 -11.8805 -20.4519
# 4 -7.6236 -5.3663 -2.0765 32.1662 11.5634 3.0721
# 5 -2.9223 -8.5607 -11.8805 11.5634 17.6630 -1.3951
# 6 -5.3065 -15.0781 -20.4519 3.0721 -1.3951 28.7192
#
#
#
# Elastic Compliance Matrix: (Units=1/GPa)
#
#
# Indices 1 2 3 4 5 6 
#
# 1 0.030662 -0.010688 0.008080 0.004463 0.002838 0.005469
# 2 -0.010688 0.015825 -0.000859 -0.003487 0.008119 0.006489
# 3 0.008080 -0.000859 0.028631 -0.008592 0.027675 0.023694
# 4 0.004463 -0.003487 -0.008592 0.045968 -0.037921 -0.013884
# 5 0.002838 0.008119 0.027675 -0.037921 0.107126 0.033755
# 6 0.005469 0.006489 0.023694 -0.013884 0.033755 0.059235
#
#
# Mechanical properties :
#
#
# Convention : Reuss Voigt Hill
#
# Bulk Modulus (GPa) = 14.66635 32.14993 23.40814
# Shear Modulus (GPa) = 15.76736 27.18055 21.47395
#
# Velocity S-wave (km/s) = 2.83157 3.71772 3.30448
# Velocity P-wave (km/s) = 4.26008 5.89719 5.14418
#
# Compressibility (1/GPa) = 0.06818329
#
# Stress axis : x y z
#
# Youngs Moduli (GPa) = 32.61350 63.19232 34.92693
#
# Poissons Ratio (x) = 0.67538 -0.28220
# Poissons Ratio (y) = 0.34856 0.03002
# Poissons Ratio (z) = -0.26351 0.05431
#
# Static dielectric constant tensor:
#      x y z
#    x 1.666440 0.024580 0.006790 
#    y 0.024580 1.681410 0.001310 
#    z 0.006790 0.001310 1.727710 
# 
# From -- ./inp_files/313029.got.cif
#   From: 2010.05.17/outbox.cif.g08.bks.cpg/sg2_157_cif.got.tgz:313029.got - 2010.06.03 11:33:40.
