data_PCOD9016318
_publ_section_title
;
Structure prediction by ZEFSAII (Michael W. Deem and Ramdas Pophale) SiO2 
 PCOD9016318
Probable space group: P -1
;
_chemical_formula_sum "Si O2"
_cell_formula_units_Z 16
_cell_length_a 9.150431
_cell_length_b 12.377859
_cell_length_c 14.293310
_cell_angle_alpha 29.456821
_cell_angle_beta 85.210702
_cell_angle_gamma 76.330841
_cell_volume 747.817783
_symmetry_space_group_name_H-M "P -1"
_symmetry_group_IT_number 2
_symmetry_cell_setting 'triclinic'
loop_
_space_group_symop_operation_xyz
x,y,z
-x,-y,-z
loop_
_atom_site_type_symbol
_atom_site_label
_atom_site_fract_x
_atom_site_fract_y
_atom_site_fract_z
Si Si1 0.614771 0.521679 0.219241
Si Si2 0.919237 0.024524 0.775601
Si Si3 0.968777 0.729173 0.263934
Si Si4 0.617231 0.621593 0.937654
Si Si5 0.920029 0.495975 0.907556
Si Si6 0.573493 0.116486 0.649828
Si Si7 0.951928 0.421602 0.342806
Si Si8 0.600655 0.979459 0.104676
O O1 0.570012 0.318139 0.425380
O O2 0.765249 0.541779 0.250405
O O3 0.673667 0.491443 0.132019
O O4 0.466347 0.755132 0.054960
O O5 0.742146 0.046704 0.744323
O O6 0.969907 0.196070 0.574145
O O7 0.940247 0.115814 0.809196
O O8 0.022166 0.765015 0.938833
O O9 0.014113 0.605364 0.254797
O O10 0.000000 0.500000 0.500000
O O11 0.785350 0.877802 0.160753
O O12 0.741630 0.586654 0.875606
O O13 0.560840 0.893690 0.762882
O O14 0.500000 0.500000 0.000000
O O15 0.968460 0.639828 0.715517
O O16 0.000000 0.500000 0.000000
O O17 0.449425 0.172709 0.698447
O O18 0.500000 0.000000 0.000000
#
# Coordination Sequence:
#
# PCOD9016318 Si02
#       8
#     2   2   2   2   2   2   2   2
#     4  10  21  42  67  93 131 174 223 274 331 403
#     4  10  23  41  66  97 134 169 219 280 328 394
#     4  10  23  45  65  99 142 171 217 289 325 389
#     4  11  25  43  62  92 134 169 224 286 333 398
#     4  12  22  40  66  93 124 173 222 267 339 394
#     4  10  23  44  66  95 131 178 225 269 344 407
#     4  10  21  43  65  96 131 170 220 273 328 395
#     4  11  22  41  68  94 135 178 221 270 327 400
#
# _framework density 21.395586999999999
#
# number of rings (size 3 to 8) (size 9 to 14) (size 15 to 20)
#    0.000    1.500    3.750    0.750    3.500    3.000 
#    4.500    0.000    0.000    0.000    0.000    0.000 
#    0.000    0.000    0.000    0.000    0.000    0.000 
#
# Total GULP energy -89327.575447 kJ/mol
# GULP energy per Si atom -5582.973465 kJ/mol
# Density = 2.134689 g / cm^3
# Si number density = 21.395587 Si / 1000 Ang^3
#
#
#
# Elastic Constant Matrix: (Units=GPa)
#
#
# Indices 1 2 3 4 5 6 
#
# 1 49.9937 22.2856 10.6193 -2.0680 -8.1018 -0.9199
# 2 22.2856 100.4874 20.8307 11.1136 -15.2815 9.5978
# 3 10.6193 20.8307 83.2012 15.0377 -14.3690 -0.0282
# 4 -2.0680 11.1136 15.0377 29.5428 -5.2139 -13.1970
# 5 -8.1018 -15.2815 -14.3690 -5.2139 33.1852 -1.6926
# 6 -0.9199 9.5978 -0.0282 -13.1970 -1.6926 44.0618
#
#
#
# Elastic Compliance Matrix: (Units=1/GPa)
#
#
# Indices 1 2 3 4 5 6 
#
# 1 0.023915 -0.005456 -0.002389 0.007394 0.003660 0.004041
# 2 -0.005456 0.012961 -0.000874 -0.006398 0.003011 -0.004738
# 3 -0.002389 -0.000874 0.014581 -0.007395 0.004069 -0.001909
# 4 0.007394 -0.006398 -0.007395 0.048513 0.004107 0.016231
# 5 0.003660 0.003011 0.004069 0.004107 0.034923 0.001995
# 6 0.004041 -0.004738 -0.001909 0.016231 0.001995 0.028749
#
#
# Mechanical properties :
#
#
# Convention : Reuss Voigt Hill
#
# Bulk Modulus (GPa) = 29.39493 37.90593 33.65043
# Shear Modulus (GPa) = 25.98485 33.35441 29.66963
#
# Velocity S-wave (km/s) = 3.48874 3.95262 3.72791
# Velocity P-wave (km/s) = 5.47696 6.21177 5.85590
#
# Compressibility (1/GPa) = 0.03401947
#
# Stress axis : x y z
#
# Youngs Moduli (GPa) = 41.81420 77.15681 68.58032
#
# Poissons Ratio (x) = 0.42094 0.16387
# Poissons Ratio (y) = 0.22813 0.05992
# Poissons Ratio (z) = 0.09991 0.06742
#
# Static dielectric constant tensor:
#      x y z
#    x 1.745390 0.055340 0.016500 
#    y 0.055340 1.770580 0.007050 
#    z 0.016500 0.007050 1.773550 
# 
# From -- ./inp_files/246067.got.cif
#   From: 2010.05.17/outbox.cif.g08.bks.cpg/sg2_124_cif.got.tgz:246067.got - 2010.06.03 11:33:40.
