data_PCOD9016009
_publ_section_title
;
Structure prediction by ZEFSAII (Michael W. Deem and Ramdas Pophale) SiO2 
 PCOD9016009
Probable space group: P -1
;
_chemical_formula_sum "Si O2"
_cell_formula_units_Z 14
_cell_length_a 15.888641
_cell_length_b 9.318310
_cell_length_c 6.021439
_cell_angle_alpha 51.007839
_cell_angle_beta 118.053172
_cell_angle_gamma 124.396343
_cell_volume 562.511004
_symmetry_space_group_name_H-M "P -1"
_symmetry_group_IT_number 2
_symmetry_cell_setting 'triclinic'
loop_
_space_group_symop_operation_xyz
x,y,z
-x,-y,-z
loop_
_atom_site_type_symbol
_atom_site_label
_atom_site_fract_x
_atom_site_fract_y
_atom_site_fract_z
Si Si1 0.905850 0.356725 0.678087
Si Si2 0.886450 0.080617 0.300851
Si Si3 0.262972 0.377305 0.014551
Si Si4 0.099345 0.251733 0.607348
Si Si5 0.415794 0.471110 0.734735
Si Si6 0.410712 0.196522 0.612134
Si Si7 0.733605 0.217653 0.235019
O O1 0.883699 0.520130 0.640315
O O2 0.803477 0.236453 0.524521
O O3 0.000000 0.500000 0.500000
O O4 0.934458 0.209975 0.013434
O O5 0.797299 0.150845 0.196678
O O6 0.976250 0.133089 0.542520
O O7 0.851741 0.851862 0.407727
O O8 0.147295 0.249027 0.911722
O O9 0.318163 0.463769 0.761195
O O10 0.269453 0.563797 0.991824
O O11 0.325783 0.256435 0.314066
O O12 0.400135 0.269357 0.776298
O O13 0.473962 0.659951 0.462836
O O14 0.500000 0.500000 0.000000
O O15 0.378372 0.964142 0.740039
#
# Coordination Sequence:
#
# PCOD9016009 Si02
#       7
#     2   2   2   2   2   2   2
#     4  11  23  42  60  87 128 166 208 258 303 353
#     4  11  23  40  59  88 126 169 210 256 302 363
#     4  10  22  40  61  94 123 161 207 255 304 366
#     4  10  22  40  60  89 123 166 208 252 308 355
#     4   9  20  42  67  89 124 157 200 256 313 370
#     4  10  21  42  66  90 123 163 198 255 315 368
#     4  11  24  38  61  94 123 163 211 248 305 365
#
# _framework density 24.888401000000002
#
# number of rings (size 3 to 8) (size 9 to 14) (size 15 to 20)
#    0.000    1.714    1.429    2.143    0.000    5.714 
#   10.286    6.429    0.000    0.000    0.000    0.000 
#    0.000    0.000    0.000    0.000    0.000    0.000 
#
# Total GULP energy -78283.387549 kJ/mol
# GULP energy per Si atom -5591.670539 kJ/mol
# Density = 2.483175 g / cm^3
# Si number density = 24.888401 Si / 1000 Ang^3
#
#
#
# Elastic Constant Matrix: (Units=GPa)
#
#
# Indices 1 2 3 4 5 6 
#
# 1 67.7246 12.7879 15.9761 -10.3298 -17.8522 -9.0743
# 2 12.7879 186.3516 28.3949 6.1696 -4.6146 -13.8395
# 3 15.9761 28.3949 61.7460 -1.1799 7.2100 8.6847
# 4 -10.3298 6.1696 -1.1799 26.9042 3.4571 15.1255
# 5 -17.8522 -4.6146 7.2100 3.4571 31.1403 5.4340
# 6 -9.0743 -13.8395 8.6847 15.1255 5.4340 42.6292
#
#
#
# Elastic Compliance Matrix: (Units=1/GPa)
#
#
# Indices 1 2 3 4 5 6 
#
# 1 0.020835 0.000023 -0.007167 0.004551 0.012635 0.002677
# 2 0.000023 0.006430 -0.003811 -0.004167 0.001588 0.004145
# 3 -0.007167 -0.003811 0.022021 0.004586 -0.008931 -0.007738
# 4 0.004551 -0.004167 0.004586 0.051082 -0.001379 -0.019267
# 5 0.012635 0.001588 -0.008931 -0.001379 0.041779 0.000188
# 6 0.002677 0.004145 -0.007738 -0.019267 0.000188 0.033763
#
#
# Mechanical properties :
#
#
# Convention : Reuss Voigt Hill
#
# Bulk Modulus (GPa) = 36.52595 47.79332 42.15963
# Shear Modulus (GPa) = 24.16084 37.37896 30.76990
#
# Velocity S-wave (km/s) = 3.11909 3.87959 3.51994
# Velocity P-wave (km/s) = 5.26112 6.27001 5.78759
#
# Compressibility (1/GPa) = 0.02737780
#
# Stress axis : x y z
#
# Youngs Moduli (GPa) = 47.99540 155.50925 45.41096
#
# Poissons Ratio (x) = -0.00361 0.32544
# Poissons Ratio (y) = -0.00112 0.17307
# Poissons Ratio (z) = 0.34396 0.59269
#
# Static dielectric constant tensor:
#      x y z
#    x 2.050120 0.032730 -0.067510 
#    y 0.032730 1.954880 -0.016280 
#    z -0.067510 -0.016280 1.958930 
# 
# From -- ./inp_files/46140.got.cif
#   From: 2010.05.17/outbox.cif.g08.bks.cpg/sg2_24_cif.got.tgz:46140.got - 2010.06.03 11:33:40.
