data_PCOD9016932
_publ_section_title
;
Structure prediction by ZEFSAII (Michael W. Deem and Ramdas Pophale) SiO2 
 PCOD9016932
Probable space group: P -1
;
_chemical_formula_sum "Si O2"
_cell_formula_units_Z 16
_cell_length_a 18.919152
_cell_length_b 9.453769
_cell_length_c 12.301585
_cell_angle_alpha 136.345188
_cell_angle_beta 29.982557
_cell_angle_gamma 125.597777
_cell_volume 752.651865
_symmetry_space_group_name_H-M "P -1"
_symmetry_group_IT_number 2
_symmetry_cell_setting 'triclinic'
loop_
_space_group_symop_operation_xyz
x,y,z
-x,-y,-z
loop_
_atom_site_type_symbol
_atom_site_label
_atom_site_fract_x
_atom_site_fract_y
_atom_site_fract_z
Si Si1 0.118410 0.801686 0.254856
Si Si2 0.882166 0.569943 0.109848
Si Si3 0.578572 0.069221 0.538506
Si Si4 0.576676 0.170831 0.239517
Si Si5 0.571701 0.579492 0.611251
Si Si6 0.860475 0.998094 0.255481
Si Si7 0.144180 0.616542 0.361913
Si Si8 0.535709 0.507124 0.083308
O O1 0.139411 0.733759 0.315978
O O2 0.091279 0.589490 0.114056
O O3 0.262151 0.848337 0.027525
O O4 0.000000 0.000000 0.500000
O O5 0.738612 0.551734 0.356753
O O6 0.877334 0.800946 0.201395
O O7 0.000000 0.500000 0.000000
O O8 0.729079 0.978462 0.337419
O O9 0.584806 0.301465 0.624491
O O10 0.500000 0.000000 0.500000
O O11 0.467619 0.034544 0.762892
O O12 0.531740 0.361960 0.491373
O O13 0.485472 0.240492 0.295022
O O14 0.507013 0.644498 0.850981
O O15 0.844698 0.207517 0.463717
O O16 0.000000 0.000000 0.000000
O O17 0.000000 0.500000 0.500000
O O18 0.298101 0.472502 0.097285
O O19 0.500000 0.500000 0.000000
#
# Coordination Sequence:
#
# PCOD9016932 Si02
#       8
#     2   2   2   2   2   2   2   2
#     4  11  25  45  71 104 141 187 238 292 361 420
#     4  11  25  45  73 101 140 187 238 295 353 429
#     4  12  26  43  74 106 142 187 239 291 357 429
#     4  10  21  42  70 101 130 183 234 287 341 424
#     4  10  21  42  72  96 137 179 236 284 349 416
#     4  12  28  48  70 104 144 190 245 291 359 434
#     4  12  28  48  71 103 146 188 236 305 363 423
#     4  12  26  47  69 107 145 183 236 299 359 424
#
# _framework density 21.258168000000001
#
# number of rings (size 3 to 8) (size 9 to 14) (size 15 to 20)
#    0.000    0.750    5.000    1.500    7.000    1.000 
#    2.250    1.875    0.000    0.000    0.000    0.000 
#    0.000    0.000    0.000    0.000    0.000    0.000 
#
# Total GULP energy -89106.926260 kJ/mol
# GULP energy per Si atom -5569.182891 kJ/mol
# Density = 2.120978 g / cm^3
# Si number density = 21.258168 Si / 1000 Ang^3
#
#
#
# Elastic Constant Matrix: (Units=GPa)
#
#
# Indices 1 2 3 4 5 6 
#
# 1 165.5941 32.8610 52.7523 -18.7291 -14.2265 -24.1364
# 2 32.8610 73.6767 17.8189 -15.2047 -12.5092 -11.6559
# 3 52.7523 17.8189 79.0550 -6.7686 -12.8558 -8.7040
# 4 -18.7291 -15.2047 -6.7686 28.6075 -11.3337 5.4127
# 5 -14.2265 -12.5092 -12.8558 -11.3337 44.0771 3.9505
# 6 -24.1364 -11.6559 -8.7040 5.4127 3.9505 32.0291
#
#
#
# Elastic Compliance Matrix: (Units=1/GPa)
#
#
# Indices 1 2 3 4 5 6 
#
# 1 0.008966 -0.001014 -0.004611 0.004232 0.001975 0.004176
# 2 -0.001014 0.018215 -0.001007 0.011070 0.007140 0.002839
# 3 -0.004611 -0.001007 0.016682 0.001815 0.003563 -0.000054
# 4 0.004232 0.011070 0.001815 0.052110 0.018742 -0.003407
# 5 0.001975 0.007140 0.003563 0.018742 0.031388 -0.001983
# 6 0.004176 0.002839 -0.000054 -0.003407 -0.001983 0.036207
#
#
# Mechanical properties :
#
#
# Convention : Reuss Voigt Hill
#
# Bulk Modulus (GPa) = 32.68187 58.35447 45.51817
# Shear Modulus (GPa) = 26.73343 35.26897 31.00120
#
# Velocity S-wave (km/s) = 3.55006 4.07760 3.82294
# Velocity P-wave (km/s) = 5.67548 7.04834 6.39883
#
# Compressibility (1/GPa) = 0.03059801
#
# Stress axis : x y z
#
# Youngs Moduli (GPa) = 111.53173 54.90006 59.94446
#
# Poissons Ratio (x) = 0.05569 0.27640
# Poissons Ratio (y) = 0.11314 0.06037
# Poissons Ratio (z) = 0.51427 0.05529
#
# Static dielectric constant tensor:
#      x y z
#    x 1.920750 0.009860 0.155670 
#    y 0.009860 1.715390 0.060930 
#    z 0.155670 0.060930 1.823640 
# 
# From -- ./inp_files/462395.got.cif
#   From: 2010.05.17/outbox.cif.g08.bks.cpg/sg2_232_cif.got.tgz:462395.got - 2010.06.03 11:33:40.
