data_PCOD9016611
_publ_section_title
;
Structure prediction by ZEFSAII (Michael W. Deem and Ramdas Pophale) SiO2 
 PCOD9016611
Probable space group: P -1
;
_chemical_formula_sum "Si O2"
_cell_formula_units_Z 16
_cell_length_a 5.886405
_cell_length_b 14.022812
_cell_length_c 12.833988
_cell_angle_alpha 138.909172
_cell_angle_beta 66.849267
_cell_angle_gamma 116.843057
_cell_volume 618.722275
_symmetry_space_group_name_H-M "P -1"
_symmetry_group_IT_number 2
_symmetry_cell_setting 'triclinic'
loop_
_space_group_symop_operation_xyz
x,y,z
-x,-y,-z
loop_
_atom_site_type_symbol
_atom_site_label
_atom_site_fract_x
_atom_site_fract_y
_atom_site_fract_z
Si Si1 0.401026 0.614148 0.042425
Si Si2 0.368254 0.947374 0.089233
Si Si3 0.971366 0.309633 0.555077
Si Si4 0.947295 0.168521 0.653820
Si Si5 0.673905 0.406506 0.181416
Si Si6 0.240791 0.427804 0.419392
Si Si7 0.835454 0.869462 0.197049
Si Si8 0.503237 0.086279 0.403913
O O1 0.262308 0.538870 0.902811
O O2 0.500000 0.500000 0.000000
O O3 0.244844 0.719479 0.212174
O O4 0.655691 0.733998 0.056343
O O5 0.075933 0.949481 0.152148
O O6 0.492101 0.043198 0.247924
O O7 0.338031 0.768895 0.957655
O O8 0.500000 0.000000 0.000000
O O9 0.098852 0.484730 0.702975
O O10 0.104169 0.288802 0.403857
O O11 0.061928 0.221085 0.562124
O O12 0.665920 0.252914 0.542046
O O13 0.095782 0.195847 0.759576
O O14 0.767780 0.997477 0.564617
O O15 0.392217 0.413898 0.275488
O O16 0.500000 0.500000 0.500000
O O17 0.000000 0.500000 0.500000
O O18 0.682244 0.991751 0.345524
#
# Coordination Sequence:
#
# PCOD9016611 Si02
#       8
#     2   2   2   2   2   2   2   2
#     4  11  23  38  70 105 138 177 236 300 366 428
#     4  11  25  45  74 103 139 190 244 303 364 434
#     4  11  25  43  73  98 146 189 240 302 369 441
#     4  10  22  44  65 104 138 186 239 293 368 440
#     4  11  24  47  70 111 138 185 254 301 368 437
#     4  10  26  49  68 104 150 192 242 305 377 448
#     4  10  21  42  68  95 144 176 235 303 354 441
#     4  10  23  46  64 105 139 187 239 293 369 445
#
# _framework density 25.859743999999999
#
# number of rings (size 3 to 8) (size 9 to 14) (size 15 to 20)
#    0.000    1.500    3.750    1.125    5.250    6.000 
#    9.000    0.000    0.000    0.000    0.000    0.000 
#    0.000    0.000    0.000    0.000    0.000    0.000 
#
# Total GULP energy -89347.528709 kJ/mol
# GULP energy per Si atom -5584.220544 kJ/mol
# Density = 2.580089 g / cm^3
# Si number density = 25.859744 Si / 1000 Ang^3
#
#
#
# Elastic Constant Matrix: (Units=GPa)
#
#
# Indices 1 2 3 4 5 6 
#
# 1 76.1791 40.9914 13.9577 13.1174 19.5521 19.2913
# 2 40.9914 169.0627 40.3464 -16.4099 10.5900 -1.4020
# 3 13.9577 40.3464 92.9280 3.6036 32.7898 8.9720
# 4 13.1174 -16.4099 3.6036 35.4040 2.2041 2.0195
# 5 19.5521 10.5900 32.7898 2.2041 42.2367 5.4955
# 6 19.2913 -1.4020 8.9720 2.0195 5.4955 47.8887
#
#
#
# Elastic Compliance Matrix: (Units=1/GPa)
#
#
# Indices 1 2 3 4 5 6 
#
# 1 0.023032 -0.007199 0.004763 -0.011186 -0.010843 -0.008665
# 2 -0.007199 0.009309 -0.004993 0.007046 0.004072 0.003344
# 3 0.004763 -0.004993 0.017668 -0.004805 -0.013954 -0.003571
# 4 -0.011186 0.007046 -0.004805 0.035642 0.004819 0.003556
# 5 -0.010843 0.004072 -0.013954 0.004819 0.037925 0.002546
# 6 -0.008665 0.003344 -0.003571 0.003556 0.002546 0.024697
#
#
# Mechanical properties :
#
#
# Convention : Reuss Voigt Hill
#
# Bulk Modulus (GPa) = 28.45036 58.75121 43.60079
# Shear Modulus (GPa) = 28.59627 41.29751 34.94689
#
# Velocity S-wave (km/s) = 3.32900 4.00056 3.68013
# Velocity P-wave (km/s) = 5.07956 6.64137 5.91227
#
# Compressibility (1/GPa) = 0.03514894
#
# Stress axis : x y z
#
# Youngs Moduli (GPa) = 43.41877 107.42647 56.59833
#
# Poissons Ratio (x) = 0.77339 -0.26956
# Poissons Ratio (y) = 0.31258 0.28261
# Poissons Ratio (z) = -0.20679 0.53640
#
# Static dielectric constant tensor:
#      x y z
#    x 2.172560 0.063960 -0.119430 
#    y 0.063960 2.076400 -0.011210 
#    z -0.119430 -0.011210 2.295870 
# 
# From -- ./inp_files/484454.got.cif
#   From: 2010.05.17/outbox.cif.g08.bks.cpg/sg2_243_cif.got.tgz:484454.got - 2010.06.03 11:33:40.
