data_PCOD9016978
_publ_section_title
;
Structure prediction by ZEFSAII (Michael W. Deem and Ramdas Pophale) SiO2 
 PCOD9016978
Probable space group: P -1
;
_chemical_formula_sum "Si O2"
_cell_formula_units_Z 16
_cell_length_a 9.052173
_cell_length_b 9.374771
_cell_length_c 20.337679
_cell_angle_alpha 142.782617
_cell_angle_beta 125.769139
_cell_angle_gamma 47.168795
_cell_volume 761.921101
_symmetry_space_group_name_H-M "P -1"
_symmetry_group_IT_number 2
_symmetry_cell_setting 'triclinic'
loop_
_space_group_symop_operation_xyz
x,y,z
-x,-y,-z
loop_
_atom_site_type_symbol
_atom_site_label
_atom_site_fract_x
_atom_site_fract_y
_atom_site_fract_z
Si Si1 0.576736 0.889153 0.817722
Si Si2 0.022271 0.418838 0.400072
Si Si3 0.119340 0.315896 0.854975
Si Si4 0.458709 0.246263 0.391433
Si Si5 0.861008 0.140454 0.799159
Si Si6 0.754317 0.314662 0.700726
Si Si7 0.276450 0.724293 0.039787
Si Si8 0.185285 0.047342 0.535841
O O1 0.576888 0.803942 0.711073
O O2 0.642475 0.627031 0.780562
O O3 0.347256 0.102260 0.848569
O O4 0.727539 0.028851 0.910803
O O5 0.256041 0.313240 0.403043
O O6 0.000000 0.500000 0.500000
O O7 0.896621 0.668589 0.414086
O O8 0.984424 0.165257 0.282078
O O9 0.983679 0.311290 0.879859
O O10 0.996064 0.241039 0.739383
O O11 0.129179 0.585862 0.939059
O O12 0.500000 0.500000 0.500000
O O13 0.648422 0.007728 0.385350
O O14 0.715194 0.215681 0.724694
O O15 0.753985 0.199311 0.862841
O O16 0.716768 0.166578 0.575491
O O17 0.500000 0.500000 0.000000
O O18 0.000000 0.000000 0.500000
#
# Coordination Sequence:
#
# PCOD9016978 Si02
#       8
#     2   2   2   2   2   2   2   2
#     4  11  21  41  65  96 124 167 215 265 308 383
#     4  12  24  42  61  96 135 169 217 264 307 386
#     4   9  22  40  68  86 126 167 206 262 333 363
#     4  12  24  38  66  90 133 173 213 258 324 371
#     4  10  22  43  63  93 133 166 208 267 315 385
#     4  10  22  38  64  91 130 166 215 251 318 383
#     4  10  21  42  70  92 122 165 216 274 317 369
#     4  12  23  39  64  95 129 176 215 256 316 386
#
# _framework density 20.999549999999999
#
# number of rings (size 3 to 8) (size 9 to 14) (size 15 to 20)
#    0.750    0.500    5.000    1.125    1.750    1.000 
#    2.250    2.500    2.750    0.000    0.000    0.000 
#    0.000    0.000    0.000    0.000    0.000    0.000 
#
# Total GULP energy -89251.095201 kJ/mol
# GULP energy per Si atom -5578.193450 kJ/mol
# Density = 2.095175 g / cm^3
# Si number density = 20.999550 Si / 1000 Ang^3
#
#
#
# Elastic Constant Matrix: (Units=GPa)
#
#
# Indices 1 2 3 4 5 6 
#
# 1 11.7578 4.6575 -4.6745 -11.2606 -4.1010 2.1505
# 2 4.6575 118.3141 -1.6139 27.9031 4.0178 11.1011
# 3 -4.6745 -1.6139 57.1629 16.8168 2.6115 11.0495
# 4 -11.2606 27.9031 16.8168 22.3406 5.9660 4.3734
# 5 -4.1010 4.0178 2.6115 5.9660 42.2866 0.6005
# 6 2.1505 11.1011 11.0495 4.3734 0.6005 21.7703
#
#
#
# Elastic Compliance Matrix: (Units=1/GPa)
#
#
# Indices 1 2 3 4 5 6 
#
# 1 -4.519784 1.268306 0.991675 -4.663449 0.034562 0.232273
# 2 1.268306 -0.340938 -0.269330 1.284207 -0.008125 -0.072489
# 3 0.991675 -0.269330 -0.188171 0.991967 -0.005655 -0.064231
# 4 -4.663449 1.284207 0.991967 -4.711934 0.025715 0.248192
# 5 0.034562 -0.008125 -0.005655 0.025715 0.024525 -0.002243
# 6 0.232273 -0.072489 -0.064231 0.248192 -0.002243 0.042758
#
#
# Mechanical properties :
#
#
# Convention : Reuss Voigt Hill
#
# Bulk Modulus (GPa) = -0.93669 20.44145 9.75238
# Shear Modulus (GPa) = -0.35636 29.87052 14.75708
#
# Velocity S-wave (km/s) = -0.41239 3.77561 2.65379
# Velocity P-wave (km/s) = 0.82084 5.36305 3.74757
#
# Compressibility (1/GPa) = -1.06759031
#
# Stress axis : x y z
#
# Youngs Moduli (GPa) = -0.22125 -2.93309 -5.31433
#
# Poissons Ratio (x) = 3.72005 5.27009
# Poissons Ratio (y) = 0.28061 -1.43131
# Poissons Ratio (z) = 0.21941 -0.78997
#
# Static dielectric constant tensor:
#      x y z
#    x 1.785800 0.026550 0.028280 
#    y 0.026550 1.771000 0.058910 
#    z 0.028280 0.058910 1.934420 
# 
# From -- ./inp_files/588220.got.cif
#   From: 2010.05.17/outbox.cif.g08.bks.cpg/sg2_295_cif.got.tgz:588220.got - 2010.06.03 11:33:40.
