data_PCOD9016033
_publ_section_title
;
Structure prediction by ZEFSAII (Michael W. Deem and Ramdas Pophale) SiO2 
 PCOD9016033
Probable space group: P -1
;
_chemical_formula_sum "Si O2"
_cell_formula_units_Z 16
_cell_length_a 7.627676
_cell_length_b 17.147815
_cell_length_c 14.176815
_cell_angle_alpha 154.433816
_cell_angle_beta 131.663049
_cell_angle_gamma 47.319776
_cell_volume 579.951361
_symmetry_space_group_name_H-M "P -1"
_symmetry_group_IT_number 2
_symmetry_cell_setting 'triclinic'
loop_
_space_group_symop_operation_xyz
x,y,z
-x,-y,-z
loop_
_atom_site_type_symbol
_atom_site_label
_atom_site_fract_x
_atom_site_fract_y
_atom_site_fract_z
Si Si1 0.318182 0.740742 0.280552
Si Si2 0.004370 0.183801 0.009333
Si Si3 0.720196 0.589750 0.980104
Si Si4 0.802579 0.856412 0.575698
Si Si5 0.337643 0.533228 0.669934
Si Si6 0.792299 0.912314 0.252972
Si Si7 0.336317 0.102705 0.212687
Si Si8 0.211155 0.527192 0.420537
O O1 0.390828 0.527160 0.109436
O O2 0.558107 0.798174 0.391617
O O3 0.058590 0.787974 0.187724
O O4 0.226207 0.878935 0.488011
O O5 0.783357 0.329865 0.141053
O O6 0.180605 0.074861 0.036861
O O7 0.141279 0.331903 0.177956
O O8 0.888981 0.028233 0.750010
O O9 0.614037 0.547191 0.793797
O O10 0.702139 0.807811 0.196595
O O11 0.000000 0.500000 0.000000
O O12 0.755515 0.914011 0.732180
O O13 0.029163 0.678477 0.458886
O O14 0.355336 0.315716 0.446375
O O15 0.167517 0.600696 0.593934
O O16 0.596596 0.957563 0.149009
O O17 0.500000 0.500000 0.500000
#
# Coordination Sequence:
#
# PCOD9016033 Si02
#       8
#     2   2   2   2   2   2   2   2
#     4   9  17  30  43  75 109 137 168 211 266 317
#     4  11  21  34  56  82 103 138 181 224 274 323
#     4  10  18  28  47  75 110 137 171 214 270 313
#     4  11  19  32  56  75 108 140 176 219 274 322
#     4  11  18  35  55  79 111 140 176 224 270 320
#     4   9  17  26  45  72 113 136 164 214 269 315
#     4  10  17  30  50  80 111 136 166 221 275 318
#     4  11  24  38  52  76 112 146 180 221 266 322
#
# _framework density 27.588519000000002
#
# number of rings (size 3 to 8) (size 9 to 14) (size 15 to 20)
#    0.000    1.750    5.000    2.625    1.750    0.500 
#    0.000    0.000    0.000    0.000    0.000   11.375 
#    0.000    0.000    0.000    0.000    0.000    0.000 
#
# Total GULP energy -89369.057097 kJ/mol
# GULP energy per Si atom -5585.566069 kJ/mol
# Density = 2.752573 g / cm^3
# Si number density = 27.588519 Si / 1000 Ang^3
#
#
#
# Elastic Constant Matrix: (Units=GPa)
#
#
# Indices 1 2 3 4 5 6 
#
# 1 54.7702 35.2163 53.3381 5.9228 17.0997 -23.1429
# 2 35.2163 184.2151 62.8072 5.9346 9.7216 -46.8330
# 3 53.3381 62.8072 150.3027 2.0139 37.3613 -16.8589
# 4 5.9228 5.9346 2.0139 51.8364 -4.8596 6.8214
# 5 17.0997 9.7216 37.3613 -4.8596 42.5271 -1.0323
# 6 -23.1429 -46.8330 -16.8589 6.8214 -1.0323 46.9009
#
#
#
# Elastic Compliance Matrix: (Units=1/GPa)
#
#
# Indices 1 2 3 4 5 6 
#
# 1 0.037229 0.001138 -0.010028 -0.006835 -0.006794 0.016747
# 2 0.001138 0.008356 -0.003021 -0.002014 0.000253 0.008119
# 3 -0.010028 -0.003021 0.012629 0.000891 -0.006360 -0.003695
# 4 -0.006835 -0.002014 0.000891 0.021780 0.004717 -0.008128
# 5 -0.006794 0.000253 -0.006360 0.004717 0.032185 -0.005363
# 6 0.016747 0.008119 -0.003695 -0.008128 -0.005363 0.037428
#
#
# Mechanical properties :
#
#
# Convention : Reuss Voigt Hill
#
# Bulk Modulus (GPa) = 29.07661 76.89012 52.98337
# Shear Modulus (GPa) = 27.04269 44.11463 35.57866
#
# Velocity S-wave (km/s) = 3.13424 4.00311 3.59502
# Velocity P-wave (km/s) = 4.86417 7.02121 6.03977
#
# Compressibility (1/GPa) = 0.03439191
#
# Stress axis : x y z
#
# Youngs Moduli (GPa) = 26.86089 119.66928 79.18314
#
# Poissons Ratio (x) = -0.13623 0.79408
# Poissons Ratio (y) = -0.03058 0.23923
# Poissons Ratio (z) = 0.26937 0.36154
#
# Static dielectric constant tensor:
#      x y z
#    x 2.507660 0.080000 0.059680 
#    y 0.080000 2.219710 -0.082820 
#    z 0.059680 -0.082820 2.089920 
# 
# From -- ./inp_files/406592.got.cif
#   From: 2010.05.17/outbox.cif.g08.bks.cpg/sg2_204_cif.got.tgz:406592.got - 2010.06.03 11:33:40.
