data_PCOD9016502
_publ_section_title
;
Structure prediction by ZEFSAII (Michael W. Deem and Ramdas Pophale) SiO2 
 PCOD9016502
Probable space group: P -1
;
_chemical_formula_sum "Si O2"
_cell_formula_units_Z 14
_cell_length_a 8.656506
_cell_length_b 13.248124
_cell_length_c 7.679311
_cell_angle_alpha 84.604517
_cell_angle_beta 41.465200
_cell_angle_gamma 90.222942
_cell_volume 576.868720
_symmetry_space_group_name_H-M "P -1"
_symmetry_group_IT_number 2
_symmetry_cell_setting 'triclinic'
loop_
_space_group_symop_operation_xyz
x,y,z
-x,-y,-z
loop_
_atom_site_type_symbol
_atom_site_label
_atom_site_fract_x
_atom_site_fract_y
_atom_site_fract_z
Si Si1 0.507554 0.106041 0.748931
Si Si2 0.978397 0.198158 0.396771
Si Si3 0.283047 0.735066 0.945230
Si Si4 0.262503 0.558073 0.705953
Si Si5 0.902254 0.389058 0.538827
Si Si6 0.317241 0.094450 0.297600
Si Si7 0.932031 0.878261 0.053211
O O1 0.699924 0.195718 0.628309
O O2 0.641058 0.006847 0.619469
O O3 0.372162 0.079944 0.048451
O O4 0.351606 0.131792 0.714557
O O5 0.088397 0.311498 0.331950
O O6 0.025664 0.163259 0.169245
O O7 0.054461 0.122987 0.493602
O O8 0.215734 0.667179 0.183521
O O9 0.308449 0.655365 0.780409
O O10 0.511870 0.812348 0.785894
O O11 0.078972 0.807459 0.057274
O O12 0.500000 0.500000 0.500000
O O13 0.231123 0.592331 0.529019
O O14 0.000000 0.500000 0.000000
O O15 0.000000 0.500000 0.500000
O O16 0.000000 0.000000 0.000000
#
# Coordination Sequence:
#
# PCOD9016502 Si02
#       7
#     2   2   2   2   2   2   2
#     4  10  21  42  68 102 152 195 255 322 383 479
#     4  11  24  43  70 105 150 204 266 326 403 478
#     4  12  25  49  80 114 161 213 266 339 417 484
#     4  12  30  55  85 122 162 214 282 347 414 496
#     4  12  27  50  79 116 155 210 273 340 416 482
#     4  10  22  39  70 107 143 201 255 319 394 478
#     4  11  24  45  71 109 162 206 263 323 398 490
#
# _framework density 24.268951999999999
#
# number of rings (size 3 to 8) (size 9 to 14) (size 15 to 20)
#    0.000    0.857    5.714    0.429    2.000    4.571 
#    2.571    0.000    0.000    0.000    0.000    0.000 
#    0.000    0.000    0.000    0.000    0.000    0.000 
#
# Total GULP energy -78115.348322 kJ/mol
# GULP energy per Si atom -5579.667737 kJ/mol
# Density = 2.421371 g / cm^3
# Si number density = 24.268952 Si / 1000 Ang^3
#
#
#
# Elastic Constant Matrix: (Units=GPa)
#
#
# Indices 1 2 3 4 5 6 
#
# 1 176.0227 87.6339 64.3304 9.9473 2.0061 -15.0356
# 2 87.6339 185.5878 56.0584 6.9462 7.9589 10.3897
# 3 64.3304 56.0584 75.9731 5.2867 18.8187 -13.4136
# 4 9.9473 6.9462 5.2867 36.4359 10.6315 2.8534
# 5 2.0061 7.9589 18.8187 10.6315 55.0728 12.7321
# 6 -15.0356 10.3897 -13.4136 2.8534 12.7321 56.5096
#
#
#
# Elastic Compliance Matrix: (Units=1/GPa)
#
#
# Indices 1 2 3 4 5 6 
#
# 1 0.009492 -0.002661 -0.006322 -0.001929 0.002320 0.001089
# 2 -0.002661 0.008260 -0.004836 -0.000285 0.001464 -0.003690
# 3 -0.006322 -0.004836 0.025756 0.001194 -0.009830 0.007475
# 4 -0.001929 -0.000285 0.001194 0.029611 -0.005935 -0.000335
# 5 0.002320 0.001464 -0.009830 -0.005935 0.024007 -0.007095
# 6 0.001089 -0.003690 0.007475 -0.000335 -0.007095 0.022054
#
#
# Mechanical properties :
#
#
# Convention : Reuss Voigt Hill
#
# Bulk Modulus (GPa) = 63.01210 94.84764 78.92987
# Shear Modulus (GPa) = 32.87153 44.90775 38.88964
#
# Velocity S-wave (km/s) = 3.68430 4.30632 4.00740
# Velocity P-wave (km/s) = 6.64223 7.99328 7.34887
#
# Compressibility (1/GPa) = 0.01586997
#
# Stress axis : x y z
#
# Youngs Moduli (GPa) = 105.35455 121.06797 38.82577
#
# Poissons Ratio (x) = 0.32211 0.24546
# Poissons Ratio (y) = 0.28030 0.18777
# Poissons Ratio (z) = 0.66607 0.58550
#
# Static dielectric constant tensor:
#      x y z
#    x 1.931620 0.005860 -0.066500 
#    y 0.005860 2.113900 0.110140 
#    z -0.066500 0.110140 2.186270 
# 
# From -- ./inp_files/186267.got.cif
#   From: 2010.05.17/outbox.cif.g08.bks.cpg/sg2_94_cif.got.tgz:186267.got - 2010.06.03 11:33:40.
