data_PCOD9016749
_publ_section_title
;
Structure prediction by ZEFSAII (Michael W. Deem and Ramdas Pophale) SiO2 
 PCOD9016749
Probable space group: P -1
;
_chemical_formula_sum "Si O2"
_cell_formula_units_Z 16
_cell_length_a 16.961917
_cell_length_b 8.860359
_cell_length_c 5.624028
_cell_angle_alpha 123.866853
_cell_angle_beta 103.411129
_cell_angle_gamma 78.558583
_cell_volume 680.179825
_symmetry_space_group_name_H-M "P -1"
_symmetry_group_IT_number 2
_symmetry_cell_setting 'triclinic'
loop_
_space_group_symop_operation_xyz
x,y,z
-x,-y,-z
loop_
_atom_site_type_symbol
_atom_site_label
_atom_site_fract_x
_atom_site_fract_y
_atom_site_fract_z
Si Si1 0.376473 0.421212 0.015660
Si Si2 0.665663 0.187510 0.792434
Si Si3 0.022188 0.896466 0.674526
Si Si4 0.108047 0.372772 0.737316
Si Si5 0.224171 0.355334 0.185021
Si Si6 0.485068 0.894076 0.140324
Si Si7 0.724194 0.812550 0.509303
Si Si8 0.828034 0.315115 0.224760
O O1 0.457983 0.295096 0.005021
O O2 0.340985 0.339387 0.675731
O O3 0.380854 0.637084 0.209671
O O4 0.298877 0.384221 0.090129
O O5 0.608458 0.149387 0.941017
O O6 0.682206 0.990375 0.509826
O O7 0.755706 0.237245 0.961282
O O8 0.116662 0.829814 0.711843
O O9 0.971810 0.717761 0.466986
O O10 0.000000 0.000000 0.500000
O O11 0.000000 0.000000 0.000000
O O12 0.187491 0.250108 0.587368
O O13 0.116420 0.574670 0.819564
O O14 0.133315 0.359742 0.018327
O O15 0.251944 0.171937 0.185414
O O16 0.213970 0.530586 0.499891
O O17 0.500000 0.000000 0.500000
O O18 0.500000 0.000000 0.000000
#
# Coordination Sequence:
#
# PCOD9016749 Si02
#       8
#     2   2   2   2   2   2   2   2
#     4  11  23  46  68 108 143 189 247 304 365 442
#     4  12  23  45  75 105 144 195 244 306 367 445
#     4  12  30  48  71 109 151 193 249 302 365 440
#     4  10  23  45  71  99 149 190 242 310 360 434
#     4  10  21  42  73 102 145 189 243 307 365 433
#     4  12  28  50  74 108 150 197 242 308 370 432
#     4  10  21  42  69 103 148 181 248 298 372 429
#     4  11  25  45  72 107 141 194 251 295 376 435
#
# _framework density 23.523188999999999
#
# number of rings (size 3 to 8) (size 9 to 14) (size 15 to 20)
#    0.000    1.000    5.000    2.250    7.000    2.500 
#    2.250    1.875    0.000    0.000    0.000    0.000 
#    0.000    0.000    0.000    0.000    0.000    0.000 
#
# Total GULP energy -89217.545826 kJ/mol
# GULP energy per Si atom -5576.096614 kJ/mol
# Density = 2.346965 g / cm^3
# Si number density = 23.523189 Si / 1000 Ang^3
#
#
#
# Elastic Constant Matrix: (Units=GPa)
#
#
# Indices 1 2 3 4 5 6 
#
# 1 61.9428 18.4993 -12.1795 -1.1323 1.1522 -6.4721
# 2 18.4993 130.3028 22.3355 -2.3146 -6.3427 -28.0745
# 3 -12.1795 22.3355 41.2507 -5.4130 -3.6246 0.7293
# 4 -1.1323 -2.3146 -5.4130 27.5241 -1.9187 -1.3917
# 5 1.1522 -6.3427 -3.6246 -1.9187 18.8645 9.1653
# 6 -6.4721 -28.0745 0.7293 -1.3917 9.1653 50.7097
#
#
#
# Elastic Compliance Matrix: (Units=1/GPa)
#
#
# Indices 1 2 3 4 5 6 
#
# 1 0.018986 -0.003999 0.007940 0.001957 -0.000934 0.000318
# 2 -0.003999 0.010628 -0.007110 -0.000409 -0.000269 0.005514
# 3 0.007940 -0.007110 0.031848 0.006190 0.005957 -0.004288
# 4 0.001957 -0.000409 0.006190 0.037931 0.004732 0.000120
# 5 -0.000934 -0.000269 0.005957 0.004732 0.059977 -0.011064
# 6 0.000318 0.005514 -0.004288 0.000120 -0.011064 0.024878
#
#
# Mechanical properties :
#
#
# Convention : Reuss Voigt Hill
#
# Bulk Modulus (GPa) = 18.14098 32.31188 25.22643
# Shear Modulus (GPa) = 23.92790 33.07575 28.50183
#
# Velocity S-wave (km/s) = 3.19283 3.75386 3.48465
# Velocity P-wave (km/s) = 4.61745 5.70566 5.19016
#
# Compressibility (1/GPa) = 0.05512381
#
# Stress axis : x y z
#
# Youngs Moduli (GPa) = 52.67140 94.08670 31.39939
#
# Poissons Ratio (x) = 0.37622 -0.24931
# Poissons Ratio (y) = 0.21062 0.22326
# Poissons Ratio (z) = -0.41821 0.66898
#
# Static dielectric constant tensor:
#      x y z
#    x 1.870120 0.004310 0.003010 
#    y 0.004310 2.013540 -0.066520 
#    z 0.003010 -0.066520 2.145430 
# 
# From -- ./inp_files/105799.got.cif
#   From: 2010.05.17/outbox.cif.g08.bks.cpg/sg2_53_cif.got.tgz:105799.got - 2010.06.03 11:33:40.
