data_PCOD9016182
_publ_section_title
;
Structure prediction by ZEFSAII (Michael W. Deem and Ramdas Pophale) SiO2 
 PCOD9016182
Probable space group: P -1
;
_chemical_formula_sum "Si O2"
_cell_formula_units_Z 16
_cell_length_a 19.918062
_cell_length_b 5.248539
_cell_length_c 7.704178
_cell_angle_alpha 47.803133
_cell_angle_beta 103.060021
_cell_angle_gamma 99.619001
_cell_volume 581.109333
_symmetry_space_group_name_H-M "P -1"
_symmetry_group_IT_number 2
_symmetry_cell_setting 'triclinic'
loop_
_space_group_symop_operation_xyz
x,y,z
-x,-y,-z
loop_
_atom_site_type_symbol
_atom_site_label
_atom_site_fract_x
_atom_site_fract_y
_atom_site_fract_z
Si Si1 0.975217 0.378571 0.851198
Si Si2 0.777877 0.699602 0.287589
Si Si3 0.476215 0.378819 0.854290
Si Si4 0.900305 0.384140 0.352004
Si Si5 0.346824 0.702087 0.515961
Si Si6 0.854350 0.639387 0.818721
Si Si7 0.270250 0.567348 0.981964
Si Si8 0.393709 0.433048 0.313922
O O1 0.893225 0.394761 0.817290
O O2 0.017308 0.606490 0.631675
O O3 0.000000 0.500000 0.000000
O O4 0.000000 0.000000 0.000000
O O5 0.859160 0.646362 0.331648
O O6 0.733593 0.394228 0.489758
O O7 0.747052 0.660024 0.092462
O O8 0.758678 0.047495 0.213311
O O9 0.395639 0.418922 0.759809
O O10 0.525313 0.599625 0.652387
O O11 0.500000 0.500000 0.000000
O O12 0.500000 0.000000 0.000000
O O13 0.878207 0.015007 0.589991
O O14 0.876278 0.508974 0.086344
O O15 0.374888 0.683039 0.345456
O O16 0.363126 0.045356 0.476017
O O17 0.772642 0.597346 0.806247
O O18 0.350979 0.579288 0.059788
#
# Coordination Sequence:
#
# PCOD9016182 Si02
#       8
#     2   2   2   2   2   2   2   2
#     4  10  21  42  66  98 134 178 226 282 342 408
#     4  11  23  42  64  94 129 172 218 271 334 406
#     4  12  24  42  64  90 126 170 216 272 334 406
#     4  10  22  42  67  98 135 178 227 282 342 408
#     4  12  24  41  64  94 127 167 216 274 334 404
#     4  10  22  42  67  98 135 178 227 282 342 408
#     4  11  23  42  64  94 129 172 218 271 334 406
#     4  12  24  41  64  94 127 167 216 274 334 404
#
# _framework density 27.533545
#
# number of rings (size 3 to 8) (size 9 to 14) (size 15 to 20)
#    0.000    1.000    0.000    7.125    0.000    2.000 
#    0.000   20.000    0.000    0.000    0.000    0.000 
#    0.000    0.000    0.000    0.000    0.000    0.000 
#
# Total GULP energy -89519.997376 kJ/mol
# GULP energy per Si atom -5594.999836 kJ/mol
# Density = 2.747088 g / cm^3
# Si number density = 27.533545 Si / 1000 Ang^3
#
#
#
# Elastic Constant Matrix: (Units=GPa)
#
#
# Indices 1 2 3 4 5 6 
#
# 1 124.8030 18.4735 14.4695 13.2263 -28.1724 -30.6764
# 2 18.4735 118.0121 49.2985 5.0316 12.7280 -7.1624
# 3 14.4695 49.2985 112.2213 -2.5817 -11.2037 -3.9031
# 4 13.2263 5.0316 -2.5817 68.9413 5.2099 9.2944
# 5 -28.1724 12.7280 -11.2037 5.2099 48.5190 -7.3655
# 6 -30.6764 -7.1624 -3.9031 9.2944 -7.3655 41.6863
#
#
#
# Elastic Compliance Matrix: (Units=1/GPa)
#
#
# Indices 1 2 3 4 5 6 
#
# 1 0.015345 -0.003094 0.001023 -0.005577 0.012735 0.014350
# 2 -0.003094 0.011829 -0.005509 0.000281 -0.006501 -0.001972
# 3 0.001023 -0.005509 0.011763 0.000025 0.005024 0.001790
# 4 -0.005577 0.000281 0.000025 0.017271 -0.006536 -0.009059
# 5 0.012735 -0.006501 0.005024 -0.006536 0.034031 0.016195
# 6 0.014350 -0.001972 0.001790 -0.009059 0.016195 0.039259
#
#
# Mechanical properties :
#
#
# Convention : Reuss Voigt Hill
#
# Bulk Modulus (GPa) = 42.05657 57.72438 49.89048
# Shear Modulus (GPa) = 32.76909 50.01564 41.39236
#
# Velocity S-wave (km/s) = 3.45360 4.26671 3.88150
# Velocity P-wave (km/s) = 5.58668 6.72931 6.18444
#
# Compressibility (1/GPa) = 0.02377750
#
# Stress axis : x y z
#
# Youngs Moduli (GPa) = 65.16782 84.53980 85.00946
#
# Poissons Ratio (x) = 0.26159 -0.08696
# Poissons Ratio (y) = 0.20165 0.46828
# Poissons Ratio (z) = -0.06667 0.46569
#
# Static dielectric constant tensor:
#      x y z
#    x 2.443070 0.168220 -0.024180 
#    y 0.168220 2.164750 -0.004800 
#    z -0.024180 -0.004800 2.237590 
# 
# From -- ./inp_files/14307.got.cif
#   From: 2010.05.17/outbox.cif.g08.bks.cpg/sg2_8_cif.got.tgz:14307.got - 2010.06.03 11:33:40.
