data_PCOD9016028
_publ_section_title
;
Structure prediction by ZEFSAII (Michael W. Deem and Ramdas Pophale) SiO2 
 PCOD9016028
Probable space group: P -1
;
_chemical_formula_sum "Si O2"
_cell_formula_units_Z 16
_cell_length_a 22.264162
_cell_length_b 6.794107
_cell_length_c 9.350698
_cell_angle_alpha 52.547680
_cell_angle_beta 44.606889
_cell_angle_gamma 51.920175
_cell_volume 744.415359
_symmetry_space_group_name_H-M "P -1"
_symmetry_group_IT_number 2
_symmetry_cell_setting 'triclinic'
loop_
_space_group_symop_operation_xyz
x,y,z
-x,-y,-z
loop_
_atom_site_type_symbol
_atom_site_label
_atom_site_fract_x
_atom_site_fract_y
_atom_site_fract_z
Si Si1 0.966262 0.918561 0.943720
Si Si2 0.679015 0.473531 0.617435
Si Si3 0.726360 0.859309 0.835007
Si Si4 0.594423 0.836892 0.837817
Si Si5 0.880713 0.469273 0.339662
Si Si6 0.376606 0.117079 0.721857
Si Si7 0.449965 0.797898 0.491143
Si Si8 0.089033 0.563986 0.364397
O O1 0.054270 0.751316 0.776981
O O2 0.911863 0.179607 0.834522
O O3 0.905703 0.732603 0.153753
O O4 0.000000 0.000000 0.000000
O O5 0.608500 0.593597 0.813712
O O6 0.775365 0.510455 0.474195
O O7 0.641765 0.638398 0.464082
O O8 0.698831 0.165363 0.708021
O O9 0.665808 0.748766 0.882278
O O10 0.828359 0.691865 0.704792
O O11 0.701646 0.838820 0.050539
O O12 0.609633 0.049080 0.606861
O O13 0.500000 0.000000 0.000000
O O14 0.905573 0.389287 0.496898
O O15 0.468573 0.084689 0.667835
O O16 0.392483 0.865555 0.703757
O O17 0.500000 0.500000 0.500000
O O18 0.000000 0.500000 0.500000
#
# Coordination Sequence:
#
# PCOD9016028 Si02
#       8
#     2   2   2   2   2   2   2   2
#     4  11  25  45  74 101 135 180 228 285 340 407
#     4  11  26  44  66 100 144 177 226 282 336 404
#     4  12  26  43  70 102 137 180 228 282 339 400
#     4  11  23  44  66  99 135 177 231 278 340 403
#     4  11  25  46  70 103 139 183 226 277 350 404
#     4  10  24  41  63 100 131 173 231 274 337 402
#     4  10  21  42  66  91 131 178 222 282 339 393
#     4  12  25  46  73 101 139 181 228 280 345 408
#
# _framework density 21.493376999999999
#
# number of rings (size 3 to 8) (size 9 to 14) (size 15 to 20)
#    0.000    1.000    3.750    1.875    3.500    1.500 
#    4.500    0.000    0.000    0.000    0.000    0.000 
#    0.000    0.000    0.000    0.000    0.000    0.000 
#
# Total GULP energy -89479.133806 kJ/mol
# GULP energy per Si atom -5592.445863 kJ/mol
# Density = 2.144446 g / cm^3
# Si number density = 21.493377 Si / 1000 Ang^3
#
#
#
# Elastic Constant Matrix: (Units=GPa)
#
#
# Indices 1 2 3 4 5 6 
#
# 1 80.1916 24.0335 34.2555 18.2895 16.2550 -3.2634
# 2 24.0335 140.4465 38.0139 11.3499 25.2284 1.9504
# 3 34.2555 38.0139 78.1775 20.0381 29.7323 8.5330
# 4 18.2895 11.3499 20.0381 46.1678 -4.4031 6.1387
# 5 16.2550 25.2284 29.7323 -4.4031 39.9178 5.3984
# 6 -3.2634 1.9504 8.5330 6.1387 5.3984 32.8223
#
#
#
# Elastic Compliance Matrix: (Units=1/GPa)
#
#
# Indices 1 2 3 4 5 6 
#
# 1 0.016948 -0.000471 -0.004555 -0.005672 -0.004471 0.004693
# 2 -0.000471 0.008605 -0.002237 -0.001450 -0.003866 0.000931
# 3 -0.004555 -0.002237 0.024554 -0.009494 -0.015751 -0.002337
# 4 -0.005672 -0.001450 -0.009494 0.030580 0.014497 -0.006113
# 5 -0.004471 -0.003866 -0.015751 0.014497 0.043455 -0.005979
# 6 0.004693 0.000931 -0.002337 -0.006113 -0.005979 0.033613
#
#
# Mechanical properties :
#
#
# Convention : Reuss Voigt Hill
#
# Bulk Modulus (GPa) = 28.10557 54.60237 41.35397
# Shear Modulus (GPa) = 27.15292 37.28243 32.21768
#
# Velocity S-wave (km/s) = 3.55817 4.16937 3.87584
# Velocity P-wave (km/s) = 5.47591 6.97407 6.26990
#
# Compressibility (1/GPa) = 0.03558014
#
# Stress axis : x y z
#
# Youngs Moduli (GPa) = 59.00400 116.21090 40.72598
#
# Poissons Ratio (x) = 0.05472 0.18552
# Poissons Ratio (y) = 0.02778 0.09112
# Poissons Ratio (z) = 0.26878 0.26001
#
# Static dielectric constant tensor:
#      x y z
#    x 1.755750 0.021110 0.013180 
#    y 0.021110 1.779250 0.007620 
#    z 0.013180 0.007620 1.801750 
# 
# From -- ./inp_files/107669.got.cif
#   From: 2010.05.17/outbox.cif.g08.bks.cpg/sg2_54_cif.got.tgz:107669.got - 2010.06.03 11:33:40.
