data_PCOD9016086
_publ_section_title
;
Structure prediction by ZEFSAII (Michael W. Deem and Ramdas Pophale) SiO2 
 PCOD9016086
Probable space group: P -1
;
_chemical_formula_sum "Si O2"
_cell_formula_units_Z 15
_cell_length_a 22.139664
_cell_length_b 7.017901
_cell_length_c 8.162423
_cell_angle_alpha 61.056909
_cell_angle_beta 34.252579
_cell_angle_gamma 70.387198
_cell_volume 619.304202
_symmetry_space_group_name_H-M "P -1"
_symmetry_group_IT_number 2
_symmetry_cell_setting 'triclinic'
loop_
_space_group_symop_operation_xyz
x,y,z
-x,-y,-z
loop_
_atom_site_type_symbol
_atom_site_label
_atom_site_fract_x
_atom_site_fract_y
_atom_site_fract_z
Si Si1 0.500000 0.500000 0.000000
Si Si2 0.755505 0.005513 0.571486
Si Si3 0.448845 0.924289 0.815202
Si Si4 0.876847 0.388634 0.298694
Si Si5 0.232531 0.404360 0.090187
Si Si6 0.901124 0.255801 0.654722
Si Si7 0.849555 0.768086 0.984601
Si Si8 0.394595 0.767635 0.426749
O O1 0.456031 0.668346 0.907007
O O2 0.552444 0.363241 0.781339
O O3 0.774612 0.755690 0.669390
O O4 0.860691 0.181390 0.297867
O O5 0.692320 0.089287 0.522975
O O6 0.671916 0.037896 0.891738
O O7 0.500000 0.000000 0.500000
O O8 0.520740 0.063069 0.735422
O O9 0.846914 0.294551 0.584088
O O10 0.816910 0.579063 0.270700
O O11 0.000000 0.500000 0.000000
O O12 0.130473 0.541593 0.257777
O O13 0.224030 0.270881 0.994150
O O14 0.334973 0.589326 0.761878
O O15 0.027715 0.253144 0.338468
O O16 0.855436 0.017643 0.926713
#
# Coordination Sequence:
#
# PCOD9016086 Si02
#       8
#     1   2   2   2   2   2   2   2
#     4  10  22  46  72  94 136 184 220 282 350 406
#     4  11  23  44  65  96 140 173 224 291 338 409
#     4  11  26  46  71 100 134 180 232 287 351 410
#     4  10  21  42  66  94 134 179 220 278 337 401
#     4  12  24  40  68 102 134 173 231 282 337 410
#     4  10  23  40  66  95 133 184 226 277 339 396
#     4  10  21  44  63  92 139 179 228 277 330 406
#     4  11  26  46  67 103 137 182 233 283 349 416
#
# _framework density 24.220732000000002
#
# number of rings (size 3 to 8) (size 9 to 14) (size 15 to 20)
#    0.000    1.333    2.667    2.800    1.867    5.333 
#    4.800    1.333    0.000    0.000    0.000    0.000 
#    0.000    0.000    0.000    0.000    0.000    0.000 
#
# Total GULP energy -83542.830279 kJ/mol
# GULP energy per Si atom -5569.522019 kJ/mol
# Density = 2.416560 g / cm^3
# Si number density = 24.220732 Si / 1000 Ang^3
#
#
#
# Elastic Constant Matrix: (Units=GPa)
#
#
# Indices 1 2 3 4 5 6 
#
# 1 84.9697 23.4438 8.8099 -10.6423 -9.1816 9.2367
# 2 23.4438 122.2180 30.1999 -9.4872 -2.0515 -30.8087
# 3 8.8099 30.1999 68.1858 -7.0046 -7.5588 3.3590
# 4 -10.6423 -9.4872 -7.0046 40.8820 2.7988 9.1685
# 5 -9.1816 -2.0515 -7.5588 2.7988 35.4014 -8.6146
# 6 9.2367 -30.8087 3.3590 9.1685 -8.6146 29.6729
#
#
#
# Elastic Compliance Matrix: (Units=1/GPa)
#
#
# Indices 1 2 3 4 5 6 
#
# 1 0.015587 -0.006475 0.002172 0.005941 0.000364 -0.013551
# 2 -0.006475 0.016791 -0.007789 -0.004462 0.003515 0.022730
# 3 0.002172 -0.007789 0.019006 0.004672 0.000854 -0.012110
# 4 0.005941 -0.004462 0.004672 0.030007 -0.004363 -0.017549
# 5 0.000364 0.003515 0.000854 -0.004363 0.032536 0.014233
# 6 -0.013551 0.022730 -0.012110 -0.017549 0.014233 0.072445
#
#
# Mechanical properties :
#
#
# Convention : Reuss Voigt Hill
#
# Bulk Modulus (GPa) = 36.76407 44.47565 40.61986
# Shear Modulus (GPa) = 22.76632 35.38592 29.07612
#
# Velocity S-wave (km/s) = 3.06919 3.82642 3.46853
# Velocity P-wave (km/s) = 5.26988 6.15829 5.73132
#
# Compressibility (1/GPa) = 0.02720047
#
# Stress axis : x y z
#
# Youngs Moduli (GPa) = 64.15696 59.55455 52.61488
#
# Poissons Ratio (x) = 0.38563 -0.11429
# Poissons Ratio (y) = 0.41543 0.40981
# Poissons Ratio (z) = -0.13937 0.46386
#
# Static dielectric constant tensor:
#      x y z
#    x 1.881230 -0.156850 0.148040 
#    y -0.156850 1.533370 0.287950 
#    z 0.148040 0.287950 1.786300 
# 
# From -- ./inp_files/350631.got.cif
#   From: 2010.05.17/outbox.cif.g08.bks.cpg/sg2_176_cif.got.tgz:350631.got - 2010.06.03 11:33:40.
