data_PCOD9016776
_publ_section_title
;
Structure prediction by ZEFSAII (Michael W. Deem and Ramdas Pophale) SiO2 
 PCOD9016776
Probable space group: P -1
;
_chemical_formula_sum "Si O2"
_cell_formula_units_Z 12
_cell_length_a 7.702127
_cell_length_b 13.359810
_cell_length_c 9.441558
_cell_angle_alpha 81.547194
_cell_angle_beta 106.195188
_cell_angle_gamma 41.397567
_cell_volume 510.752996
_symmetry_space_group_name_H-M "P -1"
_symmetry_group_IT_number 2
_symmetry_cell_setting 'triclinic'
loop_
_space_group_symop_operation_xyz
x,y,z
-x,-y,-z
loop_
_atom_site_type_symbol
_atom_site_label
_atom_site_fract_x
_atom_site_fract_y
_atom_site_fract_z
Si Si1 0.077940 0.881876 0.237428
Si Si2 0.080960 0.316070 0.780456
Si Si3 0.697098 0.572435 0.261880
Si Si4 0.713048 0.921103 0.903262
Si Si5 0.670349 0.368948 0.401112
Si Si6 0.768727 0.241470 0.140635
O O1 0.421293 0.746157 0.267913
O O2 0.143694 0.788564 0.413510
O O3 0.891365 0.908174 0.065500
O O4 0.886989 0.071359 0.192080
O O5 0.078492 0.436752 0.722497
O O6 0.234004 0.215276 0.991054
O O7 0.709554 0.449119 0.673873
O O8 0.346080 0.134354 0.779188
O O9 0.808846 0.417825 0.397111
O O10 0.520277 0.615406 0.069824
O O11 0.920784 0.838116 0.826761
O O12 0.668702 0.317856 0.258075
#
# Coordination Sequence:
#
# PCOD9016776 Si02
#       6
#     2   2   2   2   2   2
#     4  11  21  44  66  92 128 176 205 256 322 385
#     4  11  22  40  67  99 119 169 221 260 301 386
#     4  11  22  42  68  92 125 170 216 255 308 385
#     4  10  21  42  69  91 124 174 220 248 309 396
#     4  12  26  39  66 100 133 155 212 276 321 352
#     4  11  21  44  66  92 128 176 205 256 322 385
#
# _framework density 23.494721999999999
#
# number of rings (size 3 to 8) (size 9 to 14) (size 15 to 20)
#    0.000    1.000    6.667    2.500    0.000    1.333 
#    0.000    0.000    0.000    6.000    0.000    0.000 
#    0.000    0.000    0.000    0.000    0.000    0.000 
#
# Total GULP energy -67132.450278 kJ/mol
# GULP energy per Si atom -5594.370856 kJ/mol
# Density = 2.344125 g / cm^3
# Si number density = 23.494722 Si / 1000 Ang^3
#
#
#
# Elastic Constant Matrix: (Units=GPa)
#
#
# Indices 1 2 3 4 5 6 
#
# 1 117.3469 10.2612 36.3998 -0.7549 -25.5612 -2.3752
# 2 10.2612 61.0155 45.0173 7.5088 -8.1431 3.1246
# 3 36.3998 45.0173 144.6356 -9.0446 -23.1893 -4.9475
# 4 -0.7549 7.5088 -9.0446 36.6319 1.2766 -4.7362
# 5 -25.5612 -8.1431 -23.1893 1.2766 35.9400 -8.6772
# 6 -2.3752 3.1246 -4.9475 -4.7362 -8.6772 31.0363
#
#
#
# Elastic Compliance Matrix: (Units=1/GPa)
#
#
# Indices 1 2 3 4 5 6 
#
# 1 0.010594 0.000149 -0.001469 -0.000095 0.007245 0.002573
# 2 0.000149 0.023381 -0.008065 -0.007397 -0.000736 -0.004963
# 3 -0.001469 -0.008065 0.011093 0.004782 0.005241 0.004663
# 4 -0.000095 -0.007397 0.004782 0.030797 0.001871 0.006723
# 5 0.007245 -0.000736 0.005241 0.001871 0.039194 0.012707
# 6 0.002573 -0.004963 0.004663 0.006723 0.012707 0.038239
#
#
# Mechanical properties :
#
#
# Convention : Reuss Voigt Hill
#
# Bulk Modulus (GPa) = 38.02609 56.26162 47.14385
# Shear Modulus (GPa) = 27.64986 36.14296 31.89641
#
# Velocity S-wave (km/s) = 3.43425 3.92643 3.68856
# Velocity P-wave (km/s) = 5.65204 6.67490 6.18465
#
# Compressibility (1/GPa) = 0.02629774
#
# Stress axis : x y z
#
# Youngs Moduli (GPa) = 94.39322 42.77019 90.15033
#
# Poissons Ratio (x) = -0.00637 0.13241
# Poissons Ratio (y) = -0.01405 0.72705
# Poissons Ratio (z) = 0.13864 0.34494
#
# Static dielectric constant tensor:
#      x y z
#    x 1.988260 -0.007600 -0.006070 
#    y -0.007600 1.837510 -0.024900 
#    z -0.006070 -0.024900 1.908200 
# 
# From -- ./inp_files/152793.got.cif
#   From: 2010.05.17/outbox.cif.g08.bks.cpg/sg2_77_cif.got.tgz:152793.got - 2010.06.03 11:33:40.
