data_PCOD9016896
_publ_section_title
;
Structure prediction by ZEFSAII (Michael W. Deem and Ramdas Pophale) SiO2 
 PCOD9016896
Probable space group: P -1
;
_chemical_formula_sum "Si O2"
_cell_formula_units_Z 14
_cell_length_a 8.964331
_cell_length_b 9.267732
_cell_length_c 10.716442
_cell_angle_alpha 65.442432
_cell_angle_beta 56.798080
_cell_angle_gamma 46.681176
_cell_volume 540.829965
_symmetry_space_group_name_H-M "P -1"
_symmetry_group_IT_number 2
_symmetry_cell_setting 'triclinic'
loop_
_space_group_symop_operation_xyz
x,y,z
-x,-y,-z
loop_
_atom_site_type_symbol
_atom_site_label
_atom_site_fract_x
_atom_site_fract_y
_atom_site_fract_z
Si Si1 0.683434 0.533133 0.871719
Si Si2 0.450999 0.134771 0.692509
Si Si3 0.942909 0.100597 0.294772
Si Si4 0.319202 0.709091 0.397574
Si Si5 0.732165 0.616663 0.556234
Si Si6 0.286616 0.161195 0.124812
Si Si7 0.099284 0.084695 0.840452
O O1 0.628997 0.657872 0.725856
O O2 0.718936 0.648041 0.918966
O O3 0.905732 0.315089 0.820045
O O4 0.500000 0.500000 0.000000
O O5 0.455817 0.305954 0.693465
O O6 0.375668 0.203683 0.558720
O O7 0.280869 0.090384 0.826567
O O8 0.680637 0.939256 0.714869
O O9 0.058378 0.203640 0.164542
O O10 0.790112 0.209000 0.445665
O O11 0.154642 0.878244 0.313733
O O12 0.822341 0.055638 0.265522
O O13 0.320178 0.526320 0.428718
O O14 0.000000 0.500000 0.500000
O O15 0.500000 0.000000 0.000000
O O16 0.000000 0.000000 0.000000
#
# Coordination Sequence:
#
# PCOD9016896 Si02
#       7
#     2   2   2   2   2   2   2
#     4  12  26  45  75 102 145 193 239 298 372 425
#     4  11  25  43  74 104 142 184 250 294 362 426
#     4  10  21  42  69  98 143 184 234 288 362 420
#     4  10  22  40  69 105 141 182 230 300 358 421
#     4  12  23  46  72 105 146 185 242 299 359 433
#     4  11  25  47  71 101 146 192 239 297 366 431
#     4  12  25  47  69 106 142 193 243 299 359 440
#
# _framework density 25.886139
#
# number of rings (size 3 to 8) (size 9 to 14) (size 15 to 20)
#    0.000    0.857    2.857    3.857    2.000    5.714 
#    2.571    1.429    0.000    0.000    0.000    0.000 
#    0.000    0.000    0.000    0.000    0.000    0.000 
#
# Total GULP energy -78290.585854 kJ/mol
# GULP energy per Si atom -5592.184704 kJ/mol
# Density = 2.582722 g / cm^3
# Si number density = 25.886139 Si / 1000 Ang^3
#
#
#
# Elastic Constant Matrix: (Units=GPa)
#
#
# Indices 1 2 3 4 5 6 
#
# 1 176.4074 52.9023 36.3274 -4.6094 -29.0724 33.2450
# 2 52.9023 106.1447 15.8976 -3.2070 -3.0466 44.7583
# 3 36.3274 15.8976 99.3745 -8.8234 -8.8701 20.0916
# 4 -4.6094 -3.2070 -8.8234 39.9259 5.3963 3.9755
# 5 -29.0724 -3.0466 -8.8701 5.3963 52.6181 -16.9279
# 6 33.2450 44.7583 20.0916 3.9755 -16.9279 62.6037
#
#
#
# Elastic Compliance Matrix: (Units=1/GPa)
#
#
# Indices 1 2 3 4 5 6 
#
# 1 0.007722 -0.003484 -0.001972 -0.000343 0.003790 0.000070
# 2 -0.003484 0.015642 0.000831 0.002776 -0.004720 -0.011052
# 3 -0.001972 0.000831 0.011579 0.002827 -0.000533 -0.003587
# 4 -0.000343 0.002776 0.002827 0.026959 -0.004096 -0.005529
# 5 0.003790 -0.004720 -0.000533 -0.004096 0.023803 0.008229
# 6 0.000070 -0.011052 -0.003587 -0.005529 0.008229 0.027566
#
#
# Mechanical properties :
#
#
# Convention : Reuss Voigt Hill
#
# Bulk Modulus (GPa) = 38.92038 65.79790 52.35914
# Shear Modulus (GPa) = 38.14288 49.48283 43.81285
#
# Velocity S-wave (km/s) = 3.84277 4.37688 4.11849
# Velocity P-wave (km/s) = 5.89551 7.14256 6.54878
#
# Compressibility (1/GPa) = 0.02569348
#
# Stress axis : x y z
#
# Youngs Moduli (GPa) = 129.49714 63.93028 86.35972
#
# Poissons Ratio (x) = 0.22276 0.17028
# Poissons Ratio (y) = 0.45123 -0.07178
# Poissons Ratio (z) = 0.25534 -0.05314
#
# Static dielectric constant tensor:
#      x y z
#    x 2.166910 0.033340 0.028430 
#    y 0.033340 2.081770 -0.002020 
#    z 0.028430 -0.002020 2.144360 
# 
# From -- ./inp_files/381605.got.cif
#   From: 2010.05.17/outbox.cif.g08.bks.cpg/sg2_191_cif.got.tgz:381605.got - 2010.06.03 11:33:40.
