data_PCOD9016697
_publ_section_title
;
Structure prediction by ZEFSAII (Michael W. Deem and Ramdas Pophale) SiO2 
 PCOD9016697
Probable space group: P -1
;
_chemical_formula_sum "Si O2"
_cell_formula_units_Z 16
_cell_length_a 15.535199
_cell_length_b 12.059850
_cell_length_c 5.241424
_cell_angle_alpha 95.778194
_cell_angle_beta 100.616981
_cell_angle_gamma 44.283938
_cell_volume 673.205951
_symmetry_space_group_name_H-M "P -1"
_symmetry_group_IT_number 2
_symmetry_cell_setting 'triclinic'
loop_
_space_group_symop_operation_xyz
x,y,z
-x,-y,-z
loop_
_atom_site_type_symbol
_atom_site_label
_atom_site_fract_x
_atom_site_fract_y
_atom_site_fract_z
Si Si1 0.038570 0.779491 0.615580
Si Si2 0.596123 0.499794 0.794159
Si Si3 0.663664 0.239001 0.433267
Si Si4 0.351180 0.131042 0.376709
Si Si5 0.686096 0.533546 0.332983
Si Si6 0.894428 0.045929 0.190215
Si Si7 0.375949 0.185711 0.902979
Si Si8 0.785752 0.958940 0.744044
O O1 0.163681 0.595317 0.608278
O O2 0.055452 0.875394 0.829917
O O3 0.922708 0.813622 0.667680
O O4 0.994571 0.876996 0.350125
O O5 0.618626 0.355997 0.669195
O O6 0.450655 0.654220 0.795715
O O7 0.636891 0.538234 0.581403
O O8 0.664855 0.462122 0.082878
O O9 0.793289 0.167362 0.384410
O O10 0.694329 0.088096 0.505610
O O11 0.296251 0.193065 0.646086
O O12 0.289824 0.077648 0.204097
O O13 0.500000 0.000000 0.500000
O O14 0.322771 0.249601 0.174101
O O15 0.614310 0.705584 0.214552
O O16 0.814921 0.037359 0.961663
O O17 0.500000 0.000000 0.000000
#
# Coordination Sequence:
#
# PCOD9016697 Si02
#       8
#     2   2   2   2   2   2   2   2
#     4  10  23  41  66 101 138 186 232 271 336 417
#     4  11  26  40  65 104 143 178 219 276 350 423
#     4  10  24  38  62 104 142 176 224 276 340 425
#     4  10  24  44  68  99 131 169 231 291 344 396
#     4  12  25  44  71  95 139 185 225 283 350 404
#     4  10  21  42  68  99 141 185 228 278 329 416
#     4  10  24  43  68  97 126 171 230 289 342 401
#     4  11  24  39  73  97 139 187 231 283 341 406
#
# _framework density 23.766873
#
# number of rings (size 3 to 8) (size 9 to 14) (size 15 to 20)
#    0.000    1.500    1.250    1.875   14.000    1.000 
#    0.000    1.250    0.000    0.000    0.000    0.000 
#    0.000    0.000    0.000    0.000    0.000    0.000 
#
# Total GULP energy -89239.421173 kJ/mol
# GULP energy per Si atom -5577.463823 kJ/mol
# Density = 2.371278 g / cm^3
# Si number density = 23.766873 Si / 1000 Ang^3
#
#
#
# Elastic Constant Matrix: (Units=GPa)
#
#
# Indices 1 2 3 4 5 6 
#
# 1 107.6057 21.7312 21.4385 -5.6720 -2.4204 -2.8492
# 2 21.7312 75.5793 10.7434 -26.5446 -0.0742 -7.7065
# 3 21.4385 10.7434 116.5045 -5.4727 -14.1985 -1.3212
# 4 -5.6720 -26.5446 -5.4727 30.7534 6.6533 6.9171
# 5 -2.4204 -0.0742 -14.1985 6.6533 35.4844 -7.3536
# 6 -2.8492 -7.7065 -1.3212 6.9171 -7.3536 33.4605
#
#
#
# Elastic Compliance Matrix: (Units=1/GPa)
#
#
# Indices 1 2 3 4 5 6 
#
# 1 0.010191 -0.003101 -0.001598 -0.001260 0.000375 0.000433
# 2 -0.003101 0.020506 -0.000962 0.017835 -0.003924 -0.000128
# 3 -0.001598 -0.000962 0.009436 -0.000529 0.003971 0.000997
# 4 -0.001260 0.017835 -0.000529 0.052320 -0.012035 -0.009481
# 5 0.000375 -0.003924 0.003971 -0.012035 0.033958 0.009236
# 6 0.000433 -0.000128 0.000997 -0.009481 0.009236 0.033923
#
#
# Mechanical properties :
#
#
# Convention : Reuss Voigt Hill
#
# Bulk Modulus (GPa) = 34.70831 45.27952 39.99392
# Shear Modulus (GPa) = 27.58440 36.32475 31.95458
#
# Velocity S-wave (km/s) = 3.41049 3.91369 3.67072
# Velocity P-wave (km/s) = 5.49035 6.28613 5.90167
#
# Compressibility (1/GPa) = 0.02881154
#
# Stress axis : x y z
#
# Youngs Moduli (GPa) = 98.12262 48.76512 105.97168
#
# Poissons Ratio (x) = 0.15123 0.16933
# Poissons Ratio (y) = 0.30430 0.10197
# Poissons Ratio (z) = 0.15679 0.04693
#
# Static dielectric constant tensor:
#      x y z
#    x 2.031680 -0.017450 -0.058050 
#    y -0.017450 2.008280 0.118450 
#    z -0.058050 0.118450 2.005220 
# 
# From -- ./inp_files/95011.got.cif
#   From: 2010.05.17/outbox.cif.g08.bks.cpg/sg2_48_cif.got.tgz:95011.got - 2010.06.03 11:33:40.
