data_PCOD9016532
_publ_section_title
;
Structure prediction by ZEFSAII (Michael W. Deem and Ramdas Pophale) SiO2 
 PCOD9016532
Probable space group: P -1
;
_chemical_formula_sum "Si O2"
_cell_formula_units_Z 16
_cell_length_a 10.956595
_cell_length_b 13.841324
_cell_length_c 8.942603
_cell_angle_alpha 85.633913
_cell_angle_beta 43.405714
_cell_angle_gamma 58.642148
_cell_volume 682.360273
_symmetry_space_group_name_H-M "P -1"
_symmetry_group_IT_number 2
_symmetry_cell_setting 'triclinic'
loop_
_space_group_symop_operation_xyz
x,y,z
-x,-y,-z
loop_
_atom_site_type_symbol
_atom_site_label
_atom_site_fract_x
_atom_site_fract_y
_atom_site_fract_z
Si Si1 0.772882 0.650937 0.906177
Si Si2 0.530262 0.273731 0.540046
Si Si3 0.049212 0.023322 0.122617
Si Si4 0.980746 0.372959 0.736148
Si Si5 0.524836 0.897645 0.594789
Si Si6 0.699956 0.226700 0.878316
Si Si7 0.580234 0.414634 0.237264
Si Si8 0.875305 0.329088 0.524878
O O1 0.979338 0.490067 0.729256
O O2 0.897732 0.707762 0.757182
O O3 0.657578 0.674988 0.167487
O O4 0.547318 0.719735 0.984551
O O5 0.499909 0.191981 0.468369
O O6 0.516429 0.376189 0.443516
O O7 0.805924 0.167181 0.363575
O O8 0.118955 0.915911 0.190627
O O9 0.295151 0.992361 0.895563
O O10 0.000000 0.000000 0.000000
O O11 0.223570 0.218858 0.533708
O O12 0.849269 0.401304 0.692873
O O13 0.824419 0.387843 0.011220
O O14 0.500000 0.000000 0.500000
O O15 0.856224 0.229428 0.620018
O O16 0.617522 0.324002 0.079810
O O17 0.361348 0.565183 0.373986
#
# Coordination Sequence:
#
# PCOD9016532 Si02
#       8
#     2   2   2   2   2   2   2   2
#     4  12  25  43  65 103 143 172 215 278 346 392
#     4  11  26  43  64 100 135 176 221 278 338 391
#     4  10  21  42  68  90 128 173 225 273 319 389
#     4  11  22  39  70 102 129 175 225 276 329 396
#     4  11  23  40  67 100 125 173 228 275 325 395
#     4  11  21  43  67  96 130 176 226 271 325 394
#     4  11  20  42  67  99 129 171 228 274 325 397
#     4  11  23  38  69 101 132 177 225 269 328 402
#
# _framework density 23.448024
#
# number of rings (size 3 to 8) (size 9 to 14) (size 15 to 20)
#    0.000    1.000    5.000    3.375    5.250    3.000 
#    4.500    0.625    0.000    0.000    0.000    0.000 
#    0.000    0.000    0.000    0.000    0.000    0.000 
#
# Total GULP energy -89443.107791 kJ/mol
# GULP energy per Si atom -5590.194237 kJ/mol
# Density = 2.339466 g / cm^3
# Si number density = 23.448024 Si / 1000 Ang^3
#
#
#
# Elastic Constant Matrix: (Units=GPa)
#
#
# Indices 1 2 3 4 5 6 
#
# 1 32.5775 9.1260 8.8504 -7.0896 -2.3914 -7.9477
# 2 9.1260 165.2626 49.4472 -40.8423 -18.1044 -27.7312
# 3 8.8504 49.4472 137.9753 -42.4315 -18.6503 -7.3939
# 4 -7.0896 -40.8423 -42.4315 45.8500 -2.6556 2.0782
# 5 -2.3914 -18.1044 -18.6503 -2.6556 39.0558 4.9385
# 6 -7.9477 -27.7312 -7.3939 2.0782 4.9385 20.0575
#
#
#
# Elastic Compliance Matrix: (Units=1/GPa)
#
#
# Indices 1 2 3 4 5 6 
#
# 1 0.035793 0.002942 0.000198 0.007684 0.002019 0.017030
# 2 0.002942 0.011341 0.000366 0.010483 0.004453 0.014797
# 3 0.000198 0.000366 0.011524 0.011282 0.006181 0.002141
# 4 0.007684 0.010483 0.011282 0.042810 0.011813 0.014352
# 5 0.002019 0.004453 0.006181 0.011813 0.031515 0.000252
# 6 0.017030 0.014797 0.002141 0.014352 0.000252 0.076303
#
#
# Mechanical properties :
#
#
# Convention : Reuss Voigt Hill
#
# Bulk Modulus (GPa) = 15.22790 52.29583 33.76186
# Shear Modulus (GPa) = 22.30508 38.88545 30.59527
#
# Velocity S-wave (km/s) = 3.08759 4.07672 3.61614
# Velocity P-wave (km/s) = 4.38399 6.67165 5.64492
#
# Compressibility (1/GPa) = 0.06566895
#
# Stress axis : x y z
#
# Youngs Moduli (GPa) = 27.93831 88.17926 86.77835
#
# Poissons Ratio (x) = -0.25941 -0.01720
# Poissons Ratio (y) = -0.08219 -0.03174
# Poissons Ratio (z) = -0.00554 -0.03225
#
# Static dielectric constant tensor:
#      x y z
#    x 2.000200 0.004520 -0.023720 
#    y 0.004520 1.963140 -0.004140 
#    z -0.023720 -0.004140 1.923040 
# 
# From -- ./inp_files/272333.got.cif
#   From: 2010.05.17/outbox.cif.g08.bks.cpg/sg2_137_cif.got.tgz:272333.got - 2010.06.03 11:33:40.
