data_PCOD9016816
_publ_section_title
;
Structure prediction by ZEFSAII (Michael W. Deem and Ramdas Pophale) SiO2 
 PCOD9016816
Probable space group: P -1
;
_chemical_formula_sum "Si O2"
_cell_formula_units_Z 16
_cell_length_a 18.079034
_cell_length_b 9.340139
_cell_length_c 5.164426
_cell_angle_alpha 98.293284
_cell_angle_beta 51.907106
_cell_angle_gamma 114.414190
_cell_volume 617.448246
_symmetry_space_group_name_H-M "P -1"
_symmetry_group_IT_number 2
_symmetry_cell_setting 'triclinic'
loop_
_space_group_symop_operation_xyz
x,y,z
-x,-y,-z
loop_
_atom_site_type_symbol
_atom_site_label
_atom_site_fract_x
_atom_site_fract_y
_atom_site_fract_z
Si Si1 0.854502 0.449771 0.389716
Si Si2 0.784600 0.140003 0.634834
Si Si3 0.515072 0.908810 0.696985
Si Si4 0.962440 0.301312 0.708222
Si Si5 0.371767 0.178508 0.165056
Si Si6 0.441568 0.598676 0.529936
Si Si7 0.235677 0.344882 0.680671
Si Si8 0.087342 0.008546 0.013219
O O1 0.759466 0.282059 0.615588
O O2 0.825350 0.572878 0.324581
O O3 0.923226 0.555682 0.509731
O O4 0.917009 0.374689 0.054151
O O5 0.876489 0.241079 0.657077
O O6 0.687124 0.987413 0.906555
O O7 0.835241 0.057405 0.307093
O O8 0.612657 0.875837 0.591582
O O9 0.437481 0.728356 0.767953
O O10 0.500000 0.000000 0.500000
O O11 0.500000 0.000000 0.000000
O O12 0.969608 0.133964 0.702466
O O13 0.298851 0.271982 0.345425
O O14 0.481515 0.295286 0.837026
O O15 0.500000 0.500000 0.500000
O O16 0.327063 0.480633 0.671642
O O17 0.157608 0.192261 0.969912
O O18 0.000000 0.000000 0.000000
#
# Coordination Sequence:
#
# PCOD9016816 Si02
#       8
#     2   2   2   2   2   2   2   2
#     4  10  22  42  65 102 139 185 241 305 369 452
#     4  10  24  40  69  98 139 185 242 298 374 455
#     4  12  27  50  82 111 150 206 260 316 390 459
#     4  10  21  42  69  94 143 186 235 302 374 446
#     4  11  26  48  70 109 150 200 254 316 382 460
#     4  12  27  48  77 106 154 200 256 324 384 452
#     4  11  24  45  70 104 145 189 251 308 380 454
#     4  10  21  43  67  97 138 183 235 302 371 447
#
# _framework density 25.913104000000001
#
# number of rings (size 3 to 8) (size 9 to 14) (size 15 to 20)
#    0.000    1.250    3.750    0.750    3.500    2.500 
#    2.250    0.000    0.000    0.000    0.000    0.000 
#    0.000    0.000    0.000    0.000    0.000    0.000 
#
# Total GULP energy -89333.379114 kJ/mol
# GULP energy per Si atom -5583.336195 kJ/mol
# Density = 2.585412 g / cm^3
# Si number density = 25.913104 Si / 1000 Ang^3
#
#
#
# Elastic Constant Matrix: (Units=GPa)
#
#
# Indices 1 2 3 4 5 6 
#
# 1 98.7597 81.3956 25.2654 -26.5516 5.4202 -3.0725
# 2 81.3956 282.0500 43.8174 -20.5529 4.9350 15.8746
# 3 25.2654 43.8174 79.3123 -6.9976 -2.6093 0.7950
# 4 -26.5516 -20.5529 -6.9976 33.6592 -0.3044 -3.0009
# 5 5.4202 4.9350 -2.6093 -0.3044 38.9007 -0.3014
# 6 -3.0725 15.8746 0.7950 -3.0009 -0.3014 63.5657
#
#
#
# Elastic Compliance Matrix: (Units=1/GPa)
#
#
# Indices 1 2 3 4 5 6 
#
# 1 0.016969 -0.003834 -0.002428 0.010728 -0.001939 0.002305
# 2 -0.003834 0.004942 -0.001542 -0.000456 -0.000211 -0.001423
# 3 -0.002428 -0.001542 0.014294 0.000138 0.001495 0.000103
# 4 0.010728 -0.000456 0.000138 0.038129 -0.001111 0.002425
# 5 -0.001939 -0.000211 0.001495 -0.001111 0.026095 0.000012
# 6 0.002305 -0.001423 0.000103 0.002425 0.000012 0.016312
#
#
# Mechanical properties :
#
#
# Convention : Reuss Voigt Hill
#
# Bulk Modulus (GPa) = 48.54943 84.56428 66.55686
# Shear Modulus (GPa) = 35.91621 47.86802 41.89212
#
# Velocity S-wave (km/s) = 3.72697 4.30263 4.02511
# Velocity P-wave (km/s) = 6.10709 7.57550 6.88058
#
# Compressibility (1/GPa) = 0.02059756
#
# Stress axis : x y z
#
# Youngs Moduli (GPa) = 58.93161 202.34963 69.95996
#
# Poissons Ratio (x) = 0.77578 0.16985
# Poissons Ratio (y) = 0.22594 0.10787
# Poissons Ratio (z) = 0.14308 0.31199
#
# Static dielectric constant tensor:
#      x y z
#    x 1.977420 -0.006300 0.108510 
#    y -0.006300 2.051000 -0.078270 
#    z 0.108510 -0.078270 2.158120 
# 
# From -- ./inp_files/107093.got.cif
#   From: 2010.05.17/outbox.cif.g08.bks.cpg/sg2_54_cif.got.tgz:107093.got - 2010.06.03 11:33:40.
