data_PCOD9016761
_publ_section_title
;
Structure prediction by ZEFSAII (Michael W. Deem and Ramdas Pophale) SiO2 
 PCOD9016761
Probable space group: P -1
;
_chemical_formula_sum "Si O2"
_cell_formula_units_Z 14
_cell_length_a 9.180959
_cell_length_b 22.678718
_cell_length_c 7.757427
_cell_angle_alpha 135.095451
_cell_angle_beta 47.253438
_cell_angle_gamma 152.844473
_cell_volume 514.458644
_symmetry_space_group_name_H-M "P -1"
_symmetry_group_IT_number 2
_symmetry_cell_setting 'triclinic'
loop_
_space_group_symop_operation_xyz
x,y,z
-x,-y,-z
loop_
_atom_site_type_symbol
_atom_site_label
_atom_site_fract_x
_atom_site_fract_y
_atom_site_fract_z
Si Si1 0.224713 0.659527 0.474523
Si Si2 0.461989 0.026592 0.892334
Si Si3 0.335813 0.530535 0.955177
Si Si4 0.226068 0.142862 0.304473
Si Si5 0.911539 0.673438 0.036397
Si Si6 0.788223 0.754827 0.800600
Si Si7 0.718256 0.894936 0.366455
O O1 0.137286 0.548825 0.204384
O O2 0.555254 0.749392 0.496018
O O3 0.358351 0.776234 0.482751
O O4 0.010626 0.630657 0.734566
O O5 0.337894 0.082225 0.082785
O O6 0.828711 0.166265 0.831960
O O7 0.176233 0.877224 0.728960
O O8 0.500000 0.000000 0.000000
O O9 0.123299 0.378211 0.852103
O O10 0.536927 0.604018 0.767649
O O11 0.600449 0.604456 0.045842
O O12 0.313706 0.230711 0.258351
O O13 0.841872 0.002236 0.349422
O O14 0.750400 0.812721 0.099121
O O15 0.000000 0.000000 0.500000
#
# Coordination Sequence:
#
# PCOD9016761 Si02
#       7
#     2   2   2   2   2   2   2
#     4   9  18  33  55  80 108 147 186 227 272 333
#     4  10  17  30  51  81 106 141 181 225 266 322
#     4  10  20  35  58  83 107 148 188 228 276 333
#     4   9  18  31  53  83 115 144 181 232 282 331
#     4  10  20  34  55  85 111 139 192 235 267 324
#     4  10  18  32  54  83 112 147 182 228 285 331
#     4   8  14  26  47  77 104 139 178 218 263 319
#
# _framework density 27.213072
#
# number of rings (size 3 to 8) (size 9 to 14) (size 15 to 20)
#    0.000    2.571    1.429    3.000    0.000    0.000 
#    0.000    2.857    0.000   15.429    0.000    0.000 
#    0.000    0.000    0.000    0.000    0.000    0.000 
#
# Total GULP energy -78043.445186 kJ/mol
# GULP energy per Si atom -5574.531799 kJ/mol
# Density = 2.715113 g / cm^3
# Si number density = 27.213072 Si / 1000 Ang^3
#
#
#
# Elastic Constant Matrix: (Units=GPa)
#
#
# Indices 1 2 3 4 5 6 
#
# 1 98.8603 53.3357 20.4091 3.2490 -1.1868 -44.9541
# 2 53.3357 154.1080 21.8521 -21.2791 -10.8752 -40.7637
# 3 20.4091 21.8521 34.3274 9.9924 -4.1527 -13.0779
# 4 3.2490 -21.2791 9.9924 28.9472 -6.1370 2.7524
# 5 -1.1868 -10.8752 -4.1527 -6.1370 27.9819 -1.1445
# 6 -44.9541 -40.7637 -13.0779 2.7524 -1.1445 50.6059
#
#
#
# Elastic Compliance Matrix: (Units=1/GPa)
#
#
# Indices 1 2 3 4 5 6 
#
# 1 0.018793 -0.003422 -0.002440 -0.005396 -0.001524 0.013566
# 2 -0.003422 0.011941 -0.006782 0.012451 0.006396 0.004294
# 3 -0.002440 -0.006782 0.042259 -0.019849 -0.000643 0.004355
# 4 -0.005396 0.012451 -0.019849 0.054251 0.013459 -0.002540
# 5 -0.001524 0.006396 -0.000643 0.013459 0.041172 0.003831
# 6 0.013566 0.004294 0.004355 -0.002540 0.003831 0.036620
#
#
# Mechanical properties :
#
#
# Convention : Reuss Voigt Hill
#
# Bulk Modulus (GPa) = 20.96226 53.16549 37.06388
# Shear Modulus (GPa) = 20.30653 34.28691 27.29672
#
# Velocity S-wave (km/s) = 2.73464 3.55342 3.17057
# Velocity P-wave (km/s) = 4.20604 6.03447 5.20123
#
# Compressibility (1/GPa) = 0.04770477
#
# Stress axis : x y z
#
# Youngs Moduli (GPa) = 53.21047 83.74278 23.66379
#
# Poissons Ratio (x) = 0.28660 0.05774
# Poissons Ratio (y) = 0.18211 0.16048
# Poissons Ratio (z) = 0.12984 0.56792
#
# Static dielectric constant tensor:
#      x y z
#    x 2.141660 -0.036380 -0.029080 
#    y -0.036380 2.374200 -0.170240 
#    z -0.029080 -0.170240 2.223780 
# 
# From -- ./inp_files/197438.got.cif
#   From: 2010.05.17/outbox.cif.g08.bks.cpg/sg2_99_cif.got.tgz:197438.got - 2010.06.03 11:33:40.
