data_PCOD9016613
_publ_section_title
;
Structure prediction by ZEFSAII (Michael W. Deem and Ramdas Pophale) SiO2 
 PCOD9016613
Probable space group: P -1
;
_chemical_formula_sum "Si O2"
_cell_formula_units_Z 16
_cell_length_a 5.273035
_cell_length_b 18.750122
_cell_length_c 18.797255
_cell_angle_alpha 29.319993
_cell_angle_beta 50.136721
_cell_angle_gamma 49.788116
_cell_volume 679.685785
_symmetry_space_group_name_H-M "P -1"
_symmetry_group_IT_number 2
_symmetry_cell_setting 'triclinic'
loop_
_space_group_symop_operation_xyz
x,y,z
-x,-y,-z
loop_
_atom_site_type_symbol
_atom_site_label
_atom_site_fract_x
_atom_site_fract_y
_atom_site_fract_z
Si Si1 0.423509 0.847532 0.495685
Si Si2 0.796162 0.594198 0.369437
Si Si3 0.763069 0.108577 0.363238
Si Si4 0.189840 0.193514 0.093585
Si Si5 0.129681 0.990978 0.791364
Si Si6 0.269197 0.377532 0.794101
Si Si7 0.472599 0.344595 0.497196
Si Si8 0.765937 0.093557 0.901368
O O1 0.362222 0.786020 0.637506
O O2 0.436822 0.756072 0.500513
O O3 0.757772 0.912372 0.375703
O O4 0.117431 0.992619 0.416206
O O5 0.500000 0.500000 0.500000
O O6 0.894478 0.657289 0.221401
O O7 0.623359 0.712301 0.358917
O O8 0.130463 0.470760 0.435030
O O9 0.866257 0.195322 0.201356
O O10 0.500000 0.000000 0.500000
O O11 0.541953 0.128309 0.129993
O O12 0.141549 0.086423 0.129358
O O13 0.171387 0.343623 0.920970
O O14 0.985783 0.101187 0.785088
O O15 0.254884 0.552563 0.636943
O O16 0.620545 0.255768 0.821155
O O17 0.500000 0.000000 0.000000
O O18 0.000000 0.000000 0.000000
#
# Coordination Sequence:
#
# PCOD9016613 Si02
#       8
#     2   2   2   2   2   2   2   2
#     4  10  23  40  67  94 126 166 221 274 342 384
#     4   9  22  40  58  88 126 182 220 255 311 388
#     4  10  21  42  68  96 122 162 217 288 333 400
#     4  11  23  41  65  95 130 166 217 270 341 381
#     4  11  22  39  61  95 127 173 212 272 323 393
#     4  11  24  39  61  91 136 173 218 266 325 395
#     4  10  23  42  62  90 133 175 219 270 321 401
#     4  12  24  38  59  93 134 175 218 261 323 392
#
# _framework density 23.540288
#
# number of rings (size 3 to 8) (size 9 to 14) (size 15 to 20)
#    0.000    1.500    3.750    0.000    8.750    4.000 
#    0.000    0.625    0.000    1.500    0.000    0.000 
#    0.000    0.000    0.000    0.000    0.000    0.000 
#
# Total GULP energy -89171.527542 kJ/mol
# GULP energy per Si atom -5573.220471 kJ/mol
# Density = 2.348671 g / cm^3
# Si number density = 23.540288 Si / 1000 Ang^3
#
#
#
# Elastic Constant Matrix: (Units=GPa)
#
#
# Indices 1 2 3 4 5 6 
#
# 1 66.5522 6.7788 2.1173 -1.3033 8.3454 16.6081
# 2 6.7788 115.4040 32.3486 36.7931 5.2519 31.3520
# 3 2.1173 32.3486 85.7924 39.1710 17.4895 8.2221
# 4 -1.3033 36.7931 39.1710 50.8116 12.5150 4.9244
# 5 8.3454 5.2519 17.4895 12.5150 40.0474 3.0271
# 6 16.6081 31.3520 8.2221 4.9244 3.0271 31.5240
#
#
#
# Elastic Compliance Matrix: (Units=1/GPa)
#
#
# Indices 1 2 3 4 5 6 
#
# 1 0.018086 0.001750 0.000249 0.000963 -0.003566 -0.011142
# 2 0.001750 0.016025 -0.000315 -0.010336 0.002062 -0.015361
# 3 0.000249 -0.000315 0.018736 -0.013013 -0.003953 -0.002292
# 4 0.000963 -0.010336 -0.013013 0.037840 -0.005576 0.007791
# 5 -0.003566 0.002062 -0.003953 -0.005576 0.028991 -0.001054
# 6 -0.011142 -0.015361 -0.002292 0.007791 -0.001054 0.052351
#
#
# Mechanical properties :
#
#
# Convention : Reuss Voigt Hill
#
# Bulk Modulus (GPa) = 17.78870 38.91534 28.35202
# Shear Modulus (GPa) = 26.68090 39.57687 33.12888
#
# Velocity S-wave (km/s) = 3.37027 4.10474 3.75551
# Velocity P-wave (km/s) = 4.76635 6.24760 5.55655
#
# Compressibility (1/GPa) = 0.05621546
#
# Stress axis : x y z
#
# Youngs Moduli (GPa) = 55.29109 62.40172 53.37379
#
# Poissons Ratio (x) = -0.10921 -0.01328
# Poissons Ratio (y) = -0.09677 0.01680
# Poissons Ratio (z) = -0.01376 0.01965
#
# Static dielectric constant tensor:
#      x y z
#    x 2.047440 0.018510 -0.015600 
#    y 0.018510 1.913970 0.031810 
#    z -0.015600 0.031810 2.002210 
# 
# From -- ./inp_files/482889.got.cif
#   From: 2010.05.17/outbox.cif.g08.bks.cpg/sg2_242_cif.got.tgz:482889.got - 2010.06.03 11:33:40.
