data_PCOD9016383
_publ_section_title
;
Structure prediction by ZEFSAII (Michael W. Deem and Ramdas Pophale) SiO2 
 PCOD9016383
Probable space group: P -1
;
_chemical_formula_sum "Si O2"
_cell_formula_units_Z 16
_cell_length_a 7.707364
_cell_length_b 16.701501
_cell_length_c 9.775133
_cell_angle_alpha 149.062876
_cell_angle_beta 93.721705
_cell_angle_gamma 89.764926
_cell_volume 642.253793
_symmetry_space_group_name_H-M "P -1"
_symmetry_group_IT_number 2
_symmetry_cell_setting 'triclinic'
loop_
_space_group_symop_operation_xyz
x,y,z
-x,-y,-z
loop_
_atom_site_type_symbol
_atom_site_label
_atom_site_fract_x
_atom_site_fract_y
_atom_site_fract_z
Si Si1 0.510582 0.808314 0.049970
Si Si2 0.078180 0.541949 0.419974
Si Si3 0.439039 0.614993 0.003401
Si Si4 0.895484 0.813347 0.148027
Si Si5 0.535544 0.134415 0.407118
Si Si6 0.880038 0.599710 0.235128
Si Si7 0.550381 0.324206 0.421282
Si Si8 0.943170 0.099439 0.431097
O O1 0.693423 0.852441 0.204441
O O2 0.456919 0.964316 0.204583
O O3 0.382931 0.720393 0.026356
O O4 0.550782 0.700037 0.763028
O O5 0.248652 0.663892 0.598313
O O6 0.000000 0.500000 0.500000
O O7 0.937692 0.598108 0.392601
O O8 0.120860 0.371975 0.123654
O O9 0.300214 0.507847 0.929077
O O10 0.534422 0.485522 0.737174
O O11 0.517835 0.740941 0.301739
O O12 0.024520 0.859081 0.346924
O O13 0.959754 0.913341 0.162977
O O14 0.496824 0.190123 0.333835
O O15 0.748623 0.132620 0.423841
O O16 0.913836 0.779899 0.457178
O O17 0.000000 0.500000 0.000000
#
# Coordination Sequence:
#
# PCOD9016383 Si02
#       8
#     2   2   2   2   2   2   2   2
#     4  11  25  43  66  99 142 176 219 277 347 405
#     4  12  24  41  69  97 135 180 220 270 333 405
#     4  12  24  41  71 103 132 178 228 278 333 400
#     4  10  22  41  67  95 132 172 220 275 334 387
#     4  11  23  44  69  99 133 180 226 278 334 401
#     4  12  22  42  68  99 132 172 228 277 326 393
#     4  12  25  44  67 103 138 176 225 277 341 402
#     4  10  21  42  67  96 129 174 222 277 325 391
#
# _framework density 24.912269999999999
#
# number of rings (size 3 to 8) (size 9 to 14) (size 15 to 20)
#    0.000    0.750    5.000    2.250    1.750    1.000 
#    0.000    6.875    0.000    0.000    0.000    0.000 
#    0.000    0.000    0.000    0.000    0.000    0.000 
#
# Total GULP energy -89407.933219 kJ/mol
# GULP energy per Si atom -5587.995826 kJ/mol
# Density = 2.485557 g / cm^3
# Si number density = 24.912270 Si / 1000 Ang^3
#
#
#
# Elastic Constant Matrix: (Units=GPa)
#
#
# Indices 1 2 3 4 5 6 
#
# 1 20.4226 -2.1047 12.3483 -1.0444 1.3547 4.8021
# 2 -2.1047 185.0599 29.7508 23.3251 -9.5056 9.9934
# 3 12.3483 29.7508 53.0359 7.6230 5.2346 13.5222
# 4 -1.0444 23.3251 7.6230 60.0799 3.2270 6.8638
# 5 1.3547 -9.5056 5.2346 3.2270 18.0628 -5.3712
# 6 4.8021 9.9934 13.5222 6.8638 -5.3712 34.2320
#
#
#
# Elastic Compliance Matrix: (Units=1/GPa)
#
#
# Indices 1 2 3 4 5 6 
#
# 1 0.059229 0.002976 -0.014798 0.002190 -0.000105 -0.003788
# 2 0.002976 0.006752 -0.004901 -0.002338 0.005426 0.000868
# 3 -0.014798 -0.004901 0.028844 -0.000207 -0.012718 -0.009841
# 4 0.002190 -0.002338 -0.000207 0.018406 -0.005858 -0.004153
# 5 -0.000105 0.005426 -0.012718 -0.005858 0.067483 0.015217
# 6 -0.003788 0.000868 -0.009841 -0.004153 0.015217 0.036598
#
#
# Mechanical properties :
#
#
# Convention : Reuss Voigt Hill
#
# Bulk Modulus (GPa) = 16.29252 37.61189 26.95221
# Shear Modulus (GPa) = 18.43530 37.04320 27.73925
#
# Velocity S-wave (km/s) = 2.72326 3.86028 3.34050
# Velocity P-wave (km/s) = 4.05492 5.91604 5.07158
#
# Compressibility (1/GPa) = 0.06137784
#
# Stress axis : x y z
#
# Youngs Moduli (GPa) = 16.88357 148.10420 34.66921
#
# Poissons Ratio (x) = -0.44071 0.51305
# Poissons Ratio (y) = -0.05024 0.16992
# Poissons Ratio (z) = 0.24985 0.72587
#
# Static dielectric constant tensor:
#      x y z
#    x 2.071760 -0.027930 -0.107740 
#    y -0.027930 1.951010 0.039470 
#    z -0.107740 0.039470 2.116060 
# 
# From -- ./inp_files/209387.got.cif
#   From: 2010.05.17/outbox.cif.g08.bks.cpg/sg2_105_cif.got.tgz:209387.got - 2010.06.03 11:33:40.
