data_PCOD9016032
_publ_section_title
;
Structure prediction by ZEFSAII (Michael W. Deem and Ramdas Pophale) SiO2 
 PCOD9016032
Probable space group: P -1
;
_chemical_formula_sum "Si O2"
_cell_formula_units_Z 15
_cell_length_a 19.952136
_cell_length_b 6.582369
_cell_length_c 7.653940
_cell_angle_alpha 119.403951
_cell_angle_beta 132.362384
_cell_angle_gamma 52.104226
_cell_volume 580.978966
_symmetry_space_group_name_H-M "P -1"
_symmetry_group_IT_number 2
_symmetry_cell_setting 'triclinic'
loop_
_space_group_symop_operation_xyz
x,y,z
-x,-y,-z
loop_
_atom_site_type_symbol
_atom_site_label
_atom_site_fract_x
_atom_site_fract_y
_atom_site_fract_z
Si Si1 0.116506 0.414693 0.643950
Si Si2 0.917944 0.410416 0.735439
Si Si3 0.500000 0.500000 0.000000
Si Si4 0.693841 0.000174 0.256896
Si Si5 0.449837 0.757596 0.314936
Si Si6 0.250518 0.115045 0.294176
Si Si7 0.073523 0.930085 0.930727
Si Si8 0.556109 0.765053 0.865081
O O1 0.120507 0.482172 0.477750
O O2 0.192791 0.113012 0.666733
O O3 0.000000 0.500000 0.500000
O O4 0.129517 0.624653 0.874141
O O5 0.812073 0.575622 0.719393
O O6 0.984957 0.103406 0.713654
O O7 0.000000 0.500000 0.000000
O O8 0.506859 0.751537 0.235068
O O9 0.616211 0.282751 0.179970
O O10 0.695422 0.977097 0.460799
O O11 0.661132 0.778877 0.039339
O O12 0.514154 0.733485 0.590090
O O13 0.443771 0.484683 0.135596
O O14 0.337643 0.969462 0.244851
O O15 0.162613 0.018845 0.110634
O O16 0.000000 0.000000 0.000000
O O17 0.500000 0.000000 0.000000
#
# Coordination Sequence:
#
# PCOD9016032 Si02
#       8
#     2   2   1   2   2   2   2   2
#     4  11  23  41  66  95 133 176 224 280 337 407
#     4   9  20  38  64  92 129 168 220 274 339 402
#     4  12  26  40  62 102 138 176 226 292 336 406
#     4  11  23  43  65  95 130 175 227 276 343 396
#     4  11  23  40  66  96 129 171 230 274 339 410
#     4  10  21  42  66  92 127 179 222 276 336 413
#     4  11  22  40  65  97 133 171 221 280 344 410
#     4  11  20  43  69  87 124 179 224 273 334 403
#
# _framework density 25.818491000000002
#
# number of rings (size 3 to 8) (size 9 to 14) (size 15 to 20)
#    0.000    1.333    2.667    4.400    0.000    3.733 
#    0.000    9.333    0.000    1.600    0.000    0.000 
#    0.000    0.000    0.000    0.000    0.000    0.000 
#
# Total GULP energy -83526.604693 kJ/mol
# GULP energy per Si atom -5568.440313 kJ/mol
# Density = 2.575973 g / cm^3
# Si number density = 25.818491 Si / 1000 Ang^3
#
#
#
# Elastic Constant Matrix: (Units=GPa)
#
#
# Indices 1 2 3 4 5 6 
#
# 1 71.6228 49.2157 38.5161 0.6648 -8.5963 -24.6001
# 2 49.2157 191.6790 56.9421 -16.8282 -19.9887 -51.9926
# 3 38.5161 56.9421 106.6725 -8.3866 -22.1063 -6.0569
# 4 0.6648 -16.8282 -8.3866 44.8016 1.6532 0.5280
# 5 -8.5963 -19.9887 -22.1063 1.6532 48.4449 1.3045
# 6 -24.6001 -51.9926 -6.0569 0.5280 1.3045 51.6261
#
#
#
# Elastic Compliance Matrix: (Units=1/GPa)
#
#
# Indices 1 2 3 4 5 6 
#
# 1 0.021287 -0.001601 -0.006568 -0.002238 -0.000014 0.007784
# 2 -0.001601 0.009213 -0.003319 0.002706 0.001694 0.008056
# 3 -0.006568 -0.003319 0.014183 0.001415 0.004021 -0.004924
# 4 -0.002238 0.002706 0.001415 0.023597 0.000518 0.001570
# 5 -0.000014 0.001694 0.004021 0.000518 0.023113 0.001582
# 6 0.007784 0.008056 -0.004924 0.001570 0.001582 0.030559
#
#
# Mechanical properties :
#
#
# Convention : Reuss Voigt Hill
#
# Bulk Modulus (GPa) = 46.06891 73.25802 59.66347
# Shear Modulus (GPa) = 32.85924 43.99455 38.42690
#
# Velocity S-wave (km/s) = 3.57136 4.13242 3.86210
# Velocity P-wave (km/s) = 5.90663 7.15577 6.56100
#
# Compressibility (1/GPa) = 0.02170661
#
# Stress axis : x y z
#
# Youngs Moduli (GPa) = 46.97732 108.53653 70.50828
#
# Poissons Ratio (x) = 0.17378 0.46311
# Poissons Ratio (y) = 0.07521 0.23401
# Poissons Ratio (z) = 0.30856 0.36023
#
# Static dielectric constant tensor:
#      x y z
#    x 5.455230 0.287110 -0.939000 
#    y 0.287110 2.225890 -0.063830 
#    z -0.939000 -0.063830 2.394330 
# 
# From -- ./inp_files/351551.got.cif
#   From: 2010.05.17/outbox.cif.g08.bks.cpg/sg2_176_cif.got.tgz:351551.got - 2010.06.03 11:33:40.
