data_PCOD9016083
_publ_section_title
;
Structure prediction by ZEFSAII (Michael W. Deem and Ramdas Pophale) SiO2 
 PCOD9016083
Probable space group: P -1
;
_chemical_formula_sum "Si O2"
_cell_formula_units_Z 14
_cell_length_a 28.705144
_cell_length_b 6.864181
_cell_length_c 5.490795
_cell_angle_alpha 67.672647
_cell_angle_beta 121.760286
_cell_angle_gamma 138.100089
_cell_volume 614.194595
_symmetry_space_group_name_H-M "P -1"
_symmetry_group_IT_number 2
_symmetry_cell_setting 'triclinic'
loop_
_space_group_symop_operation_xyz
x,y,z
-x,-y,-z
loop_
_atom_site_type_symbol
_atom_site_label
_atom_site_fract_x
_atom_site_fract_y
_atom_site_fract_z
Si Si1 0.704140 0.695664 0.030608
Si Si2 0.464933 0.761300 0.303369
Si Si3 0.017129 0.751858 0.576701
Si Si4 0.175048 0.345589 0.514575
Si Si5 0.281328 0.999100 0.576432
Si Si6 0.064843 0.108433 0.935959
Si Si7 0.559651 0.735537 0.253177
O O1 0.763321 0.667888 0.258217
O O2 0.708460 0.855333 0.207252
O O3 0.618207 0.379550 0.929891
O O4 0.721798 0.858314 0.741478
O O5 0.527399 0.863220 0.224320
O O6 0.442387 0.465861 0.471211
O O7 0.500000 0.000000 0.500000
O O8 0.000000 0.500000 0.500000
O O9 0.947241 0.727475 0.357201
O O10 0.097218 0.057033 0.555147
O O11 0.036047 0.812653 0.884515
O O12 0.208256 0.655327 0.545335
O O13 0.147999 0.306783 0.179297
O O14 0.355413 0.047587 0.718161
O O15 0.000000 0.000000 0.000000
O O16 0.500000 0.500000 0.000000
#
# Coordination Sequence:
#
# PCOD9016083 Si02
#       7
#     2   2   2   2   2   2   2
#     4  11  27  45  68 107 141 194 237 299 365 419
#     4  10  23  41  68  98 136 183 249 295 351 423
#     4  10  23  43  74 103 140 179 236 283 354 429
#     4  11  27  41  73 102 143 185 233 292 364 421
#     4  11  27  46  69 100 151 186 242 299 358 426
#     4   9  22  44  67 104 132 181 226 281 349 422
#     4  10  21  42  66  94 133 189 236 295 352 407
#
# _framework density 22.794080000000001
#
# number of rings (size 3 to 8) (size 9 to 14) (size 15 to 20)
#    0.000    1.714    1.429    0.000    8.000    7.429 
#    0.000    0.000    0.000    0.000    0.000    0.000 
#    0.000    0.000    0.000    0.000    0.000    0.000 
#
# Total GULP energy -78085.996796 kJ/mol
# GULP energy per Si atom -5577.571200 kJ/mol
# Density = 2.274220 g / cm^3
# Si number density = 22.794080 Si / 1000 Ang^3
#
#
#
# Elastic Constant Matrix: (Units=GPa)
#
#
# Indices 1 2 3 4 5 6 
#
# 1 114.7372 60.4264 60.3455 16.4238 5.7317 -15.1014
# 2 60.4264 142.5877 46.3122 32.3328 -7.6041 -3.6402
# 3 60.3455 46.3122 136.9051 37.0994 19.0267 -10.4530
# 4 16.4238 32.3328 37.0994 41.0958 -8.5694 -10.2727
# 5 5.7317 -7.6041 19.0267 -8.5694 55.2899 7.4058
# 6 -15.1014 -3.6402 -10.4530 -10.2727 7.4058 41.4980
#
#
#
# Elastic Compliance Matrix: (Units=1/GPa)
#
#
# Indices 1 2 3 4 5 6 
#
# 1 0.014212 -0.005166 -0.005266 0.004193 -0.000323 0.004488
# 2 -0.005166 0.010728 0.000137 -0.006947 0.001269 -0.002851
# 3 -0.005266 0.000137 0.013463 -0.011444 -0.005800 -0.000311
# 4 0.004193 -0.006947 -0.011444 0.041884 0.008108 0.006955
# 5 -0.000323 0.001269 -0.005800 0.008108 0.022001 -0.003386
# 6 0.004488 -0.002851 -0.000311 0.006955 -0.003386 0.027728
#
#
# Mechanical properties :
#
#
# Convention : Reuss Voigt Hill
#
# Bulk Modulus (GPa) = 56.13834 80.93311 68.53572
# Shear Modulus (GPa) = 31.93980 42.71979 37.32980
#
# Velocity S-wave (km/s) = 3.74736 4.33386 4.05124
# Velocity P-wave (km/s) = 6.58829 7.78629 7.21221
#
# Compressibility (1/GPa) = 0.01781314
#
# Stress axis : x y z
#
# Youngs Moduli (GPa) = 70.36106 93.20982 74.28023
#
# Poissons Ratio (x) = 0.48153 0.39113
# Poissons Ratio (y) = 0.36349 -0.01014
# Poissons Ratio (z) = 0.37049 -0.01272
#
# Static dielectric constant tensor:
#      x y z
#    x 1.820560 0.256610 -0.381620 
#    y 0.256610 1.322540 0.444650 
#    z -0.381620 0.444650 1.575670 
# 
# From -- ./inp_files/10172.got.cif
#   From: 2010.05.17/outbox.cif.g08.bks.cpg/sg2_6_cif.got.tgz:10172.got - 2010.06.03 11:33:40.
