data_PCOD9016786
_publ_section_title
;
Structure prediction by ZEFSAII (Michael W. Deem and Ramdas Pophale) SiO2 
 PCOD9016786
Probable space group: P -1
;
_chemical_formula_sum "Si O2"
_cell_formula_units_Z 16
_cell_length_a 12.393955
_cell_length_b 11.295385
_cell_length_c 8.709300
_cell_angle_alpha 68.808690
_cell_angle_beta 47.541608
_cell_angle_gamma 46.281159
_cell_volume 637.379142
_symmetry_space_group_name_H-M "P -1"
_symmetry_group_IT_number 2
_symmetry_cell_setting 'triclinic'
loop_
_space_group_symop_operation_xyz
x,y,z
-x,-y,-z
loop_
_atom_site_type_symbol
_atom_site_label
_atom_site_fract_x
_atom_site_fract_y
_atom_site_fract_z
Si Si1 0.497061 0.372048 0.969401
Si Si2 0.683073 0.414607 0.227878
Si Si3 0.197082 0.993728 0.215522
Si Si4 0.053971 0.200561 0.764205
Si Si5 0.258766 0.309038 0.411689
Si Si6 0.635419 0.922804 0.208634
Si Si7 0.192293 0.889141 0.587695
Si Si8 0.800281 0.573904 0.245593
O O1 0.329743 0.368852 0.187411
O O2 0.500000 0.500000 0.000000
O O3 0.486619 0.423346 0.779236
O O4 0.691094 0.182931 0.895943
O O5 0.669719 0.281078 0.369164
O O6 0.748124 0.468686 0.276523
O O7 0.847479 0.320362 0.983891
O O8 0.250481 0.944357 0.363636
O O9 0.974801 0.103635 0.333905
O O10 0.283565 0.073742 0.031728
O O11 0.092448 0.295675 0.564241
O O12 0.202307 0.137210 0.792389
O O13 0.097308 0.041147 0.724972
O O14 0.199371 0.417597 0.573561
O O15 0.446044 0.109768 0.343123
O O16 0.635636 0.771259 0.271881
O O17 0.000000 0.500000 0.000000
#
# Coordination Sequence:
#
# PCOD9016786 Si02
#       8
#     2   2   2   2   2   2   2   2
#     4  11  27  45  63  96 141 172 214 279 339 391
#     4  12  25  41  67 102 134 173 220 277 339 387
#     4  10  23  45  63  96 129 180 221 268 332 393
#     4  11  21  41  66  98 123 175 227 267 321 404
#     4  10  24  43  67  95 132 181 215 267 339 395
#     4  10  21  42  69  92 133 175 220 269 331 395
#     4  11  24  41  71  95 130 174 229 272 323 402
#     4  11  20  41  67 102 135 165 219 283 328 390
#
# _framework density 25.102796999999999
#
# number of rings (size 3 to 8) (size 9 to 14) (size 15 to 20)
#    0.000    1.250    3.750    2.625    5.250    4.000 
#    2.250    2.500    0.000    0.000    0.000    0.000 
#    0.000    0.000    0.000    0.000    0.000    0.000 
#
# Total GULP energy -89505.592445 kJ/mol
# GULP energy per Si atom -5594.099528 kJ/mol
# Density = 2.504566 g / cm^3
# Si number density = 25.102797 Si / 1000 Ang^3
#
#
#
# Elastic Constant Matrix: (Units=GPa)
#
#
# Indices 1 2 3 4 5 6 
#
# 1 41.6185 30.4033 5.1472 -5.9460 3.1251 4.7859
# 2 30.4033 126.6678 34.4011 -24.2579 10.5348 10.9450
# 3 5.1472 34.4011 131.6370 -25.7796 -1.2506 -5.3173
# 4 -5.9460 -24.2579 -25.7796 47.0061 4.3878 4.5712
# 5 3.1251 10.5348 -1.2506 4.3878 28.4603 11.5249
# 6 4.7859 10.9450 -5.3173 4.5712 11.5249 39.1247
#
#
#
# Elastic Compliance Matrix: (Units=1/GPa)
#
#
# Indices 1 2 3 4 5 6 
#
# 1 0.029308 -0.006962 0.000742 0.000683 -0.000067 -0.001597
# 2 -0.006962 0.011416 -0.001956 0.004460 -0.003370 -0.002136
# 3 0.000742 -0.001956 0.008880 0.003840 -0.000058 0.001232
# 4 0.000683 0.004460 0.003840 0.026445 -0.004605 -0.002543
# 5 -0.000067 -0.003370 -0.000058 -0.004605 0.041442 -0.010727
# 6 -0.001597 -0.002136 0.001232 -0.002543 -0.010727 0.029976
#
#
# Mechanical properties :
#
#
# Convention : Reuss Voigt Hill
#
# Bulk Modulus (GPa) = 30.07292 48.86961 39.47126
# Shear Modulus (GPa) = 28.58718 38.24968 33.41843
#
# Velocity S-wave (km/s) = 3.37828 3.90772 3.65261
# Velocity P-wave (km/s) = 5.21756 6.31431 5.79195
#
# Compressibility (1/GPa) = 0.03325251
#
# Stress axis : x y z
#
# Youngs Moduli (GPa) = 34.12040 87.59727 112.61195
#
# Poissons Ratio (x) = 0.60983 -0.08356
# Poissons Ratio (y) = 0.23754 0.22026
# Poissons Ratio (z) = -0.02532 0.17134
#
# Static dielectric constant tensor:
#      x y z
#    x 1.948130 -0.041370 -0.030270 
#    y -0.041370 1.994170 0.004560 
#    z -0.030270 0.004560 2.032120 
# 
# From -- ./inp_files/306907.got.cif
#   From: 2010.05.17/outbox.cif.g08.bks.cpg/sg2_154_cif.got.tgz:306907.got - 2010.06.03 11:33:40.
