data_PCOD9016744
_publ_section_title
;
Structure prediction by ZEFSAII (Michael W. Deem and Ramdas Pophale) SiO2 
 PCOD9016744
Probable space group: P -1
;
_chemical_formula_sum "Si O2"
_cell_formula_units_Z 16
_cell_length_a 18.972208
_cell_length_b 20.169724
_cell_length_c 9.569215
_cell_angle_alpha 146.969328
_cell_angle_beta 155.267529
_cell_angle_gamma 27.428111
_cell_volume 695.782489
_symmetry_space_group_name_H-M "P -1"
_symmetry_group_IT_number 2
_symmetry_cell_setting 'triclinic'
loop_
_space_group_symop_operation_xyz
x,y,z
-x,-y,-z
loop_
_atom_site_type_symbol
_atom_site_label
_atom_site_fract_x
_atom_site_fract_y
_atom_site_fract_z
Si Si1 0.621622 0.038517 0.077250
Si Si2 0.625017 0.762895 0.258530
Si Si3 0.451508 0.864996 0.599131
Si Si4 0.715778 0.450658 0.864541
Si Si5 0.912599 0.666674 0.170603
Si Si6 0.035745 0.769107 0.308140
Si Si7 0.020077 0.234478 0.233473
Si Si8 0.276225 0.895587 0.069049
O O1 0.687016 0.068674 0.397025
O O2 0.502002 0.177509 0.009126
O O3 0.816126 0.908929 0.119980
O O4 0.479982 0.983102 0.777613
O O5 0.820798 0.763432 0.579873
O O6 0.469407 0.868966 0.284159
O O7 0.696986 0.598786 0.133025
O O8 0.361759 0.816169 0.231941
O O9 0.673105 0.749951 0.854665
O O10 0.500000 0.500000 0.500000
O O11 0.872699 0.364071 0.868461
O O12 0.802064 0.339117 0.953390
O O13 0.960249 0.703200 0.473151
O O14 0.001805 0.721954 0.313554
O O15 0.000000 0.500000 0.000000
O O16 0.186320 0.822169 0.687140
O O17 0.103589 0.063922 0.086207
#
# Coordination Sequence:
#
# PCOD9016744 Si02
#       8
#     2   2   2   2   2   2   2   2
#     4  10  21  42  71  98 135 179 235 283 339 402
#     4  12  24  44  71 100 135 184 235 288 342 413
#     4  10  21  42  69 103 137 174 232 289 334 407
#     4  12  28  48  65 100 148 182 231 283 351 418
#     4  11  25  46  74 104 140 180 232 283 349 419
#     4  11  26  45  68 104 141 186 223 288 351 407
#     4  12  26  45  72 104 132 187 235 285 344 408
#     4  12  25  42  70 106 141 178 234 286 343 410
#
# _framework density 22.995691999999998
#
# number of rings (size 3 to 8) (size 9 to 14) (size 15 to 20)
#    0.000    0.750    3.750    3.750    7.000    3.000 
#    0.000    1.250    0.000    0.000    0.000    0.000 
#    0.000    0.000    0.000    0.000    0.000    0.000 
#
# Total GULP energy -89518.067355 kJ/mol
# GULP energy per Si atom -5594.879210 kJ/mol
# Density = 2.294335 g / cm^3
# Si number density = 22.995692 Si / 1000 Ang^3
#
#
#
# Elastic Constant Matrix: (Units=GPa)
#
#
# Indices 1 2 3 4 5 6 
#
# 1 89.9447 36.6008 26.4304 -11.7107 -29.1527 -16.7098
# 2 36.6008 127.0791 31.5038 -13.4818 -18.9061 -14.5926
# 3 26.4304 31.5038 69.1013 -17.3345 -14.1959 5.0464
# 4 -11.7107 -13.4818 -17.3345 35.0358 1.4013 -5.7633
# 5 -29.1527 -18.9061 -14.1959 1.4013 40.9441 -2.2206
# 6 -16.7098 -14.5926 5.0464 -5.7633 -2.2206 26.1467
#
#
#
# Elastic Compliance Matrix: (Units=1/GPa)
#
#
# Indices 1 2 3 4 5 6 
#
# 1 0.021199 -0.000154 -0.004638 0.006979 0.014102 0.017093
# 2 -0.000154 0.010627 -0.003735 0.003288 0.003802 0.007601
# 3 -0.004638 -0.003735 0.020218 0.005714 0.001376 -0.007574
# 4 0.006979 0.003288 0.005714 0.036954 0.007964 0.014014
# 5 0.014102 0.003802 0.001376 0.007964 0.037281 0.015790
# 6 0.017093 0.007601 -0.007574 0.014014 0.015790 0.059303
#
#
# Mechanical properties :
#
#
# Convention : Reuss Voigt Hill
#
# Bulk Modulus (GPa) = 28.58139 52.79947 40.69043
# Shear Modulus (GPa) = 23.33184 33.19800 28.26492
#
# Velocity S-wave (km/s) = 3.18876 3.80368 3.50971
# Velocity P-wave (km/s) = 5.10035 6.50393 5.84443
#
# Compressibility (1/GPa) = 0.03498780
#
# Stress axis : x y z
#
# Youngs Moduli (GPa) = 47.17270 94.10249 49.46141
#
# Poissons Ratio (x) = 0.01454 0.22941
# Poissons Ratio (y) = 0.00729 0.18474
# Poissons Ratio (z) = 0.21880 0.35147
#
# Static dielectric constant tensor:
#      x y z
#    x 1.859360 -0.009790 -0.004450 
#    y -0.009790 1.881300 -0.001920 
#    z -0.004450 -0.001920 1.915390 
# 
# From -- ./inp_files/283438.got.cif
#   From: 2010.05.17/outbox.cif.g08.bks.cpg/sg2_142_cif.got.tgz:283438.got - 2010.06.03 11:33:40.
