data_PCOD9016168
_publ_section_title
;
Structure prediction by ZEFSAII (Michael W. Deem and Ramdas Pophale) SiO2 
 PCOD9016168
Probable space group: P -1
;
_chemical_formula_sum "Si O2"
_cell_formula_units_Z 16
_cell_length_a 8.959415
_cell_length_b 11.781243
_cell_length_c 9.719576
_cell_angle_alpha 79.171883
_cell_angle_beta 54.410665
_cell_angle_gamma 62.087276
_cell_volume 732.112115
_symmetry_space_group_name_H-M "P -1"
_symmetry_group_IT_number 2
_symmetry_cell_setting 'triclinic'
loop_
_space_group_symop_operation_xyz
x,y,z
-x,-y,-z
loop_
_atom_site_type_symbol
_atom_site_label
_atom_site_fract_x
_atom_site_fract_y
_atom_site_fract_z
Si Si1 0.747874 0.331481 0.967710
Si Si2 0.626366 0.723723 0.342331
Si Si3 0.408136 0.792299 0.722007
Si Si4 0.171928 0.089903 0.744815
Si Si5 0.969450 0.506770 0.850674
Si Si6 0.315888 0.214159 0.177563
Si Si7 0.399239 0.746339 0.179176
Si Si8 0.944358 0.889628 0.503177
O O1 0.838923 0.431157 0.900182
O O2 0.591804 0.353717 0.921151
O O3 0.934383 0.186690 0.876870
O O4 0.663512 0.311390 0.161804
O O5 0.460177 0.768312 0.540566
O O6 0.709414 0.832735 0.274500
O O7 0.542582 0.710921 0.242538
O O8 0.809529 0.583858 0.312500
O O9 0.600345 0.767250 0.723458
O O10 0.254188 0.944676 0.788337
O O11 0.190069 0.079183 0.571484
O O12 0.850678 0.651443 0.827902
O O13 0.000000 0.500000 0.000000
O O14 0.186176 0.136763 0.302096
O O15 0.514799 0.167453 0.978406
O O16 0.172819 0.786650 0.355833
O O17 0.000000 0.000000 0.500000
#
# Coordination Sequence:
#
# PCOD9016168 Si02
#       8
#     2   2   2   2   2   2   2   2
#     4   9  23  44  68  96 135 178 224 277 335 403
#     4  11  22  42  68  97 134 178 222 281 336 395
#     4  11  22  40  71 102 130 178 227 275 337 407
#     4  10  21  42  66  97 140 174 218 276 342 399
#     4  11  24  47  69  91 136 180 225 282 335 398
#     4  11  25  46  67  99 135 182 224 275 349 391
#     4  10  23  44  66 103 132 174 227 272 341 396
#     4  11  24  43  68 101 141 174 224 283 331 409
#
# _framework density 21.854576000000002
#
# number of rings (size 3 to 8) (size 9 to 14) (size 15 to 20)
#    0.000    1.500    2.500    1.500    1.750    5.000 
#    6.750    1.250    0.000    0.000    0.000    0.000 
#    0.000    0.000    0.000    0.000    0.000    0.000 
#
# Total GULP energy -89198.070993 kJ/mol
# GULP energy per Si atom -5574.879437 kJ/mol
# Density = 2.180483 g / cm^3
# Si number density = 21.854576 Si / 1000 Ang^3
#
#
#
# Elastic Constant Matrix: (Units=GPa)
#
#
# Indices 1 2 3 4 5 6 
#
# 1 111.5457 18.0559 27.7232 -12.1732 20.6986 -1.5659
# 2 18.0559 39.0911 -0.5135 0.8834 20.5027 -8.0600
# 3 27.7232 -0.5135 84.1349 -6.9634 -0.2368 1.1202
# 4 -12.1732 0.8834 -6.9634 32.0519 -3.3185 -3.0926
# 5 20.6986 20.5027 -0.2368 -3.3185 31.3086 -2.5723
# 6 -1.5659 -8.0600 1.1202 -3.0926 -2.5723 20.6126
#
#
#
# Elastic Compliance Matrix: (Units=1/GPa)
#
#
# Indices 1 2 3 4 5 6 
#
# 1 0.011683 -0.002507 -0.003622 0.003105 -0.005793 -0.000153
# 2 -0.002507 0.043017 0.000559 -0.003449 -0.025817 0.012861
# 3 -0.003622 0.000559 0.013233 0.001698 0.002289 -0.000235
# 4 0.003105 -0.003449 0.001698 0.033693 0.004149 0.004368
# 5 -0.005793 -0.025817 0.002289 0.004149 0.052851 -0.003442
# 6 -0.000153 0.012861 -0.000235 0.004368 -0.003442 0.053770
#
#
# Mechanical properties :
#
#
# Convention : Reuss Voigt Hill
#
# Bulk Modulus (GPa) = 17.60804 36.14476 26.87640
# Shear Modulus (GPa) = 20.98047 29.42835 25.20441
#
# Velocity S-wave (km/s) = 3.10175 3.67352 3.39968
# Velocity P-wave (km/s) = 4.57190 5.87943 5.26640
#
# Compressibility (1/GPa) = 0.05679225
#
# Stress axis : x y z
#
# Youngs Moduli (GPa) = 85.59767 23.24665 75.57019
#
# Poissons Ratio (x) = 0.05829 0.27372
# Poissons Ratio (y) = 0.21462 -0.04228
# Poissons Ratio (z) = 0.31004 -0.01300
#
# Static dielectric constant tensor:
#      x y z
#    x 1.806960 -0.058050 -0.060560 
#    y -0.058050 1.870280 0.109570 
#    z -0.060560 0.109570 1.933350 
# 
# From -- ./inp_files/185687.got.cif
#   From: 2010.05.17/outbox.cif.g08.bks.cpg/sg2_93_cif.got.tgz:185687.got - 2010.06.03 11:33:40.
