data_PCOD9016650
_publ_section_title
;
Structure prediction by ZEFSAII (Michael W. Deem and Ramdas Pophale) SiO2 
 PCOD9016650
Probable space group: P -1
;
_chemical_formula_sum "Si O2"
_cell_formula_units_Z 16
_cell_length_a 8.477593
_cell_length_b 7.871079
_cell_length_c 13.624046
_cell_angle_alpha 61.894051
_cell_angle_beta 67.846727
_cell_angle_gamma 65.050963
_cell_volume 708.755795
_symmetry_space_group_name_H-M "P -1"
_symmetry_group_IT_number 2
_symmetry_cell_setting 'triclinic'
loop_
_space_group_symop_operation_xyz
x,y,z
-x,-y,-z
loop_
_atom_site_type_symbol
_atom_site_label
_atom_site_fract_x
_atom_site_fract_y
_atom_site_fract_z
Si Si1 0.395957 0.186379 0.406732
Si Si2 0.885465 0.384643 0.998448
Si Si3 0.991748 0.726499 0.211276
Si Si4 0.577604 0.762163 0.961158
Si Si5 0.006388 0.361544 0.438828
Si Si6 0.321570 0.893481 0.808039
Si Si7 0.338298 0.836829 0.176919
Si Si8 0.364038 0.597158 0.420340
O O1 0.514741 0.173218 0.286303
O O2 0.371846 0.403353 0.403310
O O3 0.192716 0.187983 0.437404
O O4 0.500000 0.000000 0.500000
O O5 0.989468 0.268261 0.911870
O O6 0.710324 0.552675 0.951460
O O7 0.812598 0.241941 0.124339
O O8 0.000000 0.500000 0.000000
O O9 0.158043 0.784176 0.205359
O O10 0.998063 0.507046 0.308620
O O11 0.803362 0.881686 0.243543
O O12 0.410391 0.859037 0.903881
O O13 0.683573 0.927434 0.896317
O O14 0.496677 0.730484 0.093520
O O15 0.826794 0.303810 0.510774
O O16 0.000000 0.500000 0.500000
O O17 0.396409 0.761664 0.293640
O O18 0.500000 0.500000 0.500000
#
# Coordination Sequence:
#
# PCOD9016650 Si02
#       8
#     2   2   2   2   2   2   2   2
#     4  11  24  43  69 103 136 184 239 285 352 423
#     4  12  27  44  67 104 141 177 237 290 355 415
#     4  12  24  44  71  98 139 188 228 286 358 420
#     4  11  26  42  70 104 140 183 228 294 347 425
#     4  10  21  42  68  97 134 178 228 282 348 412
#     4  12  25  43  73  99 140 187 233 289 354 419
#     4  11  24  44  71  98 144 180 237 276 361 421
#     4  11  25  45  72 105 140 185 231 294 352 419
#
# _framework density 22.574771999999999
#
# number of rings (size 3 to 8) (size 9 to 14) (size 15 to 20)
#    0.000    0.750    3.750    4.500    7.000    1.000 
#    0.000    1.875    0.000    0.000    0.000    0.000 
#    0.000    0.000    0.000    0.000    0.000    0.000 
#
# Total GULP energy -89551.778640 kJ/mol
# GULP energy per Si atom -5596.986165 kJ/mol
# Density = 2.252339 g / cm^3
# Si number density = 22.574772 Si / 1000 Ang^3
#
#
#
# Elastic Constant Matrix: (Units=GPa)
#
#
# Indices 1 2 3 4 5 6 
#
# 1 85.7949 21.8060 51.9315 6.9689 -1.4615 -23.9309
# 2 21.8060 79.7370 16.0481 2.9773 -9.7493 -32.4472
# 3 51.9315 16.0481 136.4038 7.4871 -17.5911 -24.0106
# 4 6.9689 2.9773 7.4871 34.1198 -8.5032 0.3784
# 5 -1.4615 -9.7493 -17.5911 -8.5032 31.3688 2.4024
# 6 -23.9309 -32.4472 -24.0106 0.3784 2.4024 39.3332
#
#
#
# Elastic Compliance Matrix: (Units=1/GPa)
#
#
# Indices 1 2 3 4 5 6 
#
# 1 0.017422 -0.001503 -0.005740 -0.003292 -0.004237 0.006146
# 2 -0.001503 0.019954 0.001879 -0.000589 0.005774 0.016346
# 3 -0.005740 0.001879 0.010831 0.000101 0.006089 0.004297
# 4 -0.003292 -0.000589 0.000101 0.032215 0.008703 -0.003268
# 5 -0.004237 0.005774 0.006089 0.008703 0.038986 0.003437
# 6 0.006146 0.016346 0.004297 -0.003268 0.003437 0.045092
#
#
# Mechanical properties :
#
#
# Convention : Reuss Voigt Hill
#
# Bulk Modulus (GPa) = 26.68203 53.50078 40.09140
# Shear Modulus (GPa) = 26.63526 35.10773 30.87150
#
# Velocity S-wave (km/s) = 3.43865 3.94785 3.70201
# Velocity P-wave (km/s) = 5.25460 6.67319 6.00593
#
# Compressibility (1/GPa) = 0.03747840
#
# Stress axis : x y z
#
# Youngs Moduli (GPa) = 57.39995 50.11622 92.32404
#
# Poissons Ratio (x) = 0.07534 0.52992
# Poissons Ratio (y) = 0.08629 -0.17347
# Poissons Ratio (z) = 0.32946 -0.09417
#
# Static dielectric constant tensor:
#      x y z
#    x 1.854540 0.036100 -0.016800 
#    y 0.036100 1.819710 0.008970 
#    z -0.016800 0.008970 1.810600 
# 
# From -- ./inp_files/381311.got.cif
#   From: 2010.05.17/outbox.cif.g08.bks.cpg/sg2_191_cif.got.tgz:381311.got - 2010.06.03 11:33:40.
