data_PCOD9016371
_publ_section_title
;
Structure prediction by ZEFSAII (Michael W. Deem and Ramdas Pophale) SiO2 
 PCOD9016371
Probable space group: P -1
;
_chemical_formula_sum "Si O2"
_cell_formula_units_Z 14
_cell_length_a 15.482510
_cell_length_b 12.087567
_cell_length_c 14.401979
_cell_angle_alpha 152.385121
_cell_angle_beta 151.023429
_cell_angle_gamma 25.802751
_cell_volume 502.553056
_symmetry_space_group_name_H-M "P -1"
_symmetry_group_IT_number 2
_symmetry_cell_setting 'triclinic'
loop_
_space_group_symop_operation_xyz
x,y,z
-x,-y,-z
loop_
_atom_site_type_symbol
_atom_site_label
_atom_site_fract_x
_atom_site_fract_y
_atom_site_fract_z
Si Si1 0.123719 0.059012 0.446823
Si Si2 0.357274 0.837066 0.198739
Si Si3 0.820867 0.749164 0.836566
Si Si4 0.080550 0.684365 0.265453
Si Si5 0.251267 0.281240 0.591502
Si Si6 0.225000 0.633514 0.070766
Si Si7 0.280883 0.794745 0.756866
O O1 0.106257 0.929526 0.237143
O O2 0.192971 0.797168 0.388356
O O3 0.269894 0.168385 0.631373
O O4 0.880211 0.294150 0.424961
O O5 0.600516 0.613232 0.226785
O O6 0.231304 0.700179 0.017641
O O7 0.262611 0.068743 0.200324
O O8 0.344016 0.007195 0.406076
O O9 0.770782 0.530212 0.673018
O O10 0.077164 0.530229 0.891344
O O11 0.745768 0.990597 0.025337
O O12 0.849849 0.987741 0.289912
O O13 0.000000 0.500000 0.000000
O O14 0.000000 0.500000 0.500000
O O15 0.470077 0.438897 0.189739
#
# Coordination Sequence:
#
# PCOD9016371 Si02
#       7
#     2   2   2   2   2   2   2
#     4   8  17  32  50  75  96 127 169 205 235 282
#     4  10  22  33  50  77  96 129 168 206 252 288
#     4  10  19  33  46  74 113 125 154 207 247 296
#     4   8  15  33  49  73 105 132 156 197 241 296
#     4  10  20  37  56  67  94 133 174 211 241 286
#     4  10  17  30  51  75 101 131 162 200 246 296
#     4   8  17  29  51  76  98 132 163 188 246 294
#
# _framework density 27.857755999999998
#
# number of rings (size 3 to 8) (size 9 to 14) (size 15 to 20)
#    0.857    2.000    1.429    1.286    0.000    2.286 
#    0.000    0.714    0.000    0.857    0.000    0.000 
#    0.000    0.000    0.000    0.000    0.000    0.000 
#
# Total GULP energy -78033.614462 kJ/mol
# GULP energy per Si atom -5573.829604 kJ/mol
# Density = 2.779435 g / cm^3
# Si number density = 27.857756 Si / 1000 Ang^3
#
#
#
# Elastic Constant Matrix: (Units=GPa)
#
#
# Indices 1 2 3 4 5 6 
#
# 1 192.5454 60.9456 29.8038 -4.7012 17.9431 18.3366
# 2 60.9456 152.3842 16.5990 -14.8902 16.7525 9.7453
# 3 29.8038 16.5990 75.3057 7.9961 14.1700 2.7016
# 4 -4.7012 -14.8902 7.9961 39.7660 3.4595 5.4272
# 5 17.9431 16.7525 14.1700 3.4595 54.0359 4.3812
# 6 18.3366 9.7453 2.7016 5.4272 4.3812 74.1564
#
#
#
# Elastic Compliance Matrix: (Units=1/GPa)
#
#
# Indices 1 2 3 4 5 6 
#
# 1 0.006369 -0.002105 -0.001907 0.000593 -0.000902 -0.001219
# 2 -0.002105 0.008045 -0.000936 0.003187 -0.001703 -0.000635
# 3 -0.001907 -0.000936 0.015126 -0.003432 -0.002861 0.000464
# 4 0.000593 0.003187 -0.003432 0.027583 -0.001860 -0.002349
# 5 -0.000902 -0.001703 -0.002861 -0.001860 0.020244 -0.000509
# 6 -0.001219 -0.000635 0.000464 -0.002349 -0.000509 0.014055
#
#
# Mechanical properties :
#
#
# Convention : Reuss Voigt Hill
#
# Bulk Modulus (GPa) = 50.89775 70.54801 60.72288
# Shear Modulus (GPa) = 46.35392 54.45077 50.40234
#
# Velocity S-wave (km/s) = 4.08358 4.42588 4.25817
# Velocity P-wave (km/s) = 6.36745 7.17616 6.78387
#
# Compressibility (1/GPa) = 0.01964723
#
# Stress axis : x y z
#
# Youngs Moduli (GPa) = 156.99833 124.29704 66.11080
#
# Poissons Ratio (x) = 0.26161 0.12604
# Poissons Ratio (y) = 0.33044 0.06185
# Poissons Ratio (z) = 0.29932 0.11629
#
# Static dielectric constant tensor:
#      x y z
#    x 2.166190 0.050070 0.059180 
#    y 0.050070 2.156910 0.002000 
#    z 0.059180 0.002000 2.603180 
# 
# From -- ./inp_files/532060.got.cif
#   From: 2010.05.17/outbox.cif.g08.bks.cpg/sg2_267_cif.got.tgz:532060.got - 2010.06.03 11:33:40.
