data_PCOD9016707
_publ_section_title
;
Structure prediction by ZEFSAII (Michael W. Deem and Ramdas Pophale) SiO2 
 PCOD9016707
Probable space group: P -1
;
_chemical_formula_sum "Si O2"
_cell_formula_units_Z 16
_cell_length_a 12.165005
_cell_length_b 11.045593
_cell_length_c 8.511942
_cell_angle_alpha 60.452738
_cell_angle_beta 136.438549
_cell_angle_gamma 96.991175
_cell_volume 630.504588
_symmetry_space_group_name_H-M "P -1"
_symmetry_group_IT_number 2
_symmetry_cell_setting 'triclinic'
loop_
_space_group_symop_operation_xyz
x,y,z
-x,-y,-z
loop_
_atom_site_type_symbol
_atom_site_label
_atom_site_fract_x
_atom_site_fract_y
_atom_site_fract_z
Si Si1 0.197968 0.747211 0.385026
Si Si2 0.425335 0.872865 0.483020
Si Si3 0.571053 0.554276 0.318341
Si Si4 0.928618 0.621348 0.208534
Si Si5 0.294447 0.336585 0.328021
Si Si6 0.642346 0.786226 0.039005
Si Si7 0.188061 0.791645 0.713171
Si Si8 0.814104 0.881919 0.420860
O O1 0.226792 0.890439 0.250571
O O2 0.374814 0.607324 0.604064
O O3 0.163907 0.761700 0.525144
O O4 0.052059 0.692247 0.210887
O O5 0.535903 0.775085 0.516771
O O6 0.500000 0.000000 0.500000
O O7 0.468036 0.812975 0.745865
O O8 0.349746 0.441941 0.431866
O O9 0.667564 0.638214 0.259209
O O10 0.367541 0.658676 0.038764
O O11 0.779817 0.754065 0.063013
O O12 0.000000 0.500000 0.500000
O O13 0.839588 0.571768 0.004436
O O14 0.223244 0.227205 0.421544
O O15 0.677364 0.897137 0.126933
O O16 0.011933 0.806775 0.610469
O O17 0.209167 0.951660 0.653457
#
# Coordination Sequence:
#
# PCOD9016707 Si02
#       8
#     2   2   2   2   2   2   2   2
#     4  12  24  44  73 107 139 194 240 292 362 429
#     4  11  25  44  69 102 144 190 244 295 358 424
#     4  11  24  42  73 105 144 184 235 299 359 419
#     4  11  23  46  73 100 147 189 233 293 364 442
#     4  10  26  45  64 108 143 187 241 298 358 426
#     4  10  21  42  69 100 136 190 230 290 359 424
#     4  11  23  40  74 106 143 189 241 296 352 441
#     4  10  23  45  69 104 141 188 244 291 365 415
#
# _framework density 25.376503
#
# number of rings (size 3 to 8) (size 9 to 14) (size 15 to 20)
#    0.000    1.250    3.750    1.125    1.750    3.000 
#    2.250    1.875    0.000    0.000    0.000    0.000 
#    0.000    0.000    0.000    0.000    0.000    0.000 
#
# Total GULP energy -89426.413944 kJ/mol
# GULP energy per Si atom -5589.150872 kJ/mol
# Density = 2.531874 g / cm^3
# Si number density = 25.376503 Si / 1000 Ang^3
#
#
#
# Elastic Constant Matrix: (Units=GPa)
#
#
# Indices 1 2 3 4 5 6 
#
# 1 172.0302 52.5572 27.0232 1.9220 13.6065 12.1905
# 2 52.5572 121.5367 17.3876 21.4346 -9.8550 -0.1707
# 3 27.0232 17.3876 66.2549 20.1730 -12.5952 -6.7179
# 4 1.9220 21.4346 20.1730 36.4304 -4.2694 -4.1460
# 5 13.6065 -9.8550 -12.5952 -4.2694 38.1521 6.4455
# 6 12.1905 -0.1707 -6.7179 -4.1460 6.4455 56.3335
#
#
#
# Elastic Compliance Matrix: (Units=1/GPa)
#
#
# Indices 1 2 3 4 5 6 
#
# 1 0.008144 -0.003907 -0.004444 0.003606 -0.004724 -0.001498
# 2 -0.003907 0.011219 0.001470 -0.006727 0.004007 0.000101
# 3 -0.004444 0.001470 0.021644 -0.011526 0.007509 0.001840
# 4 0.003606 -0.006727 -0.011526 0.037374 -0.002798 0.000896
# 5 -0.004724 0.004007 0.007509 -0.002798 0.031413 -0.001870
# 6 -0.001498 0.000101 0.001840 0.000896 -0.001870 0.018575
#
#
# Mechanical properties :
#
#
# Convention : Reuss Voigt Hill
#
# Bulk Modulus (GPa) = 36.70678 61.52865 49.11771
# Shear Modulus (GPa) = 33.06578 43.70677 38.38628
#
# Velocity S-wave (km/s) = 3.61364 4.15460 3.89353
# Velocity P-wave (km/s) = 5.64867 6.87846 6.29367
#
# Compressibility (1/GPa) = 0.02724292
#
# Stress axis : x y z
#
# Youngs Moduli (GPa) = 122.78444 89.13555 46.20287
#
# Poissons Ratio (x) = 0.34828 0.20535
# Poissons Ratio (y) = 0.47975 -0.06791
# Poissons Ratio (z) = 0.54571 -0.13100
#
# Static dielectric constant tensor:
#      x y z
#    x 2.161920 -0.053970 -0.205020 
#    y -0.053970 2.097310 0.076830 
#    z -0.205020 0.076830 2.445570 
# 
# From -- ./inp_files/262157.got.cif
#   From: 2010.05.17/outbox.cif.g08.bks.cpg/sg2_132_cif.got.tgz:262157.got - 2010.06.03 11:33:40.
