data_PCOD9016870
_publ_section_title
;
Structure prediction by ZEFSAII (Michael W. Deem and Ramdas Pophale) SiO2 
 PCOD9016870
Probable space group: P -1
;
_chemical_formula_sum "Si O2"
_cell_formula_units_Z 14
_cell_length_a 8.634049
_cell_length_b 14.405000
_cell_length_c 8.069559
_cell_angle_alpha 52.788193
_cell_angle_beta 80.991579
_cell_angle_gamma 112.888167
_cell_volume 622.592658
_symmetry_space_group_name_H-M "P -1"
_symmetry_group_IT_number 2
_symmetry_cell_setting 'triclinic'
loop_
_space_group_symop_operation_xyz
x,y,z
-x,-y,-z
loop_
_atom_site_type_symbol
_atom_site_label
_atom_site_fract_x
_atom_site_fract_y
_atom_site_fract_z
Si Si1 0.828486 0.834485 0.649536
Si Si2 0.438035 0.618480 0.332274
Si Si3 0.225455 0.637484 0.788733
Si Si4 0.474464 0.923811 0.260672
Si Si5 0.786053 0.866615 0.251763
Si Si6 0.683401 0.554766 0.161898
Si Si7 0.456071 0.812447 0.863517
O O1 0.823365 0.815608 0.472516
O O2 0.633081 0.814719 0.760308
O O3 0.829756 0.712844 0.879696
O O4 0.000000 0.000000 0.500000
O O5 0.638601 0.738698 0.278956
O O6 0.498249 0.550145 0.257792
O O7 0.273900 0.490399 0.621443
O O8 0.383642 0.711752 0.148436
O O9 0.343886 0.568852 0.818984
O O10 0.290618 0.733996 0.837425
O O11 0.288550 0.752326 0.505156
O O12 0.000000 0.500000 0.000000
O O13 0.468847 0.026005 0.280566
O O14 0.664848 0.928309 0.251751
O O15 0.500000 0.000000 0.000000
O O16 0.000000 0.000000 0.000000
#
# Coordination Sequence:
#
# PCOD9016870 Si02
#       7
#     2   2   2   2   2   2   2
#     4  11  25  41  70 103 139 180 239 288 353 422
#     4  10  21  42  69  97 136 179 228 284 356 410
#     4  12  27  44  69 104 138 189 241 288 356 419
#     4  12  25  48  74  99 149 187 235 295 356 428
#     4  12  24  42  68 106 136 180 239 287 354 417
#     4  10  22  42  65  94 140 173 223 288 348 404
#     4  11  23  45  73  99 139 189 233 289 354 421
#
# _framework density 22.486613999999999
#
# number of rings (size 3 to 8) (size 9 to 14) (size 15 to 20)
#    0.000    0.857    4.286    2.143    2.000    7.429 
#    0.000    4.286    0.000    0.000    0.000    0.000 
#    0.000    0.000    0.000    0.000    0.000    0.000 
#
# Total GULP energy -78165.219958 kJ/mol
# GULP energy per Si atom -5583.229997 kJ/mol
# Density = 2.243543 g / cm^3
# Si number density = 22.486614 Si / 1000 Ang^3
#
#
#
# Elastic Constant Matrix: (Units=GPa)
#
#
# Indices 1 2 3 4 5 6 
#
# 1 30.6914 17.0697 43.3674 -4.9144 4.3354 -3.7039
# 2 17.0697 113.3626 53.1906 -9.1069 11.2046 -13.7847
# 3 43.3674 53.1906 228.0194 -6.0550 22.4242 10.9971
# 4 -4.9144 -9.1069 -6.0550 37.8431 -6.0524 10.4153
# 5 4.3354 11.2046 22.4242 -6.0524 34.2092 -4.4376
# 6 -3.7039 -13.7847 10.9971 10.4153 -4.4376 39.4695
#
#
#
# Elastic Compliance Matrix: (Units=1/GPa)
#
#
# Indices 1 2 3 4 5 6 
#
# 1 0.047163 -0.002234 -0.008811 0.002940 0.001767 0.005523
# 2 -0.002234 0.010808 -0.002141 0.000716 -0.001229 0.003834
# 3 -0.008811 -0.002141 0.007078 0.000022 -0.003327 -0.003927
# 4 0.002940 0.000716 0.000022 0.029456 0.003703 -0.006837
# 5 0.001767 -0.001229 -0.003327 0.003703 0.032683 0.003361
# 6 0.005523 0.003834 -0.003927 -0.006837 0.003361 0.030469
#
#
# Mechanical properties :
#
#
# Convention : Reuss Voigt Hill
#
# Bulk Modulus (GPa) = 25.85618 66.59209 46.22413
# Shear Modulus (GPa) = 25.39087 39.53406 32.46246
#
# Velocity S-wave (km/s) = 3.36394 4.19754 3.80364
# Velocity P-wave (km/s) = 5.15864 7.29183 6.31595
#
# Compressibility (1/GPa) = 0.03867547
#
# Stress axis : x y z
#
# Youngs Moduli (GPa) = 21.20327 92.52739 141.28339
#
# Poissons Ratio (x) = 0.20674 1.24482
# Poissons Ratio (y) = 0.04737 0.30252
# Poissons Ratio (z) = 0.18682 0.19812
#
# Static dielectric constant tensor:
#      x y z
#    x 1.856430 0.003830 0.017950 
#    y 0.003830 1.868880 0.033370 
#    z 0.017950 0.033370 1.904090 
# 
# From -- ./inp_files/205591.got.cif
#   From: 2010.05.17/outbox.cif.g08.bks.cpg/sg2_103_cif.got.tgz:205591.got - 2010.06.03 11:33:40.
