data_PCOD9016563
_publ_section_title
;
Structure prediction by ZEFSAII (Michael W. Deem and Ramdas Pophale) SiO2 
 PCOD9016563
Probable space group: P -1
;
_chemical_formula_sum "Si O2"
_cell_formula_units_Z 16
_cell_length_a 20.362967
_cell_length_b 8.627182
_cell_length_c 21.192759
_cell_angle_alpha 32.234386
_cell_angle_beta 19.610184
_cell_angle_gamma 36.398570
_cell_volume 665.793062
_symmetry_space_group_name_H-M "P -1"
_symmetry_group_IT_number 2
_symmetry_cell_setting 'triclinic'
loop_
_space_group_symop_operation_xyz
x,y,z
-x,-y,-z
loop_
_atom_site_type_symbol
_atom_site_label
_atom_site_fract_x
_atom_site_fract_y
_atom_site_fract_z
Si Si1 0.190608 0.338145 0.682071
Si Si2 0.662266 0.304958 0.959531
Si Si3 0.841006 0.879523 0.637837
Si Si4 0.988572 0.846925 0.378525
Si Si5 0.444618 0.631125 0.572572
Si Si6 0.380795 0.165947 0.366479
Si Si7 0.407367 0.611287 0.284506
Si Si8 0.783051 0.365818 0.104854
O O1 0.369511 0.433336 0.529744
O O2 0.230732 0.468234 0.532622
O O3 0.213228 0.987281 0.779164
O O4 0.990619 0.436853 0.863450
O O5 0.799357 0.536896 0.790458
O O6 0.798262 0.104278 0.859607
O O7 0.500000 0.500000 0.000000
O O8 0.547252 0.125919 0.176702
O O9 0.913072 0.963615 0.473634
O O10 0.637980 0.049166 0.781432
O O11 0.000000 0.000000 0.500000
O O12 0.823001 0.907423 0.455230
O O13 0.000000 0.500000 0.500000
O O14 0.500000 0.500000 0.500000
O O15 0.263104 0.554459 0.807734
O O16 0.421070 0.970337 0.458567
O O17 0.386399 0.496429 0.272117
O O18 0.610993 0.499373 0.169883
#
# Coordination Sequence:
#
# PCOD9016563 Si02
#       8
#     2   2   2   2   2   2   2   2
#     4  10  21  43  66  95 130 169 217 266 328 395
#     4  11  24  45  69  92 133 180 222 268 336 399
#     4  11  25  45  68  99 135 173 225 287 329 387
#     4  10  22  44  64  90 131 171 215 277 329 387
#     4  11  24  41  65  96 136 170 215 273 326 393
#     4  12  23  42  70  95 128 183 221 266 338 398
#     4  11  22  41  66  98 133 171 218 273 333 382
#     4  10  21  42  68  93 132 170 216 267 325 396
#
# _framework density 24.031493000000001
#
# number of rings (size 3 to 8) (size 9 to 14) (size 15 to 20)
#    0.000    1.250    5.000    2.250    3.500    4.000 
#    4.500    0.000    0.000    0.000    0.000    0.000 
#    0.000    0.000    0.000    0.000    0.000    0.000 
#
# Total GULP energy -89506.433209 kJ/mol
# GULP energy per Si atom -5594.152076 kJ/mol
# Density = 2.397680 g / cm^3
# Si number density = 24.031493 Si / 1000 Ang^3
#
#
#
# Elastic Constant Matrix: (Units=GPa)
#
#
# Indices 1 2 3 4 5 6 
#
# 1 97.5093 8.5491 29.6071 21.3052 -0.7633 11.4085
# 2 8.5491 75.0053 15.9173 22.4221 -0.7107 10.4776
# 3 29.6071 15.9173 130.6464 33.7367 11.1454 -5.1012
# 4 21.3052 22.4221 33.7367 49.6473 5.9395 9.0247
# 5 -0.7633 -0.7107 11.1454 5.9395 29.9946 7.8092
# 6 11.4085 10.4776 -5.1012 9.0247 7.8092 37.8828
#
#
#
# Elastic Compliance Matrix: (Units=1/GPa)
#
#
# Indices 1 2 3 4 5 6 
#
# 1 0.012167 0.000766 -0.002317 -0.003630 0.002930 -0.003927
# 2 0.000766 0.015965 -0.000801 -0.006665 0.003001 -0.003785
# 3 -0.002317 -0.000801 0.010347 -0.006035 -0.003914 0.004557
# 4 -0.003630 -0.006665 -0.006035 0.029951 -0.002783 -0.004437
# 5 0.002930 0.003001 -0.003914 -0.002783 0.037937 -0.009397
# 6 -0.003927 -0.003785 0.004557 -0.004437 -0.009397 0.032235
#
#
# Mechanical properties :
#
#
# Convention : Reuss Voigt Hill
#
# Bulk Modulus (GPa) = 29.60693 45.70088 37.65391
# Shear Modulus (GPa) = 32.34916 40.11077 36.22996
#
# Velocity S-wave (km/s) = 3.67292 4.08988 3.88700
# Velocity P-wave (km/s) = 5.50763 6.43127 5.98729
#
# Compressibility (1/GPa) = 0.03377588
#
# Stress axis : x y z
#
# Youngs Moduli (GPa) = 82.18829 62.63774 96.64415
#
# Poissons Ratio (x) = -0.04800 0.22389
# Poissons Ratio (y) = -0.06298 0.07744
# Poissons Ratio (z) = 0.19040 0.05019
#
# Static dielectric constant tensor:
#      x y z
#    x 1.861500 0.027500 0.006050 
#    y 0.027500 2.048430 -0.019830 
#    z 0.006050 -0.019830 1.939010 
# 
# From -- ./inp_files/601101.got.cif
#   From: 2010.05.17/outbox.cif.g08.bks.cpg/sg2_301_cif.got.tgz:601101.got - 2010.06.03 11:33:40.
