data_PCOD9016596
_publ_section_title
;
Structure prediction by ZEFSAII (Michael W. Deem and Ramdas Pophale) SiO2 
 PCOD9016596
Probable space group: P -1
;
_chemical_formula_sum "Si O2"
_cell_formula_units_Z 12
_cell_length_a 9.875613
_cell_length_b 7.186363
_cell_length_c 16.160619
_cell_angle_alpha 52.513340
_cell_angle_beta 36.571325
_cell_angle_gamma 72.541450
_cell_volume 497.158108
_symmetry_space_group_name_H-M "P -1"
_symmetry_group_IT_number 2
_symmetry_cell_setting 'triclinic'
loop_
_space_group_symop_operation_xyz
x,y,z
-x,-y,-z
loop_
_atom_site_type_symbol
_atom_site_label
_atom_site_fract_x
_atom_site_fract_y
_atom_site_fract_z
Si Si1 0.431476 0.667870 0.744540
Si Si2 0.875607 0.624038 0.442595
Si Si3 0.979112 0.396418 0.928587
Si Si4 0.020442 0.939284 0.127264
Si Si5 0.428764 0.908792 0.153016
Si Si6 0.245856 0.945320 0.396194
O O1 0.652219 0.596330 0.621105
O O2 0.233397 0.606311 0.783812
O O3 0.595856 0.941628 0.630366
O O4 0.247456 0.532312 0.949762
O O5 0.812639 0.352878 0.503172
O O6 0.903769 0.835508 0.301218
O O7 0.142565 0.718919 0.329674
O O8 0.007290 0.309955 0.846214
O O9 0.919656 0.126551 0.079830
O O10 0.314629 0.109676 0.941392
O O11 0.394666 0.068488 0.205068
O O12 0.500000 0.000000 0.000000
O O13 0.000000 0.000000 0.500000
#
# Coordination Sequence:
#
# PCOD9016596 Si02
#       6
#     2   2   2   2   2   2
#     4  11  24  43  66  99 126 177 221 262 327 385
#     4  11  25  43  67 100 134 168 214 282 325 382
#     4  10  23  44  68  94 131 182 218 264 316 395
#     4  10  22  44  69  95 135 173 219 267 326 382
#     4  10  21  42  68  95 129 168 213 271 326 379
#     4  12  24  43  68  98 132 171 219 270 334 387
#
# _framework density 24.137191999999999
#
# number of rings (size 3 to 8) (size 9 to 14) (size 15 to 20)
#    0.000    1.333    3.333    1.500    4.667    1.333 
#    6.000    5.000    0.000    0.000    0.000    0.000 
#    0.000    0.000    0.000    0.000    0.000    0.000 
#
# Total GULP energy -66871.541905 kJ/mol
# GULP energy per Si atom -5572.628492 kJ/mol
# Density = 2.408225 g / cm^3
# Si number density = 24.137192 Si / 1000 Ang^3
#
#
#
# Elastic Constant Matrix: (Units=GPa)
#
#
# Indices 1 2 3 4 5 6 
#
# 1 73.4197 36.0958 44.6144 -1.6408 -10.7633 18.8540
# 2 36.0958 136.2234 50.2125 18.0703 -21.1379 24.6874
# 3 44.6144 50.2125 122.7391 22.7544 -27.7017 3.3864
# 4 -1.6408 18.0703 22.7544 44.3133 5.3470 -21.4296
# 5 -10.7633 -21.1379 -27.7017 5.3470 50.5478 -3.4495
# 6 18.8540 24.6874 3.3864 -21.4296 -3.4495 39.8059
#
#
#
# Elastic Compliance Matrix: (Units=1/GPa)
#
#
# Indices 1 2 3 4 5 6 
#
# 1 0.020572 -0.002019 -0.007060 0.001993 -0.001015 -0.006906
# 2 -0.002019 0.012784 -0.000940 -0.011509 0.004753 -0.012676
# 3 -0.007060 -0.000940 0.014270 -0.008687 0.006749 -0.001379
# 4 0.001993 -0.011509 -0.008687 0.048808 -0.012117 0.032159
# 5 -0.001015 0.004753 0.006749 -0.012117 0.026036 -0.007308
# 6 -0.006906 -0.012676 -0.001379 0.032159 -0.007308 0.053051
#
#
# Mechanical properties :
#
#
# Convention : Reuss Voigt Hill
#
# Bulk Modulus (GPa) = 36.24723 66.02531 51.13627
# Shear Modulus (GPa) = 24.41948 40.36401 32.39174
#
# Velocity S-wave (km/s) = 3.18417 4.09378 3.66729
# Velocity P-wave (km/s) = 5.34493 7.05400 6.25809
#
# Compressibility (1/GPa) = 0.02758832
#
# Stress axis : x y z
#
# Youngs Moduli (GPa) = 48.60927 78.22397 70.07924
#
# Poissons Ratio (x) = 0.15794 0.49474
# Poissons Ratio (y) = 0.09815 0.06586
# Poissons Ratio (z) = 0.34317 0.07351
#
# Static dielectric constant tensor:
#      x y z
#    x 1.888890 -0.066640 0.100970 
#    y -0.066640 1.982670 0.037200 
#    z 0.100970 0.037200 1.913100 
# 
# From -- ./inp_files/565226.got.cif
#   From: 2010.05.17/outbox.cif.g08.bks.cpg/sg2_283_cif.got.tgz:565226.got - 2010.06.03 11:33:40.
