data_PCOD9016828
_publ_section_title
;
Structure prediction by ZEFSAII (Michael W. Deem and Ramdas Pophale) SiO2 
 PCOD9016828
Probable space group: P -1
;
_chemical_formula_sum "Si O2"
_cell_formula_units_Z 14
_cell_length_a 9.293267
_cell_length_b 24.771643
_cell_length_c 8.915033
_cell_angle_alpha 151.132617
_cell_angle_beta 133.741193
_cell_angle_gamma 42.018589
_cell_volume 657.928568
_symmetry_space_group_name_H-M "P -1"
_symmetry_group_IT_number 2
_symmetry_cell_setting 'triclinic'
loop_
_space_group_symop_operation_xyz
x,y,z
-x,-y,-z
loop_
_atom_site_type_symbol
_atom_site_label
_atom_site_fract_x
_atom_site_fract_y
_atom_site_fract_z
Si Si1 0.822273 0.447470 0.551560
Si Si2 0.483159 0.483910 0.774806
Si Si3 0.092360 0.043225 0.024520
Si Si4 0.492886 0.079800 0.543502
Si Si5 0.369296 0.921809 0.660191
Si Si6 0.717208 0.645633 0.203903
Si Si7 0.326881 0.729626 0.799075
O O1 0.737314 0.473924 0.382991
O O2 0.688033 0.371557 0.341953
O O3 0.071121 0.365742 0.575587
O O4 0.787726 0.575157 0.922375
O O5 0.612700 0.342719 0.487583
O O6 0.500000 0.500000 0.000000
O O7 0.615380 0.558783 0.990532
O O8 0.275967 0.086919 0.323244
O O9 0.903312 0.160050 0.104301
O O10 0.193999 0.946004 0.725631
O O11 0.000000 0.000000 0.000000
O O12 0.684354 0.030988 0.436013
O O13 0.500000 0.000000 0.500000
O O14 0.505747 0.205975 0.904751
O O15 0.531271 0.781075 0.412215
O O16 0.500000 0.000000 0.000000
#
# Coordination Sequence:
#
# PCOD9016828 Si02
#       7
#     2   2   2   2   2   2   2
#     4  10  21  42  70  97 126 179 228 275 344 408
#     4  11  25  40  66  98 132 173 224 290 339 401
#     4  11  24  43  64  97 136 178 220 275 338 408
#     4  11  22  41  64  93 134 176 218 278 333 399
#     4  10  22  39  66  96 132 175 224 269 334 407
#     4  10  21  42  69  95 133 174 228 279 336 407
#     4  11  23  43  66  93 131 175 226 272 342 402
#
# _framework density 21.278905999999999
#
# number of rings (size 3 to 8) (size 9 to 14) (size 15 to 20)
#    0.000    1.429    1.429    5.143    2.000    3.429 
#    0.000    5.714    0.000    0.000    0.000    0.000 
#    0.000    0.000    0.000    0.000    0.000    0.000 
#
# Total GULP energy -77935.632582 kJ/mol
# GULP energy per Si atom -5566.830899 kJ/mol
# Density = 2.123047 g / cm^3
# Si number density = 21.278906 Si / 1000 Ang^3
#
#
#
# Elastic Constant Matrix: (Units=GPa)
#
#
# Indices 1 2 3 4 5 6 
#
# 1 113.0770 59.2991 60.6142 -4.9444 -23.3684 12.4703
# 2 59.2991 118.8872 48.2535 -8.7665 -14.9986 0.4128
# 3 60.6142 48.2535 150.5764 -2.6399 -9.6080 3.4427
# 4 -4.9444 -8.7665 -2.6399 47.4495 -3.7632 -3.4875
# 5 -23.3684 -14.9986 -9.6080 -3.7632 47.5756 -11.8566
# 6 12.4703 0.4128 3.4427 -3.4875 -11.8566 31.9581
#
#
#
# Elastic Compliance Matrix: (Units=1/GPa)
#
#
# Indices 1 2 3 4 5 6 
#
# 1 0.015051 -0.005341 -0.003999 0.000391 0.003971 -0.003857
# 2 -0.005341 0.012099 -0.001649 0.001944 0.001751 0.002967
# 3 -0.003999 -0.001649 0.008725 -0.000260 -0.000650 0.000372
# 4 0.000391 0.001944 -0.000260 0.021984 0.003363 0.003497
# 5 0.003971 0.001751 -0.000650 0.003363 0.025755 0.008420
# 6 -0.003857 0.002967 0.000372 0.003497 0.008420 0.036223
#
#
# Mechanical properties :
#
#
# Convention : Reuss Voigt Hill
#
# Bulk Modulus (GPa) = 71.95997 79.87491 75.91744
# Shear Modulus (GPa) = 34.14208 39.68822 36.91515
#
# Velocity S-wave (km/s) = 4.00997 4.32342 4.16964
# Velocity P-wave (km/s) = 7.43846 7.90830 7.67698
#
# Compressibility (1/GPa) = 0.01389661
#
# Stress axis : x y z
#
# Youngs Moduli (GPa) = 66.44031 82.65380 114.61608
#
# Poissons Ratio (x) = 0.44146 0.45832
# Poissons Ratio (y) = 0.35486 0.18902
# Poissons Ratio (z) = 0.26568 0.13631
#
# Static dielectric constant tensor:
#      x y z
#    x 1.881320 -0.005920 -0.065380 
#    y -0.005920 1.872400 -0.038280 
#    z -0.065380 -0.038280 1.806800 
# 
# From -- ./inp_files/225769.got.cif
#   From: 2010.05.17/outbox.cif.g08.bks.cpg/sg2_113_cif.got.tgz:225769.got - 2010.06.03 11:33:40.
