data_PCOD9016007
_publ_section_title
;
Structure prediction by ZEFSAII (Michael W. Deem and Ramdas Pophale) SiO2 
 PCOD9016007
Probable space group: P -1
;
_chemical_formula_sum "Si O2"
_cell_formula_units_Z 13
_cell_length_a 8.087739
_cell_length_b 21.728478
_cell_length_c 8.529546
_cell_angle_alpha 29.379871
_cell_angle_beta 58.431466
_cell_angle_gamma 52.497725
_cell_volume 583.299321
_symmetry_space_group_name_H-M "P -1"
_symmetry_group_IT_number 2
_symmetry_cell_setting 'triclinic'
loop_
_space_group_symop_operation_xyz
x,y,z
-x,-y,-z
loop_
_atom_site_type_symbol
_atom_site_label
_atom_site_fract_x
_atom_site_fract_y
_atom_site_fract_z
Si Si1 0.164629 0.332424 0.605956
Si Si2 0.503086 0.066576 0.018529
Si Si3 0.171031 0.737633 0.276622
Si Si4 0.500000 0.500000 0.500000
Si Si5 0.901119 0.859920 0.424495
Si Si6 0.176275 0.990226 0.557764
Si Si7 0.867531 0.611891 0.137377
O O1 0.114226 0.341512 0.796929
O O2 0.024886 0.267841 0.717283
O O3 0.082391 0.490385 0.251490
O O4 0.400963 0.228752 0.696841
O O5 0.733706 0.989239 0.138199
O O6 0.354229 0.029595 0.299289
O O7 0.500000 0.000000 0.000000
O O8 0.344037 0.591397 0.509917
O O9 0.090815 0.795001 0.357975
O O10 0.260489 0.838747 0.919022
O O11 0.688950 0.549828 0.356415
O O12 0.934529 0.912164 0.461029
O O13 0.815520 0.740331 0.766076
O O14 0.000000 0.000000 0.500000
#
# Coordination Sequence:
#
# PCOD9016007 Si02
#       7
#     2   2   2   1   2   2   2
#     4  10  21  42  66  89 136 171 218 262 337 384
#     4  12  23  41  64 102 130 177 217 272 329 398
#     4  11  23  43  63 100 130 175 217 276 323 392
#     4  10  24  40  64  90 130 162 222 268 324 378
#     4  12  24  41  71  98 131 179 226 262 337 396
#     4  12  23  42  67  97 139 169 219 277 329 383
#     4  10  22  43  68  91 126 181 217 275 326 398
#
# _framework density 22.287015
#
# number of rings (size 3 to 8) (size 9 to 14) (size 15 to 20)
#    0.000    0.923    4.615    1.846    2.154    2.462 
#    2.769    0.000    0.000    4.615    0.000    0.000 
#    0.000    0.000    0.000    0.000    0.000    0.000 
#
# Total GULP energy -72375.681833 kJ/mol
# GULP energy per Si atom -5567.360141 kJ/mol
# Density = 2.223629 g / cm^3
# Si number density = 22.287015 Si / 1000 Ang^3
#
#
#
# Elastic Constant Matrix: (Units=GPa)
#
#
# Indices 1 2 3 4 5 6 
#
# 1 61.9484 56.2600 21.3356 -6.7257 3.6731 13.8586
# 2 56.2600 195.3864 25.5087 -25.9510 11.3543 13.5719
# 3 21.3356 25.5087 38.2633 -15.1279 6.8060 10.8071
# 4 -6.7257 -25.9510 -15.1279 41.2455 -9.2862 4.7829
# 5 3.6731 11.3543 6.8060 -9.2862 19.6499 -9.7495
# 6 13.8586 13.5719 10.8071 4.7829 -9.7495 37.9031
#
#
#
# Elastic Compliance Matrix: (Units=1/GPa)
#
#
# Indices 1 2 3 4 5 6 
#
# 1 0.025968 -0.006193 -0.010128 -0.003196 -0.001439 -0.004356
# 2 -0.006193 0.007561 0.000864 0.003672 -0.002690 -0.001845
# 3 -0.010128 0.000864 0.042921 0.013051 -0.014341 -0.014180
# 4 -0.003196 0.003672 0.013051 0.032998 0.006379 -0.006391
# 5 -0.001439 -0.002690 -0.014341 0.006379 0.072291 0.023368
# 6 -0.004356 -0.001845 -0.014180 -0.006391 0.023368 0.039497
#
#
# Mechanical properties :
#
#
# Convention : Reuss Voigt Hill
#
# Bulk Modulus (GPa) = 21.96054 55.75630 38.85842
# Shear Modulus (GPa) = 18.70353 32.59261 25.64807
#
# Velocity S-wave (km/s) = 2.90006 3.82829 3.39604
# Velocity P-wave (km/s) = 4.59224 6.67928 5.73155
#
# Compressibility (1/GPa) = 0.04553622
#
# Stress axis : x y z
#
# Youngs Moduli (GPa) = 38.50856 132.26159 23.29837
#
# Poissons Ratio (x) = 0.81914 0.23597
# Poissons Ratio (y) = 0.23850 -0.02014
# Poissons Ratio (z) = 0.39002 -0.11433
#
# Static dielectric constant tensor:
#      x y z
#    x 1.832940 0.045280 0.018790 
#    y 0.045280 1.799050 -0.050140 
#    z 0.018790 -0.050140 1.873070 
# 
# From -- ./inp_files/204490.got.cif
#   From: 2010.05.17/outbox.cif.g08.bks.cpg/sg2_103_cif.got.tgz:204490.got - 2010.06.03 11:33:40.
