data_PCOD9016235
_publ_section_title
;
Structure prediction by ZEFSAII (Michael W. Deem and Ramdas Pophale) SiO2 
 PCOD9016235
Probable space group: P -1
;
_chemical_formula_sum "Si O2"
_cell_formula_units_Z 14
_cell_length_a 14.346648
_cell_length_b 9.323156
_cell_length_c 12.353419
_cell_angle_alpha 50.435987
_cell_angle_beta 150.889490
_cell_angle_gamma 122.814328
_cell_volume 619.237718
_symmetry_space_group_name_H-M "P -1"
_symmetry_group_IT_number 2
_symmetry_cell_setting 'triclinic'
loop_
_space_group_symop_operation_xyz
x,y,z
-x,-y,-z
loop_
_atom_site_type_symbol
_atom_site_label
_atom_site_fract_x
_atom_site_fract_y
_atom_site_fract_z
Si Si1 0.882890 0.109003 0.950436
Si Si2 0.272245 0.493253 0.796191
Si Si3 0.000455 0.321976 0.162271
Si Si4 0.377198 0.117010 0.701114
Si Si5 0.736433 0.244143 0.130246
Si Si6 0.428871 0.114595 0.188859
Si Si7 0.828859 0.244237 0.614909
O O1 0.885861 0.271424 0.785059
O O2 0.679475 0.017250 0.776468
O O3 0.889960 0.176886 0.046541
O O4 0.052027 0.950810 0.189840
O O5 0.249518 0.622253 0.816450
O O6 0.148383 0.585278 0.527788
O O7 0.500000 0.500000 0.000000
O O8 0.266270 0.272784 0.915506
O O9 0.890695 0.314189 0.168011
O O10 0.220474 0.255929 0.425477
O O11 0.000000 0.500000 0.000000
O O12 0.253891 0.970487 0.715625
O O13 0.488642 0.993004 0.782056
O O14 0.526400 0.234329 0.865447
O O15 0.607989 0.200848 0.389390
#
# Coordination Sequence:
#
# PCOD9016235 Si02
#       7
#     2   2   2   2   2   2   2
#     4  11  23  42  65  95 133 182 215 265 335 397
#     4  10  21  42  67 103 129 165 225 282 321 388
#     4  12  27  45  65  99 138 175 228 271 327 402
#     4  11  23  45  71  98 131 179 220 272 334 396
#     4  11  23  45  73  97 133 178 219 276 336 387
#     4  11  21  43  69  96 132 169 221 273 332 389
#     4  10  22  41  65  94 138 170 216 273 326 398
#
# _framework density 22.608440999999999
#
# number of rings (size 3 to 8) (size 9 to 14) (size 15 to 20)
#    0.000    1.143    5.714    0.857    0.000    5.714 
#    5.143    0.000    0.000    0.000    0.000    0.000 
#    0.000    0.000    0.000    0.000    0.000    0.000 
#
# Total GULP energy -78113.562322 kJ/mol
# GULP energy per Si atom -5579.540166 kJ/mol
# Density = 2.255698 g / cm^3
# Si number density = 22.608441 Si / 1000 Ang^3
#
#
#
# Elastic Constant Matrix: (Units=GPa)
#
#
# Indices 1 2 3 4 5 6 
#
# 1 91.4710 20.1769 49.1576 -24.0472 -18.0129 -13.6979
# 2 20.1769 45.8791 41.1950 -11.0388 -1.9361 6.8773
# 3 49.1576 41.1950 161.5842 -22.8498 -21.6874 4.5243
# 4 -24.0472 -11.0388 -22.8498 23.4099 7.7835 -14.5887
# 5 -18.0129 -1.9361 -21.6874 7.7835 31.5784 7.2433
# 6 -13.6979 6.8773 4.5243 -14.5887 7.2433 18.9009
#
#
#
# Elastic Compliance Matrix: (Units=1/GPa)
#
#
# Indices 1 2 3 4 5 6 
#
# 1 -0.015716 0.002581 -0.000481 -0.075040 0.027898 -0.080824
# 2 0.002581 0.029712 -0.007069 0.020422 -0.009371 0.012105
# 3 -0.000481 -0.007069 0.009412 0.006824 0.003150 0.004031
# 4 -0.075040 0.020422 0.006824 -0.171997 0.055403 -0.217434
# 5 0.027898 -0.009371 0.003150 0.055403 0.022430 0.057041
# 6 -0.080824 0.012105 0.004031 -0.217434 0.057041 -0.200722
#
#
# Mechanical properties :
#
#
# Convention : Reuss Voigt Hill
#
# Bulk Modulus (GPa) = 74.23395 57.77702 66.00548
# Shear Modulus (GPa) = -16.00246 27.33818 5.66786
#
# Velocity S-wave (km/s) = -2.66335 3.48113 1.58506
# Velocity P-wave (km/s) = 4.84231 6.46287 5.71037
#
# Compressibility (1/GPa) = 0.01347093
#
# Stress axis : x y z
#
# Youngs Moduli (GPa) = -63.63110 33.65634 106.24551
#
# Poissons Ratio (x) = -0.08687 0.05110
# Poissons Ratio (y) = 0.16424 0.75105
# Poissons Ratio (z) = -0.03060 0.23792
#
# Static dielectric constant tensor:
#      x y z
#    x 1.727850 -0.307450 0.045270 
#    y -0.307450 1.275610 0.154510 
#    z 0.045270 0.154510 1.797270 
# 
# From -- ./inp_files/446866.got.cif
#   From: 2010.05.17/outbox.cif.g08.bks.cpg/sg2_224_cif.got.tgz:446866.got - 2010.06.03 11:33:40.
