data_PCOD9016543
_publ_section_title
;
Structure prediction by ZEFSAII (Michael W. Deem and Ramdas Pophale) SiO2 
 PCOD9016543
Probable space group: P -1
;
_chemical_formula_sum "Si O2"
_cell_formula_units_Z 16
_cell_length_a 13.235844
_cell_length_b 11.110230
_cell_length_c 8.378892
_cell_angle_alpha 78.046941
_cell_angle_beta 85.173056
_cell_angle_gamma 137.005909
_cell_volume 769.028989
_symmetry_space_group_name_H-M "P -1"
_symmetry_group_IT_number 2
_symmetry_cell_setting 'triclinic'
loop_
_space_group_symop_operation_xyz
x,y,z
-x,-y,-z
loop_
_atom_site_type_symbol
_atom_site_label
_atom_site_fract_x
_atom_site_fract_y
_atom_site_fract_z
Si Si1 0.526815 0.823801 0.071051
Si Si2 0.311154 0.723007 0.545583
Si Si3 0.498057 0.342307 0.371900
Si Si4 0.418067 0.902641 0.792127
Si Si5 0.791665 0.552102 0.603094
Si Si6 0.036447 0.115809 0.304419
Si Si7 0.654299 0.728295 0.900160
Si Si8 0.273304 0.268779 0.657035
O O1 0.374442 0.631088 0.238391
O O2 0.609246 0.006025 0.115057
O O3 0.452335 0.819475 0.925132
O O4 0.644656 0.824140 0.009016
O O5 0.424369 0.714481 0.583723
O O6 0.285645 0.760228 0.711874
O O7 0.182048 0.536201 0.500252
O O8 0.417517 0.912694 0.372626
O O9 0.377026 0.229500 0.274264
O O10 0.400835 0.300070 0.548024
O O11 0.637795 0.573505 0.259167
O O12 0.920236 0.710252 0.675592
O O13 0.764140 0.650241 0.477363
O O14 0.189001 0.203962 0.169171
O O15 0.000000 0.000000 0.500000
O O16 0.887265 0.957795 0.251389
O O17 0.500000 0.500000 0.000000
#
# Coordination Sequence:
#
# PCOD9016543 Si02
#       8
#     2   2   2   2   2   2   2   2
#     4  10  18  30  48  77 106 141 172 222 267 308
#     4   9  17  29  48  76 101 133 179 233 258 292
#     4  10  17  30  51  77 106 139 172 220 263 313
#     4   9  18  30  47  74 105 130 188 230 250 301
#     4   9  16  29  49  73 105 135 169 211 265 310
#     4  10  18  32  49  79 112 141 173 215 254 327
#     4  12  20  31  52  79 115 141 173 208 273 326
#     4   9  18  31  50  78 110 136 175 214 261 314
#
# _framework density 20.805458999999999
#
# number of rings (size 3 to 8) (size 9 to 14) (size 15 to 20)
#    0.000    2.250    5.000    0.000    0.000    0.000 
#    0.000    0.625    0.000    0.000    0.000  101.500 
#    0.000    0.000    0.000    0.000    0.000    0.000 
#
# Total GULP energy -89142.101778 kJ/mol
# GULP energy per Si atom -5571.381361 kJ/mol
# Density = 2.075811 g / cm^3
# Si number density = 20.805459 Si / 1000 Ang^3
#
#
#
# Elastic Constant Matrix: (Units=GPa)
#
#
# Indices 1 2 3 4 5 6 
#
# 1 20.5928 25.0364 9.5881 1.5055 -1.5279 -3.3968
# 2 25.0364 139.9611 30.3203 15.2898 -14.8067 -1.3051
# 3 9.5881 30.3203 62.9953 13.8690 -4.2249 -1.0436
# 4 1.5055 15.2898 13.8690 29.2451 -0.8714 -5.2910
# 5 -1.5279 -14.8067 -4.2249 -0.8714 28.1229 0.9608
# 6 -3.3968 -1.3051 -1.0436 -5.2910 0.9608 27.1829
#
#
#
# Elastic Compliance Matrix: (Units=1/GPa)
#
#
# Indices 1 2 3 4 5 6 
#
# 1 0.066194 -0.011569 -0.006152 0.007079 -0.003506 0.008982
# 2 -0.011569 0.010599 -0.002154 -0.004148 0.004568 -0.001988
# 3 -0.006152 -0.002154 0.019706 -0.008181 0.001299 -0.001754
# 4 0.007079 -0.004148 -0.008181 0.041354 -0.002037 0.008493
# 5 -0.003506 0.004568 0.001299 -0.002037 0.037970 -0.001908
# 6 0.008982 -0.001988 -0.001754 0.008493 -0.001908 0.039468
#
#
# Mechanical properties :
#
#
# Convention : Reuss Voigt Hill
#
# Bulk Modulus (GPa) = 17.62098 39.27097 28.44598
# Shear Modulus (GPa) = 18.25118 27.48379 22.86748
#
# Velocity S-wave (km/s) = 2.96502 3.63848 3.31888
# Velocity P-wave (km/s) = 4.49551 6.04713 5.32810
#
# Compressibility (1/GPa) = 0.05675052
#
# Stress axis : x y z
#
# Youngs Moduli (GPa) = 15.10719 94.35169 50.74494
#
# Poissons Ratio (x) = 1.09152 0.31216
# Poissons Ratio (y) = 0.17477 0.10930
# Poissons Ratio (z) = 0.09293 0.20322
#
# Static dielectric constant tensor:
#      x y z
#    x 1.727760 0.000210 0.046800 
#    y 0.000210 1.858720 0.082200 
#    z 0.046800 0.082200 1.806160 
# 
# From -- ./inp_files/307496.got.cif
#   From: 2010.05.17/outbox.cif.g08.bks.cpg/sg2_154_cif.got.tgz:307496.got - 2010.06.03 11:33:40.
