data_PCOD9016754
_publ_section_title
;
Structure prediction by ZEFSAII (Michael W. Deem and Ramdas Pophale) SiO2 
 PCOD9016754
Probable space group: P -1
;
_chemical_formula_sum "Si O2"
_cell_formula_units_Z 16
_cell_length_a 15.112299
_cell_length_b 8.752669
_cell_length_c 8.486234
_cell_angle_alpha 72.638779
_cell_angle_beta 136.114284
_cell_angle_gamma 86.926736
_cell_volume 678.701994
_symmetry_space_group_name_H-M "P -1"
_symmetry_group_IT_number 2
_symmetry_cell_setting 'triclinic'
loop_
_space_group_symop_operation_xyz
x,y,z
-x,-y,-z
loop_
_atom_site_type_symbol
_atom_site_label
_atom_site_fract_x
_atom_site_fract_y
_atom_site_fract_z
Si Si1 0.551424 0.373811 0.849834
Si Si2 0.369045 0.251643 0.879032
Si Si3 0.790529 0.841557 0.554419
Si Si4 0.649915 0.284259 0.670244
Si Si5 0.818361 0.404063 0.307625
Si Si6 0.398939 0.981819 0.506157
Si Si7 0.911161 0.295772 0.111195
Si Si8 0.048914 0.941998 0.258736
O O1 0.438026 0.338548 0.815997
O O2 0.609955 0.255321 0.805947
O O3 0.482475 0.568593 0.628903
O O4 0.680003 0.365842 0.121622
O O5 0.298977 0.149814 0.716081
O O6 0.243202 0.399994 0.766955
O O7 0.495305 0.133519 0.188178
O O8 0.949280 0.699101 0.784966
O O9 0.705743 0.838793 0.602276
O O10 0.813370 0.019905 0.549095
O O11 0.685807 0.114404 0.662773
O O12 0.767290 0.363506 0.809216
O O13 0.885431 0.371407 0.229807
O O14 0.921275 0.255842 0.601616
O O15 0.500000 0.000000 0.500000
O O16 0.947404 0.085032 0.209302
O O17 0.000000 0.000000 0.000000
#
# Coordination Sequence:
#
# PCOD9016754 Si02
#       8
#     2   2   2   2   2   2   2   2
#     4  10  22  39  70 102 138 168 224 284 334 396
#     4  12  25  42  68 101 137 182 222 284 343 394
#     4  10  25  44  64  96 138 177 220 271 345 408
#     4  10  21  42  69 105 129 173 225 282 330 395
#     4  11  22  42  70  99 131 178 229 278 332 402
#     4  12  25  43  68  98 138 177 228 281 341 400
#     4   9  23  41  68  94 136 176 224 269 331 406
#     4  10  22  42  66  96 129 176 227 272 329 403
#
# _framework density 23.574411000000001
#
# number of rings (size 3 to 8) (size 9 to 14) (size 15 to 20)
#    0.750    0.750    1.250    3.375    3.500    2.500 
#    2.250    2.500    0.000    0.000    0.000    0.000 
#    0.000    0.000    0.000    0.000    0.000    0.000 
#
# Total GULP energy -89343.629389 kJ/mol
# GULP energy per Si atom -5583.976837 kJ/mol
# Density = 2.352075 g / cm^3
# Si number density = 23.574411 Si / 1000 Ang^3
#
#
#
# Elastic Constant Matrix: (Units=GPa)
#
#
# Indices 1 2 3 4 5 6 
#
# 1 113.2540 48.0546 31.0458 8.4122 11.2257 -39.3055
# 2 48.0546 77.9121 25.9261 24.1518 -8.9017 -36.0716
# 3 31.0458 25.9261 82.1165 16.6079 -8.4445 -11.1588
# 4 8.4122 24.1518 16.6079 35.8491 -5.9323 0.3524
# 5 11.2257 -8.9017 -8.4445 -5.9323 25.6282 -3.1448
# 6 -39.3055 -36.0716 -11.1588 0.3524 -3.1448 37.0236
#
#
#
# Elastic Compliance Matrix: (Units=1/GPa)
#
#
# Indices 1 2 3 4 5 6 
#
# 1 0.016795 -0.004601 -0.004187 -0.000513 -0.009064 0.011320
# 2 -0.004601 0.043962 0.000237 -0.026370 0.016124 0.039639
# 3 -0.004187 0.000237 0.015524 -0.005402 0.005906 0.001018
# 4 -0.000513 -0.026370 -0.005402 0.048051 -0.003100 -0.028585
# 5 -0.009064 0.016124 0.005906 -0.003100 0.051323 0.012256
# 6 0.011320 0.039639 0.001018 -0.028585 0.012256 0.079268
#
#
# Mechanical properties :
#
#
# Convention : Reuss Voigt Hill
#
# Bulk Modulus (GPa) = 16.89757 53.70396 35.30076
# Shear Modulus (GPa) = 17.13787 30.91726 24.02756
#
# Velocity S-wave (km/s) = 2.69916 3.62536 3.19599
# Velocity P-wave (km/s) = 4.11063 6.35251 5.35031
#
# Compressibility (1/GPa) = 0.05918011
#
# Stress axis : x y z
#
# Youngs Moduli (GPa) = 59.54104 22.74670 64.41577
#
# Poissons Ratio (x) = 0.10466 0.26972
# Poissons Ratio (y) = 0.27396 -0.01530
# Poissons Ratio (z) = 0.24931 -0.00540
#
# Static dielectric constant tensor:
#      x y z
#    x 1.957630 -0.012130 0.048180 
#    y -0.012130 1.921020 -0.002220 
#    z 0.048180 -0.002220 1.871450 
# 
# From -- ./inp_files/326111.got.cif
#   From: 2010.05.17/outbox.cif.g08.bks.cpg/sg2_164_cif.got.tgz:326111.got - 2010.06.03 11:33:40.
