data_PCOD9016327
_publ_section_title
;
Structure prediction by ZEFSAII (Michael W. Deem and Ramdas Pophale) SiO2 
 PCOD9016327
Probable space group: P -1
;
_chemical_formula_sum "Si O2"
_cell_formula_units_Z 16
_cell_length_a 13.413063
_cell_length_b 8.326130
_cell_length_c 16.150232
_cell_angle_alpha 112.359696
_cell_angle_beta 153.276263
_cell_angle_gamma 79.629624
_cell_volume 692.529936
_symmetry_space_group_name_H-M "P -1"
_symmetry_group_IT_number 2
_symmetry_cell_setting 'triclinic'
loop_
_space_group_symop_operation_xyz
x,y,z
-x,-y,-z
loop_
_atom_site_type_symbol
_atom_site_label
_atom_site_fract_x
_atom_site_fract_y
_atom_site_fract_z
Si Si1 0.287093 0.942345 0.896310
Si Si2 0.518710 0.469614 0.410372
Si Si3 0.733474 0.378060 0.871251
Si Si4 0.919638 0.352876 0.617455
Si Si5 0.586496 0.315161 0.930022
Si Si6 0.969015 0.852449 0.019442
Si Si7 0.039380 0.198257 0.523066
Si Si8 0.973866 0.813498 0.189272
O O1 0.056763 0.823535 0.646001
O O2 0.235238 0.119510 0.925086
O O3 0.347650 0.829384 0.992652
O O4 0.500000 0.000000 0.000000
O O5 0.500000 0.500000 0.500000
O O6 0.444481 0.615573 0.331694
O O7 0.766282 0.467905 0.559182
O O8 0.314160 0.264040 0.200494
O O9 0.602251 0.275919 0.836709
O O10 0.915530 0.290067 0.956104
O O11 0.880502 0.596292 0.048178
O O12 0.890812 0.285531 0.488484
O O13 0.871383 0.182578 0.613723
O O14 0.201371 0.483172 0.857951
O O15 0.325060 0.309903 0.755887
O O16 0.082083 0.927078 0.207893
O O17 0.000000 0.000000 0.000000
O O18 0.000000 0.000000 0.500000
#
# Coordination Sequence:
#
# PCOD9016327 Si02
#       8
#     2   2   2   2   2   2   2   2
#     4  12  25  42  71  99 141 185 231 290 345 407
#     4  11  23  43  71 101 135 180 231 277 348 417
#     4  10  23  43  70  97 140 179 225 282 344 416
#     4  11  24  44  69  99 137 185 232 288 342 409
#     4  11  25  46  67  99 143 179 234 291 343 406
#     4  11  23  43  69 102 136 176 224 284 349 415
#     4  12  25  44  67 102 140 183 236 282 350 407
#     4  10  21  42  67  93 136 181 222 274 350 398
#
# _framework density 23.103694000000001
#
# number of rings (size 3 to 8) (size 9 to 14) (size 15 to 20)
#    0.000    1.000    2.500    4.875    5.250    2.500 
#    0.000    1.250    0.000    0.000    0.000    0.000 
#    0.000    0.000    0.000    0.000    0.000    0.000 
#
# Total GULP energy -89476.440555 kJ/mol
# GULP energy per Si atom -5592.277535 kJ/mol
# Density = 2.305111 g / cm^3
# Si number density = 23.103694 Si / 1000 Ang^3
#
#
#
# Elastic Constant Matrix: (Units=GPa)
#
#
# Indices 1 2 3 4 5 6 
#
# 1 163.0352 54.8911 41.4081 -21.4468 -3.6254 -7.8433
# 2 54.8911 86.3207 23.7939 -29.8566 -10.8620 5.7575
# 3 41.4081 23.7939 84.6663 -17.8534 1.2380 4.3242
# 4 -21.4468 -29.8566 -17.8534 34.3172 8.3422 -3.0960
# 5 -3.6254 -10.8620 1.2380 8.3422 26.4162 -8.6102
# 6 -7.8433 5.7575 4.3242 -3.0960 -8.6102 55.6269
#
#
#
# Elastic Compliance Matrix: (Units=1/GPa)
#
#
# Indices 1 2 3 4 5 6 
#
# 1 0.008586 -0.004842 -0.002987 -0.000234 0.000032 0.001936
# 2 -0.004842 0.019778 -0.000379 0.013157 0.002832 -0.001530
# 3 -0.002987 -0.000379 0.014854 0.006303 -0.003832 -0.001779
# 4 -0.000234 0.013157 0.006303 0.046007 -0.009716 -0.000828
# 5 0.000032 0.002832 -0.003832 -0.009716 0.044336 0.006331
# 6 0.001936 -0.001530 -0.001779 -0.000828 0.006331 0.019480
#
#
# Mechanical properties :
#
#
# Convention : Reuss Voigt Hill
#
# Bulk Modulus (GPa) = 37.31143 63.80093 50.55618
# Shear Modulus (GPa) = 28.02849 37.53402 32.78126
#
# Velocity S-wave (km/s) = 3.48682 4.03499 3.77088
# Velocity P-wave (km/s) = 5.69168 7.02732 6.39447
#
# Compressibility (1/GPa) = 0.02680144
#
# Stress axis : x y z
#
# Youngs Moduli (GPa) = 116.47364 50.56238 67.32080
#
# Poissons Ratio (x) = 0.24484 0.20108
# Poissons Ratio (y) = 0.56402 0.02549
# Poissons Ratio (z) = 0.34790 0.01915
#
# Static dielectric constant tensor:
#      x y z
#    x 1.891210 0.033010 -0.062990 
#    y 0.033010 1.866520 0.018710 
#    z -0.062990 0.018710 1.942350 
# 
# From -- ./inp_files/516032.got.cif
#   From: 2010.05.17/outbox.cif.g08.bks.cpg/sg2_259_cif.got.tgz:516032.got - 2010.06.03 11:33:40.
