data_PCOD9016545
_publ_section_title
;
Structure prediction by ZEFSAII (Michael W. Deem and Ramdas Pophale) SiO2 
 PCOD9016545
Probable space group: P -1
;
_chemical_formula_sum "Si O2"
_cell_formula_units_Z 14
_cell_length_a 8.477116
_cell_length_b 7.767489
_cell_length_c 17.599087
_cell_angle_alpha 61.503194
_cell_angle_beta 73.236857
_cell_angle_gamma 122.825343
_cell_volume 574.929136
_symmetry_space_group_name_H-M "P -1"
_symmetry_group_IT_number 2
_symmetry_cell_setting 'triclinic'
loop_
_space_group_symop_operation_xyz
x,y,z
-x,-y,-z
loop_
_atom_site_type_symbol
_atom_site_label
_atom_site_fract_x
_atom_site_fract_y
_atom_site_fract_z
Si Si1 0.298264 0.355680 0.315210
Si Si2 0.062677 0.624110 0.628365
Si Si3 0.823353 0.027081 0.807365
Si Si4 0.880013 0.311159 0.216874
Si Si5 0.706877 0.097660 0.612178
Si Si6 0.618734 0.638863 0.369467
Si Si7 0.437762 0.630100 0.079208
O O1 0.038197 0.248316 0.385002
O O2 0.437365 0.474937 0.353068
O O3 0.466574 0.629148 0.166154
O O4 0.228014 0.070659 0.356108
O O5 0.806305 0.225444 0.729455
O O6 0.114121 0.637010 0.706212
O O7 0.308078 0.854596 0.485227
O O8 0.149196 0.299767 0.692691
O O9 0.672843 0.691854 0.864102
O O10 0.715602 0.931842 0.928694
O O11 0.213432 0.586138 0.096385
O O12 0.610817 0.179473 0.252900
O O13 0.767679 0.989395 0.281000
O O14 0.000000 0.500000 0.500000
O O15 0.500000 0.500000 0.500000
#
# Coordination Sequence:
#
# PCOD9016545 Si02
#       7
#     2   2   2   2   2   2   2
#     4  11  24  40  62  96 131 164 210 267 315 380
#     4  11  22  38  63  93 126 166 211 260 319 379
#     4  10  21  42  68  92 126 172 212 258 317 380
#     4  10  22  38  59  87 122 166 208 258 314 374
#     4  12  23  38  61  93 128 163 209 264 324 380
#     4  11  22  40  64  94 131 166 208 261 322 379
#     4   9  22  43  65  92 126 168 219 259 311 378
#
# _framework density 24.350828
#
# number of rings (size 3 to 8) (size 9 to 14) (size 15 to 20)
#    0.000    1.429    0.000    5.143    0.000    7.429 
#    0.000    1.429    0.000    6.857    0.000    0.000 
#    0.000    0.000    0.000    0.000    0.000    0.000 
#
# Total GULP energy -77962.673351 kJ/mol
# GULP energy per Si atom -5568.762382 kJ/mol
# Density = 2.429540 g / cm^3
# Si number density = 24.350828 Si / 1000 Ang^3
#
#
#
# Elastic Constant Matrix: (Units=GPa)
#
#
# Indices 1 2 3 4 5 6 
#
# 1 95.9128 33.4091 48.5171 -14.3455 -12.6883 -12.9771
# 2 33.4091 79.5554 27.5548 0.0622 -13.5295 10.0258
# 3 48.5171 27.5548 151.2978 32.4219 -11.7173 10.1121
# 4 -14.3455 0.0622 32.4219 33.1042 -8.7840 7.5057
# 5 -12.6883 -13.5295 -11.7173 -8.7840 32.6012 -0.1007
# 6 -12.9771 10.0258 10.1121 7.5057 -0.1007 44.9665
#
#
#
# Elastic Compliance Matrix: (Units=1/GPa)
#
#
# Indices 1 2 3 4 5 6 
#
# 1 0.022885 -0.005307 -0.010687 0.021158 0.008584 0.006679
# 2 -0.005307 0.016524 -0.000780 0.000861 0.004727 -0.005173
# 3 -0.010687 -0.000780 0.014087 -0.018969 -0.004540 -0.002922
# 4 0.021158 0.000861 -0.018969 0.062993 0.018746 -0.000293
# 5 0.008584 0.004727 -0.004540 0.018746 0.039394 -0.000596
# 6 0.006679 -0.005173 -0.002922 -0.000293 -0.000596 0.026024
#
#
# Mechanical properties :
#
#
# Convention : Reuss Voigt Hill
#
# Bulk Modulus (GPa) = 50.13311 60.63644 55.38478
# Shear Modulus (GPa) = 22.51183 36.62003 29.56593
#
# Velocity S-wave (km/s) = 3.04382 3.88216 3.48827
# Velocity P-wave (km/s) = 5.74332 6.71194 6.24643
#
# Compressibility (1/GPa) = 0.01994690
#
# Stress axis : x y z
#
# Youngs Moduli (GPa) = 43.69736 60.51811 70.98570
#
# Poissons Ratio (x) = 0.32117 0.75866
# Poissons Ratio (y) = 0.23190 0.05538
# Poissons Ratio (z) = 0.46701 0.04721
#
# Static dielectric constant tensor:
#      x y z
#    x 2.052520 0.210210 -0.091650 
#    y 0.210210 -23.002710 8.214520 
#    z -0.091650 8.214520 -0.709550 
# 
# From -- ./inp_files/556996.got.cif
#   From: 2010.05.17/outbox.cif.g08.bks.cpg/sg2_279_cif.got.tgz:556996.got - 2010.06.03 11:33:40.
