data_PCOD9016038
_publ_section_title
;
Structure prediction by ZEFSAII (Michael W. Deem and Ramdas Pophale) SiO2 
 PCOD9016038
Probable space group: P -1
;
_chemical_formula_sum "Si O2"
_cell_formula_units_Z 16
_cell_length_a 11.216695
_cell_length_b 8.350017
_cell_length_c 14.854176
_cell_angle_alpha 139.933049
_cell_angle_beta 128.204148
_cell_angle_gamma 71.295567
_cell_volume 670.907728
_symmetry_space_group_name_H-M "P -1"
_symmetry_group_IT_number 2
_symmetry_cell_setting 'triclinic'
loop_
_space_group_symop_operation_xyz
x,y,z
-x,-y,-z
loop_
_atom_site_type_symbol
_atom_site_label
_atom_site_fract_x
_atom_site_fract_y
_atom_site_fract_z
Si Si1 0.114384 0.996140 0.274777
Si Si2 0.400328 0.128539 0.588023
Si Si3 0.441830 0.682231 0.621200
Si Si4 0.357252 0.548026 0.270842
Si Si5 0.948925 0.998888 0.371625
Si Si6 0.941738 0.528118 0.636728
Si Si7 0.610610 0.787381 0.188966
Si Si8 0.008145 0.267335 0.064534
O O1 0.290719 0.136697 0.454122
O O2 0.028726 0.198009 0.281742
O O3 0.026256 0.878520 0.275622
O O4 0.111200 0.807415 0.107826
O O5 0.574763 0.330041 0.741443
O O6 0.325182 0.196277 0.671875
O O7 0.395360 0.826621 0.461125
O O8 0.500000 0.500000 0.500000
O O9 0.534564 0.632703 0.730749
O O10 0.250535 0.574606 0.486068
O O11 0.480092 0.992095 0.760149
O O12 0.178220 0.393680 0.148853
O O13 0.988392 0.310479 0.508556
O O14 0.759128 0.869583 0.226909
O O15 0.000000 0.000000 0.500000
O O16 0.011090 0.558493 0.784243
O O17 0.500000 0.500000 0.000000
O O18 0.000000 0.000000 0.000000
#
# Coordination Sequence:
#
# PCOD9016038 Si02
#       8
#     2   2   2   2   2   2   2   2
#     4  11  23  41  64  99 129 173 216 278 341 394
#     4  11  23  41  68  97 134 172 224 278 338 407
#     4  11  19  40  73  90 126 179 226 268 331 403
#     4  11  22  41  67 100 126 176 225 276 334 402
#     4  11  23  43  66  87 130 181 217 267 336 411
#     4  10  21  42  66  92 129 171 225 268 333 405
#     4  11  25  44  62  99 136 174 224 277 338 401
#     4  10  23  41  64  99 134 162 227 281 329 389
#
# _framework density 23.848286000000002
#
# number of rings (size 3 to 8) (size 9 to 14) (size 15 to 20)
#    0.000    1.250    5.000    1.125    1.750    0.500 
#    4.500    0.625    0.000    0.000    0.000    0.000 
#    0.000    0.000    0.000    0.000    0.000    0.000 
#
# Total GULP energy -89275.428882 kJ/mol
# GULP energy per Si atom -5579.714305 kJ/mol
# Density = 2.379401 g / cm^3
# Si number density = 23.848286 Si / 1000 Ang^3
#
#
#
# Elastic Constant Matrix: (Units=GPa)
#
#
# Indices 1 2 3 4 5 6 
#
# 1 86.4811 15.0712 26.0824 -0.5788 -2.5101 15.8968
# 2 15.0712 109.4699 46.7263 3.7196 2.1664 2.3904
# 3 26.0824 46.7263 98.6486 -0.1444 -9.6714 6.4433
# 4 -0.5788 3.7196 -0.1444 44.5668 11.1475 -0.8566
# 5 -2.5101 2.1664 -9.6714 11.1475 29.3220 4.1817
# 6 15.8968 2.3904 6.4433 -0.8566 4.1817 33.6257
#
#
#
# Elastic Compliance Matrix: (Units=1/GPa)
#
#
# Indices 1 2 3 4 5 6 
#
# 1 0.013657 -0.000555 -0.002835 -0.000205 0.001213 -0.006030
# 2 -0.000555 0.011704 -0.005731 -0.000280 -0.002820 0.000872
# 3 -0.002835 -0.005731 0.014246 -0.000912 0.005466 -0.001685
# 4 -0.000205 -0.000280 -0.000912 0.025031 -0.010126 0.002188
# 5 0.001213 -0.002820 0.005466 -0.010126 0.041036 -0.006782
# 6 -0.006030 0.000872 -0.001685 0.002188 -0.006782 0.033750
#
#
# Mechanical properties :
#
#
# Convention : Reuss Voigt Hill
#
# Bulk Modulus (GPa) = 46.80800 52.26216 49.53508
# Shear Modulus (GPa) = 30.34201 35.28420 32.81311
#
# Velocity S-wave (km/s) = 3.57079 3.85064 3.71335
# Velocity P-wave (km/s) = 6.05564 6.46002 6.26109
#
# Compressibility (1/GPa) = 0.02136387
#
# Stress axis : x y z
#
# Youngs Moduli (GPa) = 73.22036 85.44245 70.19635
#
# Poissons Ratio (x) = 0.04745 0.19904
# Poissons Ratio (y) = 0.04066 0.40227
# Poissons Ratio (z) = 0.20762 0.48965
#
# Static dielectric constant tensor:
#      x y z
#    x 1.904130 0.022650 0.011980 
#    y 0.022650 2.044820 -0.019050 
#    z 0.011980 -0.019050 1.934330 
# 
# From -- ./inp_files/516425.got.cif
#   From: 2010.05.17/outbox.cif.g08.bks.cpg/sg2_259_cif.got.tgz:516425.got - 2010.06.03 11:33:40.
