data_PCOD9016508
_publ_section_title
;
Structure prediction by ZEFSAII (Michael W. Deem and Ramdas Pophale) SiO2 
 PCOD9016508
Probable space group: P -1
;
_chemical_formula_sum "Si O2"
_cell_formula_units_Z 16
_cell_length_a 15.312836
_cell_length_b 13.163057
_cell_length_c 13.679153
_cell_angle_alpha 21.691587
_cell_angle_beta 140.935544
_cell_angle_gamma 141.889157
_cell_volume 616.424739
_symmetry_space_group_name_H-M "P -1"
_symmetry_group_IT_number 2
_symmetry_cell_setting 'triclinic'
loop_
_space_group_symop_operation_xyz
x,y,z
-x,-y,-z
loop_
_atom_site_type_symbol
_atom_site_label
_atom_site_fract_x
_atom_site_fract_y
_atom_site_fract_z
Si Si1 0.049456 0.134373 0.570906
Si Si2 0.798090 0.004577 0.604973
Si Si3 0.908134 0.655283 0.171406
Si Si4 0.519658 0.123104 0.516384
Si Si5 0.192167 0.671029 0.091128
Si Si6 0.534245 0.939014 0.899560
Si Si7 0.595271 0.575328 0.612890
Si Si8 0.822081 0.582855 0.372939
O O1 0.084249 0.426091 0.280043
O O2 0.139774 0.220173 0.674587
O O3 0.885756 0.016371 0.570403
O O4 0.111223 0.899899 0.781489
O O5 0.811162 0.333508 0.348699
O O6 0.633772 0.826586 0.635508
O O7 0.883561 0.870851 0.877395
O O8 0.859405 0.729557 0.168873
O O9 0.067981 0.615733 0.347795
O O10 0.546842 0.922899 0.807986
O O11 0.500000 0.000000 0.500000
O O12 0.659437 0.390639 0.403015
O O13 0.261452 0.515367 0.208072
O O14 0.323712 0.848315 0.117031
O O15 0.409901 0.101995 0.661770
O O16 0.489930 0.644790 0.182485
O O17 0.500000 0.500000 0.500000
#
# Coordination Sequence:
#
# PCOD9016508 Si02
#       8
#     2   2   2   2   2   2   2   2
#     4  11  22  37  66  99 133 168 225 285 337 397
#     4  11  25  44  62  94 141 184 227 282 344 398
#     4  10  23  44  65  90 128 186 238 294 330 391
#     4  12  26  47  67 103 145 198 233 273 339 421
#     4  11  20  39  71 101 126 168 225 284 348 407
#     4  11  23  40  66 101 145 174 221 287 349 404
#     4  10  21  42  68 104 138 167 217 300 364 398
#     4  10  22  42  67  96 133 180 242 288 337 394
#
# _framework density 25.956130000000002
#
# number of rings (size 3 to 8) (size 9 to 14) (size 15 to 20)
#    0.000    1.250    2.500    5.250    0.000    8.000 
#    0.000    0.000    0.000    4.500    0.000    0.000 
#    0.000    0.000    0.000    0.000    0.000    0.000 
#
# Total GULP energy -89683.245008 kJ/mol
# GULP energy per Si atom -5605.202813 kJ/mol
# Density = 2.589705 g / cm^3
# Si number density = 25.956130 Si / 1000 Ang^3
#
#
#
# Elastic Constant Matrix: (Units=GPa)
#
#
# Indices 1 2 3 4 5 6 
#
# 1 111.1815 55.7095 18.7027 -10.5972 -1.0686 20.4438
# 2 55.7095 146.9677 11.4674 -1.5568 1.5612 20.0982
# 3 18.7027 11.4674 92.9112 -22.9419 -18.9128 5.0108
# 4 -10.5972 -1.5568 -22.9419 20.9059 -3.2564 5.2599
# 5 -1.0686 1.5612 -18.9128 -3.2564 43.3999 3.8968
# 6 20.4438 20.0982 5.0108 5.2599 3.8968 60.8428
#
#
#
# Elastic Compliance Matrix: (Units=1/GPa)
#
#
# Indices 1 2 3 4 5 6 
#
# 1 0.012415 -0.004184 0.000373 0.007523 0.001504 -0.003567
# 2 -0.004184 0.008597 -0.000924 -0.002357 -0.000893 -0.001097
# 3 0.000373 -0.000924 0.018979 0.023606 0.010452 -0.004094
# 4 0.007523 -0.002357 0.023606 0.083188 0.017879 -0.012030
# 5 0.001504 -0.000893 0.010452 0.017879 0.029411 -0.004500
# 6 -0.003567 -0.001097 -0.004094 -0.012030 -0.004500 0.019662
#
#
# Mechanical properties :
#
#
# Convention : Reuss Voigt Hill
#
# Bulk Modulus (GPa) = 32.76228 58.09106 45.42667
# Shear Modulus (GPa) = 26.05610 42.70845 34.38227
#
# Velocity S-wave (km/s) = 3.17180 4.06076 3.64350
# Velocity P-wave (km/s) = 5.10522 6.66449 5.93628
#
# Compressibility (1/GPa) = 0.03052290
#
# Stress axis : x y z
#
# Youngs Moduli (GPa) = 80.54610 116.32402 52.69010
#
# Poissons Ratio (x) = 0.48667 -0.01967
# Poissons Ratio (y) = 0.33698 0.04866
# Poissons Ratio (z) = -0.03007 0.10743
#
# Static dielectric constant tensor:
#      x y z
#    x 2.066220 -0.043580 0.050900 
#    y -0.043580 2.104970 0.024010 
#    z 0.050900 0.024010 1.983860 
# 
# From -- ./inp_files/534030.got.cif
#   From: 2010.05.17/outbox.cif.g08.bks.cpg/sg2_268_cif.got.tgz:534030.got - 2010.06.03 11:33:40.
