data_PCOD9016540
_publ_section_title
;
Structure prediction by ZEFSAII (Michael W. Deem and Ramdas Pophale) SiO2 
 PCOD9016540
Probable space group: P -1
;
_chemical_formula_sum "Si O2"
_cell_formula_units_Z 16
_cell_length_a 16.698820
_cell_length_b 9.082417
_cell_length_c 13.844535
_cell_angle_alpha 27.264613
_cell_angle_beta 54.636610
_cell_angle_gamma 45.715506
_cell_volume 682.960662
_symmetry_space_group_name_H-M "P -1"
_symmetry_group_IT_number 2
_symmetry_cell_setting 'triclinic'
loop_
_space_group_symop_operation_xyz
x,y,z
-x,-y,-z
loop_
_atom_site_type_symbol
_atom_site_label
_atom_site_fract_x
_atom_site_fract_y
_atom_site_fract_z
Si Si1 0.424120 0.341199 0.422909
Si Si2 0.930565 0.430916 0.386772
Si Si3 0.222204 0.371498 0.453572
Si Si4 0.903863 0.341448 0.807428
Si Si5 0.625556 0.464987 0.234000
Si Si6 0.612720 0.526852 0.421557
Si Si7 0.751602 0.695690 0.865093
Si Si8 0.970331 0.617700 0.843705
O O1 0.303530 0.520692 0.349981
O O2 0.496939 0.549143 0.260806
O O3 0.409043 0.231413 0.607410
O O4 0.500000 0.000000 0.500000
O O5 0.835566 0.695265 0.373361
O O6 0.049960 0.368296 0.381044
O O7 0.929273 0.557316 0.203870
O O8 0.928642 0.051270 0.610289
O O9 0.123425 0.658694 0.285354
O O10 0.295279 0.981878 0.573727
O O11 0.786947 0.484496 0.862014
O O12 0.000000 0.000000 0.000000
O O13 0.641388 0.593197 0.254675
O O14 0.663895 0.637896 0.021935
O O15 0.500000 0.500000 0.500000
O O16 0.705898 0.122511 0.626206
O O17 0.869213 0.544859 0.927157
O O18 0.000000 0.500000 0.000000
#
# Coordination Sequence:
#
# PCOD9016540 Si02
#       8
#     2   2   2   2   2   2   2   2
#     4   9  21  40  67  97 126 166 220 269 329 396
#     4  10  23  40  62  91 130 173 223 265 339 382
#     4  11  21  40  69  91 135 176 213 279 338 379
#     4  11  24  40  65  97 134 174 230 270 323 407
#     4  10  22  41  70  96 129 174 216 271 335 396
#     4  10  21  42  68  91 130 171 215 274 328 391
#     4  11  23  40  66  98 128 173 229 259 330 403
#     4  10  24  40  61  94 136 172 221 278 323 400
#
# _framework density 23.427410999999999
#
# number of rings (size 3 to 8) (size 9 to 14) (size 15 to 20)
#    0.000    1.750    1.250    1.875    5.250    4.000 
#    0.000    0.625   13.750    0.000    0.000    0.000 
#    0.000    0.000    0.000    0.000    0.000    0.000 
#
# Total GULP energy -89325.672538 kJ/mol
# GULP energy per Si atom -5582.854534 kJ/mol
# Density = 2.337409 g / cm^3
# Si number density = 23.427411 Si / 1000 Ang^3
#
#
#
# Elastic Constant Matrix: (Units=GPa)
#
#
# Indices 1 2 3 4 5 6 
#
# 1 107.4560 26.4551 34.5967 24.5233 13.2726 7.3868
# 2 26.4551 138.8550 31.3565 35.3566 13.2807 9.7733
# 3 34.5967 31.3565 76.6129 25.8677 4.5089 0.2116
# 4 24.5233 35.3566 25.8677 44.2019 0.2709 1.7643
# 5 13.2726 13.2807 4.5089 0.2709 34.0578 6.5718
# 6 7.3868 9.7733 0.2116 1.7643 6.5718 36.6163
#
#
#
# Elastic Compliance Matrix: (Units=1/GPa)
#
#
# Indices 1 2 3 4 5 6 
#
# 1 0.012112 0.000199 -0.003763 -0.004591 -0.003966 -0.001542
# 2 0.000199 0.009695 -0.001539 -0.006877 -0.003272 -0.001700
# 3 -0.003763 -0.001539 0.017831 -0.007173 -0.000528 0.001507
# 4 -0.004591 -0.006877 -0.007173 0.034829 0.005103 0.000209
# 5 -0.003966 -0.003272 -0.000528 0.005103 0.033082 -0.004507
# 6 -0.001542 -0.001700 0.001507 0.000209 -0.004507 0.028865
#
#
# Mechanical properties :
#
#
# Convention : Reuss Voigt Hill
#
# Bulk Modulus (GPa) = 33.97697 56.41562 45.19630
# Shear Modulus (GPa) = 31.96290 38.34292 35.15291
#
# Velocity S-wave (km/s) = 3.69770 4.04997 3.87784
# Velocity P-wave (km/s) = 5.72409 6.78255 6.27567
#
# Compressibility (1/GPa) = 0.02943170
#
# Stress axis : x y z
#
# Youngs Moduli (GPa) = 82.56045 103.14626 56.08319
#
# Poissons Ratio (x) = -0.02052 0.21106
# Poissons Ratio (y) = -0.01643 0.08629
# Poissons Ratio (z) = 0.31071 0.15871
#
# Static dielectric constant tensor:
#      x y z
#    x 1.910980 0.008350 -0.011180 
#    y 0.008350 2.049100 -0.054620 
#    z -0.011180 -0.054620 1.913030 
# 
# From -- ./inp_files/461751.got.cif
#   From: 2010.05.17/outbox.cif.g08.bks.cpg/sg2_231_cif.got.tgz:461751.got - 2010.06.03 11:33:40.
