data_PCOD9016042
_publ_section_title
;
Structure prediction by ZEFSAII (Michael W. Deem and Ramdas Pophale) SiO2 
 PCOD9016042
Probable space group: P -1
;
_chemical_formula_sum "Si O2"
_cell_formula_units_Z 12
_cell_length_a 8.117005
_cell_length_b 11.444811
_cell_length_c 8.155459
_cell_angle_alpha 82.876189
_cell_angle_beta 133.947518
_cell_angle_gamma 82.267692
_cell_volume 514.806558
_symmetry_space_group_name_H-M "P -1"
_symmetry_group_IT_number 2
_symmetry_cell_setting 'triclinic'
loop_
_space_group_symop_operation_xyz
x,y,z
-x,-y,-z
loop_
_atom_site_type_symbol
_atom_site_label
_atom_site_fract_x
_atom_site_fract_y
_atom_site_fract_z
Si Si1 0.515154 0.329737 0.551716
Si Si2 0.473145 0.872263 0.643250
Si Si3 0.090096 0.084370 0.172396
Si Si4 0.976049 0.615849 0.584267
Si Si5 0.766646 0.467275 0.903487
Si Si6 0.120724 0.853838 0.654146
O O1 0.583737 0.197780 0.541489
O O2 0.727350 0.356190 0.791990
O O3 0.453346 0.420041 0.334315
O O4 0.278512 0.355240 0.498401
O O5 0.757838 0.847596 0.841807
O O6 0.378970 0.826544 0.750933
O O7 0.305535 0.011058 0.461870
O O8 0.888856 0.150070 0.154674
O O9 0.000000 0.000000 0.000000
O O10 0.002262 0.749630 0.525228
O O11 0.000000 0.500000 0.500000
O O12 0.192381 0.564359 0.873851
O O13 0.000000 0.500000 0.000000
O O14 0.000000 0.000000 0.500000
#
# Coordination Sequence:
#
# PCOD9016042 Si02
#       6
#     2   2   2   2   2   2
#     4  10  21  42  66  92 132 176 223 272 331 401
#     4  10  22  40  66  90 131 173 219 275 331 390
#     4  10  22  42  65  94 128 176 221 272 333 395
#     4  11  24  43  66  97 138 173 221 279 334 395
#     4   9  22  39  63  92 129 172 221 265 335 390
#     4  10  23  44  64  97 136 170 221 275 330 399
#
# _framework density 23.309725
#
# number of rings (size 3 to 8) (size 9 to 14) (size 15 to 20)
#    0.000    2.000    1.667    0.000    9.333    1.333 
#    3.000    0.000    0.000    0.000    0.000    0.000 
#    0.000    0.000    0.000    0.000    0.000    0.000 
#
# Total GULP energy -66873.810660 kJ/mol
# GULP energy per Si atom -5572.817555 kJ/mol
# Density = 2.325667 g / cm^3
# Si number density = 23.309725 Si / 1000 Ang^3
#
#
#
# Elastic Constant Matrix: (Units=GPa)
#
#
# Indices 1 2 3 4 5 6 
#
# 1 187.4238 47.0978 33.7899 29.3540 7.6815 1.7583
# 2 47.0978 135.1120 41.8120 22.2443 -8.7492 13.5391
# 3 33.7899 41.8120 107.4713 22.4479 -3.3567 8.4201
# 4 29.3540 22.2443 22.4479 54.0925 2.5181 -1.1595
# 5 7.6815 -8.7492 -3.3567 2.5181 19.1233 13.0454
# 6 1.7583 13.5391 8.4201 -1.1595 13.0454 34.4183
#
#
#
# Elastic Compliance Matrix: (Units=1/GPa)
#
#
# Indices 1 2 3 4 5 6 
#
# 1 0.006624 -0.002301 -0.001220 -0.001812 -0.005715 0.002970
# 2 -0.002301 0.010867 -0.001837 -0.003174 0.011591 -0.008208
# 3 -0.001220 -0.001837 0.011659 -0.003740 0.004970 -0.004077
# 4 -0.001812 -0.003174 -0.003740 0.022868 -0.008708 0.006327
# 5 -0.005715 0.011591 0.004970 -0.008708 0.088814 -0.039440
# 6 0.002970 -0.008208 -0.004077 0.006327 -0.039440 0.048291
#
#
# Mechanical properties :
#
#
# Convention : Reuss Voigt Hill
#
# Bulk Modulus (GPa) = 54.24464 75.04515 64.64489
# Shear Modulus (GPa) = 24.27386 42.01397 33.14392
#
# Velocity S-wave (km/s) = 3.23052 4.25010 3.77489
# Velocity P-wave (km/s) = 6.10219 7.50661 6.84054
#
# Compressibility (1/GPa) = 0.01843500
#
# Stress axis : x y z
#
# Youngs Moduli (GPa) = 150.97007 92.02014 85.77265
#
# Poissons Ratio (x) = 0.21171 0.10466
# Poissons Ratio (y) = 0.34734 0.15752
# Poissons Ratio (z) = 0.18421 0.16900
#
# Static dielectric constant tensor:
#      x y z
#    x 1.954820 0.030270 0.010270 
#    y 0.030270 2.078100 -0.085540 
#    z 0.010270 -0.085540 1.889220 
# 
# From -- ./inp_files/188089.got.cif
#   From: 2010.05.17/outbox.cif.g08.bks.cpg/sg2_95_cif.got.tgz:188089.got - 2010.06.03 11:33:40.
