data_PCOD9016202
_publ_section_title
;
Structure prediction by ZEFSAII (Michael W. Deem and Ramdas Pophale) SiO2 
 PCOD9016202
Probable space group: P -1
;
_chemical_formula_sum "Si O2"
_cell_formula_units_Z 16
_cell_length_a 11.611039
_cell_length_b 9.224643
_cell_length_c 11.294389
_cell_angle_alpha 71.485846
_cell_angle_beta 93.341588
_cell_angle_gamma 138.514716
_cell_volume 728.157436
_symmetry_space_group_name_H-M "P -1"
_symmetry_group_IT_number 2
_symmetry_cell_setting 'triclinic'
loop_
_space_group_symop_operation_xyz
x,y,z
-x,-y,-z
loop_
_atom_site_type_symbol
_atom_site_label
_atom_site_fract_x
_atom_site_fract_y
_atom_site_fract_z
Si Si1 0.701836 0.985008 0.804515
Si Si2 0.071828 0.017378 0.316668
Si Si3 0.692886 0.369557 0.056413
Si Si4 0.837513 0.248421 0.980187
Si Si5 0.938119 0.690803 0.615400
Si Si6 0.242287 0.756257 0.669715
Si Si7 0.035052 0.932759 0.904880
Si Si8 0.344750 0.778550 0.419554
O O1 0.833327 0.202809 0.851933
O O2 0.672796 0.067462 0.670397
O O3 0.782307 0.912131 0.777692
O O4 0.505764 0.763991 0.908479
O O5 0.113386 0.220423 0.328330
O O6 0.917048 0.908689 0.242299
O O7 0.024323 0.851869 0.460200
O O8 0.751549 0.354092 0.190987
O O9 0.686348 0.218850 0.006481
O O10 0.844090 0.645482 0.955362
O O11 0.000000 0.500000 0.000000
O O12 0.824563 0.063870 0.078508
O O13 0.757077 0.423878 0.631198
O O14 0.083194 0.720125 0.672194
O O15 0.240856 0.665830 0.567846
O O16 0.442262 0.039440 0.605170
O O17 0.000000 0.000000 0.000000
#
# Coordination Sequence:
#
# PCOD9016202 Si02
#       8
#     2   2   2   2   2   2   2   2
#     4  11  22  43  63  93 131 161 212 267 321 376
#     4  11  25  42  60  93 130 169 215 246 321 393
#     4  10  24  39  66  95 125 166 206 271 315 372
#     4  10  22  39  65  92 122 162 216 262 307 378
#     4  11  24  42  69  91 128 174 207 269 319 367
#     4  10  21  42  67 100 124 156 225 263 319 374
#     4  11  23  40  61  92 127 168 209 251 310 393
#     4  10  23  38  71  97 121 166 216 273 312 369
#
# _framework density 21.973269999999999
#
# number of rings (size 3 to 8) (size 9 to 14) (size 15 to 20)
#    0.000    1.500    2.500    1.500    8.750    0.500 
#    0.000    3.750    0.000    0.000    0.000    0.000 
#    0.000    0.000    0.000    0.000    0.000    0.000 
#
# Total GULP energy -89258.902958 kJ/mol
# GULP energy per Si atom -5578.681435 kJ/mol
# Density = 2.192326 g / cm^3
# Si number density = 21.973270 Si / 1000 Ang^3
#
#
#
# Elastic Constant Matrix: (Units=GPa)
#
#
# Indices 1 2 3 4 5 6 
#
# 1 121.8813 50.4090 25.5860 8.1841 -7.0657 -9.7183
# 2 50.4090 64.4216 16.5786 16.1657 2.1023 7.9833
# 3 25.5860 16.5786 81.1790 9.5599 0.8049 -6.2906
# 4 8.1841 16.1657 9.5599 28.8480 -4.7906 3.4679
# 5 -7.0657 2.1023 0.8049 -4.7906 36.7080 0.9055
# 6 -9.7183 7.9833 -6.2906 3.4679 0.9055 15.0122
#
#
#
# Elastic Compliance Matrix: (Units=1/GPa)
#
#
# Indices 1 2 3 4 5 6 
#
# 1 0.016235 -0.015478 -0.000997 0.002970 0.003992 0.017396
# 2 -0.015478 0.034857 -0.002837 -0.011967 -0.005818 -0.026630
# 3 -0.000997 -0.002837 0.014299 -0.003984 -0.001056 0.007839
# 4 0.002970 -0.011967 -0.003984 0.043494 0.007116 -0.003860
# 5 0.003992 -0.005818 -0.001056 0.007116 0.029250 0.001827
# 6 0.017396 -0.026630 0.007839 -0.003860 0.001827 0.096102
#
#
# Mechanical properties :
#
#
# Convention : Reuss Voigt Hill
#
# Bulk Modulus (GPa) = 37.35998 50.29213 43.82606
# Shear Modulus (GPa) = 17.74414 27.77418 22.75916
#
# Velocity S-wave (km/s) = 2.84480 3.55913 3.22182
# Velocity P-wave (km/s) = 5.27540 6.31090 5.81624
#
# Compressibility (1/GPa) = 0.02676661
#
# Stress axis : x y z
#
# Youngs Moduli (GPa) = 61.59638 28.68864 69.93420
#
# Poissons Ratio (x) = 0.44405 0.06973
# Poissons Ratio (y) = 0.95340 0.19839
# Poissons Ratio (z) = 0.06142 0.08139
#
# Static dielectric constant tensor:
#      x y z
#    x 1.841910 0.042270 -0.020510 
#    y 0.042270 1.804810 0.002550 
#    z -0.020510 0.002550 1.870200 
# 
# From -- ./inp_files/417143.got.cif
#   From: 2010.05.17/outbox.cif.g08.bks.cpg/sg2_209_cif.got.tgz:417143.got - 2010.06.03 11:33:40.
