data_PCOD9016385
_publ_section_title
;
Structure prediction by ZEFSAII (Michael W. Deem and Ramdas Pophale) SiO2 
 PCOD9016385
Probable space group: P -1
;
_chemical_formula_sum "Si O2"
_cell_formula_units_Z 16
_cell_length_a 17.077647
_cell_length_b 9.633576
_cell_length_c 19.158755
_cell_angle_alpha 158.193347
_cell_angle_beta 147.293860
_cell_angle_gamma 36.903959
_cell_volume 629.998773
_symmetry_space_group_name_H-M "P -1"
_symmetry_group_IT_number 2
_symmetry_cell_setting 'triclinic'
loop_
_space_group_symop_operation_xyz
x,y,z
-x,-y,-z
loop_
_atom_site_type_symbol
_atom_site_label
_atom_site_fract_x
_atom_site_fract_y
_atom_site_fract_z
Si Si1 0.326084 0.099194 0.410613
Si Si2 0.452860 0.068867 0.184025
Si Si3 0.381624 0.885425 0.804883
Si Si4 0.122929 0.959233 0.310178
Si Si5 0.120394 0.222737 0.042280
Si Si6 0.128207 0.407696 0.289224
Si Si7 0.336506 0.316049 0.740039
Si Si8 0.174405 0.271799 0.732937
O O1 0.303535 0.545299 0.620710
O O2 0.246652 0.134507 0.292386
O O3 0.500000 0.000000 0.500000
O O4 0.237613 0.861657 0.287069
O O5 0.431909 0.646186 0.942824
O O6 0.550771 0.025814 0.307256
O O7 0.532869 0.255540 0.267918
O O8 0.289963 0.215967 0.147277
O O9 0.266527 0.221630 0.850083
O O10 0.500000 0.000000 0.000000
O O11 0.070899 0.643569 0.175205
O O12 0.216911 0.212183 0.547272
O O13 0.973429 0.061497 0.203107
O O14 0.097234 0.220598 0.105857
O O15 0.982931 0.524876 0.278546
O O16 0.172263 0.830271 0.504140
O O17 0.258233 0.449855 0.816380
#
# Coordination Sequence:
#
# PCOD9016385 Si02
#       8
#     2   2   2   2   2   2   2   2
#     4  11  25  42  64 100 133 175 225 278 342 398
#     4  10  23  40  68 101 128 177 225 277 338 396
#     4  10  21  42  67  96 130 177 227 277 335 395
#     4  11  25  43  64 101 137 176 222 275 344 398
#     4  11  25  44  66 101 139 178 221 277 348 403
#     4  10  22  43  67  95 133 181 223 275 340 402
#     4  10  21  43  67  97 130 174 229 276 327 403
#     4   9  20  41  69  93 127 181 231 268 328 411
#
# _framework density 25.396877
#
# number of rings (size 3 to 8) (size 9 to 14) (size 15 to 20)
#    0.000    1.750    1.250    1.500    3.500    4.500 
#    2.250    0.000    0.000    0.000    0.000    0.000 
#    0.000    0.000    0.000    0.000    0.000    0.000 
#
# Total GULP energy -89383.217300 kJ/mol
# GULP energy per Si atom -5586.451081 kJ/mol
# Density = 2.533907 g / cm^3
# Si number density = 25.396877 Si / 1000 Ang^3
#
#
#
# Elastic Constant Matrix: (Units=GPa)
#
#
# Indices 1 2 3 4 5 6 
#
# 1 52.4686 20.6290 14.1704 -18.4565 8.4662 0.2287
# 2 20.6290 115.6662 43.9425 -37.0371 -11.5712 4.7924
# 3 14.1704 43.9425 134.0674 -35.9920 -2.7950 12.8945
# 4 -18.4565 -37.0371 -35.9920 51.0691 8.1713 12.0698
# 5 8.4662 -11.5712 -2.7950 8.1713 37.5279 -7.1653
# 6 0.2287 4.7924 12.8945 12.0698 -7.1653 45.7443
#
#
#
# Elastic Compliance Matrix: (Units=1/GPa)
#
#
# Indices 1 2 3 4 5 6 
#
# 1 0.024976 -0.002188 0.001260 0.010936 -0.009479 -0.004621
# 2 -0.002188 0.012256 -0.001573 0.007216 0.002126 -0.002401
# 3 0.001260 -0.001573 0.010616 0.008573 -0.002905 -0.005551
# 4 0.010936 0.007216 0.008573 0.040328 -0.011373 -0.015649
# 5 -0.009479 0.002126 -0.002905 -0.011373 0.033395 0.008875
# 6 -0.004621 -0.002401 -0.005551 -0.015649 0.008875 0.029219
#
#
# Mechanical properties :
#
#
# Convention : Reuss Voigt Hill
#
# Bulk Modulus (GPa) = 23.33937 51.07620 37.20778
# Shear Modulus (GPa) = 29.39872 41.76562 35.58217
#
# Velocity S-wave (km/s) = 3.40600 4.05967 3.74711
# Velocity P-wave (km/s) = 4.96766 6.49071 5.77958
#
# Compressibility (1/GPa) = 0.04284605
#
# Stress axis : x y z
#
# Youngs Moduli (GPa) = 40.03907 81.58997 94.19378
#
# Poissons Ratio (x) = 0.17852 -0.11870
# Poissons Ratio (y) = 0.08761 0.14821
# Poissons Ratio (z) = -0.05046 0.12837
#
# Static dielectric constant tensor:
#      x y z
#    x 1.921800 -0.013760 -0.013860 
#    y -0.013760 2.122430 0.014030 
#    z -0.013860 0.014030 2.033360 
# 
# From -- ./inp_files/332257.got.cif
#   From: 2010.05.17/outbox.cif.g08.bks.cpg/sg2_167_cif.got.tgz:332257.got - 2010.06.03 11:33:40.
