data_PCOD9016116
_publ_section_title
;
Structure prediction by ZEFSAII (Michael W. Deem and Ramdas Pophale) SiO2 
 PCOD9016116
Probable space group: P -1
;
_chemical_formula_sum "Si O2"
_cell_formula_units_Z 16
_cell_length_a 14.281517
_cell_length_b 13.264660
_cell_length_c 11.309837
_cell_angle_alpha 33.092275
_cell_angle_beta 51.074568
_cell_angle_gamma 38.354294
_cell_volume 723.280296
_symmetry_space_group_name_H-M "P -1"
_symmetry_group_IT_number 2
_symmetry_cell_setting 'triclinic'
loop_
_space_group_symop_operation_xyz
x,y,z
-x,-y,-z
loop_
_atom_site_type_symbol
_atom_site_label
_atom_site_fract_x
_atom_site_fract_y
_atom_site_fract_z
Si Si1 0.644836 0.565362 0.235206
Si Si2 0.385319 0.697478 0.991198
Si Si3 0.398485 0.508310 0.414828
Si Si4 0.615619 0.787774 0.700280
Si Si5 0.650686 0.957594 0.742088
Si Si6 0.930705 0.008309 0.190099
Si Si7 0.913646 0.392208 0.708451
Si Si8 0.134754 0.921856 0.554900
O O1 0.486103 0.607820 0.298621
O O2 0.703224 0.459614 0.424924
O O3 0.753672 0.358351 0.261197
O O4 0.635202 0.790925 0.998180
O O5 0.496584 0.758226 0.885040
O O6 0.228522 0.880809 0.864485
O O7 0.500000 0.500000 0.000000
O O8 0.353190 0.608166 0.220905
O O9 0.507487 0.228283 0.588473
O O10 0.679546 0.856139 0.686123
O O11 0.750507 0.587611 0.705426
O O12 0.500000 0.000000 0.500000
O O13 0.783008 0.971515 0.662171
O O14 0.906715 0.005518 0.348870
O O15 0.976768 0.178813 0.960336
O O16 0.056487 0.753657 0.290537
O O17 0.000000 0.500000 0.500000
O O18 0.000000 0.000000 0.500000
#
# Coordination Sequence:
#
# PCOD9016116 Si02
#       8
#     2   2   2   2   2   2   2   2
#     4  10  21  42  66  95 137 175 222 284 336 403
#     4  12  21  41  70 105 138 178 226 282 354 416
#     4  10  22  39  66 101 138 171 219 280 344 410
#     4  12  23  40  70 106 140 182 230 284 353 421
#     4  11  22  41  68  99 134 176 228 283 345 408
#     4  11  25  45  70  98 144 181 227 290 351 411
#     4  11  24  43  66  99 142 181 223 281 350 413
#     4  11  25  46  68  93 129 187 238 278 338 407
#
# _framework density 22.121438000000001
#
# number of rings (size 3 to 8) (size 9 to 14) (size 15 to 20)
#    0.000    1.000    2.500    5.625    0.000    2.500 
#    0.000    1.250    0.000    0.000    0.000    0.000 
#    0.000    0.000    0.000    0.000    0.000    0.000 
#
# Total GULP energy -89249.727963 kJ/mol
# GULP energy per Si atom -5578.107998 kJ/mol
# Density = 2.207109 g / cm^3
# Si number density = 22.121438 Si / 1000 Ang^3
#
#
#
# Elastic Constant Matrix: (Units=GPa)
#
#
# Indices 1 2 3 4 5 6 
#
# 1 109.5635 42.0859 51.7539 -1.0241 -3.9144 -8.2346
# 2 42.0859 131.5957 49.2459 6.9000 -0.0123 9.7473
# 3 51.7539 49.2459 151.8010 5.5493 -20.6392 -0.3070
# 4 -1.0241 6.9000 5.5493 27.5146 14.6291 0.1958
# 5 -3.9144 -0.0123 -20.6392 14.6291 43.7957 10.0260
# 6 -8.2346 9.7473 -0.3070 0.1958 10.0260 31.5336
#
#
#
# Elastic Compliance Matrix: (Units=1/GPa)
#
#
# Indices 1 2 3 4 5 6 
#
# 1 0.012409 -0.003133 -0.003745 0.003572 -0.003020 0.005111
# 2 -0.003133 0.009752 -0.001942 -0.002427 0.000535 -0.004007
# 3 -0.003745 -0.001942 0.009528 -0.004915 0.006315 -0.002262
# 4 0.003572 -0.002427 -0.004915 0.048664 -0.020015 0.007697
# 5 -0.003020 0.000535 0.006315 -0.020015 0.034944 -0.011879
# 6 0.005111 -0.004007 -0.002262 0.007697 -0.011879 0.037992
#
#
# Mechanical properties :
#
#
# Convention : Reuss Voigt Hill
#
# Bulk Modulus (GPa) = 71.18184 75.45905 73.32045
# Shear Modulus (GPa) = 28.47154 37.22709 32.84932
#
# Velocity S-wave (km/s) = 3.59145 4.10671 3.85769
# Velocity P-wave (km/s) = 7.03176 7.52808 7.28415
#
# Compressibility (1/GPa) = 0.01404853
#
# Stress axis : x y z
#
# Youngs Moduli (GPa) = 80.58434 102.54425 104.95299
#
# Poissons Ratio (x) = 0.32130 0.39306
# Poissons Ratio (y) = 0.25249 0.20382
# Poissons Ratio (z) = 0.30180 0.19914
#
# Static dielectric constant tensor:
#      x y z
#    x 1.829680 -0.106390 -0.184670 
#    y -0.106390 1.750980 -0.099910 
#    z -0.184670 -0.099910 1.714020 
# 
# From -- ./inp_files/454340.got.cif
#   From: 2010.05.17/outbox.cif.g08.bks.cpg/sg2_228_cif.got.tgz:454340.got - 2010.06.03 11:33:40.
