data_PCOD9016234
_publ_section_title
;
Structure prediction by ZEFSAII (Michael W. Deem and Ramdas Pophale) SiO2 
 PCOD9016234
Probable space group: P -1
;
_chemical_formula_sum "Si O2"
_cell_formula_units_Z 15
_cell_length_a 19.138954
_cell_length_b 11.741686
_cell_length_c 5.025603
_cell_angle_alpha 112.073609
_cell_angle_beta 71.671938
_cell_angle_gamma 147.712103
_cell_volume 559.049382
_symmetry_space_group_name_H-M "P -1"
_symmetry_group_IT_number 2
_symmetry_cell_setting 'triclinic'
loop_
_space_group_symop_operation_xyz
x,y,z
-x,-y,-z
loop_
_atom_site_type_symbol
_atom_site_label
_atom_site_fract_x
_atom_site_fract_y
_atom_site_fract_z
Si Si1 0.856537 0.527839 0.726687
Si Si2 0.250807 0.031471 0.626384
Si Si3 0.113735 0.651474 0.781992
Si Si4 0.423016 0.651064 0.947668
Si Si5 0.750708 0.593144 0.561235
Si Si6 0.677550 0.122123 0.892547
Si Si7 0.926827 0.020170 0.003827
Si Si8 0.500000 0.500000 0.500000
O O1 0.929748 0.503749 0.532294
O O2 0.835431 0.598667 0.583687
O O3 0.719824 0.291487 0.800942
O O4 0.953670 0.726383 0.995916
O O5 0.151859 0.011088 0.704499
O O6 0.391222 0.287259 0.653279
O O7 0.187236 0.880719 0.831978
O O8 0.265080 0.926221 0.343845
O O9 0.235373 0.740565 0.831487
O O10 0.000000 0.500000 0.000000
O O11 0.299200 0.481726 0.745336
O O12 0.492328 0.617859 0.775714
O O13 0.528635 0.897525 0.950299
O O14 0.376034 0.587819 0.251615
O O15 0.823667 0.822602 0.742741
O O16 0.000000 0.000000 0.000000
#
# Coordination Sequence:
#
# PCOD9016234 Si02
#       8
#     2   2   2   2   2   2   2   1
#     4  10  24  45  68 102 143 187 242 301 365 449
#     4  10  21  42  67 102 143 182 249 291 374 426
#     4  11  23  42  72 106 142 189 243 308 371 435
#     4  11  26  45  72 105 145 194 244 302 365 440
#     4  11  26  47  71 106 146 192 244 298 375 440
#     4  10  24  42  69 104 139 191 238 303 367 433
#     4  10  21  44  68  98 141 188 239 302 366 437
#     4  10  22  44  70 100 146 188 244 298 356 436
#
# _framework density 26.831263
#
# number of rings (size 3 to 8) (size 9 to 14) (size 15 to 20)
#    0.000    1.600    1.333    1.600    7.467    5.867 
#    4.800    2.000    0.000    0.000    0.000    0.000 
#    0.000    0.000    0.000    0.000    0.000    0.000 
#
# Total GULP energy -83590.598319 kJ/mol
# GULP energy per Si atom -5572.706555 kJ/mol
# Density = 2.677019 g / cm^3
# Si number density = 26.831263 Si / 1000 Ang^3
#
#
#
# Elastic Constant Matrix: (Units=GPa)
#
#
# Indices 1 2 3 4 5 6 
#
# 1 63.5942 26.8600 25.9274 -7.2037 -26.5780 -6.8794
# 2 26.8600 243.1217 58.3145 0.6254 -3.6631 -23.5000
# 3 25.9274 58.3145 55.6202 -12.1056 -17.2112 -9.5996
# 4 -7.2037 0.6254 -12.1056 47.3837 -2.0043 -8.2217
# 5 -26.5780 -3.6631 -17.2112 -2.0043 43.9988 -0.5502
# 6 -6.8794 -23.5000 -9.5996 -8.2217 -0.5502 43.1771
#
#
#
# Elastic Compliance Matrix: (Units=1/GPa)
#
#
# Indices 1 2 3 4 5 6 
#
# 1 0.024271 -0.001001 -0.005017 0.003490 0.012812 0.003035
# 2 -0.001001 0.005944 -0.006871 -0.001908 -0.002870 0.001148
# 3 -0.005017 -0.006871 0.033397 0.009104 0.009936 0.004746
# 4 0.003490 -0.001908 0.009104 0.025393 0.006748 0.006463
# 5 0.012812 -0.002870 0.009936 0.006748 0.034478 0.004413
# 6 0.003035 0.001148 0.004746 0.006463 0.004413 0.026611
#
#
# Mechanical properties :
#
#
# Convention : Reuss Voigt Hill
#
# Bulk Modulus (GPa) = 26.43044 64.94888 45.68966
# Shear Modulus (GPa) = 26.52766 43.66087 35.09426
#
# Velocity S-wave (km/s) = 3.14775 4.03828 3.62050
# Velocity P-wave (km/s) = 4.80448 6.78252 5.87732
#
# Compressibility (1/GPa) = 0.03783517
#
# Stress axis : x y z
#
# Youngs Moduli (GPa) = 41.20139 168.22285 29.94304
#
# Poissons Ratio (x) = 0.16835 0.15021
# Poissons Ratio (y) = 0.04123 0.20574
# Poissons Ratio (z) = 0.20669 1.15589
#
# Static dielectric constant tensor:
#      x y z
#    x 2.182110 0.046710 0.039530 
#    y 0.046710 2.055730 0.042670 
#    z 0.039530 0.042670 2.134270 
# 
# From -- ./inp_files/118315.got.cif
#   From: 2010.05.17/outbox.cif.g08.bks.cpg/sg2_60_cif.got.tgz:118315.got - 2010.06.03 11:33:40.
