data_PCOD9016441
_publ_section_title
;
Structure prediction by ZEFSAII (Michael W. Deem and Ramdas Pophale) SiO2 
 PCOD9016441
Probable space group: P -1
;
_chemical_formula_sum "Si O2"
_cell_formula_units_Z 14
_cell_length_a 5.234914
_cell_length_b 13.351582
_cell_length_c 8.846264
_cell_angle_alpha 106.770724
_cell_angle_beta 90.972003
_cell_angle_gamma 91.527109
_cell_volume 591.599259
_symmetry_space_group_name_H-M "P -1"
_symmetry_group_IT_number 2
_symmetry_cell_setting 'triclinic'
loop_
_space_group_symop_operation_xyz
x,y,z
-x,-y,-z
loop_
_atom_site_type_symbol
_atom_site_label
_atom_site_fract_x
_atom_site_fract_y
_atom_site_fract_z
Si Si1 0.897071 0.170074 0.082889
Si Si2 0.386971 0.689872 0.057587
Si Si3 0.118730 0.382061 0.099844
Si Si4 0.269019 0.103106 0.508739
Si Si5 0.913213 0.987775 0.234897
Si Si6 0.764385 0.234931 0.580121
Si Si7 0.750212 0.464619 0.572290
O O1 0.068964 0.276449 0.156423
O O2 0.848982 0.092018 0.186664
O O3 0.645138 0.217621 0.026126
O O4 0.029997 0.101537 0.924667
O O5 0.161934 0.606204 0.969288
O O6 0.304679 0.734789 0.235789
O O7 0.668056 0.647094 0.032681
O O8 0.223970 0.477646 0.241235
O O9 0.276987 0.054736 0.655992
O O10 0.535712 0.156996 0.493529
O O11 0.040997 0.185785 0.550974
O O12 0.165153 0.018878 0.349511
O O13 0.750253 0.340857 0.533457
O O14 0.500000 0.500000 0.500000
O O15 0.000000 0.500000 0.500000
#
# Coordination Sequence:
#
# PCOD9016441 Si02
#       7
#     2   2   2   2   2   2   2
#     4   9  21  42  66 100 135 178 228 281 325 396
#     4  10  21  42  67  98 135 173 222 274 341 386
#     4  10  23  43  68  96 137 167 228 278 333 404
#     4  11  25  44  65 103 138 183 228 271 346 392
#     4  10  21  43  67  99 136 187 226 278 329 406
#     4  12  25  45  71  96 142 174 221 293 326 409
#     4  12  28  46  71 103 131 178 225 272 353 413
#
# _framework density 23.664664999999999
#
# number of rings (size 3 to 8) (size 9 to 14) (size 15 to 20)
#    0.857    0.571    1.429    3.429    4.000    3.429 
#    5.143    2.143    0.000    0.000    0.000    0.000 
#    0.000    0.000    0.000    0.000    0.000    0.000 
#
# Total GULP energy -78361.397203 kJ/mol
# GULP energy per Si atom -5597.242657 kJ/mol
# Density = 2.361080 g / cm^3
# Si number density = 23.664665 Si / 1000 Ang^3
#
#
#
# Elastic Constant Matrix: (Units=GPa)
#
#
# Indices 1 2 3 4 5 6 
#
# 1 116.4194 57.8153 21.1269 -10.6310 -16.3060 -6.9211
# 2 57.8153 127.9012 20.5178 -13.2739 -4.8682 0.9530
# 3 21.1269 20.5178 77.7615 -2.0186 -1.1862 2.8975
# 4 -10.6310 -13.2739 -2.0186 40.3077 -2.3427 5.8917
# 5 -16.3060 -4.8682 -1.1862 -2.3427 20.8956 6.1789
# 6 -6.9211 0.9530 2.8975 5.8917 6.1789 30.9733
#
#
#
# Elastic Compliance Matrix: (Units=1/GPa)
#
#
# Indices 1 2 3 4 5 6 
#
# 1 0.012895 -0.004970 -0.002049 0.002004 0.008684 0.001113
# 2 -0.004970 0.010493 -0.001312 0.002265 -0.000786 -0.001585
# 3 -0.002049 -0.001312 0.013808 -0.000092 -0.000671 -0.001558
# 4 0.002004 0.002265 -0.000092 0.027395 0.006997 -0.006220
# 5 0.008684 -0.000786 -0.000671 0.006997 0.058438 -0.010961
# 6 0.001113 -0.001585 -0.001558 -0.006220 -0.010961 0.036099
#
#
# Mechanical properties :
#
#
# Convention : Reuss Voigt Hill
#
# Bulk Modulus (GPa) = 48.70207 57.88915 53.29561
# Shear Modulus (GPa) = 27.37700 33.27679 30.32690
#
# Velocity S-wave (km/s) = 3.40497 3.75398 3.58373
# Velocity P-wave (km/s) = 6.00693 6.58067 6.30033
#
# Compressibility (1/GPa) = 0.02053301
#
# Stress axis : x y z
#
# Youngs Moduli (GPa) = 77.54863 95.30491 72.42053
#
# Poissons Ratio (x) = 0.47367 0.14839
# Poissons Ratio (y) = 0.38542 0.09504
# Poissons Ratio (z) = 0.15890 0.12508
#
# Static dielectric constant tensor:
#      x y z
#    x 1.846310 -0.007070 0.002280 
#    y -0.007070 1.927560 0.002980 
#    z 0.002280 0.002980 1.909650 
# 
# From -- ./inp_files/131775.got.cif
#   From: 2010.05.17/outbox.cif.g08.bks.cpg/sg2_66_cif.got.tgz:131775.got - 2010.06.03 11:33:40.
