data_PCOD9016051
_publ_section_title
;
Structure prediction by ZEFSAII (Michael W. Deem and Ramdas Pophale) SiO2 
 PCOD9016051
Probable space group: P -1
;
_chemical_formula_sum "Si O2"
_cell_formula_units_Z 12
_cell_length_a 14.280609
_cell_length_b 13.211612
_cell_length_c 8.144310
_cell_angle_alpha 67.010259
_cell_angle_beta 70.202098
_cell_angle_gamma 20.703871
_cell_volume 498.416333
_symmetry_space_group_name_H-M "P -1"
_symmetry_group_IT_number 2
_symmetry_cell_setting 'triclinic'
loop_
_space_group_symop_operation_xyz
x,y,z
-x,-y,-z
loop_
_atom_site_type_symbol
_atom_site_label
_atom_site_fract_x
_atom_site_fract_y
_atom_site_fract_z
Si Si1 0.363729 0.071802 0.221316
Si Si2 0.162982 0.250095 0.897862
Si Si3 0.835541 0.352706 0.510285
Si Si4 0.127183 0.248975 0.569624
Si Si5 0.358797 0.759673 0.365702
Si Si6 0.261541 0.739570 0.117711
O O1 0.347219 0.036228 0.433074
O O2 0.142694 0.397691 0.145077
O O3 0.648125 0.835237 0.174256
O O4 0.248941 0.117472 0.108614
O O5 0.215448 0.128800 0.777519
O O6 0.593326 0.605488 0.365638
O O7 0.744058 0.362426 0.699651
O O8 0.923378 0.372153 0.537532
O O9 0.098169 0.042669 0.453184
O O10 0.000000 0.500000 0.500000
O O11 0.500000 0.500000 0.500000
O O12 0.278601 0.822629 0.184631
O O13 0.500000 0.500000 0.000000
O O14 0.000000 0.000000 0.000000
#
# Coordination Sequence:
#
# PCOD9016051 Si02
#       6
#     2   2   2   2   2   2
#     4   9  18  34  56  78 113 158 211 256 310 340
#     4   9  18  34  55  81 110 159 209 262 295 353
#     4  11  23  40  66  97 130 170 222 254 328 402
#     4  10  22  40  64  90 130 177 218 257 310 374
#     4  10  21  42  66  93 126 168 206 274 326 395
#     4  11  21  40  68  97 128 161 206 276 338 385
#
# _framework density 24.076257999999999
#
# number of rings (size 3 to 8) (size 9 to 14) (size 15 to 20)
#    0.000    2.000    0.000    5.500    0.000    5.333 
#    6.000    0.000    3.667    0.000    0.000    0.000 
#    0.000    0.000    0.000    0.000    0.000    0.000 
#
# Total GULP energy -67097.168793 kJ/mol
# GULP energy per Si atom -5591.430733 kJ/mol
# Density = 2.402146 g / cm^3
# Si number density = 24.076258 Si / 1000 Ang^3
#
#
#
# Elastic Constant Matrix: (Units=GPa)
#
#
# Indices 1 2 3 4 5 6 
#
# 1 118.8561 40.1622 46.4989 12.8331 41.2238 -12.6722
# 2 40.1622 147.7747 71.5628 16.7580 10.3482 -19.9254
# 3 46.4989 71.5628 182.4360 15.6290 46.6885 -0.4559
# 4 12.8331 16.7580 15.6290 49.3821 -6.4051 -1.8419
# 5 41.2238 10.3482 46.6885 -6.4051 50.2408 -4.1099
# 6 -12.6722 -19.9254 -0.4559 -1.8419 -4.1099 33.3683
#
#
#
# Elastic Compliance Matrix: (Units=1/GPa)
#
#
# Indices 1 2 3 4 5 6 
#
# 1 0.013813 -0.002614 0.001006 -0.004524 -0.012147 0.001953
# 2 -0.002614 0.010091 -0.004387 -0.000565 0.004521 0.005499
# 3 0.001006 -0.004387 0.009668 -0.003207 -0.009599 -0.003465
# 4 -0.004524 -0.000565 -0.003207 0.023932 0.009895 0.000441
# 5 -0.012147 0.004521 -0.009599 0.009895 0.039396 0.003354
# 6 0.001953 0.005499 -0.003465 0.000441 0.003354 0.034384
#
#
# Mechanical properties :
#
#
# Convention : Reuss Voigt Hill
#
# Bulk Modulus (GPa) = 46.33510 85.05719 65.69615
# Shear Modulus (GPa) = 33.22945 45.98777 39.60861
#
# Velocity S-wave (km/s) = 3.71910 4.37520 4.06042
# Velocity P-wave (km/s) = 6.14241 7.80564 7.02343
#
# Compressibility (1/GPa) = 0.02158191
#
# Stress axis : x y z
#
# Youngs Moduli (GPa) = 72.39485 99.09940 103.43026
#
# Poissons Ratio (x) = 0.25909 -0.10405
# Poissons Ratio (y) = 0.18927 0.45373
# Poissons Ratio (z) = -0.07283 0.43473
#
# Static dielectric constant tensor:
#      x y z
#    x 2.016390 0.052180 -0.012920 
#    y 0.052180 1.882490 -0.038870 
#    z -0.012920 -0.038870 2.003160 
# 
# From -- ./inp_files/313344.got.cif
#   From: 2010.05.17/outbox.cif.g08.bks.cpg/sg2_157_cif.got.tgz:313344.got - 2010.06.03 11:33:40.
