data_PCOD9016261
_publ_section_title
;
Structure prediction by ZEFSAII (Michael W. Deem and Ramdas Pophale) SiO2 
 PCOD9016261
Probable space group: P -1
;
_chemical_formula_sum "Si O2"
_cell_formula_units_Z 12
_cell_length_a 13.039568
_cell_length_b 8.767169
_cell_length_c 8.228829
_cell_angle_alpha 126.245529
_cell_angle_beta 49.695293
_cell_angle_gamma 107.080151
_cell_volume 572.528691
_symmetry_space_group_name_H-M "P -1"
_symmetry_group_IT_number 2
_symmetry_cell_setting 'triclinic'
loop_
_space_group_symop_operation_xyz
x,y,z
-x,-y,-z
loop_
_atom_site_type_symbol
_atom_site_label
_atom_site_fract_x
_atom_site_fract_y
_atom_site_fract_z
Si Si1 0.700970 0.496729 0.087986
Si Si2 0.625531 0.883037 0.205223
Si Si3 0.444554 0.395414 0.146523
Si Si4 0.982902 0.347836 0.567773
Si Si5 0.181387 0.529927 0.699935
Si Si6 0.096904 0.966119 0.035125
O O1 0.675308 0.694856 0.141597
O O2 0.564713 0.398295 0.155592
O O3 0.748593 0.535945 0.244308
O O4 0.825725 0.369415 0.790044
O O5 0.500000 0.000000 0.500000
O O6 0.584168 0.806506 0.023417
O O7 0.749987 0.000132 0.138402
O O8 0.304271 0.508644 0.429292
O O9 0.500000 0.500000 0.000000
O O10 0.000000 0.500000 0.500000
O O11 0.070549 0.409863 0.666531
O O12 0.038931 0.133384 0.323216
O O13 0.109067 0.746325 0.933673
O O14 0.000000 0.000000 0.000000
#
# Coordination Sequence:
#
# PCOD9016261 Si02
#       6
#     2   2   2   2   2   2
#     4  11  24  42  66  94 132 169 203 277 324 361
#     4  11  23  42  66  96 124 171 223 255 310 392
#     4  10  21  42  67  89 126 172 211 258 314 383
#     4  12  22  44  67  94 130 170 217 256 316 387
#     4  12  24  44  65  98 133 161 214 271 323 365
#     4  12  24  39  70  95 124 173 218 257 309 392
#
# _framework density 20.959645999999999
#
# number of rings (size 3 to 8) (size 9 to 14) (size 15 to 20)
#    0.000    0.667    5.000    4.000    2.333    0.667 
#    3.000    1.667    0.000    0.000    0.000    0.000 
#    0.000    0.000    0.000    0.000    0.000    0.000 
#
# Total GULP energy -67114.317243 kJ/mol
# GULP energy per Si atom -5592.859770 kJ/mol
# Density = 2.091194 g / cm^3
# Si number density = 20.959646 Si / 1000 Ang^3
#
#
#
# Elastic Constant Matrix: (Units=GPa)
#
#
# Indices 1 2 3 4 5 6 
#
# 1 143.8151 25.2371 17.2413 21.1876 10.8732 19.9810
# 2 25.2371 30.3417 30.3280 13.6059 7.5570 18.0311
# 3 17.2413 30.3280 154.6060 26.9463 -16.9731 9.8049
# 4 21.1876 13.6059 26.9463 34.1940 11.4477 5.8282
# 5 10.8732 7.5570 -16.9731 11.4477 40.6905 -4.5471
# 6 19.9810 18.0311 9.8049 5.8282 -4.5471 32.7147
#
#
#
# Elastic Compliance Matrix: (Units=1/GPa)
#
#
# Indices 1 2 3 4 5 6 
#
# 1 0.008564 -0.004904 0.000699 -0.003410 -0.000370 -0.002181
# 2 -0.004904 0.085597 -0.015795 -0.002947 -0.025085 -0.042410
# 3 0.000699 -0.015795 0.011613 -0.008230 0.010774 0.007762
# 4 -0.003410 -0.002947 -0.008230 0.044691 -0.014980 -0.003870
# 5 -0.000370 -0.025085 0.010774 -0.014980 0.040174 0.019076
# 6 -0.002181 -0.042410 0.007762 -0.003870 0.019076 0.056289
#
#
# Mechanical properties :
#
#
# Convention : Reuss Voigt Hill
#
# Bulk Modulus (GPa) = 15.20357 52.70841 33.95599
# Shear Modulus (GPa) = 16.18898 38.58360 27.38629
#
# Velocity S-wave (km/s) = 2.78220 4.29517 3.61864
# Velocity P-wave (km/s) = 4.19408 7.05692 5.80476
#
# Compressibility (1/GPa) = 0.06577404
#
# Stress axis : x y z
#
# Youngs Moduli (GPa) = 116.77411 11.68263 86.10763
#
# Poissons Ratio (x) = 0.05729 -0.06019
# Poissons Ratio (y) = 0.57269 1.36005
# Poissons Ratio (z) = -0.08163 0.18452
#
# Static dielectric constant tensor:
#      x y z
#    x 1.785820 0.001710 0.020910 
#    y 0.001710 1.757750 -0.006070 
#    z 0.020910 -0.006070 1.757050 
# 
# From -- ./inp_files/148780.got.cif
#   From: 2010.05.17/outbox.cif.g08.bks.cpg/sg2_75_cif.got.tgz:148780.got - 2010.06.03 11:33:40.
