data_PCOD9016915
_publ_section_title
;
Structure prediction by ZEFSAII (Michael W. Deem and Ramdas Pophale) SiO2 
 PCOD9016915
Probable space group: P -1
;
_chemical_formula_sum "Si O2"
_cell_formula_units_Z 10
_cell_length_a 10.292759
_cell_length_b 6.993104
_cell_length_c 9.958072
_cell_angle_alpha 69.708084
_cell_angle_beta 139.872144
_cell_angle_gamma 107.087492
_cell_volume 432.794979
_symmetry_space_group_name_H-M "P -1"
_symmetry_group_IT_number 2
_symmetry_cell_setting 'triclinic'
loop_
_space_group_symop_operation_xyz
x,y,z
-x,-y,-z
loop_
_atom_site_type_symbol
_atom_site_label
_atom_site_fract_x
_atom_site_fract_y
_atom_site_fract_z
Si Si1 0.083207 0.643201 0.914786
Si Si2 0.491018 0.760461 0.825463
Si Si3 0.509526 0.555663 0.335128
Si Si4 0.170598 0.096965 0.507847
Si Si5 0.836487 0.553010 0.245995
O O1 0.067224 0.500320 0.805978
O O2 0.956175 0.838691 0.737752
O O3 0.317094 0.687360 0.118785
O O4 0.000000 0.500000 0.000000
O O5 0.510274 0.645470 0.725415
O O6 0.340988 0.618385 0.831935
O O7 0.354174 0.953573 0.656585
O O8 0.709699 0.757146 0.073425
O O9 0.500000 0.500000 0.500000
O O10 0.705007 0.691593 0.408355
O O11 0.000000 0.000000 0.500000
O O12 0.000000 0.500000 0.500000
#
# Coordination Sequence:
#
# PCOD9016915 Si02
#       5
#     2   2   2   2   2
#     4  11  23  45  69 104 145 187 235 293 362 424
#     4  10  24  42  69 104 138 184 244 285 350 431
#     4  11  25  46  71  99 148 189 227 302 364 408
#     4  12  25  45  72 108 139 185 248 292 346 432
#     4  10  21  42  69  99 143 187 226 293 359 415
#
# _framework density 23.105626000000001
#
# number of rings (size 3 to 8) (size 9 to 14) (size 15 to 20)
#    0.000    1.200    4.000    1.200    0.000    3.200 
#    0.000    1.000    0.000    0.000    0.000    0.000 
#    0.000    0.000    0.000    0.000    0.000    0.000 
#
# Total GULP energy -55758.786212 kJ/mol
# GULP energy per Si atom -5575.878621 kJ/mol
# Density = 2.305304 g / cm^3
# Si number density = 23.105626 Si / 1000 Ang^3
#
#
#
# Elastic Constant Matrix: (Units=GPa)
#
#
# Indices 1 2 3 4 5 6 
#
# 1 134.0003 34.7406 97.4440 -7.8923 -2.0931 1.2699
# 2 34.7406 61.8634 58.0984 -7.8136 17.3277 8.8553
# 3 97.4440 58.0984 250.2256 -25.6679 33.6811 -12.0703
# 4 -7.8923 -7.8136 -25.6679 40.1013 -6.7184 14.7116
# 5 -2.0931 17.3277 33.6811 -6.7184 73.4489 -8.8550
# 6 1.2699 8.8553 -12.0703 14.7116 -8.8550 40.4434
#
#
#
# Elastic Compliance Matrix: (Units=1/GPa)
#
#
# Indices 1 2 3 4 5 6 
#
# 1 0.011323 -0.003447 -0.004062 -0.000563 0.002952 0.000038
# 2 -0.003447 0.024862 -0.003766 0.004263 -0.004943 -0.009092
# 3 -0.004062 -0.003766 0.007016 0.001918 -0.002040 0.001902
# 4 -0.000563 0.004263 0.001918 0.031122 -0.000473 -0.011768
# 5 0.002952 -0.004943 -0.002040 -0.000473 0.016253 0.004111
# 6 0.000038 -0.009092 0.001902 -0.011768 0.004111 0.032464
#
#
# Mechanical properties :
#
#
# Convention : Reuss Voigt Hill
#
# Bulk Modulus (GPa) = 48.42690 91.85058 70.13874
# Shear Modulus (GPa) = 32.79263 47.85247 40.32255
#
# Velocity S-wave (km/s) = 3.77138 4.55580 4.18202
# Velocity P-wave (km/s) = 6.32209 8.21660 7.33080
#
# Compressibility (1/GPa) = 0.02064968
#
# Stress axis : x y z
#
# Youngs Moduli (GPa) = 88.31571 40.22279 142.53354
#
# Poissons Ratio (x) = 0.13864 0.57903
# Poissons Ratio (y) = 0.30440 0.53682
# Poissons Ratio (z) = 0.35877 0.15149
#
# Static dielectric constant tensor:
#      x y z
#    x 1.070350 -0.106850 0.424830 
#    y -0.106850 1.982860 0.016820 
#    z 0.424830 0.016820 1.807940 
# 
# From -- ./inp_files/145200.got.cif
#   From: 2010.05.17/outbox.cif.g08.bks.cpg/sg2_73_cif.got.tgz:145200.got - 2010.06.03 11:33:40.
