data_PCOD9016781
_publ_section_title
;
Structure prediction by ZEFSAII (Michael W. Deem and Ramdas Pophale) SiO2 
 PCOD9016781
Probable space group: P -1
;
_chemical_formula_sum "Si O2"
_cell_formula_units_Z 14
_cell_length_a 11.999392
_cell_length_b 8.927258
_cell_length_c 8.408376
_cell_angle_alpha 118.467716
_cell_angle_beta 114.481342
_cell_angle_gamma 52.733999
_cell_volume 619.881943
_symmetry_space_group_name_H-M "P -1"
_symmetry_group_IT_number 2
_symmetry_cell_setting 'triclinic'
loop_
_space_group_symop_operation_xyz
x,y,z
-x,-y,-z
loop_
_atom_site_type_symbol
_atom_site_label
_atom_site_fract_x
_atom_site_fract_y
_atom_site_fract_z
Si Si1 0.872230 0.550024 0.073644
Si Si2 0.869316 0.207795 0.736815
Si Si3 0.706752 0.348160 0.391601
Si Si4 0.818294 0.928771 0.127640
Si Si5 0.210288 0.052648 0.248660
Si Si6 0.801546 0.589675 0.386839
Si Si7 0.509290 0.649096 0.204861
O O1 0.769338 0.782164 0.092140
O O2 0.907368 0.530742 0.271309
O O3 0.825110 0.393838 0.921632
O O4 0.000000 0.500000 0.000000
O O5 0.756700 0.288010 0.569218
O O6 0.874579 0.027507 0.742121
O O7 0.029377 0.133269 0.734646
O O8 0.816442 0.407115 0.406288
O O9 0.556753 0.538547 0.349348
O O10 0.716968 0.158306 0.218097
O O11 0.843075 0.897437 0.938079
O O12 0.368918 0.860593 0.237046
O O13 0.207298 0.236197 0.425188
O O14 0.646370 0.667264 0.254118
O O15 0.500000 0.500000 0.000000
#
# Coordination Sequence:
#
# PCOD9016781 Si02
#       7
#     2   2   2   2   2   2   2
#     4  10  22  42  63  91 130 167 216 264 316 381
#     4  11  23  40  62  96 129 169 215 264 317 380
#     4  10  22  40  66  92 131 163 217 260 322 371
#     4  11  22  40  64  93 130 171 214 264 318 376
#     4  12  22  41  67  95 134 170 213 260 318 381
#     4  10  23  41  65  96 127 170 213 265 322 376
#     4  10  21  42  69  92 130 167 217 258 320 380
#
# _framework density 22.584948000000001
#
# number of rings (size 3 to 8) (size 9 to 14) (size 15 to 20)
#    0.857    0.571    1.429    4.714    0.000    2.857 
#    0.000    7.143    0.000    0.000    0.000    0.000 
#    0.000    0.000    0.000    0.000    0.000    0.000 
#
# Total GULP energy -78192.531205 kJ/mol
# GULP energy per Si atom -5585.180800 kJ/mol
# Density = 2.253354 g / cm^3
# Si number density = 22.584948 Si / 1000 Ang^3
#
#
#
# Elastic Constant Matrix: (Units=GPa)
#
#
# Indices 1 2 3 4 5 6 
#
# 1 43.9438 13.3099 7.8839 6.5874 4.3441 1.3527
# 2 13.3099 112.3575 40.7680 10.2774 2.4570 17.2291
# 3 7.8839 40.7680 138.3828 9.4065 4.1162 7.8535
# 4 6.5874 10.2774 9.4065 49.8176 3.9066 6.3075
# 5 4.3441 2.4570 4.1162 3.9066 26.9860 2.0626
# 6 1.3527 17.2291 7.8535 6.3075 2.0626 47.5108
#
#
#
# Elastic Compliance Matrix: (Units=1/GPa)
#
#
# Indices 1 2 3 4 5 6 
#
# 1 0.024272 -0.002548 -0.000411 -0.002443 -0.003318 0.000769
# 2 -0.002548 0.010799 -0.002792 -0.000969 0.000243 -0.003264
# 3 -0.000411 -0.002792 0.008162 -0.000826 -0.000791 -0.000181
# 4 -0.002443 -0.000969 -0.000826 0.021206 -0.002297 -0.002158
# 5 -0.003318 0.000243 -0.000791 -0.002297 0.038114 -0.001212
# 6 0.000769 -0.003264 -0.000181 -0.002158 -0.001212 0.022579
#
#
# Mechanical properties :
#
#
# Convention : Reuss Voigt Hill
#
# Bulk Modulus (GPa) = 31.51509 46.51197 39.01353
# Shear Modulus (GPa) = 33.96461 40.37770 37.17115
#
# Velocity S-wave (km/s) = 3.88217 4.23284 4.06129
# Velocity P-wave (km/s) = 5.83775 6.67295 6.26927
#
# Compressibility (1/GPa) = 0.03173083
#
# Stress axis : x y z
#
# Youngs Moduli (GPa) = 41.19897 92.60078 122.51413
#
# Poissons Ratio (x) = 0.23596 0.05036
# Poissons Ratio (y) = 0.10498 0.34210
# Poissons Ratio (z) = 0.01693 0.25857
#
# Static dielectric constant tensor:
#      x y z
#    x 1.909270 -0.010080 -0.029340 
#    y -0.010080 1.842280 0.010780 
#    z -0.029340 0.010780 1.825540 
# 
# From -- ./inp_files/245591.got.cif
#   From: 2010.05.17/outbox.cif.g08.bks.cpg/sg2_123_cif.got.tgz:245591.got - 2010.06.03 11:33:40.
