data_PCOD9016988
_publ_section_title
;
Structure prediction by ZEFSAII (Michael W. Deem and Ramdas Pophale) SiO2 
 PCOD9016988
Probable space group: P -1
;
_chemical_formula_sum "Si O2"
_cell_formula_units_Z 16
_cell_length_a 20.872061
_cell_length_b 9.624275
_cell_length_c 15.142236
_cell_angle_alpha 47.281470
_cell_angle_beta 161.674979
_cell_angle_gamma 133.303887
_cell_volume 690.983151
_symmetry_space_group_name_H-M "P -1"
_symmetry_group_IT_number 2
_symmetry_cell_setting 'triclinic'
loop_
_space_group_symop_operation_xyz
x,y,z
-x,-y,-z
loop_
_atom_site_type_symbol
_atom_site_label
_atom_site_fract_x
_atom_site_fract_y
_atom_site_fract_z
Si Si1 0.698497 0.511630 0.450589
Si Si2 0.888397 0.342426 0.291143
Si Si3 0.279184 0.440158 0.857165
Si Si4 0.078445 0.087739 0.853751
Si Si5 0.350772 0.772699 0.328652
Si Si6 0.829841 0.476725 0.967177
Si Si7 0.797044 0.853880 0.827303
Si Si8 0.269440 0.037172 0.670883
O O1 0.620113 0.377565 0.490847
O O2 0.734633 0.739229 0.419578
O O3 0.922239 0.467559 0.740182
O O4 0.525400 0.475556 0.163389
O O5 0.778795 0.419457 0.200862
O O6 0.790231 0.380993 0.052864
O O7 0.128060 0.445481 0.574189
O O8 0.860459 0.111574 0.365640
O O9 0.202999 0.223372 0.884968
O O10 0.117769 0.211148 0.940265
O O11 0.842801 0.026934 0.541375
O O12 0.184090 0.901773 0.083116
O O13 0.572630 0.902436 0.536849
O O14 0.258164 0.655931 0.171679
O O15 0.747224 0.675898 0.772885
O O16 0.000000 0.000000 0.000000
O O17 0.500000 0.000000 0.000000
#
# Coordination Sequence:
#
# PCOD9016988 Si02
#       8
#     2   2   2   2   2   2   2   2
#     4  12  24  43  71 102 137 188 231 277 348 421
#     4  10  22  44  66  97 138 181 237 282 340 400
#     4  10  21  42  70  93 133 189 230 276 340 413
#     4  11  23  46  69  99 133 189 230 280 338 419
#     4  12  26  47  70 101 146 185 227 281 353 420
#     4  12  26  44  68 104 145 177 223 299 347 401
#     4  12  27  42  68 103 137 180 232 285 347 408
#     4  11  24  41  73  99 130 184 239 276 333 414
#
# _framework density 23.155414
#
# number of rings (size 3 to 8) (size 9 to 14) (size 15 to 20)
#    0.000    0.750    5.000    1.875    3.500    2.000 
#    0.000    0.000    0.000    0.000    0.000    0.000 
#    0.000    0.000    0.000    0.000    0.000    0.000 
#
# Total GULP energy -89363.619191 kJ/mol
# GULP energy per Si atom -5585.226199 kJ/mol
# Density = 2.310271 g / cm^3
# Si number density = 23.155414 Si / 1000 Ang^3
#
#
#
# Elastic Constant Matrix: (Units=GPa)
#
#
# Indices 1 2 3 4 5 6 
#
# 1 46.6347 14.6471 16.3928 0.2030 2.3589 5.3418
# 2 14.6471 93.3987 13.4774 -4.2571 -9.4579 2.0969
# 3 16.3928 13.4774 130.4651 18.4397 9.4962 -2.1904
# 4 0.2030 -4.2571 18.4397 47.8785 0.7695 -3.4960
# 5 2.3589 -9.4579 9.4962 0.7695 31.8093 8.2453
# 6 5.3418 2.0969 -2.1904 -3.4960 8.2453 28.8673
#
#
#
# Elastic Compliance Matrix: (Units=1/GPa)
#
#
# Indices 1 2 3 4 5 6 
#
# 1 0.023964 -0.003349 -0.002719 0.000363 -0.000909 -0.004094
# 2 -0.003349 0.011993 -0.001378 0.001429 0.004577 -0.001490
# 3 -0.002719 -0.001378 0.008889 -0.003351 -0.003247 0.001799
# 4 0.000363 0.001429 -0.003351 0.022459 0.000281 0.002214
# 5 -0.000909 0.004577 -0.003247 0.000281 0.036639 -0.010842
# 6 -0.004094 -0.001490 0.001799 0.002214 -0.010842 0.039008
#
#
# Mechanical properties :
#
#
# Convention : Reuss Voigt Hill
#
# Bulk Modulus (GPa) = 33.38542 39.94812 36.66677
# Shear Modulus (GPa) = 29.79191 36.77644 33.28417
#
# Velocity S-wave (km/s) = 3.59082 3.98960 3.79545
# Velocity P-wave (km/s) = 5.62506 6.20582 5.92256
#
# Compressibility (1/GPa) = 0.02995319
#
# Stress axis : x y z
#
# Youngs Moduli (GPa) = 41.72863 83.38167 112.49746
#
# Poissons Ratio (x) = 0.27928 0.30589
# Poissons Ratio (y) = 0.13976 0.15505
# Poissons Ratio (z) = 0.11346 0.11492
#
# Static dielectric constant tensor:
#      x y z
#    x 1.901690 0.029200 0.011130 
#    y 0.029200 1.898260 -0.030410 
#    z 0.011130 -0.030410 1.904280 
# 
# From -- ./inp_files/294994.got.cif
#   From: 2010.05.17/outbox.cif.g08.bks.cpg/sg2_148_cif.got.tgz:294994.got - 2010.06.03 11:33:40.
