data_PCOD9016597
_publ_section_title
;
Structure prediction by ZEFSAII (Michael W. Deem and Ramdas Pophale) SiO2 
 PCOD9016597
Probable space group: P -1
;
_chemical_formula_sum "Si O2"
_cell_formula_units_Z 16
_cell_length_a 9.116501
_cell_length_b 9.456118
_cell_length_c 17.590335
_cell_angle_alpha 44.278247
_cell_angle_beta 113.561657
_cell_angle_gamma 136.612793
_cell_volume 703.867307
_symmetry_space_group_name_H-M "P -1"
_symmetry_group_IT_number 2
_symmetry_cell_setting 'triclinic'
loop_
_space_group_symop_operation_xyz
x,y,z
-x,-y,-z
loop_
_atom_site_type_symbol
_atom_site_label
_atom_site_fract_x
_atom_site_fract_y
_atom_site_fract_z
Si Si1 0.522852 0.764867 0.400631
Si Si2 0.848571 0.563765 0.262966
Si Si3 0.005628 0.939436 0.613121
Si Si4 0.879165 0.810377 0.937582
Si Si5 0.692300 0.024111 0.000463
Si Si6 0.149020 0.432582 0.561553
Si Si7 0.532361 0.451905 0.137757
Si Si8 0.783207 0.378609 0.742216
O O1 0.500000 0.500000 0.500000
O O2 0.384556 0.698046 0.471996
O O3 0.405243 0.758098 0.306357
O O4 0.781016 0.017749 0.350001
O O5 0.999541 0.498493 0.307715
O O6 0.821800 0.595537 0.333334
O O7 0.616639 0.355684 0.250741
O O8 0.984088 0.869312 0.135665
O O9 0.804286 0.608190 0.704233
O O10 0.039859 0.156195 0.594377
O O11 0.000000 0.000000 0.500000
O O12 0.722678 0.756356 0.858207
O O13 0.695919 0.576902 0.050338
O O14 0.074874 0.813745 0.969269
O O15 0.746881 0.171490 0.874376
O O16 0.500000 0.000000 0.000000
O O17 0.583811 0.712009 0.085892
O O18 0.000000 0.500000 0.500000
#
# Coordination Sequence:
#
# PCOD9016597 Si02
#       8
#     2   2   2   2   2   2   2   2
#     4  10  22  41  66  89 131 171 211 267 333 384
#     4  11  21  41  67  98 133 172 222 277 329 387
#     4  11  23  44  67  90 129 174 218 267 330 396
#     4  10  21  42  68  95 129 174 223 270 330 398
#     4  11  24  40  65  99 137 171 218 280 330 396
#     4  11  22  42  66  97 130 169 218 278 323 387
#     4  10  21  42  69  91 133 173 221 274 328 396
#     4  12  22  42  70  94 130 179 221 264 341 399
#
# _framework density 22.731558
#
# number of rings (size 3 to 8) (size 9 to 14) (size 15 to 20)
#    0.000    1.250    6.250    0.750    0.000    7.500 
#    2.250    1.250    0.000    0.000    0.000    0.000 
#    0.000    0.000    0.000    0.000    0.000    0.000 
#
# Total GULP energy -89268.720766 kJ/mol
# GULP energy per Si atom -5579.295048 kJ/mol
# Density = 2.267982 g / cm^3
# Si number density = 22.731558 Si / 1000 Ang^3
#
#
#
# Elastic Constant Matrix: (Units=GPa)
#
#
# Indices 1 2 3 4 5 6 
#
# 1 157.6282 51.6804 20.1673 21.2093 15.4124 13.9994
# 2 51.6804 96.2387 17.1974 34.1083 12.8066 17.8871
# 3 20.1673 17.1974 62.5175 27.0347 6.5872 6.1474
# 4 21.2093 34.1083 27.0347 40.7825 6.7927 14.1583
# 5 15.4124 12.8066 6.5872 6.7927 35.0832 13.4899
# 6 13.9994 17.8871 6.1474 14.1583 13.4899 41.5304
#
#
#
# Elastic Compliance Matrix: (Units=1/GPa)
#
#
# Indices 1 2 3 4 5 6 
#
# 1 0.007942 -0.003883 -0.001507 0.000545 -0.001740 -0.000403
# 2 -0.003883 0.017251 0.002624 -0.013362 -0.001995 -0.001306
# 3 -0.001507 0.002624 0.023244 -0.017337 -0.002301 0.002595
# 4 0.000545 -0.013362 -0.017337 0.049883 0.001880 -0.009479
# 5 -0.001740 -0.001995 -0.002301 0.001880 0.033852 -0.009850
# 6 -0.000403 -0.001306 0.002595 -0.009479 -0.009850 0.030824
#
#
# Mechanical properties :
#
#
# Convention : Reuss Voigt Hill
#
# Bulk Modulus (GPa) = 23.30658 54.94163 39.12410
# Shear Modulus (GPa) = 27.34792 38.63518 32.99155
#
# Velocity S-wave (km/s) = 3.47231 4.12713 3.81380
# Velocity P-wave (km/s) = 5.13334 6.85078 6.05327
#
# Compressibility (1/GPa) = 0.04290635
#
# Stress axis : x y z
#
# Youngs Moduli (GPa) = 125.90781 57.96791 43.02125
#
# Poissons Ratio (x) = 0.22507 0.06483
# Poissons Ratio (y) = 0.48886 -0.11289
# Poissons Ratio (z) = 0.18974 -0.15211
#
# Static dielectric constant tensor:
#      x y z
#    x 1.924320 0.036700 0.019220 
#    y 0.036700 1.903210 -0.008300 
#    z 0.019220 -0.008300 2.047880 
# 
# From -- ./inp_files/555961.got.cif
#   From: 2010.05.17/outbox.cif.g08.bks.cpg/sg2_278_cif.got.tgz:555961.got - 2010.06.03 11:33:40.
