data_PCOD9016919
_publ_section_title
;
Structure prediction by ZEFSAII (Michael W. Deem and Ramdas Pophale) SiO2 
 PCOD9016919
Probable space group: P -1
;
_chemical_formula_sum "Si O2"
_cell_formula_units_Z 14
_cell_length_a 11.538851
_cell_length_b 14.733951
_cell_length_c 8.504832
_cell_angle_alpha 53.409349
_cell_angle_beta 55.269933
_cell_angle_gamma 31.417804
_cell_volume 598.714496
_symmetry_space_group_name_H-M "P -1"
_symmetry_group_IT_number 2
_symmetry_cell_setting 'triclinic'
loop_
_space_group_symop_operation_xyz
x,y,z
-x,-y,-z
loop_
_atom_site_type_symbol
_atom_site_label
_atom_site_fract_x
_atom_site_fract_y
_atom_site_fract_z
Si Si1 0.141101 0.550988 0.184807
Si Si2 0.207455 0.071014 0.071668
Si Si3 0.443876 0.755842 0.654177
Si Si4 0.429138 0.001687 0.301487
Si Si5 0.351836 0.532974 0.452732
Si Si6 0.965585 0.634218 0.594300
Si Si7 0.935634 0.073686 0.798755
O O1 0.411803 0.377690 0.170590
O O2 0.063456 0.480878 0.244483
O O3 0.046467 0.609953 0.377736
O O4 0.031364 0.722491 0.999601
O O5 0.289236 0.049040 0.206565
O O6 0.187884 0.951055 0.171053
O O7 0.388480 0.020687 0.871648
O O8 0.490338 0.633495 0.614545
O O9 0.544569 0.815924 0.469929
O O10 0.180580 0.940966 0.673550
O O11 0.261298 0.160598 0.393630
O O12 0.500000 0.500000 0.500000
O O13 0.207383 0.723984 0.293198
O O14 0.166379 0.557672 0.625708
O O15 0.000000 0.000000 0.000000
#
# Coordination Sequence:
#
# PCOD9016919 Si02
#       7
#     2   2   2   2   2   2   2
#     4  10  23  42  69 101 132 173 235 284 321 404
#     4  11  26  43  64 106 139 171 227 289 333 395
#     4  11  25  46  72  97 134 185 228 274 334 410
#     4  11  24  44  72  96 137 182 223 281 342 394
#     4  11  24  43  71 100 132 178 229 272 335 414
#     4  10  21  42  70 100 128 180 231 272 332 405
#     4  12  27  45  67 102 142 177 222 281 344 397
#
# _framework density 23.383431999999999
#
# number of rings (size 3 to 8) (size 9 to 14) (size 15 to 20)
#    0.000    1.143    1.429    5.143    4.000    6.286 
#    0.000    0.000    0.000    0.000    0.000    0.000 
#    0.000    0.000    0.000    0.000    0.000    0.000 
#
# Total GULP energy -78394.860898 kJ/mol
# GULP energy per Si atom -5599.632921 kJ/mol
# Density = 2.333021 g / cm^3
# Si number density = 23.383432 Si / 1000 Ang^3
#
#
#
# Elastic Constant Matrix: (Units=GPa)
#
#
# Indices 1 2 3 4 5 6 
#
# 1 123.6732 8.7735 8.7398 8.4925 -21.5833 10.7715
# 2 8.7735 103.7947 38.5682 -9.1313 -7.1951 18.1105
# 3 8.7398 38.5682 34.2316 -6.0616 -8.5820 5.1443
# 4 8.4925 -9.1313 -6.0616 19.6411 -2.4674 -9.1434
# 5 -21.5833 -7.1951 -8.5820 -2.4674 30.0085 -13.9165
# 6 10.7715 18.1105 5.1443 -9.1434 -13.9165 38.6410
#
#
#
# Elastic Compliance Matrix: (Units=1/GPa)
#
#
# Indices 1 2 3 4 5 6 
#
# 1 0.009601 0.000135 -0.001898 -0.004848 0.005175 -0.001770
# 2 0.000135 0.018464 -0.021519 -0.002862 -0.005860 -0.008614
# 3 -0.001898 -0.021519 0.059639 0.017770 0.018227 0.013444
# 4 -0.004848 -0.002862 0.017770 0.070159 0.017441 0.023210
# 5 0.005175 -0.005860 0.018227 0.017441 0.052440 0.021891
# 6 -0.001770 -0.008614 0.013444 0.023210 0.021891 0.041996
#
#
# Mechanical properties :
#
#
# Convention : Reuss Voigt Hill
#
# Bulk Modulus (GPa) = 24.30816 41.54030 32.92423
# Shear Modulus (GPa) = 15.99608 31.36598 23.68103
#
# Velocity S-wave (km/s) = 2.61833 3.66645 3.18579
# Velocity P-wave (km/s) = 4.42254 5.97723 5.25767
#
# Compressibility (1/GPa) = 0.04113845
#
# Stress axis : x y z
#
# Youngs Moduli (GPa) = 104.15967 54.15887 16.76768
#
# Poissons Ratio (x) = -0.00731 0.03183
# Poissons Ratio (y) = -0.01405 0.36083
# Poissons Ratio (z) = 0.19772 1.16545
#
# Static dielectric constant tensor:
#      x y z
#    x 1.913700 -0.055140 -0.013950 
#    y -0.055140 1.837730 0.041820 
#    z -0.013950 0.041820 1.903620 
# 
# From -- ./inp_files/271791.got.cif
#   From: 2010.05.17/outbox.cif.g08.bks.cpg/sg2_136_cif.got.tgz:271791.got - 2010.06.03 11:33:40.
