data_PCOD9016044
_publ_section_title
;
Structure prediction by ZEFSAII (Michael W. Deem and Ramdas Pophale) SiO2 
 PCOD9016044
Probable space group: P -1
;
_chemical_formula_sum "Si O2"
_cell_formula_units_Z 14
_cell_length_a 8.388138
_cell_length_b 22.483038
_cell_length_c 9.106394
_cell_angle_alpha 152.729652
_cell_angle_beta 49.094152
_cell_angle_gamma 129.630437
_cell_volume 586.948248
_symmetry_space_group_name_H-M "P -1"
_symmetry_group_IT_number 2
_symmetry_cell_setting 'triclinic'
loop_
_space_group_symop_operation_xyz
x,y,z
-x,-y,-z
loop_
_atom_site_type_symbol
_atom_site_label
_atom_site_fract_x
_atom_site_fract_y
_atom_site_fract_z
Si Si1 0.647235 0.042175 0.213135
Si Si2 0.817324 0.933256 0.576358
Si Si3 0.385402 0.508897 0.435315
Si Si4 0.939632 0.298238 0.618552
Si Si5 0.412283 0.239854 0.270053
Si Si6 0.668753 0.653637 0.142702
Si Si7 0.948425 0.465911 0.715363
O O1 0.418138 0.070106 0.358678
O O2 0.780337 0.171034 0.486253
O O3 0.792386 0.005978 0.907498
O O4 0.599792 0.915214 0.066975
O O5 0.831589 0.781158 0.268966
O O6 0.000000 0.000000 0.500000
O O7 0.500000 0.500000 0.500000
O O8 0.416285 0.660666 0.703643
O O9 0.138395 0.445916 0.449693
O O10 0.474595 0.419467 0.061610
O O11 0.182675 0.271530 0.425883
O O12 0.889560 0.337724 0.569490
O O13 0.934519 0.422395 0.998187
O O14 0.445547 0.283374 0.515982
O O15 0.777701 0.537662 0.893999
#
# Coordination Sequence:
#
# PCOD9016044 Si02
#       7
#     2   2   2   2   2   2   2
#     4  10  23  42  67  92 132 181 213 270 338 386
#     4  10  24  41  64  98 131 171 228 271 322 397
#     4  12  24  39  65 101 131 164 225 275 326 383
#     4  10  21  42  66  92 135 170 216 272 334 387
#     4  10  22  43  65  96 131 173 217 267 333 401
#     4  10  24  42  65  92 133 176 210 272 335 391
#     4  10  23  40  64  98 130 172 216 271 326 397
#
# _framework density 23.852186
#
# number of rings (size 3 to 8) (size 9 to 14) (size 15 to 20)
#    0.000    1.714    1.429    1.286    6.000    3.429 
#    0.000    0.714    0.000    0.000    0.000    0.000 
#    0.000    0.000    0.000    0.000    0.000    0.000 
#
# Total GULP energy -78303.764021 kJ/mol
# GULP energy per Si atom -5593.126001 kJ/mol
# Density = 2.379790 g / cm^3
# Si number density = 23.852186 Si / 1000 Ang^3
#
#
#
# Elastic Constant Matrix: (Units=GPa)
#
#
# Indices 1 2 3 4 5 6 
#
# 1 66.4354 10.8672 21.8891 -0.7775 8.7179 -10.7891
# 2 10.8672 134.8275 29.9000 24.1530 11.4251 -13.3997
# 3 21.8891 29.9000 65.9105 25.6546 5.0894 -3.2521
# 4 -0.7775 24.1530 25.6546 40.0087 4.8264 -5.5600
# 5 8.7179 11.4251 5.0894 4.8264 28.5288 -2.1313
# 6 -10.7891 -13.3997 -3.2521 -5.5600 -2.1313 33.5791
#
#
#
# Elastic Compliance Matrix: (Units=1/GPa)
#
#
# Indices 1 2 3 4 5 6 
#
# 1 0.019766 0.000105 -0.008805 0.007501 -0.005299 0.006446
# 2 0.000105 0.009017 -0.002593 -0.003106 -0.002453 0.002711
# 3 -0.008805 -0.002593 0.024920 -0.015316 0.001584 -0.003886
# 4 0.007501 -0.003106 -0.015316 0.038157 -0.004343 0.005730
# 5 -0.005299 -0.002453 0.001584 -0.004343 0.038044 -0.000832
# 6 0.006446 0.002711 -0.003886 0.005730 -0.000832 0.033453
#
#
# Mechanical properties :
#
#
# Convention : Reuss Voigt Hill
#
# Bulk Modulus (GPa) = 32.13625 43.60954 37.87290
# Shear Modulus (GPa) = 25.46933 34.05780 29.76356
#
# Velocity S-wave (km/s) = 3.27126 3.78281 3.53630
# Velocity P-wave (km/s) = 5.26978 6.11576 5.70846
#
# Compressibility (1/GPa) = 0.03111751
#
# Stress axis : x y z
#
# Youngs Moduli (GPa) = 50.59222 110.89906 40.12832
#
# Poissons Ratio (x) = -0.01168 0.35331
# Poissons Ratio (y) = -0.00533 0.10407
# Poissons Ratio (z) = 0.44544 0.28762
#
# Static dielectric constant tensor:
#      x y z
#    x 1.910260 -0.004470 0.012140 
#    y -0.004470 1.966620 -0.065320 
#    z 0.012140 -0.065320 1.937350 
# 
# From -- ./inp_files/190486.got.cif
#   From: 2010.05.17/outbox.cif.g08.bks.cpg/sg2_96_cif.got.tgz:190486.got - 2010.06.03 11:33:40.
