data_PCOD9016354
_publ_section_title
;
Structure prediction by ZEFSAII (Michael W. Deem and Ramdas Pophale) SiO2 
 PCOD9016354
Probable space group: P -1
;
_chemical_formula_sum "Si O2"
_cell_formula_units_Z 14
_cell_length_a 18.503821
_cell_length_b 12.254820
_cell_length_c 8.329474
_cell_angle_alpha 110.153108
_cell_angle_beta 113.021746
_cell_angle_gamma 19.946057
_cell_volume 591.413033
_symmetry_space_group_name_H-M "P -1"
_symmetry_group_IT_number 2
_symmetry_cell_setting 'triclinic'
loop_
_space_group_symop_operation_xyz
x,y,z
-x,-y,-z
loop_
_atom_site_type_symbol
_atom_site_label
_atom_site_fract_x
_atom_site_fract_y
_atom_site_fract_z
Si Si1 0.056637 0.183700 0.258241
Si Si2 0.385991 0.818997 0.629412
Si Si3 0.050477 0.434399 0.819486
Si Si4 0.624862 0.646634 0.196950
Si Si5 0.304331 0.254690 0.333461
Si Si6 0.771271 0.379369 0.531577
Si Si7 0.590593 0.449642 0.907959
O O1 0.998271 0.371701 0.190038
O O2 0.843555 0.418564 0.262049
O O3 0.221542 0.000825 0.444507
O O4 0.179995 0.917351 0.127716
O O5 0.617140 0.531781 0.605847
O O6 0.429431 0.663840 0.725391
O O7 0.274090 0.080966 0.758089
O O8 0.877447 0.579874 0.673108
O O9 0.000000 0.500000 0.000000
O O10 0.631205 0.580917 0.347368
O O11 0.427883 0.008164 0.181264
O O12 0.612995 0.553482 0.024060
O O13 0.205720 0.516521 0.342479
O O14 0.500000 0.000000 0.500000
O O15 0.000000 0.000000 0.500000
O O16 0.500000 0.500000 0.000000
#
# Coordination Sequence:
#
# PCOD9016354 Si02
#       7
#     2   2   2   2   2   2   2
#     4  12  25  45  71 102 139 186 238 289 349 423
#     4  12  25  45  72 103 136 186 237 286 352 425
#     4  12  26  45  71 105 142 184 233 293 353 412
#     4  11  24  45  68  99 138 185 233 290 350 413
#     4  10  21  42  67  94 134 182 227 278 341 413
#     4  11  24  43  70 104 139 182 235 289 346 418
#     4  12  26  45  68 101 143 183 232 297 355 412
#
# _framework density 23.67212
#
# number of rings (size 3 to 8) (size 9 to 14) (size 15 to 20)
#    0.000    0.571    0.000    9.857    0.000    5.714 
#    0.000    2.857    0.000    0.000    0.000    0.000 
#    0.000    0.000    0.000    0.000    0.000    0.000 
#
# Total GULP energy -78387.569932 kJ/mol
# GULP energy per Si atom -5599.112138 kJ/mol
# Density = 2.361824 g / cm^3
# Si number density = 23.672120 Si / 1000 Ang^3
#
#
#
# Elastic Constant Matrix: (Units=GPa)
#
#
# Indices 1 2 3 4 5 6 
#
# 1 122.4869 61.2709 56.7686 7.7627 -3.6724 13.0673
# 2 61.2709 178.6342 52.8397 44.1109 5.1316 15.8120
# 3 56.7686 52.8397 90.3918 21.0719 -7.0481 5.9620
# 4 7.7627 44.1109 21.0719 47.8007 12.0328 5.3432
# 5 -3.6724 5.1316 -7.0481 12.0328 47.0639 6.3255
# 6 13.0673 15.8120 5.9620 5.3432 6.3255 46.6894
#
#
#
# Elastic Compliance Matrix: (Units=1/GPa)
#
#
# Indices 1 2 3 4 5 6 
#
# 1 0.013067 -0.003230 -0.007260 0.004434 -0.000571 -0.002066
# 2 -0.003230 0.008985 -0.001439 -0.007132 0.000539 -0.001212
# 3 -0.007260 -0.001439 0.018283 -0.006595 0.003960 0.000403
# 4 0.004434 -0.007132 -0.006595 0.031740 -0.007906 -0.000545
# 5 -0.000571 0.000539 0.003960 -0.007906 0.024148 -0.002895
# 6 -0.002066 -0.001212 0.000403 -0.000545 -0.002895 0.022810
#
#
# Mechanical properties :
#
#
# Convention : Reuss Voigt Hill
#
# Bulk Modulus (GPa) = 60.69137 81.47459 71.08298
# Shear Modulus (GPa) = 33.69657 43.01974 38.35816
#
# Velocity S-wave (km/s) = 3.77698 4.26762 4.02978
# Velocity P-wave (km/s) = 6.68691 7.66656 7.19343
#
# Compressibility (1/GPa) = 0.01647681
#
# Stress axis : x y z
#
# Youngs Moduli (GPa) = 76.52865 111.30264 54.69471
#
# Poissons Ratio (x) = 0.35950 0.39710
# Poissons Ratio (y) = 0.24718 0.07870
# Poissons Ratio (z) = 0.55562 0.16015
#
# Static dielectric constant tensor:
#      x y z
#    x 1.862770 0.010660 0.025730 
#    y 0.010660 1.918380 0.017470 
#    z 0.025730 0.017470 1.997460 
# 
# From -- ./inp_files/279607.got.cif
#   From: 2010.05.17/outbox.cif.g08.bks.cpg/sg2_140_cif.got.tgz:279607.got - 2010.06.03 11:33:40.
