data_PCOD9016711
_publ_section_title
;
Structure prediction by ZEFSAII (Michael W. Deem and Ramdas Pophale) SiO2 
 PCOD9016711
Probable space group: P -1
;
_chemical_formula_sum "Si O2"
_cell_formula_units_Z 16
_cell_length_a 8.139871
_cell_length_b 18.752807
_cell_length_c 11.636193
_cell_angle_alpha 138.570596
_cell_angle_beta 57.839657
_cell_angle_gamma 89.943490
_cell_volume 696.404590
_symmetry_space_group_name_H-M "P -1"
_symmetry_group_IT_number 2
_symmetry_cell_setting 'triclinic'
loop_
_space_group_symop_operation_xyz
x,y,z
-x,-y,-z
loop_
_atom_site_type_symbol
_atom_site_label
_atom_site_fract_x
_atom_site_fract_y
_atom_site_fract_z
Si Si1 0.659493 0.371555 0.883455
Si Si2 0.779115 0.125468 0.061435
Si Si3 0.220740 0.325270 0.354030
Si Si4 0.917371 0.889569 0.279558
Si Si5 0.921353 0.394318 0.208523
Si Si6 0.827459 0.868398 0.746938
Si Si7 0.588550 0.414067 0.546201
Si Si8 0.586999 0.211945 0.868831
O O1 0.577026 0.282193 0.839524
O O2 0.980761 0.237725 0.562424
O O3 0.500000 0.500000 0.000000
O O4 0.565656 0.472189 0.153118
O O5 0.499742 0.218214 0.200369
O O6 0.699711 0.250347 0.330306
O O7 0.995843 0.090669 0.849302
O O8 0.882197 0.970627 0.881939
O O9 0.020191 0.501562 0.680858
O O10 0.109955 0.249251 0.325484
O O11 0.328983 0.309592 0.168151
O O12 0.170200 0.822162 0.190361
O O13 0.891347 0.772664 0.122272
O O14 0.666345 0.056761 0.627221
O O15 0.823616 0.390601 0.365598
O O16 0.647155 0.501496 0.361339
O O17 0.500000 0.000000 0.000000
#
# Coordination Sequence:
#
# PCOD9016711 Si02
#       8
#     2   2   2   2   2   2   2   2
#     4  12  23  37  55  81 117 152 187 222 269 340
#     4   8  15  29  51  79 109 138 175 233 283 315
#     4   9  17  29  51  80 109 139 174 232 283 320
#     4   9  15  24  53  81 104 131 182 244 266 300
#     4   9  14  27  52  83 108 131 182 241 278 305
#     4  10  21  37  53  81 119 145 180 230 284 329
#     4   9  16  30  52  81 109 141 185 234 270 317
#     4  10  17  30  51  80 103 141 191 225 265 318
#
# _framework density 22.975149999999999
#
# number of rings (size 3 to 8) (size 9 to 14) (size 15 to 20)
#    0.000    2.500    3.750    1.500    1.750    0.000 
#    0.000    8.125    0.000    0.000    0.000    1.750 
#    0.000    0.375    0.000    0.000    0.000    0.000 
#
# Total GULP energy -89250.292853 kJ/mol
# GULP energy per Si atom -5578.143303 kJ/mol
# Density = 2.292286 g / cm^3
# Si number density = 22.975150 Si / 1000 Ang^3
#
#
#
# Elastic Constant Matrix: (Units=GPa)
#
#
# Indices 1 2 3 4 5 6 
#
# 1 38.0844 27.3537 37.3198 14.3003 -8.8009 -5.9784
# 2 27.3537 129.4614 30.6556 29.3447 29.7993 5.3717
# 3 37.3198 30.6556 151.6448 22.1302 39.9317 5.7485
# 4 14.3003 29.3447 22.1302 37.3961 20.6911 16.3286
# 5 -8.8009 29.7993 39.9317 20.6911 26.9943 15.2167
# 6 -5.9784 5.3717 5.7485 16.3286 15.2167 21.4345
#
#
#
# Elastic Compliance Matrix: (Units=1/GPa)
#
#
# Indices 1 2 3 4 5 6 
#
# 1 -0.018550 0.011733 0.018093 0.015907 -0.073050 0.026775
# 2 0.011733 0.006800 -0.005985 -0.017034 0.015214 0.005349
# 3 0.018093 -0.005985 -0.001354 -0.016477 0.026955 0.000326
# 4 0.015907 -0.017034 -0.016477 0.040380 0.045605 -0.050013
# 5 -0.073050 0.015214 0.026955 0.045605 -0.068526 -0.017511
# 6 0.026775 0.005349 0.000326 -0.050013 -0.017511 0.103224
#
#
# Mechanical properties :
#
#
# Convention : Reuss Voigt Hill
#
# Bulk Modulus (GPa) = 28.92108 56.64987 42.78547
# Shear Modulus (GPa) = 193.66002 32.08908 112.87455
#
# Velocity S-wave (km/s) = 9.19098 3.74128 7.01681
# Velocity P-wave (km/s) = 11.19140 6.58585 9.18207
#
# Compressibility (1/GPa) = 0.03457686
#
# Stress axis : x y z
#
# Youngs Moduli (GPa) = -53.90847 147.06753 -738.59401
#
# Poissons Ratio (x) = -1.72558 13.36314
# Poissons Ratio (y) = 0.63252 -4.42074
# Poissons Ratio (z) = 0.97535 0.88025
#
# Static dielectric constant tensor:
#      x y z
#    x 1.915640 -0.006500 -0.001320 
#    y -0.006500 1.868340 0.060450 
#    z -0.001320 0.060450 1.857350 
# 
# From -- ./inp_files/435922.got.cif
#   From: 2010.05.17/outbox.cif.g08.bks.cpg/sg2_218_cif.got.tgz:435922.got - 2010.06.03 11:33:40.
