data_PCOD9016188
_publ_section_title
;
Structure prediction by ZEFSAII (Michael W. Deem and Ramdas Pophale) SiO2 
 PCOD9016188
Probable space group: P -1
;
_chemical_formula_sum "Si O2"
_cell_formula_units_Z 16
_cell_length_a 12.442220
_cell_length_b 10.412564
_cell_length_c 6.971612
_cell_angle_alpha 107.956062
_cell_angle_beta 128.465978
_cell_angle_gamma 78.935503
_cell_volume 672.748180
_symmetry_space_group_name_H-M "P -1"
_symmetry_group_IT_number 2
_symmetry_cell_setting 'triclinic'
loop_
_space_group_symop_operation_xyz
x,y,z
-x,-y,-z
loop_
_atom_site_type_symbol
_atom_site_label
_atom_site_fract_x
_atom_site_fract_y
_atom_site_fract_z
Si Si1 0.822240 0.136303 0.279172
Si Si2 0.815847 0.651112 0.870057
Si Si3 0.051078 0.367623 0.605489
Si Si4 0.577969 0.318268 0.005584
Si Si5 0.564420 0.800223 0.865962
Si Si6 0.129616 0.070052 0.082766
Si Si7 0.673895 0.014747 0.403071
Si Si8 0.298875 0.405818 0.652850
O O1 0.686276 0.198922 0.056430
O O2 0.783745 0.101319 0.438995
O O3 0.942996 0.245680 0.439934
O O4 0.852866 0.000123 0.136345
O O5 0.683536 0.726385 0.849327
O O6 0.767490 0.553320 0.603624
O O7 0.893233 0.772388 0.903714
O O8 0.904244 0.593644 0.112995
O O9 0.189341 0.328380 0.625958
O O10 0.000000 0.500000 0.500000
O O11 0.522491 0.308504 0.158342
O O12 0.655820 0.458640 0.126442
O O13 0.437948 0.322086 0.732249
O O14 0.458123 0.889418 0.665760
O O15 0.623223 0.901329 0.142336
O O16 0.256509 0.041342 0.353980
O O17 0.000000 0.000000 0.000000
#
# Coordination Sequence:
#
# PCOD9016188 Si02
#       8
#     2   2   2   2   2   2   2   2
#     4  11  24  44  71 101 139 182 224 280 342 409
#     4  12  26  42  72 101 134 182 229 282 343 410
#     4  12  26  49  69  97 138 185 228 284 342 404
#     4  10  22  45  69  99 138 182 228 284 339 394
#     4  10  21  42  66  98 138 177 218 279 341 396
#     4  12  26  41  68 105 137 180 225 276 345 416
#     4  10  23  43  65 100 143 174 220 277 336 409
#     4  11  24  45  70  98 137 182 235 282 335 405
#
# _framework density 23.783041999999998
#
# number of rings (size 3 to 8) (size 9 to 14) (size 15 to 20)
#    0.000    1.000    3.750    2.250    3.500    2.500 
#    4.500    0.000    0.000    0.000    0.000    0.000 
#    0.000    0.000    0.000    0.000    0.000    0.000 
#
# Total GULP energy -89550.279632 kJ/mol
# GULP energy per Si atom -5596.892477 kJ/mol
# Density = 2.372891 g / cm^3
# Si number density = 23.783042 Si / 1000 Ang^3
#
#
#
# Elastic Constant Matrix: (Units=GPa)
#
#
# Indices 1 2 3 4 5 6 
#
# 1 82.0229 8.4272 8.1040 8.9728 14.9380 20.4493
# 2 8.4272 63.9312 15.6668 -14.9310 10.3424 17.9329
# 3 8.1040 15.6668 129.8437 -30.2706 9.2304 8.2964
# 4 8.9728 -14.9310 -30.2706 39.5984 -0.3271 2.5176
# 5 14.9380 10.3424 9.2304 -0.3271 26.4346 0.5136
# 6 20.4493 17.9329 8.2964 2.5176 0.5136 35.7149
#
#
#
# Elastic Compliance Matrix: (Units=1/GPa)
#
#
# Indices 1 2 3 4 5 6 
#
# 1 0.016633 0.001533 -0.000647 -0.003143 -0.009622 -0.009783
# 2 0.001533 0.022695 0.000946 0.009682 -0.009703 -0.013036
# 3 -0.000647 0.000946 0.009989 0.008300 -0.003332 -0.002962
# 4 -0.003143 0.009682 0.008300 0.036402 -0.004314 -0.007494
# 5 -0.009622 -0.009703 -0.003332 -0.004314 0.047964 0.010770
# 6 -0.009783 -0.013036 -0.002962 -0.007494 0.010770 0.041208
#
#
# Mechanical properties :
#
#
# Convention : Reuss Voigt Hill
#
# Bulk Modulus (GPa) = 18.87460 37.79931 28.33696
# Shear Modulus (GPa) = 26.47071 36.58958 31.53014
#
# Velocity S-wave (km/s) = 3.33980 3.92659 3.64502
# Velocity P-wave (km/s) = 4.77763 6.04031 5.44569
#
# Compressibility (1/GPa) = 0.05298125
#
# Stress axis : x y z
#
# Youngs Moduli (GPa) = 60.11995 44.06181 100.11099
#
# Poissons Ratio (x) = -0.06753 0.06474
# Poissons Ratio (y) = -0.09215 -0.09468
# Poissons Ratio (z) = 0.03888 -0.04167
#
# Static dielectric constant tensor:
#      x y z
#    x 1.947390 -0.009040 0.046350 
#    y -0.009040 1.913230 -0.015960 
#    z 0.046350 -0.015960 1.900830 
# 
# From -- ./inp_files/71479.got.cif
#   From: 2010.05.17/outbox.cif.g08.bks.cpg/sg2_36_cif.got.tgz:71479.got - 2010.06.03 11:33:40.
