data_PCOD9016175
_publ_section_title
;
Structure prediction by ZEFSAII (Michael W. Deem and Ramdas Pophale) SiO2 
 PCOD9016175
Probable space group: P -1
;
_chemical_formula_sum "Si O2"
_cell_formula_units_Z 14
_cell_length_a 9.167428
_cell_length_b 20.610435
_cell_length_c 9.316048
_cell_angle_alpha 132.175329
_cell_angle_beta 149.083931
_cell_angle_gamma 44.910716
_cell_volume 628.528788
_symmetry_space_group_name_H-M "P -1"
_symmetry_group_IT_number 2
_symmetry_cell_setting 'triclinic'
loop_
_space_group_symop_operation_xyz
x,y,z
-x,-y,-z
loop_
_atom_site_type_symbol
_atom_site_label
_atom_site_fract_x
_atom_site_fract_y
_atom_site_fract_z
Si Si1 0.842430 0.709145 0.356635
Si Si2 0.607311 0.043374 0.793603
Si Si3 0.768496 0.030527 0.214711
Si Si4 0.829335 0.603510 0.455769
Si Si5 0.835332 0.186419 0.050245
Si Si6 0.141962 0.719136 0.064957
Si Si7 0.979906 0.195447 0.601072
O O1 0.928107 0.620183 0.401608
O O2 0.488830 0.734018 0.059638
O O3 0.035501 0.722365 0.403708
O O4 0.882621 0.789539 0.614181
O O5 0.804129 0.100520 0.980344
O O6 0.293904 0.114414 0.702101
O O7 0.500000 0.000000 0.500000
O O8 0.788363 0.990209 0.008056
O O9 0.747586 0.137894 0.325009
O O10 0.000000 0.000000 0.500000
O O11 0.500000 0.000000 0.000000
O O12 0.467511 0.636741 0.210595
O O13 0.000000 0.500000 0.500000
O O14 0.914058 0.675699 0.736257
O O15 0.830270 0.199552 0.895023
O O16 0.037140 0.760544 0.192319
#
# Coordination Sequence:
#
# PCOD9016175 Si02
#       7
#     2   2   2   2   2   2   2
#     4   9  19  38  63  87 122 165 205 254 315 387
#     4  11  25  45  67  93 130 180 229 279 333 382
#     4  12  26  45  64  96 134 174 221 291 340 374
#     4  10  21  42  66  98 130 160 206 261 326 399
#     4   9  19  39  58  87 117 167 216 260 309 385
#     4  10  23  37  68  94 124 170 210 261 326 384
#     4  11  24  44  64  91 133 169 228 270 324 392
#
# _framework density 22.274238
#
# number of rings (size 3 to 8) (size 9 to 14) (size 15 to 20)
#    0.000    1.714    2.857    0.429    4.000    0.571 
#   10.286    1.429    0.000    0.000    0.000    0.000 
#    0.000    0.000    0.000    0.000    0.000    0.000 
#
# Total GULP energy -78065.277803 kJ/mol
# GULP energy per Si atom -5576.091272 kJ/mol
# Density = 2.222354 g / cm^3
# Si number density = 22.274238 Si / 1000 Ang^3
#
#
#
# Elastic Constant Matrix: (Units=GPa)
#
#
# Indices 1 2 3 4 5 6 
#
# 1 183.4509 40.1010 17.6016 3.2788 -33.2871 34.1821
# 2 40.1010 85.7223 -12.1362 -12.3227 -9.9918 33.6337
# 3 17.6016 -12.1362 88.8999 -6.5777 -13.6482 6.2268
# 4 3.2788 -12.3227 -6.5777 25.2440 6.2854 -2.8160
# 5 -33.2871 -9.9918 -13.6482 6.2854 47.0047 -2.5102
# 6 34.1821 33.6337 6.2268 -2.8160 -2.5102 35.4231
#
#
#
# Elastic Compliance Matrix: (Units=1/GPa)
#
#
# Indices 1 2 3 4 5 6 
#
# 1 0.008035 -0.001364 -0.000809 -0.003952 0.005360 -0.006250
# 2 -0.001364 0.023076 0.006104 0.009912 0.003284 -0.020646
# 3 -0.000809 0.006104 0.013646 0.004975 0.003661 -0.006759
# 4 -0.003952 0.009912 0.004975 0.047344 -0.005744 -0.003115
# 5 0.005360 0.003284 0.003661 -0.005744 0.027201 -0.007462
# 6 -0.006250 -0.020646 -0.006759 -0.003115 -0.007462 0.054276
#
#
# Mechanical properties :
#
#
# Convention : Reuss Voigt Hill
#
# Bulk Modulus (GPa) = 19.00488 49.91177 34.45832
# Shear Modulus (GPa) = 27.28443 42.36814 34.82628
#
# Velocity S-wave (km/s) = 3.50370 4.36605 3.95843
# Velocity P-wave (km/s) = 4.99186 6.91904 6.03290
#
# Compressibility (1/GPa) = 0.05261807
#
# Stress axis : x y z
#
# Youngs Moduli (GPa) = 124.46263 43.33458 73.28400
#
# Poissons Ratio (x) = 0.05912 0.05928
# Poissons Ratio (y) = 0.16980 -0.44733
# Poissons Ratio (z) = 0.10067 -0.26451
#
# Static dielectric constant tensor:
#      x y z
#    x 1.855530 -0.017030 -0.007600 
#    y -0.017030 1.930030 -0.037900 
#    z -0.007600 -0.037900 1.851140 
# 
# From -- ./inp_files/104643.got.cif
#   From: 2010.05.17/outbox.cif.g08.bks.cpg/sg2_53_cif.got.tgz:104643.got - 2010.06.03 11:33:40.
