data_PCOD9016656
_publ_section_title
;
Structure prediction by ZEFSAII (Michael W. Deem and Ramdas Pophale) SiO2 
 PCOD9016656
Probable space group: P -1
;
_chemical_formula_sum "Si O2"
_cell_formula_units_Z 16
_cell_length_a 5.381328
_cell_length_b 8.605028
_cell_length_c 16.606451
_cell_angle_alpha 60.683283
_cell_angle_beta 77.488407
_cell_angle_gamma 63.300805
_cell_volume 599.003694
_symmetry_space_group_name_H-M "P -1"
_symmetry_group_IT_number 2
_symmetry_cell_setting 'triclinic'
loop_
_space_group_symop_operation_xyz
x,y,z
-x,-y,-z
loop_
_atom_site_type_symbol
_atom_site_label
_atom_site_fract_x
_atom_site_fract_y
_atom_site_fract_z
Si Si1 0.398471 0.193248 0.359007
Si Si2 0.298600 0.839791 0.508173
Si Si3 0.430896 0.997864 0.910215
Si Si4 0.276358 0.665887 0.027872
Si Si5 0.179090 0.175385 0.219183
Si Si6 0.672568 0.258305 0.637632
Si Si7 0.252436 0.402170 0.862968
Si Si8 0.969196 0.531239 0.396524
O O1 0.595945 0.246379 0.390814
O O2 0.385885 0.212554 0.259711
O O3 0.104656 0.337923 0.381388
O O4 0.470951 0.964806 0.431573
O O5 0.295475 0.706735 0.469002
O O6 0.000000 0.000000 0.500000
O O7 0.316381 0.226427 0.838925
O O8 0.686967 0.873673 0.866070
O O9 0.500000 0.000000 0.000000
O O10 0.230089 0.882470 0.946245
O O11 0.453127 0.639926 0.104457
O O12 0.996424 0.630871 0.062099
O O13 0.500000 0.500000 0.000000
O O14 0.898661 0.367001 0.198334
O O15 0.172993 0.973804 0.300855
O O16 0.340661 0.342716 0.643343
O O17 0.829918 0.353606 0.657913
O O18 0.000000 0.500000 0.500000
#
# Coordination Sequence:
#
# PCOD9016656 Si02
#       8
#     2   2   2   2   2   2   2   2
#     4  10  24  41  68 101 144 189 240 298 365 425
#     4  10  21  42  68  97 137 198 238 291 358 436
#     4  10  24  47  79 106 146 194 252 300 365 443
#     4  11  22  45  78 108 141 184 247 301 360 438
#     4  11  26  50  68 110 153 192 241 312 373 441
#     4  11  27  44  72 105 148 187 244 309 364 429
#     4  11  25  47  74 107 142 194 238 301 369 439
#     4  12  24  47  75 107 139 195 253 300 358 444
#
# _framework density 26.711020999999999
#
# number of rings (size 3 to 8) (size 9 to 14) (size 15 to 20)
#    0.000    1.250    2.500    1.875    8.750    1.000 
#    6.750    0.000    0.000    0.000    0.000    0.000 
#    0.000    0.000    0.000    0.000    0.000    0.000 
#
# Total GULP energy -89417.719374 kJ/mol
# GULP energy per Si atom -5588.607461 kJ/mol
# Density = 2.665023 g / cm^3
# Si number density = 26.711021 Si / 1000 Ang^3
#
#
#
# Elastic Constant Matrix: (Units=GPa)
#
#
# Indices 1 2 3 4 5 6 
#
# 1 117.9406 34.8376 23.5658 -6.7118 9.8949 4.8984
# 2 34.8376 189.0339 53.3541 -24.9968 4.4086 5.7984
# 3 23.5658 53.3541 104.0731 11.7165 12.3834 1.6796
# 4 -6.7118 -24.9968 11.7165 60.8224 3.5502 0.6458
# 5 9.8949 4.4086 12.3834 3.5502 22.6041 -10.6200
# 6 4.8984 5.7984 1.6796 0.6458 -10.6200 51.1218
#
#
#
# Elastic Compliance Matrix: (Units=1/GPa)
#
#
# Indices 1 2 3 4 5 6 
#
# 1 0.009534 -0.001137 -0.001164 0.001075 -0.004255 -0.001644
# 2 -0.001137 0.007032 -0.003778 0.003474 0.000404 -0.000525
# 3 -0.001164 -0.003778 0.012938 -0.003829 -0.005721 -0.001025
# 4 0.001075 0.003474 -0.003829 0.018887 -0.002553 -0.001140
# 5 -0.004255 0.000404 -0.005721 -0.002553 0.055222 0.012054
# 6 -0.001644 -0.000525 -0.001025 -0.001140 0.012054 0.022330
#
#
# Mechanical properties :
#
#
# Convention : Reuss Voigt Hill
#
# Bulk Modulus (GPa) = 57.65411 70.50695 64.08053
# Shear Modulus (GPa) = 34.75053 46.86234 40.80644
#
# Velocity S-wave (km/s) = 3.61082 4.19312 3.91282
# Velocity P-wave (km/s) = 6.24622 7.06375 6.66753
#
# Compressibility (1/GPa) = 0.01734482
#
# Stress axis : x y z
#
# Youngs Moduli (GPa) = 104.89178 142.20526 77.29350
#
# Poissons Ratio (x) = 0.16162 0.08999
# Poissons Ratio (y) = 0.11921 0.29205
# Poissons Ratio (z) = 0.12213 0.53732
#
# Static dielectric constant tensor:
#      x y z
#    x 2.147330 0.010950 -0.089900 
#    y 0.010950 2.105840 -0.052840 
#    z -0.089900 -0.052840 2.237020 
# 
# From -- ./inp_files/547895.got.cif
#   From: 2010.05.17/outbox.cif.g08.bks.cpg/sg2_274_cif.got.tgz:547895.got - 2010.06.03 11:33:40.
