data_PCOD9016025
_publ_section_title
;
Structure prediction by ZEFSAII (Michael W. Deem and Ramdas Pophale) SiO2 
 PCOD9016025
Probable space group: P -1
;
_chemical_formula_sum "Si O2"
_cell_formula_units_Z 16
_cell_length_a 29.057502
_cell_length_b 21.133439
_cell_length_c 16.727624
_cell_angle_alpha 164.372387
_cell_angle_beta 16.375388
_cell_angle_gamma 163.541689
_cell_volume 692.049554
_symmetry_space_group_name_H-M "P -1"
_symmetry_group_IT_number 2
_symmetry_cell_setting 'triclinic'
loop_
_space_group_symop_operation_xyz
x,y,z
-x,-y,-z
loop_
_atom_site_type_symbol
_atom_site_label
_atom_site_fract_x
_atom_site_fract_y
_atom_site_fract_z
Si Si1 0.302571 0.269364 0.228057
Si Si2 0.118741 0.763266 0.286343
Si Si3 0.259423 0.361982 0.816524
Si Si4 0.314684 0.505508 0.726023
Si Si5 0.102281 0.887270 0.282401
Si Si6 0.401350 0.756224 0.541726
Si Si7 0.661666 0.324333 0.780905
Si Si8 0.779132 0.307223 0.388666
O O1 0.372164 0.508963 0.341679
O O2 0.106452 0.222898 0.533824
O O3 0.471305 0.333157 0.084532
O O4 0.246381 0.989427 0.937582
O O5 0.090200 0.757139 0.231522
O O6 0.958034 0.529589 0.318688
O O7 0.142882 0.047498 0.619392
O O8 0.290422 0.713771 0.963337
O O9 0.245602 0.502476 0.928779
O O10 0.472877 0.424448 0.539401
O O11 0.228687 0.478086 0.091065
O O12 0.198578 0.201425 0.521451
O O13 0.235450 0.822182 0.925718
O O14 0.380483 0.702213 0.415955
O O15 0.588669 0.023538 0.567426
O O16 0.763758 0.367030 0.578659
#
# Coordination Sequence:
#
# PCOD9016025 Si02
#       8
#     2   2   2   2   2   2   2   2
#     4  11  23  40  66  94 128 168 201 261 321 362
#     4  11  23  40  68  93 127 163 210 259 319 370
#     4  10  23  42  64  95 122 163 213 259 318 373
#     4  10  21  42  66  91 130 159 204 274 315 366
#     4  11  22  38  66 101 126 160 207 258 325 377
#     4  11  23  40  62  95 130 160 207 257 311 383
#     4  11  26  43  62  92 130 170 214 254 304 377
#     4  11  25  42  61  93 130 170 214 251 304 378
#
# _framework density 23.119731999999999
#
# number of rings (size 3 to 8) (size 9 to 14) (size 15 to 20)
#    0.000    1.250    3.750    2.250    1.750    5.500 
#    0.000    0.625    0.000    0.000    0.000    0.000 
#    0.000    0.000    0.000    0.000    0.000    0.000 
#
# Total GULP energy -89567.698446 kJ/mol
# GULP energy per Si atom -5597.981153 kJ/mol
# Density = 2.306711 g / cm^3
# Si number density = 23.119732 Si / 1000 Ang^3
#
#
#
# Elastic Constant Matrix: (Units=GPa)
#
#
# Indices 1 2 3 4 5 6 
#
# 1 128.5760 23.5101 39.7485 5.9998 31.4291 -22.7655
# 2 23.5101 93.1977 13.8919 8.4217 11.9761 -23.9750
# 3 39.7485 13.8919 32.2930 -3.2532 11.5238 -16.1752
# 4 5.9998 8.4217 -3.2532 33.1612 -4.7864 -0.7255
# 5 31.4291 11.9761 11.5238 -4.7864 44.7437 -1.8365
# 6 -22.7655 -23.9750 -16.1752 -0.7255 -1.8365 39.7832
#
#
#
# Elastic Compliance Matrix: (Units=1/GPa)
#
#
# Indices 1 2 3 4 5 6 
#
# 1 0.014773 0.000476 -0.015378 -0.005271 -0.007023 0.002068
# 2 0.000476 0.013653 -0.001798 -0.004093 -0.003655 0.007526
# 3 -0.015378 -0.001798 0.059721 0.009047 -0.002537 0.014446
# 4 -0.005271 -0.004093 0.009047 0.033891 0.006056 -0.000907
# 5 -0.007023 -0.003655 -0.002537 0.006056 0.029325 -0.005789
# 6 0.002068 0.007526 0.014446 -0.000907 -0.005789 0.036445
#
#
# Mechanical properties :
#
#
# Convention : Reuss Voigt Hill
#
# Bulk Modulus (GPa) = 18.26533 45.37418 31.81976
# Shear Modulus (GPa) = 20.88068 35.33203 28.10635
#
# Velocity S-wave (km/s) = 3.00851 3.91349 3.49045
# Velocity P-wave (km/s) = 4.47053 6.33158 5.48063
#
# Compressibility (1/GPa) = 0.05474852
#
# Stress axis : x y z
#
# Youngs Moduli (GPa) = 67.69039 73.24212 16.74460
#
# Poissons Ratio (x) = -0.03488 0.25749
# Poissons Ratio (y) = -0.03224 0.03011
# Poissons Ratio (z) = 1.04092 0.13169
#
# Static dielectric constant tensor:
#      x y z
#    x 1.881470 0.009870 -0.015000 
#    y 0.009870 1.858250 -0.030020 
#    z -0.015000 -0.030020 1.922060 
# 
# From -- ./inp_files/544346.got.cif
#   From: 2010.05.17/outbox.cif.g08.bks.cpg/sg2_273_cif.got.tgz:544346.got - 2010.06.03 11:33:40.
