data_PCOD9016090
_publ_section_title
;
Structure prediction by ZEFSAII (Michael W. Deem and Ramdas Pophale) SiO2 
 PCOD9016090
Probable space group: P -1
;
_chemical_formula_sum "Si O2"
_cell_formula_units_Z 16
_cell_length_a 6.307099
_cell_length_b 20.242578
_cell_length_c 9.040221
_cell_angle_alpha 39.783852
_cell_angle_beta 96.287973
_cell_angle_gamma 97.346273
_cell_volume 732.375693
_symmetry_space_group_name_H-M "P -1"
_symmetry_group_IT_number 2
_symmetry_cell_setting 'triclinic'
loop_
_space_group_symop_operation_xyz
x,y,z
-x,-y,-z
loop_
_atom_site_type_symbol
_atom_site_label
_atom_site_fract_x
_atom_site_fract_y
_atom_site_fract_z
Si Si1 0.701408 0.767231 0.493060
Si Si2 0.011013 0.141123 0.887885
Si Si3 0.777845 0.002319 0.623498
Si Si4 0.863456 0.837422 0.704851
Si Si5 0.375944 0.916620 0.238868
Si Si6 0.713467 0.479541 0.638011
Si Si7 0.742240 0.524652 0.899511
Si Si8 0.009343 0.676469 0.214576
O O1 0.810191 0.812568 0.573904
O O2 0.463890 0.803102 0.433272
O O3 0.747905 0.648717 0.688158
O O4 0.780261 0.819353 0.255551
O O5 0.856029 0.096640 0.826265
O O6 0.928873 0.238778 0.801665
O O7 0.056776 0.056723 0.158696
O O8 0.714867 0.915143 0.647057
O O9 0.619675 0.040420 0.669073
O O10 0.904436 0.099508 0.389387
O O11 0.875376 0.734992 0.980498
O O12 0.500000 0.000000 0.000000
O O13 0.500000 0.500000 0.500000
O O14 0.701117 0.475848 0.819202
O O15 0.796862 0.373881 0.764018
O O16 0.875343 0.578774 0.443124
O O17 0.500000 0.500000 0.000000
O O18 0.000000 0.500000 0.000000
#
# Coordination Sequence:
#
# PCOD9016090 Si02
#       8
#     2   2   2   2   2   2   2   2
#     4  12  25  41  72 101 139 189 237 301 367 443
#     4  11  22  43  69  95 140 185 246 292 363 452
#     4  10  21  42  66  94 137 183 230 299 356 440
#     4  10  22  42  66  95 136 184 231 292 371 427
#     4  12  24  38  67 102 137 182 243 297 368 433
#     4  11  26  45  76 104 147 192 250 311 387 454
#     4  12  31  52  80 115 157 197 256 321 388 452
#     4  10  24  45  70  98 139 189 241 304 374 455
#
# _framework density 21.846713000000001
#
# number of rings (size 3 to 8) (size 9 to 14) (size 15 to 20)
#    0.000    1.000    3.750    1.875    8.750    1.500 
#    0.000    0.000    0.000    0.000    0.000    0.000 
#    0.000    0.000    0.000    0.000    0.000    0.000 
#
# Total GULP energy -89201.220279 kJ/mol
# GULP energy per Si atom -5575.076267 kJ/mol
# Density = 2.179699 g / cm^3
# Si number density = 21.846713 Si / 1000 Ang^3
#
#
#
# Elastic Constant Matrix: (Units=GPa)
#
#
# Indices 1 2 3 4 5 6 
#
# 1 79.0214 40.2561 20.6103 7.3017 15.8685 -18.9173
# 2 40.2561 143.9999 15.2707 14.1477 13.6933 -37.1558
# 3 20.6103 15.2707 61.4791 8.6106 1.0247 -15.7103
# 4 7.3017 14.1477 8.6106 47.5996 -7.4996 2.3509
# 5 15.8685 13.6933 1.0247 -7.4996 36.3465 6.1983
# 6 -18.9173 -37.1558 -15.7103 2.3509 6.1983 37.5685
#
#
#
# Elastic Compliance Matrix: (Units=1/GPa)
#
#
# Indices 1 2 3 4 5 6 
#
# 1 0.018477 -0.001323 -0.002962 -0.003867 -0.009751 0.008607
# 2 -0.001323 0.011775 0.001791 -0.005425 -0.007292 0.013271
# 3 -0.002962 0.001791 0.019856 -0.004515 -0.002454 0.009271
# 4 -0.003867 -0.005425 -0.004515 0.026472 0.011496 -0.012754
# 5 -0.009751 -0.007292 -0.002454 0.011496 0.040462 -0.020543
# 6 0.008607 0.013271 0.009271 -0.012754 -0.020543 0.052142
#
#
# Mechanical properties :
#
#
# Convention : Reuss Voigt Hill
#
# Bulk Modulus (GPa) = 22.16279 48.53050 35.34664
# Shear Modulus (GPa) = 26.42539 38.19381 32.30960
#
# Velocity S-wave (km/s) = 3.48168 4.18576 3.84985
# Velocity P-wave (km/s) = 5.13123 6.75449 5.99802
#
# Compressibility (1/GPa) = 0.04512067
#
# Stress axis : x y z
#
# Youngs Moduli (GPa) = 54.12019 84.92511 50.36262
#
# Poissons Ratio (x) = 0.11238 0.14918
# Poissons Ratio (y) = 0.07162 -0.09022
# Poissons Ratio (z) = 0.16031 -0.15214
#
# Static dielectric constant tensor:
#      x y z
#    x 1.899920 -0.036250 -0.055700 
#    y -0.036250 1.775510 -0.006370 
#    z -0.055700 -0.006370 1.842360 
# 
# From -- ./inp_files/47894.got.cif
#   From: 2010.05.17/outbox.cif.g08.bks.cpg/sg2_24_cif.got.tgz:47894.got - 2010.06.03 11:33:40.
