data_PCOD9016128
_publ_section_title
;
Structure prediction by ZEFSAII (Michael W. Deem and Ramdas Pophale) SiO2 
 PCOD9016128
Probable space group: P -1
;
_chemical_formula_sum "Si O2"
_cell_formula_units_Z 12
_cell_length_a 10.390189
_cell_length_b 13.094029
_cell_length_c 13.765867
_cell_angle_alpha 146.443826
_cell_angle_beta 148.923994
_cell_angle_gamma 43.245649
_cell_volume 533.646584
_symmetry_space_group_name_H-M "P -1"
_symmetry_group_IT_number 2
_symmetry_cell_setting 'triclinic'
loop_
_space_group_symop_operation_xyz
x,y,z
-x,-y,-z
loop_
_atom_site_type_symbol
_atom_site_label
_atom_site_fract_x
_atom_site_fract_y
_atom_site_fract_z
Si Si1 0.096830 0.287002 0.315732
Si Si2 0.708084 0.959351 0.281110
Si Si3 0.421169 0.346625 0.405365
Si Si4 0.260698 0.447313 0.077898
Si Si5 0.617601 0.110779 0.809965
Si Si6 0.489898 0.396021 0.808718
O O1 0.151425 0.347141 0.285390
O O2 0.231954 0.392580 0.575845
O O3 0.807121 0.239019 0.093655
O O4 0.243827 0.088227 0.260553
O O5 0.533074 0.142184 0.285504
O O6 0.674486 0.772426 0.048950
O O7 0.626555 0.909220 0.298037
O O8 0.000000 0.000000 0.500000
O O9 0.500000 0.500000 0.500000
O O10 0.565828 0.415476 0.646614
O O11 0.297694 0.512868 0.044754
O O12 0.000000 0.500000 0.000000
O O13 0.564303 0.191158 0.732970
O O14 0.500000 0.500000 0.000000
#
# Coordination Sequence:
#
# PCOD9016128 Si02
#       6
#     2   2   2   2   2   2
#     4   9  22  41  65  96 133 170 222 284 325 410
#     4  11  22  42  67  97 133 175 225 278 330 408
#     4  10  23  42  66  96 134 176 219 278 342 393
#     4  11  23  42  65  98 131 173 224 271 333 405
#     4  10  21  42  66  96 132 171 226 275 341 393
#     4  11  22  40  67  97 127 176 221 272 341 396
#
# _framework density 22.486791
#
# number of rings (size 3 to 8) (size 9 to 14) (size 15 to 20)
#    0.000    1.667    3.333    0.500    2.333    1.333 
#    0.000    0.000    0.000    0.000    0.000    0.000 
#    0.000    0.000    0.000    0.000    0.000    0.000 
#
# Total GULP energy -66824.270713 kJ/mol
# GULP energy per Si atom -5568.689226 kJ/mol
# Density = 2.243561 g / cm^3
# Si number density = 22.486791 Si / 1000 Ang^3
#
#
#
# Elastic Constant Matrix: (Units=GPa)
#
#
# Indices 1 2 3 4 5 6 
#
# 1 132.3069 35.6669 40.1388 0.8558 18.3550 23.8632
# 2 35.6669 97.8073 29.1054 20.3683 -5.4113 19.7041
# 3 40.1388 29.1054 110.7721 13.5234 -2.1530 -12.6910
# 4 0.8558 20.3683 13.5234 46.7856 -9.5894 -2.3033
# 5 18.3550 -5.4113 -2.1530 -9.5894 47.9242 12.0128
# 6 23.8632 19.7041 -12.6910 -2.3033 12.0128 32.6569
#
#
#
# Elastic Compliance Matrix: (Units=1/GPa)
#
#
# Indices 1 2 3 4 5 6 
#
# 1 0.011199 -0.001270 -0.004831 0.000844 -0.002386 -0.008357
# 2 -0.001270 0.015761 -0.004339 -0.005353 0.004041 -0.012131
# 3 -0.004831 -0.004339 0.013432 -0.001593 -0.001296 0.011732
# 4 0.000844 -0.005353 -0.001593 0.024963 0.003365 0.002517
# 5 -0.002386 0.004041 -0.001296 0.003365 0.025438 -0.010318
# 6 -0.008357 -0.012131 0.011732 0.002517 -0.010318 0.052580
#
#
# Mechanical properties :
#
#
# Convention : Reuss Voigt Hill
#
# Bulk Modulus (GPa) = 51.25280 61.18980 56.22130
# Shear Modulus (GPa) = 29.28133 41.20502 35.24318
#
# Velocity S-wave (km/s) = 3.61246 4.28531 3.96319
# Velocity P-wave (km/s) = 6.34363 7.19414 6.78223
#
# Compressibility (1/GPa) = 0.01951113
#
# Stress axis : x y z
#
# Youngs Moduli (GPa) = 89.29179 63.44820 74.45155
#
# Poissons Ratio (x) = 0.08061 0.35969
# Poissons Ratio (y) = 0.11344 0.32301
# Poissons Ratio (z) = 0.43139 0.27528
#
# Static dielectric constant tensor:
#      x y z
#    x 2.371460 0.039550 0.215010 
#    y 0.039550 1.901270 0.116050 
#    z 0.215010 0.116050 1.950040 
# 
# From -- ./inp_files/281437.got.cif
#   From: 2010.05.17/outbox.cif.g08.bks.cpg/sg2_141_cif.got.tgz:281437.got - 2010.06.03 11:33:40.
