data_PCOD9016716
_publ_section_title
;
Structure prediction by ZEFSAII (Michael W. Deem and Ramdas Pophale) SiO2 
 PCOD9016716
Probable space group: P -1
;
_chemical_formula_sum "Si O2"
_cell_formula_units_Z 16
_cell_length_a 5.231052
_cell_length_b 18.559138
_cell_length_c 11.583999
_cell_angle_alpha 41.435029
_cell_angle_beta 75.621978
_cell_angle_gamma 98.719660
_cell_volume 612.736604
_symmetry_space_group_name_H-M "P -1"
_symmetry_group_IT_number 2
_symmetry_cell_setting 'triclinic'
loop_
_space_group_symop_operation_xyz
x,y,z
-x,-y,-z
loop_
_atom_site_type_symbol
_atom_site_label
_atom_site_fract_x
_atom_site_fract_y
_atom_site_fract_z
Si Si1 0.576734 0.083981 0.570341
Si Si2 0.427383 0.188056 0.671235
Si Si3 0.678995 0.431966 0.189566
Si Si4 0.073135 0.761380 0.267485
Si Si5 0.236391 0.309460 0.169039
Si Si6 0.548087 0.872134 0.710128
Si Si7 0.951102 0.679521 0.114749
Si Si8 0.224512 0.524540 0.336539
O O1 0.423941 0.089125 0.698778
O O2 0.379127 0.066521 0.498712
O O3 0.883313 0.222984 0.352348
O O4 0.666839 0.977783 0.669791
O O5 0.622705 0.330127 0.417303
O O6 0.601722 0.188746 0.766699
O O7 0.091845 0.163966 0.765308
O O8 0.423982 0.350939 0.218015
O O9 0.076204 0.582613 0.199511
O O10 0.000000 0.500000 0.000000
O O11 0.062844 0.743832 0.152017
O O12 0.852279 0.616110 0.515471
O O13 0.328458 0.222731 0.191538
O O14 0.333900 0.441090 0.933844
O O15 0.175521 0.790001 0.868652
O O16 0.581158 0.614226 0.229877
O O17 0.000000 0.500000 0.500000
#
# Coordination Sequence:
#
# PCOD9016716 Si02
#       8
#     2   2   2   2   2   2   2   2
#     4  11  25  47  66 102 134 190 242 292 357 411
#     4  12  24  43  68 102 144 182 225 287 356 423
#     4  11  23  38  65 103 147 171 226 289 361 438
#     4  11  24  41  69  99 141 187 221 282 356 423
#     4  11  22  42  66 101 139 184 231 288 357 428
#     4  11  26  45  72  94 141 187 243 301 340 413
#     4  11  24  45  68 107 137 185 244 282 344 422
#     4  10  21  42  69 100 143 180 230 284 348 425
#
# _framework density 26.112362000000001
#
# number of rings (size 3 to 8) (size 9 to 14) (size 15 to 20)
#    0.000    1.000    2.500    4.875    5.250    2.000 
#    0.000    1.250    0.000    0.000    0.000    0.000 
#    0.000    0.000    0.000    0.000    0.000    0.000 
#
# Total GULP energy -89596.832943 kJ/mol
# GULP energy per Si atom -5599.802059 kJ/mol
# Density = 2.605293 g / cm^3
# Si number density = 26.112362 Si / 1000 Ang^3
#
#
#
# Elastic Constant Matrix: (Units=GPa)
#
#
# Indices 1 2 3 4 5 6 
#
# 1 149.4951 47.6133 21.8999 5.3827 -6.0309 -6.0564
# 2 47.6133 155.0132 1.6649 -11.1229 17.8587 -28.6251
# 3 21.8999 1.6649 54.4456 1.3765 -7.5377 -0.9719
# 4 5.3827 -11.1229 1.3765 36.7121 -3.3087 8.6399
# 5 -6.0309 17.8587 -7.5377 -3.3087 26.1866 -0.3071
# 6 -6.0564 -28.6251 -0.9719 8.6399 -0.3071 42.7888
#
#
#
# Elastic Compliance Matrix: (Units=1/GPa)
#
#
# Indices 1 2 3 4 5 6 
#
# 1 0.008226 -0.003067 -0.002773 -0.001622 0.002976 -0.000602
# 2 -0.003067 0.009277 0.000075 0.001365 -0.006775 0.005450
# 3 -0.002773 0.000075 0.020191 0.000104 0.005137 0.000132
# 4 -0.001622 0.001365 0.000104 0.029328 0.002370 -0.005219
# 5 0.002976 -0.006775 0.005137 0.002370 0.045223 -0.004149
# 6 -0.000602 0.005450 0.000132 -0.005219 -0.004149 0.027958
#
#
# Mechanical properties :
#
#
# Convention : Reuss Voigt Hill
#
# Bulk Modulus (GPa) = 38.22063 55.70115 46.96089
# Shear Modulus (GPa) = 31.16114 40.32256 35.74185
#
# Velocity S-wave (km/s) = 3.45823 3.93389 3.70370
# Velocity P-wave (km/s) = 5.53305 6.48164 6.02604
#
# Compressibility (1/GPa) = 0.02616388
#
# Stress axis : x y z
#
# Youngs Moduli (GPa) = 121.55960 107.78992 49.52728
#
# Poissons Ratio (x) = 0.33064 0.13733
# Poissons Ratio (y) = 0.37287 -0.00371
# Poissons Ratio (z) = 0.33706 -0.00807
#
# Static dielectric constant tensor:
#      x y z
#    x 2.082880 -0.041670 0.049430 
#    y -0.041670 2.094610 -0.036470 
#    z 0.049430 -0.036470 2.117170 
# 
# From -- ./inp_files/485025.got.cif
#   From: 2010.05.17/outbox.cif.g08.bks.cpg/sg2_243_cif.got.tgz:485025.got - 2010.06.03 11:33:40.
