data_PCOD9016319
_publ_section_title
;
Structure prediction by ZEFSAII (Michael W. Deem and Ramdas Pophale) SiO2 
 PCOD9016319
Probable space group: P -1
;
_chemical_formula_sum "Si O2"
_cell_formula_units_Z 11
_cell_length_a 8.306812
_cell_length_b 20.111054
_cell_length_c 15.263502
_cell_angle_alpha 19.331832
_cell_angle_beta 144.488145
_cell_angle_gamma 147.522395
_cell_volume 450.945815
_symmetry_space_group_name_H-M "P -1"
_symmetry_group_IT_number 2
_symmetry_cell_setting 'triclinic'
loop_
_space_group_symop_operation_xyz
x,y,z
-x,-y,-z
loop_
_atom_site_type_symbol
_atom_site_label
_atom_site_fract_x
_atom_site_fract_y
_atom_site_fract_z
Si Si1 0.360799 0.762288 0.406667
Si Si2 0.375386 0.181264 0.196279
Si Si3 0.136230 0.386873 0.128076
Si Si4 0.486997 0.192101 0.025876
Si Si5 0.147585 0.713762 0.178883
Si Si6 0.500000 0.500000 0.500000
O O1 0.681064 0.745434 0.586155
O O2 0.306136 0.797839 0.237067
O O3 0.116561 0.525822 0.621812
O O4 0.325299 0.951623 0.213595
O O5 0.385946 0.197529 0.074796
O O6 0.500000 0.000000 0.500000
O O7 0.611812 0.404418 0.066535
O O8 0.036665 0.146458 0.112100
O O9 0.845045 0.246440 0.119055
O O10 0.000000 0.500000 0.000000
O O11 0.437984 0.385062 0.713142
O O12 0.372963 0.682275 0.248942
#
# Coordination Sequence:
#
# PCOD9016319 Si02
#       6
#     2   2   2   2   2   1
#     4  10  21  42  67  93 131 175 217 266 323 388
#     4  10  23  44  70  96 130 174 216 267 323 385
#     4   9  19  38  63  94 131 167 212 265 317 380
#     4  11  24  40  65  96 131 172 216 265 324 389
#     4  10  23  42  64  95 132 171 217 268 323 384
#     4  12  26  42  64  98 132 170 216 270 326 384
#
# _framework density 24.393174999999999
#
# number of rings (size 3 to 8) (size 9 to 14) (size 15 to 20)
#    0.000    1.818    0.000    4.909    0.000   10.909 
#    0.000    3.636    0.000    0.000    0.000    3.818 
#    0.000    0.000    0.000    0.000    0.000    0.000 
#
# Total GULP energy -61341.701847 kJ/mol
# GULP energy per Si atom -5576.518350 kJ/mol
# Density = 2.433765 g / cm^3
# Si number density = 24.393175 Si / 1000 Ang^3
#
#
#
# Elastic Constant Matrix: (Units=GPa)
#
#
# Indices 1 2 3 4 5 6 
#
# 1 73.6725 15.4462 26.3338 2.2421 16.3029 -15.3526
# 2 15.4462 98.4403 28.5092 -2.5188 17.0339 -5.6525
# 3 26.3338 28.5092 149.5187 15.9448 14.0487 12.1548
# 4 2.2421 -2.5188 15.9448 27.8998 6.6262 9.6322
# 5 16.3029 17.0339 14.0487 6.6262 50.3838 5.4859
# 6 -15.3526 -5.6525 12.1548 9.6322 5.4859 24.3756
#
#
#
# Elastic Compliance Matrix: (Units=1/GPa)
#
#
# Indices 1 2 3 4 5 6 
#
# 1 0.020383 0.000095 -0.003999 -0.003891 -0.006956 0.017957
# 2 0.000095 0.011844 -0.002443 0.001990 -0.004068 0.004154
# 3 -0.003999 -0.002443 0.008605 -0.002775 0.000789 -0.006457
# 4 -0.003891 0.001990 -0.002775 0.044632 -0.002587 -0.017660
# 5 -0.006956 -0.004068 0.000789 -0.002587 0.024711 -0.010257
# 6 0.017957 0.004154 -0.006457 -0.017660 -0.010257 0.065805
#
#
# Mechanical properties :
#
#
# Convention : Reuss Voigt Hill
#
# Bulk Modulus (GPa) = 35.53863 51.35665 43.44764
# Shear Modulus (GPa) = 25.24569 37.28801 31.26685
#
# Velocity S-wave (km/s) = 3.22055 3.91400 3.58409
# Velocity P-wave (km/s) = 5.33198 6.44401 5.91419
#
# Compressibility (1/GPa) = 0.02813839
#
# Stress axis : x y z
#
# Youngs Moduli (GPa) = 49.06053 84.42867 116.21125
#
# Poissons Ratio (x) = -0.00803 0.46476
# Poissons Ratio (y) = -0.00467 0.28388
# Poissons Ratio (z) = 0.19621 0.20624
#
# Static dielectric constant tensor:
#      x y z
#    x 1.840920 0.100490 -0.109640 
#    y 0.100490 1.990050 0.003620 
#    z -0.109640 0.003620 1.850500 
# 
# From -- ./inp_files/149776.got.cif
#   From: 2010.05.17/outbox.cif.g08.bks.cpg/sg2_75_cif.got.tgz:149776.got - 2010.06.03 11:33:40.
