data_PCOD9016746
_publ_section_title
;
Structure prediction by ZEFSAII (Michael W. Deem and Ramdas Pophale) SiO2 
 PCOD9016746
Probable space group: P -1
;
_chemical_formula_sum "Si O2"
_cell_formula_units_Z 14
_cell_length_a 8.818880
_cell_length_b 9.519824
_cell_length_c 18.913455
_cell_angle_alpha 54.272717
_cell_angle_beta 149.816189
_cell_angle_gamma 114.771513
_cell_volume 633.629780
_symmetry_space_group_name_H-M "P -1"
_symmetry_group_IT_number 2
_symmetry_cell_setting 'triclinic'
loop_
_space_group_symop_operation_xyz
x,y,z
-x,-y,-z
loop_
_atom_site_type_symbol
_atom_site_label
_atom_site_fract_x
_atom_site_fract_y
_atom_site_fract_z
Si Si1 0.641711 0.126348 0.237426
Si Si2 0.834108 0.815727 0.737256
Si Si3 0.339340 0.384429 0.154745
Si Si4 0.500048 0.837129 0.993216
Si Si5 0.711187 0.811725 0.465805
Si Si6 0.659511 0.224219 0.542154
Si Si7 0.898741 0.550699 0.325298
O O1 0.441080 0.302897 0.142567
O O2 0.530671 0.112695 0.116372
O O3 0.003673 0.138286 0.388431
O O4 0.617098 0.956175 0.324185
O O5 0.655051 0.790189 0.743978
O O6 0.668997 0.709844 0.646931
O O7 0.196330 0.758439 0.908792
O O8 0.784459 0.019188 0.634027
O O9 0.598875 0.490208 0.252087
O O10 0.000000 0.500000 0.000000
O O11 0.781470 0.679787 0.173725
O O12 0.500000 0.000000 0.000000
O O13 0.429690 0.783878 0.409399
O O14 0.864116 0.624915 0.548648
O O15 0.910588 0.332076 0.588259
#
# Coordination Sequence:
#
# PCOD9016746 Si02
#       7
#     2   2   2   2   2   2   2
#     4  10  23  43  72 100 141 188 232 281 351 424
#     4  11  23  41  71  94 138 188 228 278 353 416
#     4  11  23  43  69 103 139 179 230 290 355 411
#     4  12  24  46  69 103 140 187 234 288 347 415
#     4  10  21  42  69 103 140 179 234 286 351 412
#     4  11  22  42  68 101 137 182 231 282 345 422
#     4  11  25  40  69 103 141 173 234 297 342 404
#
# _framework density 22.094923000000001
#
# number of rings (size 3 to 8) (size 9 to 14) (size 15 to 20)
#    0.000    1.143    5.714    0.429    0.000    4.000 
#    2.571    2.857    0.000    0.000    0.000    0.000 
#    0.000    0.000    0.000    0.000    0.000    0.000 
#
# Total GULP energy -78117.651627 kJ/mol
# GULP energy per Si atom -5579.832259 kJ/mol
# Density = 2.204463 g / cm^3
# Si number density = 22.094923 Si / 1000 Ang^3
#
#
#
# Elastic Constant Matrix: (Units=GPa)
#
#
# Indices 1 2 3 4 5 6 
#
# 1 107.2214 42.5839 32.0480 11.5668 2.3783 2.1821
# 2 42.5839 119.8354 50.9168 7.6183 5.2775 12.1761
# 3 32.0480 50.9168 85.0349 8.9384 3.2640 0.9475
# 4 11.5668 7.6183 8.9384 38.4008 0.7944 9.2606
# 5 2.3783 5.2775 3.2640 0.7944 38.0376 8.2911
# 6 2.1821 12.1761 0.9475 9.2606 8.2911 19.1958
#
#
#
# Elastic Compliance Matrix: (Units=1/GPa)
#
#
# Indices 1 2 3 4 5 6 
#
# 1 0.011521 -0.003248 -0.002095 -0.002934 -0.000578 0.002519
# 2 -0.003248 0.013129 -0.006793 0.002113 0.000888 -0.009026
# 3 -0.002095 -0.006793 0.016969 -0.003397 -0.001631 0.006053
# 4 -0.002934 0.002113 -0.003397 0.031433 0.003327 -0.017440
# 5 -0.000578 0.000888 -0.001631 0.003327 0.029490 -0.014759
# 6 0.002519 -0.009026 0.006053 -0.017440 -0.014759 0.072024
#
#
# Mechanical properties :
#
#
# Convention : Reuss Voigt Hill
#
# Bulk Modulus (GPa) = 57.64457 62.57657 60.11057
# Shear Modulus (GPa) = 24.43573 31.56304 27.99939
#
# Velocity S-wave (km/s) = 3.32918 3.78368 3.56368
# Velocity P-wave (km/s) = 6.39719 6.88995 6.64814
#
# Compressibility (1/GPa) = 0.01734769
#
# Stress axis : x y z
#
# Youngs Moduli (GPa) = 86.80173 76.16871 58.93139
#
# Poissons Ratio (x) = 0.24738 0.12344
# Poissons Ratio (y) = 0.28192 0.40031
# Poissons Ratio (z) = 0.18182 0.51740
#
# Static dielectric constant tensor:
#      x y z
#    x 1.822260 0.008520 -0.019380 
#    y 0.008520 1.840570 -0.005950 
#    z -0.019380 -0.005950 1.916570 
# 
# From -- ./inp_files/207960.got.cif
#   From: 2010.05.17/outbox.cif.g08.bks.cpg/sg2_104_cif.got.tgz:207960.got - 2010.06.03 11:33:40.
