data_PCOD9016665
_publ_section_title
;
Structure prediction by ZEFSAII (Michael W. Deem and Ramdas Pophale) SiO2 
 PCOD9016665
Probable space group: P -1
;
_chemical_formula_sum "Si O2"
_cell_formula_units_Z 16
_cell_length_a 10.655310
_cell_length_b 6.910805
_cell_length_c 10.902929
_cell_angle_alpha 72.049323
_cell_angle_beta 106.477941
_cell_angle_gamma 90.848027
_cell_volume 730.081916
_symmetry_space_group_name_H-M "P -1"
_symmetry_group_IT_number 2
_symmetry_cell_setting 'triclinic'
loop_
_space_group_symop_operation_xyz
x,y,z
-x,-y,-z
loop_
_atom_site_type_symbol
_atom_site_label
_atom_site_fract_x
_atom_site_fract_y
_atom_site_fract_z
Si Si1 0.378400 0.103539 0.780260
Si Si2 0.797788 0.535414 0.926046
Si Si3 0.290732 0.534092 0.356280
Si Si4 0.559774 0.712523 0.978448
Si Si5 0.977745 0.193702 0.154646
Si Si6 0.077108 0.205461 0.695450
Si Si7 0.975958 0.641021 0.607877
Si Si8 0.488240 0.798209 0.456056
O O1 0.222371 0.111086 0.721739
O O2 0.444832 0.183197 0.661666
O O3 0.452196 0.883864 0.867768
O O4 0.402721 0.232109 0.883876
O O5 0.757235 0.445858 0.800786
O O6 0.684630 0.677993 0.931824
O O7 0.911661 0.688243 0.905560
O O8 0.847003 0.335110 0.056637
O O9 0.171235 0.436886 0.412206
O O10 0.342193 0.729823 0.401488
O O11 0.420868 0.379168 0.417732
O O12 0.500000 0.500000 0.000000
O O13 0.006464 0.212645 0.303073
O O14 0.975494 0.950188 0.189158
O O15 0.002453 0.251694 0.536422
O O16 0.071598 0.436825 0.698213
O O17 0.500000 0.000000 0.500000
#
# Coordination Sequence:
#
# PCOD9016665 Si02
#       8
#     2   2   2   2   2   2   2   2
#     4  11  24  40  62  96 128 164 223 261 311 400
#     4  10  21  42  68  98 132 172 216 262 328 388
#     4  10  22  42  64  92 133 163 211 274 313 376
#     4  11  23  41  64  92 131 172 209 266 325 376
#     4  10  22  41  66  95 130 170 214 267 317 391
#     4  11  22  40  62  93 129 172 213 265 324 378
#     4  10  22  41  63  94 128 168 217 266 322 384
#     4  11  23  41  64  94 126 172 215 261 324 382
#
# _framework density 21.91535
#
# number of rings (size 3 to 8) (size 9 to 14) (size 15 to 20)
#    0.000    1.500    1.250    3.375    0.000    5.000 
#    4.500   11.250    0.000    0.000    0.000    0.000 
#    0.000    0.000    0.000    0.000    0.000    0.000 
#
# Total GULP energy -89376.229968 kJ/mol
# GULP energy per Si atom -5586.014373 kJ/mol
# Density = 2.186547 g / cm^3
# Si number density = 21.915350 Si / 1000 Ang^3
#
#
#
# Elastic Constant Matrix: (Units=GPa)
#
#
# Indices 1 2 3 4 5 6 
#
# 1 66.1147 20.5993 26.6743 -7.7515 11.2727 -6.3614
# 2 20.5993 100.8642 38.6455 -21.9390 6.6642 -2.9513
# 3 26.6743 38.6455 78.3611 -18.6585 4.0008 11.8469
# 4 -7.7515 -21.9390 -18.6585 20.2714 0.5964 -4.8509
# 5 11.2727 6.6642 4.0008 0.5964 24.7822 -0.5896
# 6 -6.3614 -2.9513 11.8469 -4.8509 -0.5896 28.6385
#
#
#
# Elastic Compliance Matrix: (Units=1/GPa)
#
#
# Indices 1 2 3 4 5 6 
#
# 1 0.020456 0.000008 -0.006878 0.003613 -0.008097 0.007835
# 2 0.000008 0.015105 -0.005001 0.013235 -0.003438 0.005798
# 3 -0.006878 -0.005001 0.021113 0.009167 0.000625 -0.009211
# 4 0.003613 0.013235 0.009167 0.076383 -0.008255 0.011142
# 5 -0.008097 -0.003438 0.000625 -0.008255 0.044988 -0.002884
# 6 0.007835 0.005798 -0.009211 0.011142 -0.002884 0.042894
#
#
# Mechanical properties :
#
#
# Convention : Reuss Voigt Hill
#
# Bulk Modulus (GPa) = 30.36754 46.35312 38.36033
# Shear Modulus (GPa) = 19.55729 25.36646 22.46187
#
# Velocity S-wave (km/s) = 2.99055 3.40586 3.20494
# Velocity P-wave (km/s) = 5.08049 6.05503 5.58904
#
# Compressibility (1/GPa) = 0.03292990
#
# Stress axis : x y z
#
# Youngs Moduli (GPa) = 48.88608 66.20456 47.36486
#
# Poissons Ratio (x) = -0.00050 0.32577
# Poissons Ratio (y) = -0.00037 0.23689
# Poissons Ratio (z) = 0.33623 0.33112
#
# Static dielectric constant tensor:
#      x y z
#    x 1.814170 0.026630 0.000540 
#    y 0.026630 1.800950 0.039800 
#    z 0.000540 0.039800 1.588740 
# 
# From -- ./inp_files/410107.got.cif
#   From: 2010.05.17/outbox.cif.g08.bks.cpg/sg2_206_cif.got.tgz:410107.got - 2010.06.03 11:33:40.
