data_PCOD9016775
_publ_section_title
;
Structure prediction by ZEFSAII (Michael W. Deem and Ramdas Pophale) SiO2 
 PCOD9016775
Probable space group: P -1
;
_chemical_formula_sum "Si O2"
_cell_formula_units_Z 14
_cell_length_a 7.497524
_cell_length_b 14.887205
_cell_length_c 14.414620
_cell_angle_alpha 33.692527
_cell_angle_beta 54.005473
_cell_angle_gamma 37.310888
_cell_volume 527.712540
_symmetry_space_group_name_H-M "P -1"
_symmetry_group_IT_number 2
_symmetry_cell_setting 'triclinic'
loop_
_space_group_symop_operation_xyz
x,y,z
-x,-y,-z
loop_
_atom_site_type_symbol
_atom_site_label
_atom_site_fract_x
_atom_site_fract_y
_atom_site_fract_z
Si Si1 0.598749 0.675845 0.757106
Si Si2 0.595751 0.135395 0.834371
Si Si3 0.208603 0.519933 0.471151
Si Si4 0.183332 0.747498 0.587067
Si Si5 0.026981 0.153877 0.205715
Si Si6 0.239857 0.369513 0.911288
Si Si7 0.233270 0.115690 0.582320
O O1 0.616213 0.783790 0.568318
O O2 0.941564 0.465578 0.858464
O O3 0.339954 0.670541 0.828813
O O4 0.473758 0.853908 0.724410
O O5 0.365159 0.357783 0.651899
O O6 0.536747 0.229947 0.875662
O O7 0.872640 0.971972 0.817732
O O8 0.500000 0.000000 0.000000
O O9 0.473151 0.428517 0.400115
O O10 0.000000 0.500000 0.500000
O O11 0.992517 0.768296 0.362687
O O12 0.173383 0.581483 0.790502
O O13 0.969865 0.803457 0.517543
O O14 0.118414 0.974809 0.409003
O O15 0.233207 0.209226 0.110940
#
# Coordination Sequence:
#
# PCOD9016775 Si02
#       7
#     2   2   2   2   2   2   2
#     4   9  16  27  50  79 113 133 181 236 267 313
#     4   9  18  32  51  79 108 140 183 228 266 322
#     4  11  20  32  54  85 114 143 183 235 284 327
#     4   9  18  31  53  76 102 145 181 226 268 321
#     4   9  18  27  48  82 108 135 176 228 282 313
#     4  10  17  30  51  81 109 136 184 233 273 313
#     4   9  17  30  51  80 108 141 188 224 271 331
#
# _framework density 26.529596999999999
#
# number of rings (size 3 to 8) (size 9 to 14) (size 15 to 20)
#    0.000    2.571    2.857    1.714    4.000    0.000 
#    0.000    0.000    0.000   29.143    0.000   10.000 
#    0.000    0.000    0.000    0.000    0.000    0.000 
#
# Total GULP energy -77996.974571 kJ/mol
# GULP energy per Si atom -5571.212469 kJ/mol
# Density = 2.646921 g / cm^3
# Si number density = 26.529597 Si / 1000 Ang^3
#
#
#
# Elastic Constant Matrix: (Units=GPa)
#
#
# Indices 1 2 3 4 5 6 
#
# 1 38.5242 -28.1057 20.5934 3.6142 15.2467 -21.3360
# 2 -28.1057 36.0054 15.8559 12.2957 61.3671 -63.7333
# 3 20.5934 15.8559 127.1357 6.9484 -48.7183 8.2947
# 4 3.6142 12.2957 6.9484 58.5393 5.8385 -16.5179
# 5 15.2467 61.3671 -48.7183 5.8385 -8.1948 31.1743
# 6 -21.3360 -63.7333 8.2947 -16.5179 31.1743 12.5511
#
#
#
# Elastic Compliance Matrix: (Units=1/GPa)
#
#
# Indices 1 2 3 4 5 6 
#
# 1 0.019830 -0.002112 0.000614 -0.002248 0.008657 -0.001883
# 2 -0.002112 0.005952 0.003418 -0.003102 0.009121 -0.002363
# 3 0.000614 0.003418 0.007976 -0.000226 0.002679 0.006181
# 4 -0.002248 -0.003102 -0.000226 0.018820 0.000734 0.003521
# 5 0.008657 0.009121 0.002679 0.000734 0.016852 0.018369
# 6 -0.001883 -0.002363 0.006181 0.003521 0.018369 0.019400
#
#
# Mechanical properties :
#
#
# Convention : Reuss Voigt Hill
#
# Bulk Modulus (GPa) = 26.59659 24.26138 25.42899
# Shear Modulus (GPa) = 51.27141 25.46724 38.36933
#
# Velocity S-wave (km/s) = 4.40092 3.10168 3.80713
# Velocity P-wave (km/s) = 5.98925 4.68957 5.37881
#
# Compressibility (1/GPa) = 0.03759880
#
# Stress axis : x y z
#
# Youngs Moduli (GPa) = 50.42879 168.01529 125.38370
#
# Poissons Ratio (x) = 0.35489 -0.07705
# Poissons Ratio (y) = 0.10652 -0.42862
# Poissons Ratio (z) = -0.03099 -0.57436
#
# Static dielectric constant tensor:
#      x y z
#    x 2.072370 0.085140 -0.066550 
#    y 0.085140 2.005900 -0.024900 
#    z -0.066550 -0.024900 2.300440 
# 
# From -- ./inp_files/214748.got.cif
#   From: 2010.05.17/outbox.cif.g08.bks.cpg/sg2_108_cif.got.tgz:214748.got - 2010.06.03 11:33:40.
