data_PCOD9016311
_publ_section_title
;
Structure prediction by ZEFSAII (Michael W. Deem and Ramdas Pophale) SiO2 
 PCOD9016311
Probable space group: P -1
;
_chemical_formula_sum "Si O2"
_cell_formula_units_Z 16
_cell_length_a 9.299145
_cell_length_b 13.154541
_cell_length_c 8.637912
_cell_angle_alpha 67.901812
_cell_angle_beta 63.184219
_cell_angle_gamma 107.231791
_cell_volume 721.817163
_symmetry_space_group_name_H-M "P -1"
_symmetry_group_IT_number 2
_symmetry_cell_setting 'triclinic'
loop_
_space_group_symop_operation_xyz
x,y,z
-x,-y,-z
loop_
_atom_site_type_symbol
_atom_site_label
_atom_site_fract_x
_atom_site_fract_y
_atom_site_fract_z
Si Si1 0.721617 0.046637 0.828587
Si Si2 0.736775 0.149474 0.437896
Si Si3 0.912972 0.579261 0.945719
Si Si4 0.398961 0.137075 0.456748
Si Si5 0.872806 0.786179 0.311070
Si Si6 0.369165 0.225911 0.102312
Si Si7 0.634714 0.613902 0.249288
Si Si8 0.277173 0.391603 0.226007
O O1 0.777969 0.144666 0.600173
O O2 0.894126 0.123830 0.826552
O O3 0.714152 0.917314 0.848551
O O4 0.500000 0.000000 0.000000
O O5 0.566951 0.173104 0.476505
O O6 0.921846 0.267624 0.194878
O O7 0.677211 0.009509 0.479080
O O8 0.851140 0.560080 0.807527
O O9 0.726947 0.549552 0.144951
O O10 0.000000 0.500000 0.000000
O O11 0.228883 0.142396 0.614974
O O12 0.474933 0.226852 0.210384
O O13 0.799807 0.737703 0.200994
O O14 0.773470 0.656157 0.546814
O O15 0.222745 0.259085 0.231294
O O16 0.455793 0.330954 0.857694
O O17 0.500000 0.500000 0.500000
O O18 0.500000 0.500000 0.000000
#
# Coordination Sequence:
#
# PCOD9016311 Si02
#       8
#     2   2   2   2   2   2   2   2
#     4  11  25  42  65 101 144 174 218 288 348 397
#     4  10  22  44  64 101 134 170 226 279 331 409
#     4  11  25  42  69  93 130 178 223 278 334 398
#     4   9  22  39  74  95 129 175 223 273 336 407
#     4  11  23  41  70  97 131 180 221 276 350 405
#     4   9  22  41  66  93 128 177 221 274 329 404
#     4  11  26  45  66 101 138 174 231 288 337 401
#     4  10  21  42  67  93 124 174 232 268 325 411
#
# _framework density 22.16628
#
# number of rings (size 3 to 8) (size 9 to 14) (size 15 to 20)
#    0.000    1.750    1.250    1.500   10.500    5.000 
#    0.000    0.625    0.000    0.000    0.000    0.000 
#    0.000    0.000    0.000    0.000    0.000    0.000 
#
# Total GULP energy -89225.282853 kJ/mol
# GULP energy per Si atom -5576.580178 kJ/mol
# Density = 2.211583 g / cm^3
# Si number density = 22.166280 Si / 1000 Ang^3
#
#
#
# Elastic Constant Matrix: (Units=GPa)
#
#
# Indices 1 2 3 4 5 6 
#
# 1 137.1965 40.2005 25.4686 -8.2331 12.2984 -16.2204
# 2 40.2005 58.7422 17.8497 0.0196 9.7082 0.0253
# 3 25.4686 17.8497 87.7839 -12.0996 5.1028 -17.7160
# 4 -8.2331 0.0196 -12.0996 26.1188 -1.8702 9.4859
# 5 12.2984 9.7082 5.1028 -1.8702 40.5914 -9.2372
# 6 -16.2204 0.0253 -17.7160 9.4859 -9.2372 30.4834
#
#
#
# Elastic Compliance Matrix: (Units=1/GPa)
#
#
# Indices 1 2 3 4 5 6 
#
# 1 0.009955 -0.006641 -0.000423 0.001264 -0.000274 0.004580
# 2 -0.006641 0.023653 -0.004259 -0.001930 -0.004762 -0.006871
# 3 -0.000423 -0.004259 0.014316 0.003963 0.001173 0.007220
# 4 0.001264 -0.001930 0.003963 0.044506 -0.000906 -0.011146
# 5 -0.000274 -0.004762 0.001173 -0.000906 0.027771 0.009237
# 6 0.004580 -0.006871 0.007220 -0.011146 0.009237 0.045711
#
#
# Mechanical properties :
#
#
# Convention : Reuss Voigt Hill
#
# Bulk Modulus (GPa) = 39.56082 50.08445 44.82264
# Shear Modulus (GPa) = 25.38271 32.78563 29.08417
#
# Velocity S-wave (km/s) = 3.38761 3.85005 3.62621
# Velocity P-wave (km/s) = 5.76084 6.51213 6.14797
#
# Compressibility (1/GPa) = 0.02527753
#
# Stress axis : x y z
#
# Youngs Moduli (GPa) = 100.44810 42.27744 69.85396
#
# Poissons Ratio (x) = 0.28078 0.02957
# Poissons Ratio (y) = 0.66712 0.29748
# Poissons Ratio (z) = 0.04253 0.18004
#
# Static dielectric constant tensor:
#      x y z
#    x 1.868700 0.043010 0.016750 
#    y 0.043010 1.830570 -0.030030 
#    z 0.016750 -0.030030 1.851590 
# 
# From -- ./inp_files/177374.got.cif
#   From: 2010.05.17/outbox.cif.g08.bks.cpg/sg2_89_cif.got.tgz:177374.got - 2010.06.03 11:33:40.
