data_PCOD9016494
_publ_section_title
;
Structure prediction by ZEFSAII (Michael W. Deem and Ramdas Pophale) SiO2 
 PCOD9016494
Probable space group: P -1
;
_chemical_formula_sum "Si O2"
_cell_formula_units_Z 14
_cell_length_a 11.741586
_cell_length_b 12.900516
_cell_length_c 9.013574
_cell_angle_alpha 146.245632
_cell_angle_beta 51.725869
_cell_angle_gamma 131.669072
_cell_volume 559.322383
_symmetry_space_group_name_H-M "P -1"
_symmetry_group_IT_number 2
_symmetry_cell_setting 'triclinic'
loop_
_space_group_symop_operation_xyz
x,y,z
-x,-y,-z
loop_
_atom_site_type_symbol
_atom_site_label
_atom_site_fract_x
_atom_site_fract_y
_atom_site_fract_z
Si Si1 0.440501 0.482848 0.196216
Si Si2 0.183310 0.588725 0.931423
Si Si3 0.146559 0.220902 0.003050
Si Si4 0.811301 0.144472 0.282395
Si Si5 0.677232 0.093007 0.018104
Si Si6 0.613043 0.192445 0.725748
Si Si7 0.272006 0.239268 0.588921
O O1 0.543462 0.680897 0.428990
O O2 0.500000 0.500000 0.000000
O O3 0.259828 0.395057 0.220753
O O4 0.504398 0.314839 0.003836
O O5 0.237870 0.681917 0.837997
O O6 0.277469 0.780371 0.187102
O O7 0.238389 0.407057 0.717585
O O8 0.000000 0.500000 0.000000
O O9 0.192172 0.227031 0.799986
O O10 0.171251 0.024562 0.820492
O O11 0.977080 0.225285 0.168576
O O12 0.745490 0.282249 0.600518
O O13 0.693486 0.073435 0.156966
O O14 0.767560 0.960398 0.709235
O O15 0.500000 0.000000 0.000000
O O16 0.500000 0.000000 0.500000
#
# Coordination Sequence:
#
# PCOD9016494 Si02
#       7
#     2   2   2   2   2   2   2
#     4   9  20  38  67  94 122 182 233 277 344 418
#     4  11  26  48  74 108 143 197 246 295 372 444
#     4  10  21  42  68 102 139 176 239 298 358 419
#     4  11  24  39  68 112 138 180 240 301 361 424
#     4  12  28  46  72 104 152 194 240 299 372 440
#     4  11  21  42  72  96 137 185 238 286 347 434
#     4  10  24  48  72  99 142 197 242 290 361 445
#
# _framework density 25.030284999999999
#
# number of rings (size 3 to 8) (size 9 to 14) (size 15 to 20)
#    0.000    1.429    1.429    2.571    8.000    5.143 
#    2.571    7.143    0.000    0.000    0.000    0.000 
#    0.000    0.000    0.000    0.000    0.000    0.000 
#
# Total GULP energy -78222.309870 kJ/mol
# GULP energy per Si atom -5587.307848 kJ/mol
# Density = 2.497332 g / cm^3
# Si number density = 25.030285 Si / 1000 Ang^3
#
#
#
# Elastic Constant Matrix: (Units=GPa)
#
#
# Indices 1 2 3 4 5 6 
#
# 1 104.9378 23.2275 11.6897 5.7380 -7.2638 2.5110
# 2 23.2275 119.9725 21.0291 -1.4354 -15.7080 -14.4385
# 3 11.6897 21.0291 92.1908 -12.9307 6.7824 -15.4461
# 4 5.7380 -1.4354 -12.9307 25.9857 0.8000 -0.8921
# 5 -7.2638 -15.7080 6.7824 0.8000 26.9297 -2.6431
# 6 2.5110 -14.4385 -15.4461 -0.8921 -2.6431 52.5011
#
#
#
# Elastic Compliance Matrix: (Units=1/GPa)
#
#
# Indices 1 2 3 4 5 6 
#
# 1 0.010476 -0.001614 -0.001854 -0.003445 0.002313 -0.001432
# 2 -0.001614 0.010159 -0.002190 -0.000279 0.006299 0.002539
# 3 -0.001854 -0.002190 0.013537 0.007296 -0.005076 0.003338
# 4 -0.003445 -0.000279 0.007296 0.043075 -0.003937 0.002768
# 5 0.002313 0.006299 -0.005076 -0.003937 0.043046 0.002229
# 6 -0.001432 0.002539 0.003338 0.002768 0.002229 0.020955
#
#
# Mechanical properties :
#
#
# Convention : Reuss Voigt Hill
#
# Bulk Modulus (GPa) = 43.74943 47.66598 45.70771
# Shear Modulus (GPa) = 31.21463 38.49360 34.85412
#
# Velocity S-wave (km/s) = 3.53523 3.92584 3.73564
# Velocity P-wave (km/s) = 5.84639 6.29557 6.07514
#
# Compressibility (1/GPa) = 0.02285744
#
# Stress axis : x y z
#
# Youngs Moduli (GPa) = 95.45674 98.43952 73.86894
#
# Poissons Ratio (x) = 0.15889 0.13692
# Poissons Ratio (y) = 0.15408 0.16175
# Poissons Ratio (z) = 0.17693 0.21555
#
# Static dielectric constant tensor:
#      x y z
#    x 2.045310 -0.064490 -0.091550 
#    y -0.064490 2.090420 0.127280 
#    z -0.091550 0.127280 2.132370 
# 
# From -- ./inp_files/263713.got.cif
#   From: 2010.05.17/outbox.cif.g08.bks.cpg/sg2_132_cif.got.tgz:263713.got - 2010.06.03 11:33:40.
