data_PCOD9016173
_publ_section_title
;
Structure prediction by ZEFSAII (Michael W. Deem and Ramdas Pophale) SiO2 
 PCOD9016173
Probable space group: P -1
;
_chemical_formula_sum "Si O2"
_cell_formula_units_Z 16
_cell_length_a 18.563069
_cell_length_b 8.488604
_cell_length_c 7.080476
_cell_angle_alpha 75.521484
_cell_angle_beta 101.837706
_cell_angle_gamma 135.802793
_cell_volume 752.534307
_symmetry_space_group_name_H-M "P -1"
_symmetry_group_IT_number 2
_symmetry_cell_setting 'triclinic'
loop_
_space_group_symop_operation_xyz
x,y,z
-x,-y,-z
loop_
_atom_site_type_symbol
_atom_site_label
_atom_site_fract_x
_atom_site_fract_y
_atom_site_fract_z
Si Si1 0.424111 0.471662 0.114141
Si Si2 0.053715 0.248325 0.884872
Si Si3 0.754765 0.608954 0.157981
Si Si4 0.331934 0.746714 0.487677
Si Si5 0.243145 0.946880 0.267326
Si Si6 0.105444 0.852483 0.916416
Si Si7 0.493504 0.886614 0.224343
Si Si8 0.941401 0.241308 0.516807
O O1 0.348643 0.214944 0.232079
O O2 0.484902 0.681626 0.230395
O O3 0.500000 0.500000 0.000000
O O4 0.348680 0.484489 0.965587
O O5 0.177075 0.421676 0.904353
O O6 0.014369 0.219985 0.659261
O O7 0.999503 0.299527 0.971152
O O8 0.000000 0.000000 0.000000
O O9 0.729922 0.499252 0.382429
O O10 0.830582 0.879777 0.119087
O O11 0.395093 0.789774 0.324536
O O12 0.263617 0.796906 0.389995
O O13 0.410521 0.923552 0.644158
O O14 0.165052 0.917848 0.375075
O O15 0.184384 0.853639 0.062134
O O16 0.079768 0.798022 0.702252
O O17 0.500000 0.000000 0.000000
O O18 0.000000 0.500000 0.500000
#
# Coordination Sequence:
#
# PCOD9016173 Si02
#       8
#     2   2   2   2   2   2   2   2
#     4  11  24  45  69  93 137 181 219 275 338 393
#     4   9  20  41  62  94 131 164 215 271 320 393
#     4  10  21  42  66  98 127 170 227 268 327 399
#     4  11  24  42  67 101 129 173 231 271 332 391
#     4  10  24  42  65 100 133 172 229 266 329 401
#     4   9  22  43  66  90 137 176 212 273 334 389
#     4  11  24  44  66  94 138 173 218 283 334 386
#     4  11  23  42  64  97 133 173 221 268 332 399
#
# _framework density 21.261489000000001
#
# number of rings (size 3 to 8) (size 9 to 14) (size 15 to 20)
#    0.000    1.750    1.250    2.250    3.500    7.500 
#    6.750    0.000    0.000    0.000    0.000    0.000 
#    0.000    0.000    0.000    0.000    0.000    0.000 
#
# Total GULP energy -89356.392147 kJ/mol
# GULP energy per Si atom -5584.774509 kJ/mol
# Density = 2.121310 g / cm^3
# Si number density = 21.261489 Si / 1000 Ang^3
#
#
#
# Elastic Constant Matrix: (Units=GPa)
#
#
# Indices 1 2 3 4 5 6 
#
# 1 94.2460 9.5007 28.5383 0.3558 3.5721 20.6953
# 2 9.5007 45.8733 11.1077 -3.4500 -8.7469 11.0712
# 3 28.5383 11.1077 121.3413 -2.2708 6.2343 6.7712
# 4 0.3558 -3.4500 -2.2708 40.6396 -9.6621 -6.3553
# 5 3.5721 -8.7469 6.2343 -9.6621 38.9249 -11.5794
# 6 20.6953 11.0712 6.7712 -6.3553 -11.5794 26.6616
#
#
#
# Elastic Compliance Matrix: (Units=1/GPa)
#
#
# Indices 1 2 3 4 5 6 
#
# 1 0.014810 -0.000539 -0.002376 -0.004087 -0.006405 -0.014424
# 2 -0.000539 0.025087 -0.001958 0.001943 0.004357 -0.007146
# 3 -0.002376 -0.001958 0.009100 -0.000160 -0.001869 -0.000503
# 4 -0.004087 0.001943 -0.000160 0.030234 0.012864 0.015199
# 5 -0.006405 0.004357 -0.001869 0.012864 0.037602 0.023034
# 6 -0.014424 -0.007146 -0.000503 0.015199 0.023034 0.065426
#
#
# Mechanical properties :
#
#
# Convention : Reuss Voigt Hill
#
# Bulk Modulus (GPa) = 25.47820 39.97267 32.72543
# Shear Modulus (GPa) = 24.37959 35.39949 29.88954
#
# Velocity S-wave (km/s) = 3.38990 4.08482 3.75348
# Velocity P-wave (km/s) = 5.22792 6.41007 5.84894
#
# Compressibility (1/GPa) = 0.03924925
#
# Stress axis : x y z
#
# Youngs Moduli (GPa) = 67.52155 39.86198 109.88423
#
# Poissons Ratio (x) = 0.02150 0.26112
# Poissons Ratio (y) = 0.03641 0.21519
# Poissons Ratio (z) = 0.16045 0.07806
#
# Static dielectric constant tensor:
#      x y z
#    x 1.808780 0.007530 0.003790 
#    y 0.007530 1.780360 0.010790 
#    z 0.003790 0.010790 1.780540 
# 
# From -- ./inp_files/106740.got.cif
#   From: 2010.05.17/outbox.cif.g08.bks.cpg/sg2_54_cif.got.tgz:106740.got - 2010.06.03 11:33:40.
