data_PCOD9016417
_publ_section_title
;
Structure prediction by ZEFSAII (Michael W. Deem and Ramdas Pophale) SiO2 
 PCOD9016417
Probable space group: P -1
;
_chemical_formula_sum "Si O2"
_cell_formula_units_Z 14
_cell_length_a 19.701017
_cell_length_b 8.344786
_cell_length_c 11.648717
_cell_angle_alpha 67.038382
_cell_angle_beta 146.015570
_cell_angle_gamma 137.513419
_cell_volume 585.687947
_symmetry_space_group_name_H-M "P -1"
_symmetry_group_IT_number 2
_symmetry_cell_setting 'triclinic'
loop_
_space_group_symop_operation_xyz
x,y,z
-x,-y,-z
loop_
_atom_site_type_symbol
_atom_site_label
_atom_site_fract_x
_atom_site_fract_y
_atom_site_fract_z
Si Si1 0.740551 0.071671 0.167184
Si Si2 0.587175 0.125891 0.385988
Si Si3 0.651672 0.678036 0.831319
Si Si4 0.038307 0.339671 0.106174
Si Si5 0.220390 0.660586 0.626900
Si Si6 0.662877 0.453105 0.700714
Si Si7 0.752875 0.712038 0.224678
O O1 0.713565 0.159339 0.217595
O O2 0.975659 0.366365 0.374664
O O3 0.695830 0.814495 0.193839
O O4 0.603245 0.985830 0.896212
O O5 0.764425 0.450804 0.594039
O O6 0.693073 0.151340 0.419171
O O7 0.498121 0.889669 0.419051
O O8 0.682975 0.545988 0.832046
O O9 0.443130 0.525384 0.535554
O O10 0.672913 0.663090 0.998709
O O11 0.840363 0.019602 0.966599
O O12 0.120243 0.356468 0.097341
O O13 0.000000 0.500000 0.000000
O O14 0.297589 0.549355 0.754409
O O15 0.000000 0.000000 0.500000
#
# Coordination Sequence:
#
# PCOD9016417 Si02
#       7
#     2   2   2   2   2   2   2
#     4  10  22  40  68  95 140 181 224 281 339 403
#     4  12  24  41  71 102 136 178 228 280 338 414
#     4  11  24  47  68 100 141 176 229 287 343 413
#     4  12  25  42  68  98 134 178 228 277 345 408
#     4  10  23  43  65 103 137 181 227 277 343 407
#     4  11  26  44  70 102 135 182 227 288 344 409
#     4  10  21  42  67  97 135 175 225 276 337 406
#
# _framework density 23.903514999999999
#
# number of rings (size 3 to 8) (size 9 to 14) (size 15 to 20)
#    0.000    1.143    1.429    4.714    4.000    0.571 
#    0.000    5.714    0.000    0.000    0.000    0.000 
#    0.000    0.000    0.000    0.000    0.000    0.000 
#
# Total GULP energy -78371.079086 kJ/mol
# GULP energy per Si atom -5597.934220 kJ/mol
# Density = 2.384911 g / cm^3
# Si number density = 23.903515 Si / 1000 Ang^3
#
#
#
# Elastic Constant Matrix: (Units=GPa)
#
#
# Indices 1 2 3 4 5 6 
#
# 1 121.1410 19.2814 24.5480 -28.9656 -0.3655 -23.0766
# 2 19.2814 72.8871 9.4327 5.6436 -0.4132 -4.7961
# 3 24.5480 9.4327 77.7388 9.7502 -3.0965 -18.7848
# 4 -28.9656 5.6436 9.7502 24.8248 -8.1698 -4.3699
# 5 -0.3655 -0.4132 -3.0965 -8.1698 34.9788 1.6813
# 6 -23.0766 -4.7961 -18.7848 -4.3699 1.6813 39.9339
#
#
#
# Elastic Compliance Matrix: (Units=1/GPa)
#
#
# Indices 1 2 3 4 5 6 
#
# 1 0.020369 -0.006221 -0.006747 0.031906 0.006462 0.011069
# 2 -0.006221 0.016043 0.000880 -0.012553 -0.002608 -0.002518
# 3 -0.006747 0.000880 0.017378 -0.015122 -0.002189 0.002819
# 4 0.031906 -0.012553 -0.015122 0.096464 0.020439 0.019512
# 5 0.006462 -0.002608 -0.002189 0.020439 0.033050 0.003236
# 6 0.011069 -0.002518 0.002819 0.019512 0.003236 0.034460
#
#
# Mechanical properties :
#
#
# Convention : Reuss Voigt Hill
#
# Bulk Modulus (GPa) = 33.76717 42.03233 37.89975
# Shear Modulus (GPa) = 19.85608 34.51450 27.18529
#
# Velocity S-wave (km/s) = 2.88527 3.80400 3.37604
# Velocity P-wave (km/s) = 5.02562 6.07587 5.57553
#
# Compressibility (1/GPa) = 0.02961456
#
# Stress axis : x y z
#
# Youngs Moduli (GPa) = 49.09373 62.33216 57.54438
#
# Poissons Ratio (x) = 0.38775 0.38824
# Poissons Ratio (y) = 0.30540 -0.05063
# Poissons Ratio (z) = 0.33123 -0.05484
#
# Static dielectric constant tensor:
#      x y z
#    x 1.950760 -0.024800 0.016480 
#    y -0.024800 1.904710 -0.002650 
#    z 0.016480 -0.002650 1.943490 
# 
# From -- ./inp_files/447044.got.cif
#   From: 2010.05.17/outbox.cif.g08.bks.cpg/sg2_224_cif.got.tgz:447044.got - 2010.06.03 11:33:40.
