data_PCOD9016037
_publ_section_title
;
Structure prediction by ZEFSAII (Michael W. Deem and Ramdas Pophale) SiO2 
 PCOD9016037
Probable space group: P -1
;
_chemical_formula_sum "Si O2"
_cell_formula_units_Z 14
_cell_length_a 10.012073
_cell_length_b 18.050994
_cell_length_c 5.131259
_cell_angle_alpha 83.754013
_cell_angle_beta 57.381435
_cell_angle_gamma 51.111220
_cell_volume 569.468361
_symmetry_space_group_name_H-M "P -1"
_symmetry_group_IT_number 2
_symmetry_cell_setting 'triclinic'
loop_
_space_group_symop_operation_xyz
x,y,z
-x,-y,-z
loop_
_atom_site_type_symbol
_atom_site_label
_atom_site_fract_x
_atom_site_fract_y
_atom_site_fract_z
Si Si1 0.847260 0.055542 0.393023
Si Si2 0.182516 0.786063 0.864652
Si Si3 0.300759 0.052302 0.503228
Si Si4 0.091067 0.655155 0.918009
Si Si5 0.210456 0.236211 0.302072
Si Si6 0.470316 0.299558 0.082597
Si Si7 0.749861 0.555534 0.237750
O O1 0.741940 0.169821 0.413618
O O2 0.692906 0.033741 0.575479
O O3 0.000000 0.000000 0.500000
O O4 0.000000 0.000000 0.000000
O O5 0.223385 0.690120 0.756647
O O6 0.284161 0.767388 0.050157
O O7 0.923457 0.871443 0.129178
O O8 0.283821 0.126977 0.296035
O O9 0.500000 0.000000 0.500000
O O10 0.240116 0.536730 0.754321
O O11 0.902938 0.715649 0.874505
O O12 0.972446 0.690477 0.310547
O O13 0.398391 0.236113 0.161875
O O14 0.351385 0.376368 0.424912
O O15 0.372520 0.372167 0.909641
O O16 0.000000 0.500000 0.000000
#
# Coordination Sequence:
#
# PCOD9016037 Si02
#       7
#     2   2   2   2   2   2   2
#     4  10  21  42  66  92 129 167 209 264 320 380
#     4  10  25  43  63 100 133 169 215 269 329 376
#     4  10  22  43  69  95 129 172 217 264 319 390
#     4  11  23  41  66  93 132 167 218 265 312 387
#     4  11  21  40  65  96 126 170 216 264 315 378
#     4  12  24  40  68  96 134 170 213 272 319 377
#     4  12  23  42  68  98 127 172 221 261 320 385
#
# _framework density 24.584336
#
# number of rings (size 3 to 8) (size 9 to 14) (size 15 to 20)
#    0.000    1.143    2.857    3.000    0.000    5.714 
#    0.000   20.000    0.000    0.000    0.000    0.000 
#    0.000    0.000    0.000    0.000    0.000    0.000 
#
# Total GULP energy -78477.220039 kJ/mol
# GULP energy per Si atom -5605.515717 kJ/mol
# Density = 2.452838 g / cm^3
# Si number density = 24.584336 Si / 1000 Ang^3
#
#
#
# Elastic Constant Matrix: (Units=GPa)
#
#
# Indices 1 2 3 4 5 6 
#
# 1 213.3262 96.6065 35.2367 -19.0789 -7.2078 10.3700
# 2 96.6065 186.0958 26.5169 -25.7274 -4.3103 19.7187
# 3 35.2367 26.5169 83.7310 -2.2332 11.2895 -4.0077
# 4 -19.0789 -25.7274 -2.2332 33.5230 -2.2655 -6.9848
# 5 -7.2078 -4.3103 11.2895 -2.2655 47.1008 -11.6119
# 6 10.3700 19.7187 -4.0077 -6.9848 -11.6119 74.9178
#
#
#
# Elastic Compliance Matrix: (Units=1/GPa)
#
#
# Indices 1 2 3 4 5 6 
#
# 1 0.006475 -0.002861 -0.001950 0.001466 0.001289 0.000089
# 2 -0.002861 0.007735 -0.001261 0.003991 0.000452 -0.001265
# 3 -0.001950 -0.001261 0.013643 -0.001273 -0.003583 0.000657
# 4 0.001466 0.003991 -0.001273 0.034347 0.003130 0.002366
# 5 0.001289 0.000452 -0.003583 0.003130 0.023322 0.003417
# 6 0.000089 -0.001265 0.000657 0.002366 0.003417 0.014454
#
#
# Mechanical properties :
#
#
# Convention : Reuss Voigt Hill
#
# Bulk Modulus (GPa) = 63.64800 88.87481 76.26140
# Shear Modulus (GPa) = 42.60584 52.76118 47.68351
#
# Velocity S-wave (km/s) = 4.16751 4.63766 4.40885
# Velocity P-wave (km/s) = 7.00738 8.05647 7.55017
#
# Compressibility (1/GPa) = 0.01571141
#
# Stress axis : x y z
#
# Youngs Moduli (GPa) = 154.42849 129.29078 73.29602
#
# Poissons Ratio (x) = 0.36986 0.14290
# Poissons Ratio (y) = 0.44177 0.09240
# Poissons Ratio (z) = 0.30107 0.16299
#
# Static dielectric constant tensor:
#      x y z
#    x 1.906210 0.049030 -0.039870 
#    y 0.049030 2.044420 0.056820 
#    z -0.039870 0.056820 2.010250 
# 
# From -- ./inp_files/47321.got.cif
#   From: 2010.05.17/outbox.cif.g08.bks.cpg/sg2_24_cif.got.tgz:47321.got - 2010.06.03 11:33:40.
