data_PCOD9016279
_publ_section_title
;
Structure prediction by ZEFSAII (Michael W. Deem and Ramdas Pophale) SiO2 
 PCOD9016279
Probable space group: P -1
;
_chemical_formula_sum "Si O2"
_cell_formula_units_Z 16
_cell_length_a 11.309107
_cell_length_b 11.399390
_cell_length_c 17.379444
_cell_angle_alpha 39.405579
_cell_angle_beta 115.455028
_cell_angle_gamma 140.789684
_cell_volume 815.624585
_symmetry_space_group_name_H-M "P -1"
_symmetry_group_IT_number 2
_symmetry_cell_setting 'triclinic'
loop_
_space_group_symop_operation_xyz
x,y,z
-x,-y,-z
loop_
_atom_site_type_symbol
_atom_site_label
_atom_site_fract_x
_atom_site_fract_y
_atom_site_fract_z
Si Si1 0.263329 0.110808 0.298901
Si Si2 0.181117 0.765417 0.712667
Si Si3 0.719080 0.779949 0.385494
Si Si4 0.035644 0.833642 0.037310
Si Si5 0.032329 0.886236 0.498199
Si Si6 0.592313 0.137892 0.540018
Si Si7 0.149807 0.202702 0.737755
Si Si8 0.641384 0.653632 0.039281
O O1 0.475791 0.434155 0.169799
O O2 0.278331 0.908950 0.384917
O O3 0.223074 0.103230 0.382165
O O4 0.080286 0.003514 0.252902
O O5 0.042415 0.450607 0.866541
O O6 0.053734 0.714380 0.631819
O O7 0.203569 0.951823 0.686955
O O8 0.406512 0.960372 0.640553
O O9 0.500000 0.500000 0.500000
O O10 0.846434 0.734941 0.467246
O O11 0.737374 0.809753 0.284626
O O12 0.815375 0.684240 0.073707
O O13 0.125401 0.067707 0.878907
O O14 0.206966 0.012202 0.062986
O O15 0.000000 0.000000 0.500000
O O16 0.725999 0.469369 0.398592
O O17 0.500000 0.000000 0.500000
O O18 0.500000 0.500000 0.000000
#
# Coordination Sequence:
#
# PCOD9016279 Si02
#       8
#     2   2   2   2   2   2   2   2
#     4  11  21  38  64  96 127 170 219 269 322 382
#     4  11  22  41  62  95 132 169 218 268 325 388
#     4  10  21  42  67  91 124 172 218 270 327 382
#     4  11  25  40  64  95 135 177 213 265 332 390
#     4   9  21  38  62  89 124 164 213 268 315 375
#     4  12  22  35  63  95 129 165 216 272 323 383
#     4  11  24  41  63  96 130 173 220 267 329 392
#     4  11  23  42  62  93 140 178 212 260 331 400
#
# _framework density 19.616869999999999
#
# number of rings (size 3 to 8) (size 9 to 14) (size 15 to 20)
#    0.000    1.250    5.000    1.125    1.750    0.500 
#    6.750    0.000    0.000    7.500    0.000    0.000 
#    0.000    0.000    0.000    0.000    0.000    0.000 
#
# Total GULP energy -89111.976914 kJ/mol
# GULP energy per Si atom -5569.498557 kJ/mol
# Density = 1.957222 g / cm^3
# Si number density = 19.616870 Si / 1000 Ang^3
#
#
#
# Elastic Constant Matrix: (Units=GPa)
#
#
# Indices 1 2 3 4 5 6 
#
# 1 92.3686 27.4116 43.3036 -4.9988 -17.3519 -4.5149
# 2 27.4116 92.9258 42.3365 -15.3497 -3.8743 -5.7608
# 3 43.3036 42.3365 98.2632 -19.7374 -4.7046 -1.1547
# 4 -4.9988 -15.3497 -19.7374 37.1194 -6.2666 0.1401
# 5 -17.3519 -3.8743 -4.7046 -6.2666 31.6680 -4.9870
# 6 -4.5149 -5.7608 -1.1547 0.1401 -4.9870 26.6253
#
#
#
# Elastic Compliance Matrix: (Units=1/GPa)
#
#
# Indices 1 2 3 4 5 6 
#
# 1 0.015707 -0.001413 -0.005941 -0.000280 0.008064 0.003612
# 2 -0.001413 0.014099 -0.004675 0.003375 0.001373 0.002848
# 3 -0.005941 -0.004675 0.015894 0.005625 -0.000584 -0.001469
# 4 -0.000280 0.003375 0.005625 0.032614 0.007901 0.002235
# 5 0.008064 0.001373 -0.000584 0.007901 0.039044 0.008911
# 6 0.003612 0.002848 -0.001469 0.002235 0.008911 0.040380
#
#
# Mechanical properties :
#
#
# Convention : Reuss Voigt Hill
#
# Bulk Modulus (GPa) = 46.20518 56.62901 51.41709
# Shear Modulus (GPa) = 26.45364 30.44960 28.45162
#
# Velocity S-wave (km/s) = 3.67620 3.94409 3.81250
# Velocity P-wave (km/s) = 6.45168 7.04779 6.75631
#
# Compressibility (1/GPa) = 0.02164260
#
# Stress axis : x y z
#
# Youngs Moduli (GPa) = 63.66600 70.92615 62.91845
#
# Poissons Ratio (x) = 0.10020 0.37379
# Poissons Ratio (y) = 0.08995 0.29413
# Poissons Ratio (z) = 0.37824 0.33157
#
# Static dielectric constant tensor:
#      x y z
#    x 1.739440 -0.008940 -0.007530 
#    y -0.008940 1.760880 0.011530 
#    z -0.007530 0.011530 1.713010 
# 
# From -- ./inp_files/466592.got.cif
#   From: 2010.05.17/outbox.cif.g08.bks.cpg/sg2_234_cif.got.tgz:466592.got - 2010.06.03 11:33:40.
