data_PCOD9016471
_publ_section_title
;
Structure prediction by ZEFSAII (Michael W. Deem and Ramdas Pophale) SiO2 
 PCOD9016471
Probable space group: P -1
;
_chemical_formula_sum "Si O2"
_cell_formula_units_Z 16
_cell_length_a 17.631320
_cell_length_b 5.916430
_cell_length_c 8.774190
_cell_angle_alpha 100.476477
_cell_angle_beta 44.687502
_cell_angle_gamma 102.645250
_cell_volume 627.587424
_symmetry_space_group_name_H-M "P -1"
_symmetry_group_IT_number 2
_symmetry_cell_setting 'triclinic'
loop_
_space_group_symop_operation_xyz
x,y,z
-x,-y,-z
loop_
_atom_site_type_symbol
_atom_site_label
_atom_site_fract_x
_atom_site_fract_y
_atom_site_fract_z
Si Si1 0.945417 0.017043 0.918948
Si Si2 0.245321 0.364381 0.800610
Si Si3 0.449889 0.244130 0.606706
Si Si4 0.542855 0.738767 0.045354
Si Si5 0.163570 0.646319 0.705109
Si Si6 0.043103 0.312337 0.585005
Si Si7 0.320838 0.913003 0.292341
Si Si8 0.809776 0.417535 0.809002
O O1 0.887907 0.245663 0.060600
O O2 0.863061 0.787510 0.003310
O O3 0.027279 0.071779 0.670294
O O4 0.000000 0.000000 0.000000
O O5 0.339512 0.206737 0.664090
O O6 0.234662 0.466564 0.660879
O O7 0.259376 0.557474 0.936684
O O8 0.500000 0.500000 0.500000
O O9 0.431241 0.280378 0.817064
O O10 0.500000 0.000000 0.500000
O O11 0.437360 0.874122 0.193057
O O12 0.500000 0.500000 0.000000
O O13 0.647629 0.850628 0.814930
O O14 0.081005 0.509401 0.684848
O O15 0.232317 0.856673 0.543803
O O16 0.139912 0.353375 0.330065
O O17 0.924619 0.328207 0.681905
O O18 0.269895 0.734535 0.212235
#
# Coordination Sequence:
#
# PCOD9016471 Si02
#       8
#     2   2   2   2   2   2   2   2
#     4  12  24  40  69 106 144 193 246 304 375 453
#     4  12  26  43  76 105 146 200 258 316 386 463
#     4  12  32  52  82 117 160 203 264 336 404 467
#     4  11  26  50  77 107 151 194 260 319 399 466
#     4  11  23  45  70 104 146 192 252 299 379 461
#     4  10  21  42  68 100 152 191 243 311 376 458
#     4  10  25  45  75 100 142 196 245 312 377 462
#     4  10  22  43  70 105 142 201 247 311 379 461
#
# _framework density 25.494457000000001
#
# number of rings (size 3 to 8) (size 9 to 14) (size 15 to 20)
#    0.000    1.000    2.500    2.625   10.500    1.500 
#    2.250    0.000    0.000    0.000    0.000    0.000 
#    0.000    0.000    0.000    0.000    0.000    0.000 
#
# Total GULP energy -89439.152249 kJ/mol
# GULP energy per Si atom -5589.947016 kJ/mol
# Density = 2.543643 g / cm^3
# Si number density = 25.494457 Si / 1000 Ang^3
#
#
#
# Elastic Constant Matrix: (Units=GPa)
#
#
# Indices 1 2 3 4 5 6 
#
# 1 144.2111 32.5794 27.0194 -9.7696 9.2939 -16.1087
# 2 32.5794 90.0013 56.2530 -30.2276 9.1228 -1.9810
# 3 27.0194 56.2530 124.2709 -40.6554 15.3360 -1.3922
# 4 -9.7696 -30.2276 -40.6554 61.6529 -0.9179 -0.1581
# 5 9.2939 9.1228 15.3360 -0.9179 33.8520 -0.3104
# 6 -16.1087 -1.9810 -1.3922 -0.1581 -0.3104 49.1630
#
#
#
# Elastic Compliance Matrix: (Units=1/GPa)
#
#
# Indices 1 2 3 4 5 6 
#
# 1 0.007926 -0.002462 -0.000528 -0.000311 -0.001259 0.002474
# 2 -0.002462 0.017083 -0.005662 0.004233 -0.001251 -0.000273
# 3 -0.000528 -0.005662 0.013102 0.005719 -0.004110 -0.000038
# 4 -0.000311 0.004233 0.005719 0.021973 -0.003048 0.000282
# 5 -0.001259 -0.001251 -0.004110 -0.003048 0.031999 -0.000387
# 6 0.002474 -0.000273 -0.000038 0.000282 -0.000387 0.021137
#
#
# Mechanical properties :
#
#
# Convention : Reuss Voigt Hill
#
# Bulk Modulus (GPa) = 48.05566 65.57634 56.81600
# Shear Modulus (GPa) = 36.37459 45.10901 40.74180
#
# Velocity S-wave (km/s) = 3.78135 4.21095 4.00192
# Velocity P-wave (km/s) = 6.16078 7.02996 6.60967
#
# Compressibility (1/GPa) = 0.02080920
#
# Stress axis : x y z
#
# Youngs Moduli (GPa) = 126.17237 58.53737 76.32197
#
# Poissons Ratio (x) = 0.14410 0.04027
# Poissons Ratio (y) = 0.31060 0.43211
# Poissons Ratio (z) = 0.06658 0.33142
#
# Static dielectric constant tensor:
#      x y z
#    x 2.054110 -0.071070 -0.071700 
#    y -0.071070 1.700510 -0.022210 
#    z -0.071700 -0.022210 2.005330 
# 
# From -- ./inp_files/138564.got.cif
#   From: 2010.05.17/outbox.cif.g08.bks.cpg/sg2_70_cif.got.tgz:138564.got - 2010.06.03 11:33:40.
