data_PCOD9016695
_publ_section_title
;
Structure prediction by ZEFSAII (Michael W. Deem and Ramdas Pophale) SiO2 
 PCOD9016695
Probable space group: P -1
;
_chemical_formula_sum "Si O2"
_cell_formula_units_Z 14
_cell_length_a 8.098796
_cell_length_b 14.727393
_cell_length_c 7.058065
_cell_angle_alpha 60.636147
_cell_angle_beta 65.041001
_cell_angle_gamma 102.317313
_cell_volume 563.285626
_symmetry_space_group_name_H-M "P -1"
_symmetry_group_IT_number 2
_symmetry_cell_setting 'triclinic'
loop_
_space_group_symop_operation_xyz
x,y,z
-x,-y,-z
loop_
_atom_site_type_symbol
_atom_site_label
_atom_site_fract_x
_atom_site_fract_y
_atom_site_fract_z
Si Si1 0.212988 0.523503 0.286526
Si Si2 0.083604 0.058782 0.189698
Si Si3 0.412956 0.748062 0.204708
Si Si4 0.136142 0.851200 0.323307
Si Si5 0.317778 0.360289 0.304236
Si Si6 0.275172 0.890381 0.639884
Si Si7 0.681299 0.330071 0.251554
O O1 0.393457 0.654427 0.149271
O O2 0.235822 0.411571 0.456146
O O3 0.000000 0.500000 0.500000
O O4 0.193091 0.541793 0.052652
O O5 0.924660 0.107079 0.176090
O O6 0.080891 0.951025 0.179684
O O7 0.335082 0.161680 0.974229
O O8 0.000000 0.000000 0.500000
O O9 0.280679 0.815763 0.165243
O O10 0.301731 0.673872 0.528322
O O11 0.267162 0.904981 0.400271
O O12 0.901402 0.730102 0.607704
O O13 0.434529 0.291396 0.376402
O O14 0.500000 0.500000 0.000000
O O15 0.266170 0.762537 0.779891
O O16 0.500000 0.000000 0.500000
#
# Coordination Sequence:
#
# PCOD9016695 Si02
#       7
#     2   2   2   2   2   2   2
#     4  11  24  44  72  99 137 181 230 276 344 405
#     4  10  23  40  71  97 135 182 224 278 344 406
#     4  11  24  45  68 104 136 183 226 279 348 400
#     4  10  21  42  68  99 141 179 223 281 343 404
#     4  10  22  42  70 100 135 183 225 277 342 405
#     4  10  22  40  66 101 135 178 228 280 340 401
#     4  10  25  44  67  99 141 169 233 280 333 403
#
# _framework density 24.854178999999998
#
# number of rings (size 3 to 8) (size 9 to 14) (size 15 to 20)
#    0.000    1.714    1.429    1.286   12.000    2.286 
#    2.571    3.571    0.000    0.000    0.000    0.000 
#    0.000    0.000    0.000    0.000    0.000    0.000 
#
# Total GULP energy -78075.071755 kJ/mol
# GULP energy per Si atom -5576.790840 kJ/mol
# Density = 2.479761 g / cm^3
# Si number density = 24.854179 Si / 1000 Ang^3
#
#
#
# Elastic Constant Matrix: (Units=GPa)
#
#
# Indices 1 2 3 4 5 6 
#
# 1 141.4008 55.5534 33.1619 -12.2438 -20.7694 -43.8684
# 2 55.5534 113.9386 5.4515 -5.9527 7.5105 -19.7022
# 3 33.1619 5.4515 80.0648 -9.7592 -10.8834 10.3295
# 4 -12.2438 -5.9527 -9.7592 39.3293 9.8461 -7.4758
# 5 -20.7694 7.5105 -10.8834 9.8461 44.8817 -1.3034
# 6 -43.8684 -19.7022 10.3295 -7.4758 -1.3034 56.3924
#
#
#
# Elastic Compliance Matrix: (Units=1/GPa)
#
#
# Indices 1 2 3 4 5 6 
#
# 1 0.015652 -0.005498 -0.006420 0.003160 0.006262 0.011995
# 2 -0.005498 0.011731 0.001068 0.001417 -0.004568 -0.000292
# 3 -0.006420 0.001068 0.016178 0.000651 0.000413 -0.007489
# 4 0.003160 0.001417 0.000651 0.029253 -0.004843 0.006600
# 5 0.006262 -0.004568 0.000413 -0.004843 0.027198 0.003186
# 6 0.011995 -0.000292 -0.007489 0.006600 0.003186 0.029282
#
#
# Mechanical properties :
#
#
# Convention : Reuss Voigt Hill
#
# Bulk Modulus (GPa) = 45.74307 58.19308 51.96807
# Shear Modulus (GPa) = 31.58931 44.20317 37.89624
#
# Velocity S-wave (km/s) = 3.56896 4.22180 3.90903
# Velocity P-wave (km/s) = 5.95213 6.87237 6.42873
#
# Compressibility (1/GPa) = 0.02186124
#
# Stress axis : x y z
#
# Youngs Moduli (GPa) = 63.88761 85.24488 61.81308
#
# Poissons Ratio (x) = 0.46868 0.39683
# Poissons Ratio (y) = 0.35126 -0.06601
# Poissons Ratio (z) = 0.41015 -0.09104
#
# Static dielectric constant tensor:
#      x y z
#    x 2.023590 0.079890 0.025340 
#    y 0.079890 1.795750 -0.080830 
#    z 0.025340 -0.080830 2.030580 
# 
# From -- ./inp_files/205839.got.cif
#   From: 2010.05.17/outbox.cif.g08.bks.cpg/sg2_103_cif.got.tgz:205839.got - 2010.06.03 11:33:40.
