data_PCOD9016057
_publ_section_title
;
Structure prediction by ZEFSAII (Michael W. Deem and Ramdas Pophale) SiO2 
 PCOD9016057
Probable space group: P -1
;
_chemical_formula_sum "Si O2"
_cell_formula_units_Z 12
_cell_length_a 11.613832
_cell_length_b 7.962532
_cell_length_c 12.061430
_cell_angle_alpha 48.008561
_cell_angle_beta 38.427858
_cell_angle_gamma 49.092665
_cell_volume 494.186544
_symmetry_space_group_name_H-M "P -1"
_symmetry_group_IT_number 2
_symmetry_cell_setting 'triclinic'
loop_
_space_group_symop_operation_xyz
x,y,z
-x,-y,-z
loop_
_atom_site_type_symbol
_atom_site_label
_atom_site_fract_x
_atom_site_fract_y
_atom_site_fract_z
Si Si1 0.485035 0.565054 0.853402
Si Si2 0.793395 0.606671 0.004692
Si Si3 0.457967 0.736225 0.354090
Si Si4 0.068408 0.721475 0.567485
Si Si5 0.798502 0.788539 0.541824
Si Si6 0.150889 0.906483 0.831584
O O1 0.376740 0.387824 0.959778
O O2 0.691785 0.602837 0.662955
O O3 0.350623 0.809214 0.791938
O O4 0.500000 0.500000 0.000000
O O5 0.659611 0.749926 0.140599
O O6 0.970128 0.650117 0.783633
O O7 0.131646 0.667184 0.894940
O O8 0.500000 0.500000 0.500000
O O9 0.298816 0.677512 0.417451
O O10 0.352470 0.979431 0.388953
O O11 0.955406 0.670053 0.568235
O O12 0.000000 0.000000 0.500000
O O13 0.868960 0.899800 0.332215
O O14 0.000000 0.000000 0.000000
#
# Coordination Sequence:
#
# PCOD9016057 Si02
#       6
#     2   2   2   2   2   2
#     4  10  21  42  66  93 132 172 216 263 321 391
#     4  10  23  44  67  99 130 171 222 262 335 384
#     4  11  23  44  70  97 132 173 217 276 326 389
#     4  10  24  42  65  98 134 170 219 265 327 392
#     4  11  21  44  65  98 131 171 219 270 326 387
#     4  10  23  40  65  97 129 168 218 270 322 386
#
# _framework density 24.282328
#
# number of rings (size 3 to 8) (size 9 to 14) (size 15 to 20)
#    1.000    0.667    3.333    0.500    0.000    7.333 
#    6.000    2.500    0.000    0.000    0.000    0.000 
#    0.000    0.000    0.000    0.000    0.000    0.000 
#
# Total GULP energy -66864.323269 kJ/mol
# GULP energy per Si atom -5572.026939 kJ/mol
# Density = 2.422706 g / cm^3
# Si number density = 24.282328 Si / 1000 Ang^3
#
#
#
# Elastic Constant Matrix: (Units=GPa)
#
#
# Indices 1 2 3 4 5 6 
#
# 1 95.1241 7.8561 -1.9433 3.8592 6.6690 -10.9548
# 2 7.8561 72.0167 13.2121 19.7783 3.1719 -3.2392
# 3 -1.9433 13.2121 141.3319 7.9580 14.3144 -6.6118
# 4 3.8592 19.7783 7.9580 45.2990 -3.2970 1.3436
# 5 6.6690 3.1719 14.3144 -3.2970 44.1050 -2.2377
# 6 -10.9548 -3.2392 -6.6118 1.3436 -2.2377 35.5368
#
#
#
# Elastic Compliance Matrix: (Units=1/GPa)
#
#
# Indices 1 2 3 4 5 6 
#
# 1 0.011144 -0.000850 0.000617 -0.000913 -0.001720 0.003399
# 2 -0.000850 0.016167 -0.000955 -0.006941 -0.001181 0.001222
# 3 0.000617 -0.000955 0.007558 -0.001186 -0.002495 0.001397
# 4 -0.000913 -0.006941 -0.001186 0.025656 0.002842 -0.001926
# 5 -0.001720 -0.001181 -0.002495 0.002842 0.024056 0.000305
# 6 0.003399 0.001222 0.001397 -0.001926 0.000305 0.029651
#
#
# Mechanical properties :
#
#
# Convention : Reuss Voigt Hill
#
# Bulk Modulus (GPa) = 30.77487 38.52472 34.64980
# Shear Modulus (GPa) = 39.23433 44.27801 41.75617
#
# Velocity S-wave (km/s) = 4.02401 4.27484 4.15132
# Velocity P-wave (km/s) = 5.85589 6.34551 6.10561
#
# Compressibility (1/GPa) = 0.03249405
#
# Stress axis : x y z
#
# Youngs Moduli (GPa) = 89.73088 61.85540 132.30573
#
# Poissons Ratio (x) = 0.05255 -0.08167
# Poissons Ratio (y) = 0.07623 0.12640
# Poissons Ratio (z) = -0.05539 0.05910
#
# Static dielectric constant tensor:
#      x y z
#    x 1.900900 0.144100 0.023700 
#    y 0.144100 1.958250 0.056530 
#    z 0.023700 0.056530 1.875160 
# 
# From -- ./inp_files/411550.got.cif
#   From: 2010.05.17/outbox.cif.g08.bks.cpg/sg2_206_cif.got.tgz:411550.got - 2010.06.03 11:33:40.
