data_PCOD9016949
_publ_section_title
;
Structure prediction by ZEFSAII (Michael W. Deem and Ramdas Pophale) SiO2 
 PCOD9016949
Probable space group: P -1
;
_chemical_formula_sum "Si O2"
_cell_formula_units_Z 13
_cell_length_a 9.031297
_cell_length_b 7.820130
_cell_length_c 12.297434
_cell_angle_alpha 134.435777
_cell_angle_beta 127.257857
_cell_angle_gamma 61.593300
_cell_volume 491.530303
_symmetry_space_group_name_H-M "P -1"
_symmetry_group_IT_number 2
_symmetry_cell_setting 'triclinic'
loop_
_space_group_symop_operation_xyz
x,y,z
-x,-y,-z
loop_
_atom_site_type_symbol
_atom_site_label
_atom_site_fract_x
_atom_site_fract_y
_atom_site_fract_z
Si Si1 0.031812 0.734642 0.335187
Si Si2 0.628394 0.213680 0.168195
Si Si3 0.410640 0.832539 0.617385
Si Si4 0.000000 0.500000 0.000000
Si Si5 0.684583 0.899648 0.603854
Si Si6 0.967140 0.937688 0.081249
Si Si7 0.279139 0.352876 0.703351
O O1 0.254883 0.715411 0.425370
O O2 0.951487 0.706873 0.167078
O O3 0.909948 0.570634 0.281806
O O4 0.000000 0.000000 0.500000
O O5 0.619700 0.246310 0.308351
O O6 0.579120 0.451737 0.178897
O O7 0.830619 0.127309 0.169651
O O8 0.500000 0.000000 0.000000
O O9 0.610321 0.779081 0.624939
O O10 0.374412 0.125329 0.713542
O O11 0.895107 0.676576 0.942129
O O12 0.783899 0.730629 0.481378
O O13 0.500000 0.000000 0.500000
O O14 0.823474 0.092844 0.787387
O O15 0.000000 0.000000 0.000000
#
# Coordination Sequence:
#
# PCOD9016949 Si02
#       7
#     2   2   2   1   2   2   2
#     4  10  21  42  70 103 136 181 236 284 348 428
#     4  12  27  43  65 102 143 187 242 296 358 435
#     4  10  22  42  68  98 137 183 242 294 349 435
#     4  12  24  42  74 102 142 192 232 296 366 414
#     4  10  22  44  72 101 139 189 241 293 359 435
#     4  12  26  43  67 104 141 182 241 297 357 434
#     4  10  22  43  69  95 139 188 230 297 363 410
#
# _framework density 26.448013
#
# number of rings (size 3 to 8) (size 9 to 14) (size 15 to 20)
#    0.000    1.231    0.000    7.385    0.000    8.615 
#    0.000    0.000    0.000    0.000    0.000    0.000 
#    0.000    0.000    0.000    0.000    0.000    0.000 
#
# Total GULP energy -72401.748046 kJ/mol
# GULP energy per Si atom -5569.365234 kJ/mol
# Density = 2.638782 g / cm^3
# Si number density = 26.448013 Si / 1000 Ang^3
#
#
#
# Elastic Constant Matrix: (Units=GPa)
#
#
# Indices 1 2 3 4 5 6 
#
# 1 167.0244 37.6400 30.7869 -17.9066 -30.1438 45.9984
# 2 37.6400 122.7425 17.3617 10.2798 -7.4503 41.3889
# 3 30.7869 17.3617 103.6963 -4.8535 -7.6346 12.7284
# 4 -17.9066 10.2798 -4.8535 29.4200 7.0097 -0.2310
# 5 -30.1438 -7.4503 -7.6346 7.0097 53.7954 -4.1947
# 6 45.9984 41.3889 12.7284 -0.2310 -4.1947 51.0336
#
#
#
# Elastic Compliance Matrix: (Units=1/GPa)
#
#
# Indices 1 2 3 4 5 6 
#
# 1 0.009676 -0.000310 -0.001350 0.004771 0.003959 -0.007786
# 2 -0.000310 0.011919 -0.000924 -0.004881 0.001274 -0.009074
# 3 -0.001350 -0.000924 0.010351 0.001110 0.000395 -0.000577
# 4 0.004771 -0.004881 0.001110 0.039503 -0.003046 -0.000690
# 5 0.003959 0.001274 0.000395 -0.003046 0.021205 -0.002971
# 6 -0.007786 -0.009074 -0.000577 -0.000690 -0.002971 0.033869
#
#
# Mechanical properties :
#
#
# Convention : Reuss Voigt Hill
#
# Bulk Modulus (GPa) = 37.34623 62.78225 50.06424
# Shear Modulus (GPa) = 35.55748 47.36145 41.45947
#
# Velocity S-wave (km/s) = 3.67062 4.23630 3.96357
# Velocity P-wave (km/s) = 5.66709 6.90781 6.31798
#
# Compressibility (1/GPa) = 0.02677647
#
# Stress axis : x y z
#
# Youngs Moduli (GPa) = 103.34692 83.90202 96.60781
#
# Poissons Ratio (x) = 0.02601 0.13046
# Poissons Ratio (y) = 0.03203 0.08930
# Poissons Ratio (z) = 0.13956 0.07756
#
# Static dielectric constant tensor:
#      x y z
#    x 2.691200 0.502650 -0.322180 
#    y 0.502650 2.988300 -0.370320 
#    z -0.322180 -0.370320 2.896490 
# 
# From -- ./inp_files/377374.got.cif
#   From: 2010.05.17/outbox.cif.g08.bks.cpg/sg2_189_cif.got.tgz:377374.got - 2010.06.03 11:33:40.
