data_PCOD9016731
_publ_section_title
;
Structure prediction by ZEFSAII (Michael W. Deem and Ramdas Pophale) SiO2 
 PCOD9016731
Probable space group: P -1
;
_chemical_formula_sum "Si O2"
_cell_formula_units_Z 16
_cell_length_a 9.907260
_cell_length_b 13.668250
_cell_length_c 5.403619
_cell_angle_alpha 64.496951
_cell_angle_beta 74.539758
_cell_angle_gamma 102.478704
_cell_volume 588.700015
_symmetry_space_group_name_H-M "P -1"
_symmetry_group_IT_number 2
_symmetry_cell_setting 'triclinic'
loop_
_space_group_symop_operation_xyz
x,y,z
-x,-y,-z
loop_
_atom_site_type_symbol
_atom_site_label
_atom_site_fract_x
_atom_site_fract_y
_atom_site_fract_z
Si Si1 0.578232 0.937920 0.345652
Si Si2 0.525239 0.635221 0.382674
Si Si3 0.853210 0.046697 0.745108
Si Si4 0.743881 0.236732 0.420743
Si Si5 0.405197 0.583692 0.000098
Si Si6 0.805295 0.849945 0.598694
Si Si7 0.101610 0.639146 0.289725
Si Si8 0.807367 0.658987 0.505511
O O1 0.166860 0.854399 0.530270
O O2 0.432576 0.850753 0.364665
O O3 0.665678 0.866315 0.514470
O O4 0.500000 0.000000 0.500000
O O5 0.500000 0.500000 0.500000
O O6 0.418671 0.636017 0.663365
O O7 0.476662 0.667604 0.107037
O O8 0.696277 0.689257 0.338984
O O9 0.719581 0.027816 0.027235
O O10 0.029937 0.087378 0.680972
O O11 0.816724 0.922208 0.763752
O O12 0.812479 0.317772 0.538930
O O13 0.209972 0.690453 0.942160
O O14 0.252857 0.480720 0.272200
O O15 0.500000 0.500000 0.000000
O O16 0.790119 0.716666 0.711920
O O17 0.000000 0.500000 0.500000
O O18 0.975474 0.697468 0.283332
#
# Coordination Sequence:
#
# PCOD9016731 Si02
#       8
#     2   2   2   2   2   2   2   2
#     4  12  26  48  82 118 171 215 272 340 415 500
#     4   8  16  34  56  88 126 178 239 303 376 441
#     4  11  25  49  81 120 162 213 274 337 409 499
#     4  12  27  52  84 113 160 217 272 339 419 487
#     4   8  16  34  56  88 126 178 239 303 376 441
#     4  11  25  45  75 122 164 209 266 336 409 500
#     4  12  29  53  79 115 155 217 283 342 407 497
#     4  10  21  42  69 101 152 200 257 323 402 462
#
# _framework density 27.178529999999999
#
# number of rings (size 3 to 8) (size 9 to 14) (size 15 to 20)
#    0.000    1.750    2.500    1.875    1.750    6.000 
#   22.500    0.000    0.000    0.000    0.000    0.000 
#    0.000    0.000    0.000    0.000    0.000    0.000 
#
# Total GULP energy -89436.253924 kJ/mol
# GULP energy per Si atom -5589.765870 kJ/mol
# Density = 2.711667 g / cm^3
# Si number density = 27.178530 Si / 1000 Ang^3
#
#
#
# Elastic Constant Matrix: (Units=GPa)
#
#
# Indices 1 2 3 4 5 6 
#
# 1 169.6048 49.4977 87.4062 12.1670 -43.0576 28.7180
# 2 49.4977 119.3306 44.0183 13.6086 13.0695 17.8256
# 3 87.4062 44.0183 200.7553 19.9233 -5.6919 11.9418
# 4 12.1670 13.6086 19.9233 52.5307 -10.3244 6.2691
# 5 -43.0576 13.0695 -5.6919 -10.3244 58.4469 6.9313
# 6 28.7180 17.8256 11.9418 6.2691 6.9313 46.1095
#
#
#
# Elastic Compliance Matrix: (Units=1/GPa)
#
#
# Indices 1 2 3 4 5 6 
#
# 1 0.013731 -0.004548 -0.004468 0.003023 0.012166 -0.007877
# 2 -0.004548 0.011493 -0.000416 -0.003026 -0.006482 -0.000117
# 3 -0.004468 -0.000416 0.007050 -0.002381 -0.003160 0.001916
# 4 0.003023 -0.003026 -0.002381 0.021898 0.007030 -0.004131
# 5 0.012166 -0.006482 -0.003160 0.007030 0.029601 -0.009659
# 6 -0.007877 -0.000117 0.001916 -0.004131 -0.009659 0.028156
#
#
# Mechanical properties :
#
#
# Convention : Reuss Voigt Hill
#
# Bulk Modulus (GPa) = 74.57189 94.61504 84.59347
# Shear Modulus (GPa) = 36.96507 52.00200 44.48354
#
# Velocity S-wave (km/s) = 3.69193 4.37893 4.05002
# Velocity P-wave (km/s) = 6.75805 7.77526 7.28443
#
# Compressibility (1/GPa) = 0.01340988
#
# Stress axis : x y z
#
# Youngs Moduli (GPa) = 72.82688 87.01246 141.83676
#
# Poissons Ratio (x) = 0.39575 0.63368
# Poissons Ratio (y) = 0.33123 0.05903
# Poissons Ratio (z) = 0.32537 0.03621
#
# Static dielectric constant tensor:
#      x y z
#    x 2.224950 -0.026790 0.072600 
#    y -0.026790 2.145510 -0.024560 
#    z 0.072600 -0.024560 2.342900 
# 
# From -- ./inp_files/193448.got.cif
#   From: 2010.05.17/outbox.cif.g08.bks.cpg/sg2_97_cif.got.tgz:193448.got - 2010.06.03 11:33:40.
