data_PCOD9016593
_publ_section_title
;
Structure prediction by ZEFSAII (Michael W. Deem and Ramdas Pophale) SiO2 
 PCOD9016593
Probable space group: P -1
;
_chemical_formula_sum "Si O2"
_cell_formula_units_Z 16
_cell_length_a 8.927615
_cell_length_b 22.193723
_cell_length_c 7.020159
_cell_angle_alpha 87.652722
_cell_angle_beta 129.665475
_cell_angle_gamma 57.721420
_cell_volume 733.091210
_symmetry_space_group_name_H-M "P -1"
_symmetry_group_IT_number 2
_symmetry_cell_setting 'triclinic'
loop_
_space_group_symop_operation_xyz
x,y,z
-x,-y,-z
loop_
_atom_site_type_symbol
_atom_site_label
_atom_site_fract_x
_atom_site_fract_y
_atom_site_fract_z
Si Si1 0.407624 0.657324 0.759079
Si Si2 0.752634 0.665774 0.512694
Si Si3 0.839763 0.055774 0.670025
Si Si4 0.716183 0.497848 0.271469
Si Si5 0.648798 0.027758 0.176478
Si Si6 0.310806 0.441564 0.360020
Si Si7 0.771594 0.769219 0.268921
Si Si8 0.625147 0.737852 0.780275
O O1 0.473386 0.601036 0.633790
O O2 0.476821 0.710426 0.746694
O O3 0.092570 0.718031 0.576952
O O4 0.629742 0.581828 0.101794
O O5 0.586917 0.643441 0.441981
O O6 0.634241 0.750363 0.298021
O O7 0.833730 0.672895 0.786045
O O8 0.996119 0.588527 0.580702
O O9 0.707049 0.029097 0.447132
O O10 0.607275 0.161104 0.495899
O O11 0.063065 0.032120 0.702066
O O12 0.000000 0.000000 0.000000
O O13 0.714340 0.504800 0.497184
O O14 0.500000 0.500000 0.000000
O O15 0.438695 0.127830 0.926059
O O16 0.500000 0.000000 0.000000
O O17 0.000000 0.500000 0.000000
O O18 0.783733 0.735067 0.078364
#
# Coordination Sequence:
#
# PCOD9016593 Si02
#       8
#     2   2   2   2   2   2   2   2
#     4  11  24  40  62  91 127 166 214 260 308 368
#     4  11  23  39  62  88 123 163 211 256 307 361
#     4  10  21  42  68  95 128 163 208 253 315 382
#     4  12  25  39  63  92 122 168 214 261 308 365
#     4  10  22  41  67  97 127 166 204 253 317 382
#     4  11  25  41  63  87 121 170 215 257 311 367
#     4  11  23  40  64  92 129 163 205 262 312 370
#     4  10  24  41  63  93 126 165 206 260 314 370
#
# _framework density 21.825388
#
# number of rings (size 3 to 8) (size 9 to 14) (size 15 to 20)
#    0.000    1.250    2.500    2.625    5.250    1.000 
#    0.000    3.750    0.000    0.000    0.000    0.000 
#    0.000    0.000    0.000    0.000    0.000    0.000 
#
# Total GULP energy -89293.058588 kJ/mol
# GULP energy per Si atom -5580.816162 kJ/mol
# Density = 2.177571 g / cm^3
# Si number density = 21.825388 Si / 1000 Ang^3
#
#
#
# Elastic Constant Matrix: (Units=GPa)
#
#
# Indices 1 2 3 4 5 6 
#
# 1 40.2454 20.3707 29.1969 7.6240 -3.4995 11.3257
# 2 20.3707 97.0629 59.3936 18.2197 -0.5297 4.9747
# 3 29.1969 59.3936 88.9223 12.6773 -18.6629 22.6041
# 4 7.6240 18.2197 12.6773 38.1921 2.2121 -1.1630
# 5 -3.4995 -0.5297 -18.6629 2.2121 35.9365 -2.1287
# 6 11.3257 4.9747 22.6041 -1.1630 -2.1287 41.1512
#
#
#
# Elastic Compliance Matrix: (Units=1/GPa)
#
#
# Indices 1 2 3 4 5 6 
#
# 1 0.033681 -0.000278 -0.009736 -0.003378 -0.001814 -0.004078
# 2 -0.000278 0.020722 -0.016349 -0.003778 -0.007621 0.006051
# 3 -0.009736 -0.016349 0.031831 -0.002047 0.014750 -0.012124
# 4 -0.003378 -0.003778 -0.002047 0.029615 -0.003082 0.003188
# 5 -0.001814 -0.007621 0.014750 -0.003082 0.035094 -0.004953
# 6 -0.004078 0.006051 -0.012124 0.003188 -0.004953 0.031185
#
#
# Mechanical properties :
#
#
# Convention : Reuss Voigt Hill
#
# Bulk Modulus (GPa) = 29.84180 49.35033 39.59607
# Shear Modulus (GPa) = 20.32324 30.87391 25.59857
#
# Velocity S-wave (km/s) = 3.05482 3.76518 3.42845
# Velocity P-wave (km/s) = 5.11324 6.44691 5.81841
#
# Compressibility (1/GPa) = 0.03351004
#
# Stress axis : x y z
#
# Youngs Moduli (GPa) = 29.69025 48.25731 31.41546
#
# Poissons Ratio (x) = 0.01342 0.30585
# Poissons Ratio (y) = 0.00826 0.51360
# Poissons Ratio (z) = 0.28905 0.78894
#
# Static dielectric constant tensor:
#      x y z
#    x 1.822040 0.035910 -0.006670 
#    y 0.035910 1.816000 0.007830 
#    z -0.006670 0.007830 1.832750 
# 
# From -- ./inp_files/55515.got.cif
#   From: 2010.05.17/outbox.cif.g08.bks.cpg/sg2_28_cif.got.tgz:55515.got - 2010.06.03 11:33:40.
