data_PCOD9016983
_publ_section_title
;
Structure prediction by ZEFSAII (Michael W. Deem and Ramdas Pophale) SiO2 
 PCOD9016983
Probable space group: P -1
;
_chemical_formula_sum "Si O2"
_cell_formula_units_Z 16
_cell_length_a 9.216669
_cell_length_b 29.240488
_cell_length_c 9.906868
_cell_angle_alpha 153.331962
_cell_angle_beta 43.510522
_cell_angle_gamma 137.243309
_cell_volume 792.310618
_symmetry_space_group_name_H-M "P -1"
_symmetry_group_IT_number 2
_symmetry_cell_setting 'triclinic'
loop_
_space_group_symop_operation_xyz
x,y,z
-x,-y,-z
loop_
_atom_site_type_symbol
_atom_site_label
_atom_site_fract_x
_atom_site_fract_y
_atom_site_fract_z
Si Si1 0.829082 0.176710 0.196349
Si Si2 0.626970 0.808503 0.387227
Si Si3 0.101761 0.834832 0.180891
Si Si4 0.388385 0.559881 0.839263
Si Si5 0.406020 0.752556 0.962666
Si Si6 0.909957 0.335630 0.808570
Si Si7 0.790922 0.918774 0.282596
Si Si8 0.606009 0.571605 0.242162
O O1 0.565727 0.148868 0.306325
O O2 0.910623 0.263267 0.486531
O O3 0.899755 0.216566 0.102517
O O4 0.959780 0.090532 0.913922
O O5 0.701037 0.872021 0.365870
O O6 0.848091 0.818811 0.349943
O O7 0.522543 0.683448 0.095794
O O8 0.206246 0.960485 0.419709
O O9 0.247791 0.791595 0.071245
O O10 0.500000 0.500000 0.500000
O O11 0.374410 0.500483 0.833054
O O12 0.160303 0.564290 0.938016
O O13 0.470701 0.652267 0.592754
O O14 0.273198 0.720506 0.107359
O O15 0.629905 0.843330 0.085258
O O16 0.146230 0.364278 0.791586
O O17 0.500000 0.500000 0.000000
#
# Coordination Sequence:
#
# PCOD9016983 Si02
#       8
#     2   2   2   2   2   2   2   2
#     4  10  21  42  70  93 125 178 219 272 317 391
#     4  10  22  42  66  99 134 167 227 273 323 384
#     4  11  27  38  71  99 138 173 220 277 332 386
#     4  11  22  43  69  97 128 177 220 272 327 394
#     4  12  25  47  63 100 144 170 216 281 329 395
#     4  11  24  45  68  91 135 178 213 274 330 390
#     4  11  21  46  68  98 131 181 221 269 334 391
#     4  12  28  44  69 100 132 174 225 269 336 395
#
# _framework density 20.194101
#
# number of rings (size 3 to 8) (size 9 to 14) (size 15 to 20)
#    0.000    1.000    5.000    2.250    7.000    3.500 
#    0.000    0.625    0.000    0.000    0.000    0.000 
#    0.000    0.000    0.000    0.000    0.000    0.000 
#
# Total GULP energy -89395.800479 kJ/mol
# GULP energy per Si atom -5587.237530 kJ/mol
# Density = 2.014814 g / cm^3
# Si number density = 20.194101 Si / 1000 Ang^3
#
#
#
# Elastic Constant Matrix: (Units=GPa)
#
#
# Indices 1 2 3 4 5 6 
#
# 1 159.3907 35.2203 45.0199 -4.7960 -19.3821 5.2012
# 2 35.2203 60.2634 36.8767 0.0083 -17.5791 14.7677
# 3 45.0199 36.8767 87.3947 -8.1392 -9.8175 2.9812
# 4 -4.7960 0.0083 -8.1392 28.8613 -0.0106 -4.4602
# 5 -19.3821 -17.5791 -9.8175 -0.0106 43.9535 4.7952
# 6 5.2012 14.7677 2.9812 -4.4602 4.7952 31.7678
#
#
#
# Elastic Compliance Matrix: (Units=1/GPa)
#
#
# Indices 1 2 3 4 5 6 
#
# 1 0.007820 -0.002224 -0.002819 0.000473 0.001952 -0.000210
# 2 -0.002224 0.031716 -0.011017 -0.005928 0.010969 -0.015834
# 3 -0.002819 -0.011017 0.017609 0.005274 -0.002262 0.005012
# 4 0.000473 -0.005928 0.005274 0.037407 -0.001816 0.007710
# 5 0.001952 0.010969 -0.002262 -0.001816 0.028560 -0.009772
# 6 -0.000210 -0.015834 0.005012 0.007710 -0.009772 0.040960
#
#
# Mechanical properties :
#
#
# Convention : Reuss Voigt Hill
#
# Bulk Modulus (GPa) = 39.96046 60.14253 50.05149
# Shear Modulus (GPa) = 24.44570 33.57864 29.01217
#
# Velocity S-wave (km/s) = 3.48305 4.08216 3.79445
# Velocity P-wave (km/s) = 6.00056 7.21565 6.63597
#
# Compressibility (1/GPa) = 0.02502474
#
# Stress axis : x y z
#
# Youngs Moduli (GPa) = 127.87400 31.53004 56.78795
#
# Poissons Ratio (x) = 0.07013 0.16010
# Poissons Ratio (y) = 0.28444 0.62561
# Poissons Ratio (z) = 0.36052 0.34735
#
# Static dielectric constant tensor:
#      x y z
#    x 1.722400 0.033270 -0.010470 
#    y 0.033270 1.721200 -0.005900 
#    z -0.010470 -0.005900 1.711930 
# 
# From -- ./inp_files/227625.got.cif
#   From: 2010.05.17/outbox.cif.g08.bks.cpg/sg2_114_cif.got.tgz:227625.got - 2010.06.03 11:33:40.
