data_PCOD9016352
_publ_section_title
;
Structure prediction by ZEFSAII (Michael W. Deem and Ramdas Pophale) SiO2 
 PCOD9016352
Probable space group: P -1
;
_chemical_formula_sum "Si O2"
_cell_formula_units_Z 16
_cell_length_a 15.043915
_cell_length_b 12.165262
_cell_length_c 9.205855
_cell_angle_alpha 109.294204
_cell_angle_beta 74.215618
_cell_angle_gamma 44.996241
_cell_volume 733.700206
_symmetry_space_group_name_H-M "P -1"
_symmetry_group_IT_number 2
_symmetry_cell_setting 'triclinic'
loop_
_space_group_symop_operation_xyz
x,y,z
-x,-y,-z
loop_
_atom_site_type_symbol
_atom_site_label
_atom_site_fract_x
_atom_site_fract_y
_atom_site_fract_z
Si Si1 0.880466 0.536025 0.978499
Si Si2 0.639790 0.768874 0.444167
Si Si3 0.089609 0.868163 0.246997
Si Si4 0.656257 0.288410 0.137050
Si Si5 0.511222 0.656871 0.028737
Si Si6 0.182268 0.029190 0.566115
Si Si7 0.511605 0.932496 0.123037
Si Si8 0.539941 0.267237 0.439472
O O1 0.795232 0.558940 0.163694
O O2 0.703545 0.764849 0.051159
O O3 0.020836 0.301118 0.718734
O O4 0.000000 0.500000 0.000000
O O5 0.579662 0.716499 0.528075
O O6 0.500000 0.000000 0.500000
O O7 0.665733 0.830356 0.591694
O O8 0.297417 0.583335 0.070305
O O9 0.144726 0.903780 0.119148
O O10 0.000000 0.000000 0.500000
O O11 0.929614 0.954367 0.303639
O O12 0.509736 0.400645 0.128712
O O13 0.653795 0.193316 0.220456
O O14 0.580896 0.491322 0.333119
O O15 0.320809 0.844091 0.291320
O O16 0.517080 0.787086 0.048610
O O17 0.318115 0.932843 0.585096
O O18 0.500000 0.000000 0.000000
#
# Coordination Sequence:
#
# PCOD9016352 Si02
#       8
#     2   2   2   2   2   2   2   2
#     4  11  22  40  66 100 132 180 240 281 336 420
#     4  10  21  42  67  94 133 187 231 272 339 425
#     4  12  23  41  67  99 129 177 234 271 342 418
#     4  11  24  41  66  97 138 178 217 292 349 403
#     4  12  23  44  67  98 136 179 232 280 346 416
#     4  12  22  40  69  94 131 176 228 286 327 418
#     4  11  23  42  69  99 139 181 225 293 354 404
#     4  11  23  42  66  98 136 179 227 279 352 402
#
# _framework density 21.807271
#
# number of rings (size 3 to 8) (size 9 to 14) (size 15 to 20)
#    0.000    0.750    3.750    6.375    0.000    0.500 
#    0.000    6.250    0.000    0.000    0.000    0.000 
#    0.000    0.000    0.000    0.000    0.000    0.000 
#
# Total GULP energy -89246.392188 kJ/mol
# GULP energy per Si atom -5577.899512 kJ/mol
# Density = 2.175764 g / cm^3
# Si number density = 21.807271 Si / 1000 Ang^3
#
#
#
# Elastic Constant Matrix: (Units=GPa)
#
#
# Indices 1 2 3 4 5 6 
#
# 1 84.9842 10.2181 9.5827 -6.3901 -4.0045 24.7747
# 2 10.2181 66.2552 32.5245 -21.8947 -1.0202 18.7415
# 3 9.5827 32.5245 118.2600 -14.8163 -2.3028 15.5438
# 4 -6.3901 -21.8947 -14.8163 36.5589 4.1140 -4.3328
# 5 -4.0045 -1.0202 -2.3028 4.1140 30.9030 -4.5033
# 6 24.7747 18.7415 15.5438 -4.3328 -4.5033 36.5539
#
#
#
# Elastic Compliance Matrix: (Units=1/GPa)
#
#
# Indices 1 2 3 4 5 6 
#
# 1 0.014828 0.001370 0.000079 0.002182 0.000151 -0.010509
# 2 0.001370 0.023527 -0.003794 0.011845 -0.002402 -0.010270
# 3 0.000079 -0.003794 0.009968 0.001513 0.000113 -0.002154
# 4 0.002182 0.011845 0.001513 0.035418 -0.004593 -0.004563
# 5 0.000151 -0.002402 0.000113 -0.004593 0.033601 0.004677
# 6 -0.010509 -0.010270 -0.002154 -0.004563 0.004677 0.040696
#
#
# Mechanical properties :
#
#
# Convention : Reuss Voigt Hill
#
# Bulk Modulus (GPa) = 22.91863 41.57221 32.24542
# Shear Modulus (GPa) = 28.20547 35.28145 31.74346
#
# Velocity S-wave (km/s) = 3.60029 4.02665 3.81942
# Velocity P-wave (km/s) = 5.27401 6.38149 5.85400
#
# Compressibility (1/GPa) = 0.04363262
#
# Stress axis : x y z
#
# Youngs Moduli (GPa) = 67.44041 42.50496 100.32162
#
# Poissons Ratio (x) = -0.05825 -0.00794
# Poissons Ratio (y) = -0.09242 0.38067
# Poissons Ratio (z) = -0.00534 0.16128
#
# Static dielectric constant tensor:
#      x y z
#    x 1.878910 0.011770 -0.021220 
#    y 0.011770 1.775460 0.026840 
#    z -0.021220 0.026840 1.886550 
# 
# From -- ./inp_files/307136.got.cif
#   From: 2010.05.17/outbox.cif.g08.bks.cpg/sg2_154_cif.got.tgz:307136.got - 2010.06.03 11:33:40.
