data_PCOD9016412
_publ_section_title
;
Structure prediction by ZEFSAII (Michael W. Deem and Ramdas Pophale) SiO2 
 PCOD9016412
Probable space group: P -1
;
_chemical_formula_sum "Si O2"
_cell_formula_units_Z 14
_cell_length_a 9.784264
_cell_length_b 8.024743
_cell_length_c 23.533701
_cell_angle_alpha 36.578395
_cell_angle_beta 148.900915
_cell_angle_gamma 134.744655
_cell_volume 567.955535
_symmetry_space_group_name_H-M "P -1"
_symmetry_group_IT_number 2
_symmetry_cell_setting 'triclinic'
loop_
_space_group_symop_operation_xyz
x,y,z
-x,-y,-z
loop_
_atom_site_type_symbol
_atom_site_label
_atom_site_fract_x
_atom_site_fract_y
_atom_site_fract_z
Si Si1 0.061130 0.715088 0.513687
Si Si2 0.328329 0.218263 0.300662
Si Si3 0.921739 0.685879 0.993268
Si Si4 0.462470 0.317101 0.914255
Si Si5 0.768969 0.767710 0.037669
Si Si6 0.865158 0.406791 0.636282
Si Si7 0.160467 0.310402 0.338945
O O1 0.377697 0.714504 0.636970
O O2 0.000000 0.500000 0.500000
O O3 0.890259 0.618071 0.533999
O O4 0.019410 0.026389 0.390892
O O5 0.338911 0.240475 0.367533
O O6 0.232498 0.904526 0.333168
O O7 0.120197 0.445136 0.145775
O O8 0.691262 0.537174 0.914699
O O9 0.768592 0.817533 0.957044
O O10 0.094718 0.954314 0.960570
O O11 0.485223 0.310414 0.993567
O O12 0.173174 0.391594 0.770587
O O13 0.500000 0.000000 0.000000
O O14 0.956188 0.516644 0.183688
O O15 0.722631 0.527751 0.608288
#
# Coordination Sequence:
#
# PCOD9016412 Si02
#       7
#     2   2   2   2   2   2   2
#     4  12  26  47  73  97 132 181 229 279 341 392
#     4  11  24  45  71 100 137 176 223 279 333 400
#     4  10  21  42  67  97 133 173 216 267 332 397
#     4  11  22  38  65  96 139 169 211 270 325 401
#     4   9  22  41  64  97 130 175 217 267 331 393
#     4  11  25  45  67 106 132 178 223 273 344 395
#     4  10  23  48  68  98 138 173 226 282 327 399
#
# _framework density 24.649818
#
# number of rings (size 3 to 8) (size 9 to 14) (size 15 to 20)
#    0.000    1.429    2.857    1.286    2.000    3.429 
#   18.000    0.000    0.000    0.000    0.000    0.000 
#    0.000    0.000    0.000    0.000    0.000    0.000 
#
# Total GULP energy -78289.285287 kJ/mol
# GULP energy per Si atom -5592.091806 kJ/mol
# Density = 2.459371 g / cm^3
# Si number density = 24.649818 Si / 1000 Ang^3
#
#
#
# Elastic Constant Matrix: (Units=GPa)
#
#
# Indices 1 2 3 4 5 6 
#
# 1 143.1386 32.0062 1.0714 -1.5981 -19.7879 -15.2846
# 2 32.0062 157.6728 32.2160 3.3475 11.5682 6.0178
# 3 1.0714 32.2160 69.3887 -13.3239 2.4696 -6.4534
# 4 -1.5981 3.3475 -13.3239 37.5423 -7.7757 3.2201
# 5 -19.7879 11.5682 2.4696 -7.7757 29.7076 0.7285
# 6 -15.2846 6.0178 -6.4534 3.2201 0.7285 45.8831
#
#
#
# Elastic Compliance Matrix: (Units=1/GPa)
#
#
# Indices 1 2 3 4 5 6 
#
# 1 0.009074 -0.002944 0.001760 0.002567 0.007633 0.003355
# 2 -0.002944 0.008459 -0.004570 -0.003482 -0.005728 -0.002398
# 3 0.001760 -0.004570 0.018087 0.007310 0.003284 0.003164
# 4 0.002567 -0.003482 0.007310 0.031895 0.010808 -0.000070
# 5 0.007633 -0.005728 0.003284 0.010808 0.043476 0.002307
# 6 0.003355 -0.002398 0.003164 -0.000070 0.002307 0.023640
#
#
# Mechanical properties :
#
#
# Convention : Reuss Voigt Hill
#
# Bulk Modulus (GPa) = 41.47272 55.64306 48.55789
# Shear Modulus (GPa) = 32.43046 42.95371 37.69208
#
# Velocity S-wave (km/s) = 3.63112 4.17892 3.91462
# Velocity P-wave (km/s) = 5.86867 6.77547 6.33831
#
# Compressibility (1/GPa) = 0.02411224
#
# Stress axis : x y z
#
# Youngs Moduli (GPa) = 110.21083 118.21388 55.28763
#
# Poissons Ratio (x) = 0.34803 -0.09730
# Poissons Ratio (y) = 0.32446 0.25265
# Poissons Ratio (z) = -0.19397 0.54021
#
# Static dielectric constant tensor:
#      x y z
#    x 2.006360 -0.057490 -0.022950 
#    y -0.057490 2.121770 0.094750 
#    z -0.022950 0.094750 1.929820 
# 
# From -- ./inp_files/433263.got.cif
#   From: 2010.05.17/outbox.cif.g08.bks.cpg/sg2_217_cif.got.tgz:433263.got - 2010.06.03 11:33:40.
