data_PCOD9016425
_publ_section_title
;
Structure prediction by ZEFSAII (Michael W. Deem and Ramdas Pophale) SiO2 
 PCOD9016425
Probable space group: P -1
;
_chemical_formula_sum "Si O2"
_cell_formula_units_Z 16
_cell_length_a 9.286596
_cell_length_b 17.635070
_cell_length_c 11.738903
_cell_angle_alpha 152.509604
_cell_angle_beta 58.584009
_cell_angle_gamma 133.406929
_cell_volume 621.929924
_symmetry_space_group_name_H-M "P -1"
_symmetry_group_IT_number 2
_symmetry_cell_setting 'triclinic'
loop_
_space_group_symop_operation_xyz
x,y,z
-x,-y,-z
loop_
_atom_site_type_symbol
_atom_site_label
_atom_site_fract_x
_atom_site_fract_y
_atom_site_fract_z
Si Si1 0.275074 0.356881 0.556776
Si Si2 0.647223 0.770231 0.058163
Si Si3 0.453446 0.940978 0.234948
Si Si4 0.917366 0.773265 0.763188
Si Si5 0.970836 0.288177 0.760699
Si Si6 0.448264 0.793598 0.796212
Si Si7 0.758678 0.336170 0.510842
Si Si8 0.739982 0.648705 0.070707
O O1 0.428886 0.556854 0.833747
O O2 0.247730 0.381100 0.467176
O O3 0.049469 0.245364 0.555631
O O4 0.368422 0.227302 0.339078
O O5 0.805092 0.752231 0.896902
O O6 0.730142 0.797874 0.188511
O O7 0.611451 0.931732 0.239302
O O8 0.249707 0.846722 0.267994
O O9 0.554525 0.159458 0.428732
O O10 0.415221 0.804534 0.957790
O O11 0.094990 0.738994 0.644041
O O12 0.000000 0.000000 0.000000
O O13 0.124672 0.288002 0.788436
O O14 0.000000 0.500000 0.000000
O O15 0.268810 0.640923 0.581105
O O16 0.500000 0.000000 0.000000
O O17 0.818897 0.534351 0.814625
O O18 0.500000 0.500000 0.000000
#
# Coordination Sequence:
#
# PCOD9016425 Si02
#       8
#     2   2   2   2   2   2   2   2
#     4  12  23  45  72  98 140 187 228 283 354 411
#     4  12  24  44  73 100 141 182 234 283 354 407
#     4  11  24  46  70 102 142 189 230 288 355 420
#     4  12  25  44  71 110 137 178 237 293 347 415
#     4  12  25  46  70 105 141 188 234 283 347 424
#     4  10  21  42  67  97 139 179 226 287 345 409
#     4  11  24  44  69 102 140 182 232 295 349 404
#     4  12  25  48  69 102 144 182 236 292 338 418
#
# _framework density 25.726369999999999
#
# number of rings (size 3 to 8) (size 9 to 14) (size 15 to 20)
#    0.000    0.500    6.250    1.875    1.750    0.500 
#    2.250    5.000    0.000    0.000    0.000    0.000 
#    0.000    0.000    0.000    0.000    0.000    0.000 
#
# Total GULP energy -89551.390814 kJ/mol
# GULP energy per Si atom -5596.961926 kJ/mol
# Density = 2.566782 g / cm^3
# Si number density = 25.726370 Si / 1000 Ang^3
#
#
#
# Elastic Constant Matrix: (Units=GPa)
#
#
# Indices 1 2 3 4 5 6 
#
# 1 139.4807 32.8461 21.3883 -13.4702 -19.5811 -7.1345
# 2 32.8461 127.6222 22.0272 -14.4785 -12.9163 6.5023
# 3 21.3883 22.0272 89.6248 -11.1454 -15.7975 0.9700
# 4 -13.4702 -14.4785 -11.1454 45.1392 5.7472 -6.3015
# 5 -19.5811 -12.9163 -15.7975 5.7472 37.1124 -11.7863
# 6 -7.1345 6.5023 0.9700 -6.3015 -11.7863 55.6973
#
#
#
# Elastic Compliance Matrix: (Units=1/GPa)
#
#
# Indices 1 2 3 4 5 6 
#
# 1 0.008512 -0.001579 -0.000737 0.001655 0.004116 0.002346
# 2 -0.001579 0.008833 -0.001364 0.001773 0.001142 -0.000767
# 3 -0.000737 -0.001364 0.012716 0.002047 0.004563 0.001040
# 4 0.001655 0.001773 0.002047 0.024153 -0.000558 0.002584
# 5 0.004116 0.001142 0.004563 -0.000558 0.033901 0.007425
# 6 0.002346 -0.000767 0.001040 0.002584 0.007425 0.020190
#
#
# Mechanical properties :
#
#
# Convention : Reuss Voigt Hill
#
# Bulk Modulus (GPa) = 44.05012 56.58344 50.31678
# Shear Modulus (GPa) = 40.57348 46.28752 43.43050
#
# Velocity S-wave (km/s) = 3.97560 4.24633 4.11319
# Velocity P-wave (km/s) = 6.18333 6.78851 6.49297
#
# Compressibility (1/GPa) = 0.02270141
#
# Stress axis : x y z
#
# Youngs Moduli (GPa) = 117.48153 113.20940 78.63930
#
# Poissons Ratio (x) = 0.17871 0.05798
# Poissons Ratio (y) = 0.18546 0.10727
# Poissons Ratio (z) = 0.08662 0.15443
#
# Static dielectric constant tensor:
#      x y z
#    x 2.052910 0.000940 0.082790 
#    y 0.000940 2.064570 0.103150 
#    z 0.082790 0.103150 2.089680 
# 
# From -- ./inp_files/226537.got.cif
#   From: 2010.05.17/outbox.cif.g08.bks.cpg/sg2_114_cif.got.tgz:226537.got - 2010.06.03 11:33:40.
