data_PCOD9016851
_publ_section_title
;
Structure prediction by ZEFSAII (Michael W. Deem and Ramdas Pophale) SiO2 
 PCOD9016851
Probable space group: P -1
;
_chemical_formula_sum "Si O2"
_cell_formula_units_Z 16
_cell_length_a 13.606123
_cell_length_b 6.421608
_cell_length_c 16.823919
_cell_angle_alpha 104.639594
_cell_angle_beta 146.868453
_cell_angle_gamma 90.169148
_cell_volume 710.457994
_symmetry_space_group_name_H-M "P -1"
_symmetry_group_IT_number 2
_symmetry_cell_setting 'triclinic'
loop_
_space_group_symop_operation_xyz
x,y,z
-x,-y,-z
loop_
_atom_site_type_symbol
_atom_site_label
_atom_site_fract_x
_atom_site_fract_y
_atom_site_fract_z
Si Si1 0.573507 0.783880 0.868267
Si Si2 0.756962 0.722787 0.453796
Si Si3 0.746462 0.285572 0.749349
Si Si4 0.119113 0.214146 0.044206
Si Si5 0.247665 0.976848 0.673684
Si Si6 0.939996 0.417032 0.601248
Si Si7 0.702383 0.688297 0.118686
Si Si8 0.373180 0.921717 0.523309
O O1 0.419054 0.528628 0.708388
O O2 0.748675 0.862165 0.931898
O O3 0.455296 0.950411 0.810096
O O4 0.655929 0.751571 0.006141
O O5 0.771750 0.861528 0.395273
O O6 0.934385 0.663272 0.600067
O O7 0.714141 0.880558 0.506779
O O8 0.755703 0.541779 0.801687
O O9 0.666403 0.210376 0.599680
O O10 0.606015 0.086535 0.696667
O O11 0.960932 0.283248 0.896780
O O12 0.000000 0.000000 0.000000
O O13 0.229339 0.089360 0.754563
O O14 0.088598 0.721888 0.515115
O O15 0.745080 0.267300 0.507785
O O16 0.129005 0.412409 0.772590
O O17 0.500000 0.500000 0.000000
#
# Coordination Sequence:
#
# PCOD9016851 Si02
#       8
#     2   2   2   2   2   2   2   2
#     4  11  23  44  69  99 140 182 229 285 352 409
#     4  10  21  42  69  96 134 183 228 277 347 407
#     4  10  23  41  66  98 139 174 237 286 343 412
#     4  11  25  41  67 103 140 181 227 284 356 409
#     4  10  23  44  69  96 136 183 227 284 344 417
#     4  10  24  42  70  96 139 181 234 280 353 411
#     4  12  24  46  68 104 136 179 230 292 350 417
#     4  10  21  43  68  96 132 186 232 288 336 412
#
# _framework density 22.520685
#
# number of rings (size 3 to 8) (size 9 to 14) (size 15 to 20)
#    0.000    1.500    2.500    1.500    5.250    1.500 
#   13.500    2.500    0.000    0.000    0.000    0.000 
#    0.000    0.000    0.000    0.000    0.000    0.000 
#
# Total GULP energy -89450.952166 kJ/mol
# GULP energy per Si atom -5590.684510 kJ/mol
# Density = 2.246943 g / cm^3
# Si number density = 22.520685 Si / 1000 Ang^3
#
#
#
# Elastic Constant Matrix: (Units=GPa)
#
#
# Indices 1 2 3 4 5 6 
#
# 1 119.1086 63.8370 50.3850 -13.0352 1.4482 7.2004
# 2 63.8370 112.1170 50.0467 -23.3121 8.4504 1.4952
# 3 50.3850 50.0467 97.0477 -19.6270 0.2496 0.4622
# 4 -13.0352 -23.3121 -19.6270 46.2719 -2.4137 12.2564
# 5 1.4482 8.4504 0.2496 -2.4137 25.5944 -1.5343
# 6 7.2004 1.4952 0.4622 12.2564 -1.5343 34.4543
#
#
#
# Elastic Compliance Matrix: (Units=1/GPa)
#
#
# Indices 1 2 3 4 5 6 
#
# 1 0.013337 -0.005952 -0.003889 -0.000211 0.001088 -0.002353
# 2 -0.005952 0.015314 -0.003887 0.004469 -0.004329 -0.001151
# 3 -0.003889 -0.003887 0.015036 0.003516 0.001664 -0.000397
# 4 -0.000211 0.004469 0.003516 0.028008 0.000536 -0.010136
# 5 0.001088 -0.004329 0.001664 0.000536 0.040566 0.001554
# 6 -0.002353 -0.001151 -0.000397 -0.010136 0.001554 0.033246
#
#
# Mechanical properties :
#
#
# Convention : Reuss Voigt Hill
#
# Bulk Modulus (GPa) = 61.60848 72.97897 67.29373
# Shear Modulus (GPa) = 28.03106 32.19776 30.11441
#
# Velocity S-wave (km/s) = 3.53183 3.78524 3.66073
# Velocity P-wave (km/s) = 6.63683 7.18190 6.91474
#
# Compressibility (1/GPa) = 0.01623153
#
# Stress axis : x y z
#
# Youngs Moduli (GPa) = 74.98007 65.29912 66.50566
#
# Poissons Ratio (x) = 0.38868 0.25864
# Poissons Ratio (y) = 0.44630 0.25848
# Poissons Ratio (z) = 0.29160 0.25379
#
# Static dielectric constant tensor:
#      x y z
#    x 1.837980 0.007120 0.049100 
#    y 0.007120 1.828060 0.012790 
#    z 0.049100 0.012790 1.871330 
# 
# From -- ./inp_files/571742.got.cif
#   From: 2010.05.17/outbox.cif.g08.bks.cpg/sg2_286_cif.got.tgz:571742.got - 2010.06.03 11:33:40.
