data_PCOD9016533
_publ_section_title
;
Structure prediction by ZEFSAII (Michael W. Deem and Ramdas Pophale) SiO2 
 PCOD9016533
Probable space group: P -1
;
_chemical_formula_sum "Si O2"
_cell_formula_units_Z 14
_cell_length_a 6.919991
_cell_length_b 23.646730
_cell_length_c 21.191191
_cell_angle_alpha 168.181869
_cell_angle_beta 114.055150
_cell_angle_gamma 64.764031
_cell_volume 641.528614
_symmetry_space_group_name_H-M "P -1"
_symmetry_group_IT_number 2
_symmetry_cell_setting 'triclinic'
loop_
_space_group_symop_operation_xyz
x,y,z
-x,-y,-z
loop_
_atom_site_type_symbol
_atom_site_label
_atom_site_fract_x
_atom_site_fract_y
_atom_site_fract_z
Si Si1 0.502251 0.340890 0.259461
Si Si2 0.344564 0.890080 0.807890
Si Si3 0.768635 0.754570 0.038780
Si Si4 0.354815 0.306376 0.805780
Si Si5 0.881907 0.364141 0.747666
Si Si6 0.033939 0.411042 0.588585
Si Si7 0.283230 0.845258 0.026473
O O1 0.500000 0.500000 0.500000
O O2 0.474861 0.595494 0.484392
O O3 0.700020 0.158449 0.052824
O O4 0.330278 0.129641 0.015648
O O5 0.127836 0.775254 0.672177
O O6 0.500000 0.000000 0.000000
O O7 0.517124 0.794080 0.032664
O O8 0.819579 0.060903 0.395585
O O9 0.836679 0.551505 0.884332
O O10 0.902908 0.609675 0.839630
O O11 0.132307 0.306854 0.738401
O O12 0.500000 0.000000 0.500000
O O13 0.500000 0.500000 0.000000
O O14 0.265066 0.462987 0.029302
O O15 0.184215 0.164857 0.376029
O O16 0.149279 0.610853 0.777909
#
# Coordination Sequence:
#
# PCOD9016533 Si02
#       7
#     2   2   2   2   2   2   2
#     4  10  21  42  68  90 131 173 219 292 351 402
#     4  10  21  42  68  90 131 173 219 292 351 402
#     4  12  26  45  70  95 154 173 228 289 326 415
#     4  11  24  45  74 104 146 175 230 285 317 397
#     4  11  26  44  70 109 132 195 222 265 356 387
#     4  12  26  43  70 100 132 183 234 281 351 418
#     4  12  26  43  70 100 132 183 234 281 351 418
#
# _framework density 21.822875
#
# number of rings (size 3 to 8) (size 9 to 14) (size 15 to 20)
#    0.000    0.857    1.429    5.143    2.000    9.143 
#    0.000   17.143    0.000    0.000    0.000    0.000 
#    0.000    0.000    0.000    0.000    0.000    0.000 
#
# Total GULP energy -77963.822848 kJ/mol
# GULP energy per Si atom -5568.844489 kJ/mol
# Density = 2.177321 g / cm^3
# Si number density = 21.822875 Si / 1000 Ang^3
#
#
#
# Elastic Constant Matrix: (Units=GPa)
#
#
# Indices 1 2 3 4 5 6 
#
# 1 180.1364 81.5242 97.2135 0.3962 13.1000 -4.9525
# 2 81.5242 137.8437 85.8084 6.5612 0.5998 -0.7717
# 3 97.2135 85.8084 214.1922 24.2627 21.8760 -2.8949
# 4 0.3962 6.5612 24.2627 45.3033 -1.2262 2.3418
# 5 13.1000 0.5998 21.8760 -1.2262 44.8057 15.9758
# 6 -4.9525 -0.7717 -2.8949 2.3418 15.9758 33.7884
#
#
#
# Elastic Compliance Matrix: (Units=1/GPa)
#
#
# Indices 1 2 3 4 5 6 
#
# 1 0.008728 -0.003698 -0.002447 0.001627 -0.001894 0.001768
# 2 -0.003698 0.011469 -0.003326 0.000355 0.003334 -0.002166
# 3 -0.002447 -0.003326 0.008028 -0.004038 -0.004162 0.002501
# 4 0.001627 0.000355 -0.004038 0.024437 0.003367 -0.003385
# 5 -0.001894 0.003334 -0.004162 0.003367 0.030351 -0.015142
# 6 0.001768 -0.002166 0.002501 -0.003385 -0.015142 0.037414
#
#
# Mechanical properties :
#
#
# Convention : Reuss Voigt Hill
#
# Bulk Modulus (GPa) = 107.72608 117.91826 112.82217
# Shear Modulus (GPa) = 35.09696 42.62126 38.85911
#
# Velocity S-wave (km/s) = 4.01467 4.42413 4.22436
# Velocity P-wave (km/s) = 8.42384 8.95817 8.69511
#
# Compressibility (1/GPa) = 0.00928280
#
# Stress axis : x y z
#
# Youngs Moduli (GPa) = 114.57013 87.19355 124.56408
#
# Poissons Ratio (x) = 0.32246 0.30480
# Poissons Ratio (y) = 0.42371 0.41430
# Poissons Ratio (z) = 0.28034 0.29000
#
# Static dielectric constant tensor:
#      x y z
#    x 1.898340 0.092210 -0.087930 
#    y 0.092210 2.248970 -0.082040 
#    z -0.087930 -0.082040 1.857180 
# 
# From -- ./inp_files/605291.got.cif
#   From: 2010.05.17/outbox.cif.g08.bks.cpg/sg2_303_cif.got.tgz:605291.got - 2010.06.03 11:33:40.
