data_PCOD9016644
_publ_section_title
;
Structure prediction by ZEFSAII (Michael W. Deem and Ramdas Pophale) SiO2 
 PCOD9016644
Probable space group: P -1
;
_chemical_formula_sum "Si O2"
_cell_formula_units_Z 15
_cell_length_a 9.294848
_cell_length_b 11.610348
_cell_length_c 7.948474
_cell_angle_alpha 84.261585
_cell_angle_beta 88.863139
_cell_angle_gamma 40.901981
_cell_volume 556.776923
_symmetry_space_group_name_H-M "P -1"
_symmetry_group_IT_number 2
_symmetry_cell_setting 'triclinic'
loop_
_space_group_symop_operation_xyz
x,y,z
-x,-y,-z
loop_
_atom_site_type_symbol
_atom_site_label
_atom_site_fract_x
_atom_site_fract_y
_atom_site_fract_z
Si Si1 0.613583 0.968592 0.328474
Si Si2 0.000000 0.000000 0.000000
Si Si3 0.750659 0.317692 0.875660
Si Si4 0.272419 0.663512 0.763238
Si Si5 0.155799 0.498871 0.711618
Si Si6 0.254065 0.884540 0.528165
Si Si7 0.092575 0.560120 0.322010
Si Si8 0.592788 0.104577 0.831594
O O1 0.852925 0.760736 0.339491
O O2 0.465933 0.995858 0.183748
O O3 0.500000 0.000000 0.500000
O O4 0.660346 0.076086 0.339158
O O5 0.911636 0.130822 0.815467
O O6 0.779666 0.033445 0.965238
O O7 0.495090 0.460787 0.835287
O O8 0.803225 0.416148 0.817669
O O9 0.806310 0.228440 0.075880
O O10 0.106510 0.661624 0.733312
O O11 0.343032 0.705002 0.610048
O O12 0.947185 0.543334 0.730968
O O13 0.356622 0.314228 0.830339
O O14 0.208173 0.475508 0.512949
O O15 0.329439 0.895320 0.352402
O O16 0.000000 0.000000 0.500000
#
# Coordination Sequence:
#
# PCOD9016644 Si02
#       8
#     2   1   2   2   2   2   2   2
#     4   9  21  41  63 100 136 168 223 282 340 402
#     4  12  24  42  66  92 138 182 230 276 330 416
#     4  11  26  42  62  96 137 180 221 277 336 403
#     4  11  24  42  64  98 138 174 222 280 336 395
#     4  10  21  42  68  97 128 170 224 282 332 410
#     4  11  22  37  69 102 129 176 224 282 342 404
#     4  10  22  40  70  98 131 174 221 276 347 405
#     4  10  22  41  65  95 134 177 228 278 341 399
#
# _framework density 26.940771999999999
#
# number of rings (size 3 to 8) (size 9 to 14) (size 15 to 20)
#    0.000    1.600    1.333    2.400    5.600    3.733 
#    0.000    5.333    0.000    0.000    0.000    0.000 
#    0.000    0.000    0.000    0.000    0.000    0.000 
#
# Total GULP energy -83624.306613 kJ/mol
# GULP energy per Si atom -5574.953774 kJ/mol
# Density = 2.687945 g / cm^3
# Si number density = 26.940772 Si / 1000 Ang^3
#
#
#
# Elastic Constant Matrix: (Units=GPa)
#
#
# Indices 1 2 3 4 5 6 
#
# 1 140.5482 23.7463 18.1475 16.2454 29.7839 39.8385
# 2 23.7463 70.8408 12.0595 -14.1770 24.5247 7.5102
# 3 18.1475 12.0595 74.3533 8.5734 10.7513 -0.0582
# 4 16.2454 -14.1770 8.5734 35.2202 0.0868 6.4749
# 5 29.7839 24.5247 10.7513 0.0868 47.9274 4.1517
# 6 39.8385 7.5102 -0.0582 6.4749 4.1517 60.6165
#
#
#
# Elastic Compliance Matrix: (Units=1/GPa)
#
#
# Indices 1 2 3 4 5 6 
#
# 1 0.010883 -0.001975 -0.001114 -0.004411 -0.004966 -0.006098
# 2 -0.001975 0.020387 -0.002772 0.010132 -0.008451 -0.001734
# 3 -0.001114 -0.002772 0.014892 -0.004530 -0.001366 0.001667
# 4 -0.004411 0.010132 -0.004530 0.036001 -0.001309 -0.002117
# 5 -0.004966 -0.008451 -0.001366 -0.001309 0.028367 0.002507
# 6 -0.006098 -0.001734 0.001667 -0.002117 0.002507 0.020776
#
#
# Mechanical properties :
#
#
# Convention : Reuss Voigt Hill
#
# Bulk Modulus (GPa) = 29.03632 43.73875 36.38754
# Shear Modulus (GPa) = 32.36054 44.20542 38.28298
#
# Velocity S-wave (km/s) = 3.46956 4.05512 3.77371
# Velocity P-wave (km/s) = 5.18186 6.18027 5.70295
#
# Compressibility (1/GPa) = 0.03443963
#
# Stress axis : x y z
#
# Youngs Moduli (GPa) = 91.88448 49.04983 67.15006
#
# Poissons Ratio (x) = 0.09689 0.07480
# Poissons Ratio (y) = 0.18151 0.18615
# Poissons Ratio (z) = 0.10236 0.13597
#
# Static dielectric constant tensor:
#      x y z
#    x 2.139210 0.032130 0.066510 
#    y 0.032130 2.426930 -0.058030 
#    z 0.066510 -0.058030 2.293360 
# 
# From -- ./inp_files/177755.got.cif
#   From: 2010.05.17/outbox.cif.g08.bks.cpg/sg2_89_cif.got.tgz:177755.got - 2010.06.03 11:33:40.
