data_PCOD9016799
_publ_section_title
;
Structure prediction by ZEFSAII (Michael W. Deem and Ramdas Pophale) SiO2 
 PCOD9016799
Probable space group: P -1
;
_chemical_formula_sum "Si O2"
_cell_formula_units_Z 13
_cell_length_a 6.948423
_cell_length_b 10.021740
_cell_length_c 13.298889
_cell_angle_alpha 56.451433
_cell_angle_beta 105.590557
_cell_angle_gamma 134.890857
_cell_volume 535.129193
_symmetry_space_group_name_H-M "P -1"
_symmetry_group_IT_number 2
_symmetry_cell_setting 'triclinic'
loop_
_space_group_symop_operation_xyz
x,y,z
-x,-y,-z
loop_
_atom_site_type_symbol
_atom_site_label
_atom_site_fract_x
_atom_site_fract_y
_atom_site_fract_z
Si Si1 0.022896 0.693312 0.515640
Si Si2 0.566199 0.206951 0.631356
Si Si3 0.042164 0.205254 0.262849
Si Si4 0.660816 0.754886 0.894154
Si Si5 0.692245 0.075323 0.899853
Si Si6 0.860566 0.427233 0.215674
Si Si7 0.000000 0.000000 0.500000
O O1 0.224118 0.771724 0.418713
O O2 0.128223 0.640827 0.643976
O O3 0.710222 0.458658 0.550787
O O4 0.044617 0.885255 0.469830
O O5 0.570826 0.120258 0.774942
O O6 0.245323 0.023344 0.627240
O O7 0.019264 0.383899 0.186130
O O8 0.088288 0.157366 0.180476
O O9 0.232254 0.251557 0.360586
O O10 0.443889 0.729087 0.804784
O O11 0.714165 0.906263 0.930857
O O12 0.500000 0.500000 0.000000
O O13 0.988403 0.318267 0.867083
O O14 0.500000 0.000000 0.000000
#
# Coordination Sequence:
#
# PCOD9016799 Si02
#       7
#     2   2   2   2   2   2   1
#     4   9  21  42  68  99 131 178 212 269 341 387
#     4  10  21  42  69  93 134 177 219 266 332 400
#     4  11  24  42  68 100 133 176 219 274 330 395
#     4  12  27  45  68 100 133 175 229 273 330 396
#     4  11  24  45  72  95 130 182 225 271 336 390
#     4  10  24  46  69  96 139 174 213 282 330 396
#     4  10  22  36  64 106 128 166 222 262 328 402
#
# _framework density 24.293201
#
# number of rings (size 3 to 8) (size 9 to 14) (size 15 to 20)
#    0.000    1.538    1.538    1.846    4.308    3.692 
#    8.308    0.000    0.000    0.000    0.000    0.000 
#    0.000    0.000    0.000    0.000    0.000    0.000 
#
# Total GULP energy -72521.362737 kJ/mol
# GULP energy per Si atom -5578.566364 kJ/mol
# Density = 2.423791 g / cm^3
# Si number density = 24.293201 Si / 1000 Ang^3
#
#
#
# Elastic Constant Matrix: (Units=GPa)
#
#
# Indices 1 2 3 4 5 6 
#
# 1 75.8805 71.7600 42.3394 -4.4079 -11.1024 -44.9507
# 2 71.7600 159.0654 36.6448 -16.0100 -12.9137 -32.2057
# 3 42.3394 36.6448 103.6901 -0.3119 -26.5028 -22.6673
# 4 -4.4079 -16.0100 -0.3119 40.2416 -10.9055 -1.1917
# 5 -11.1024 -12.9137 -26.5028 -10.9055 35.5118 8.4194
# 6 -44.9507 -32.2057 -22.6673 -1.1917 8.4194 53.6354
#
#
#
# Elastic Compliance Matrix: (Units=1/GPa)
#
#
# Indices 1 2 3 4 5 6 
#
# 1 0.047961 -0.014128 -0.009454 -0.000724 -0.004143 0.028351
# 2 -0.014128 0.012128 0.001378 0.004055 0.003312 -0.004405
# 3 -0.009454 0.001378 0.015104 0.002287 0.010051 -0.002240
# 4 -0.000724 0.004055 0.002287 0.029611 0.011664 0.001622
# 5 -0.004143 0.003312 0.010051 0.011664 0.039921 -0.003243
# 6 0.028351 -0.004405 -0.002240 0.001622 -0.003243 0.039358
#
#
# Mechanical properties :
#
#
# Convention : Reuss Voigt Hill
#
# Bulk Modulus (GPa) = 32.48335 71.12492 51.80414
# Shear Modulus (GPa) = 20.94228 38.40389 29.67309
#
# Velocity S-wave (km/s) = 2.93928 3.98030 3.49873
# Velocity P-wave (km/s) = 4.99195 7.10387 6.13940
#
# Compressibility (1/GPa) = 0.03078500
#
# Stress axis : x y z
#
# Youngs Moduli (GPa) = 20.85023 82.45461 66.20908
#
# Poissons Ratio (x) = 1.16492 0.62596
# Poissons Ratio (y) = 0.29457 -0.09126
# Poissons Ratio (z) = 0.19712 -0.11365
#
# Static dielectric constant tensor:
#      x y z
#    x 0.704060 -0.823850 -1.197400 
#    y -0.823850 1.414930 -0.847040 
#    z -1.197400 -0.847040 0.821940 
# 
# From -- ./inp_files/131714.got.cif
#   From: 2010.05.17/outbox.cif.g08.bks.cpg/sg2_66_cif.got.tgz:131714.got - 2010.06.03 11:33:40.
