data_PCOD9016245
_publ_section_title
;
Structure prediction by ZEFSAII (Michael W. Deem and Ramdas Pophale) SiO2 
 PCOD9016245
Probable space group: P -1
;
_chemical_formula_sum "Si O2"
_cell_formula_units_Z 15
_cell_length_a 7.772847
_cell_length_b 9.829466
_cell_length_c 13.282063
_cell_angle_alpha 71.055095
_cell_angle_beta 127.717273
_cell_angle_gamma 71.410421
_cell_volume 548.439216
_symmetry_space_group_name_H-M "P -1"
_symmetry_group_IT_number 2
_symmetry_cell_setting 'triclinic'
loop_
_space_group_symop_operation_xyz
x,y,z
-x,-y,-z
loop_
_atom_site_type_symbol
_atom_site_label
_atom_site_fract_x
_atom_site_fract_y
_atom_site_fract_z
Si Si1 0.862201 0.892243 0.055082
Si Si2 0.759247 0.419461 0.372158
Si Si3 0.750846 0.265280 0.129837
Si Si4 0.486359 0.664591 0.411094
Si Si5 0.000000 0.000000 0.500000
Si Si6 0.328070 0.279230 0.847419
Si Si7 0.361828 0.913813 0.502250
Si Si8 0.917430 0.371359 0.987349
O O1 0.840521 0.784114 0.162520
O O2 0.161511 0.843932 0.199848
O O3 0.890160 0.782946 0.994728
O O4 0.564694 0.122452 0.886158
O O5 0.719089 0.531194 0.433099
O O6 0.846528 0.496894 0.298781
O O7 0.423606 0.518518 0.195534
O O8 0.964467 0.185568 0.499785
O O9 0.982633 0.099355 0.335941
O O10 0.500000 0.500000 0.000000
O O11 0.563788 0.218132 0.033212
O O12 0.962865 0.251993 0.130802
O O13 0.500000 0.500000 0.500000
O O14 0.475259 0.761850 0.488217
O O15 0.628310 0.138742 0.366573
O O16 0.500000 0.000000 0.500000
O O17 0.000000 0.500000 0.000000
#
# Coordination Sequence:
#
# PCOD9016245 Si02
#       8
#     2   2   2   2   1   2   2   2
#     4  10  22  40  70 102 138 175 237 289 358 425
#     4  10  24  43  70  97 142 181 240 295 362 430
#     4  11  23  42  69  99 137 180 232 295 361 424
#     4  11  23  46  69  98 140 191 238 294 360 444
#     4  12  26  50  68 100 144 192 236 302 364 434
#     4  10  21  42  67 104 131 177 227 302 349 424
#     4  12  28  48  73 106 148 193 247 302 370 439
#     4  10  22  37  66  99 131 173 225 292 349 420
#
# _framework density 27.350344
#
# number of rings (size 3 to 8) (size 9 to 14) (size 15 to 20)
#    0.000    1.333    2.667    2.400    3.733    3.733 
#    2.400    1.333    0.000    0.000    0.000    0.000 
#    0.000    0.000    0.000    0.000    0.000    0.000 
#
# Total GULP energy -83626.254716 kJ/mol
# GULP energy per Si atom -5575.083648 kJ/mol
# Density = 2.728809 g / cm^3
# Si number density = 27.350344 Si / 1000 Ang^3
#
#
#
# Elastic Constant Matrix: (Units=GPa)
#
#
# Indices 1 2 3 4 5 6 
#
# 1 143.8724 57.7605 17.6604 -4.6910 -7.5315 -4.5065
# 2 57.7605 225.7614 37.5756 -10.5683 5.0874 -11.1346
# 3 17.6604 37.5756 94.2678 -10.2469 1.5612 1.2625
# 4 -4.6910 -10.5683 -10.2469 44.9454 11.2017 -5.3055
# 5 -7.5315 5.0874 1.5612 11.2017 31.0023 0.7828
# 6 -4.5065 -11.1346 1.2625 -5.3055 0.7828 57.1724
#
#
#
# Elastic Compliance Matrix: (Units=1/GPa)
#
#
# Indices 1 2 3 4 5 6 
#
# 1 0.007959 -0.001968 -0.000792 -0.000397 0.002435 0.000191
# 2 -0.001968 0.005352 -0.001614 0.001247 -0.001753 0.001063
# 3 -0.000792 -0.001614 0.011702 0.002513 -0.001415 -0.000383
# 4 -0.000397 0.001247 0.002513 0.025842 -0.009833 0.002689
# 5 0.002435 -0.001753 -0.001415 -0.009833 0.036798 -0.001534
# 6 0.000191 0.001063 -0.000383 0.002689 -0.001534 0.017992
#
#
# Mechanical properties :
#
#
# Convention : Reuss Voigt Hill
#
# Bulk Modulus (GPa) = 61.49183 76.65498 69.07340
# Shear Modulus (GPa) = 41.73109 50.01768 45.87438
#
# Velocity S-wave (km/s) = 3.91038 4.28106 4.09991
# Velocity P-wave (km/s) = 6.55133 7.24738 6.90813
#
# Compressibility (1/GPa) = 0.01626232
#
# Stress axis : x y z
#
# Youngs Moduli (GPa) = 125.65005 186.84607 85.45755
#
# Poissons Ratio (x) = 0.36777 0.06772
# Poissons Ratio (y) = 0.24732 0.13795
# Poissons Ratio (z) = 0.09957 0.30161
#
# Static dielectric constant tensor:
#      x y z
#    x 1.548190 -0.214800 0.354560 
#    y -0.214800 2.046540 0.111100 
#    z 0.354560 0.111100 2.157130 
# 
# From -- ./inp_files/492836.got.cif
#   From: 2010.05.17/outbox.cif.g08.bks.cpg/sg2_247_cif.got.tgz:492836.got - 2010.06.03 11:33:40.
