data_PCOD9016201
_publ_section_title
;
Structure prediction by ZEFSAII (Michael W. Deem and Ramdas Pophale) SiO2 
 PCOD9016201
Probable space group: P -1
;
_chemical_formula_sum "Si O2"
_cell_formula_units_Z 16
_cell_length_a 11.370405
_cell_length_b 7.503703
_cell_length_c 13.247759
_cell_angle_alpha 92.953193
_cell_angle_beta 126.543632
_cell_angle_gamma 120.563059
_cell_volume 671.599516
_symmetry_space_group_name_H-M "P -1"
_symmetry_group_IT_number 2
_symmetry_cell_setting 'triclinic'
loop_
_space_group_symop_operation_xyz
x,y,z
-x,-y,-z
loop_
_atom_site_type_symbol
_atom_site_label
_atom_site_fract_x
_atom_site_fract_y
_atom_site_fract_z
Si Si1 0.842642 0.611642 0.994299
Si Si2 0.917587 0.618766 0.612192
Si Si3 0.475858 0.130809 0.405618
Si Si4 0.049883 0.233710 0.578711
Si Si5 0.435176 0.386575 0.853047
Si Si6 0.882739 0.995802 0.682633
Si Si7 0.696077 0.046216 0.103243
Si Si8 0.208957 0.854640 0.062199
O O1 0.620138 0.505140 0.877328
O O2 0.820794 0.379379 0.985007
O O3 0.996405 0.760529 0.984701
O O4 0.955698 0.794633 0.151235
O O5 0.696514 0.373910 0.505737
O O6 0.963821 0.650649 0.518910
O O7 0.922254 0.824849 0.666154
O O8 0.102505 0.680458 0.764273
O O9 0.331143 0.158483 0.382265
O O10 0.500000 0.000000 0.500000
O O11 0.360074 0.985745 0.238200
O O12 0.276026 0.396632 0.733295
O O13 0.000000 0.000000 0.500000
O O14 0.906868 0.134245 0.597792
O O15 0.330623 0.113901 0.822530
O O16 0.500000 0.500000 0.000000
O O17 0.718104 0.991699 0.998448
O O18 0.500000 0.000000 0.000000
#
# Coordination Sequence:
#
# PCOD9016201 Si02
#       8
#     2   2   2   2   2   2   2   2
#     4  10  21  42  70  98 136 184 230 289 338 413
#     4  11  25  47  68 105 144 182 236 298 350 424
#     4  11  27  45  72 101 144 187 233 288 359 426
#     4  10  21  42  66  99 141 175 233 278 356 411
#     4  12  22  41  72 100 136 186 230 292 346 413
#     4  10  21  45  71 101 137 188 232 288 350 412
#     4  12  25  44  71 101 139 182 242 290 347 419
#     4  10  25  43  66 102 140 182 236 278 355 418
#
# _framework density 23.823722
#
# number of rings (size 3 to 8) (size 9 to 14) (size 15 to 20)
#    0.000    1.250    5.000    0.375    7.000    3.000 
#    2.250    3.125    0.000    0.000    0.000    0.000 
#    0.000    0.000    0.000    0.000    0.000    0.000 
#
# Total GULP energy -89467.822482 kJ/mol
# GULP energy per Si atom -5591.738905 kJ/mol
# Density = 2.376950 g / cm^3
# Si number density = 23.823722 Si / 1000 Ang^3
#
#
#
# Elastic Constant Matrix: (Units=GPa)
#
#
# Indices 1 2 3 4 5 6 
#
# 1 96.3399 54.6621 36.6355 0.5123 5.3501 18.8502
# 2 54.6621 80.7377 48.3893 14.9546 -5.1075 25.2514
# 3 36.6355 48.3893 136.3049 -0.7372 11.4395 18.6998
# 4 0.5123 14.9546 -0.7372 38.9322 9.6092 -3.0107
# 5 5.3501 -5.1075 11.4395 9.6092 36.0426 6.0315
# 6 18.8502 25.2514 18.6998 -3.0107 6.0315 47.5492
#
#
#
# Elastic Compliance Matrix: (Units=1/GPa)
#
#
# Indices 1 2 3 4 5 6 
#
# 1 0.019253 -0.016401 0.001068 0.008233 -0.008085 0.002204
# 2 -0.016401 0.037975 -0.008825 -0.020118 0.018288 -0.013788
# 3 0.001068 -0.008825 0.010575 0.005245 -0.006372 0.001245
# 4 0.008233 -0.020118 0.005245 0.038549 -0.017696 0.010043
# 5 -0.008085 0.018288 -0.006372 -0.017696 0.039982 -0.010193
# 6 0.002204 -0.013788 0.001245 0.010043 -0.010193 0.028918
#
#
# Mechanical properties :
#
#
# Convention : Reuss Voigt Hill
#
# Bulk Modulus (GPa) = 51.31656 65.86182 58.58919
# Shear Modulus (GPa) = 21.73311 36.08451 28.90881
#
# Velocity S-wave (km/s) = 3.02362 3.89607 3.48723
# Velocity P-wave (km/s) = 5.81176 6.92421 6.39223
#
# Compressibility (1/GPa) = 0.01948689
#
# Stress axis : x y z
#
# Youngs Moduli (GPa) = 51.93872 26.33341 94.56538
#
# Poissons Ratio (x) = 0.43190 -0.10103
# Poissons Ratio (y) = 0.85186 0.83455
# Poissons Ratio (z) = -0.05549 0.23239
#
# Static dielectric constant tensor:
#      x y z
#    x 1.878580 -0.052260 -0.045990 
#    y -0.052260 2.011860 0.003000 
#    z -0.045990 0.003000 1.828120 
# 
# From -- ./inp_files/419473.got.cif
#   From: 2010.05.17/outbox.cif.g08.bks.cpg/sg2_210_cif.got.tgz:419473.got - 2010.06.03 11:33:40.
