data_PCOD9016499
_publ_section_title
;
Structure prediction by ZEFSAII (Michael W. Deem and Ramdas Pophale) SiO2 
 PCOD9016499
Probable space group: P -1
;
_chemical_formula_sum "Si O2"
_cell_formula_units_Z 14
_cell_length_a 11.457962
_cell_length_b 5.103428
_cell_length_c 13.753192
_cell_angle_alpha 84.286684
_cell_angle_beta 50.987894
_cell_angle_gamma 73.470426
_cell_volume 595.636516
_symmetry_space_group_name_H-M "P -1"
_symmetry_group_IT_number 2
_symmetry_cell_setting 'triclinic'
loop_
_space_group_symop_operation_xyz
x,y,z
-x,-y,-z
loop_
_atom_site_type_symbol
_atom_site_label
_atom_site_fract_x
_atom_site_fract_y
_atom_site_fract_z
Si Si1 0.546407 0.410744 0.208855
Si Si2 0.113935 0.787113 0.874159
Si Si3 0.093342 0.323081 0.757770
Si Si4 0.555570 0.994966 0.860776
Si Si5 0.869577 0.544641 0.705646
Si Si6 0.135567 0.738147 0.467741
Si Si7 0.365272 0.493748 0.495425
O O1 0.724676 0.355981 0.151295
O O2 0.528646 0.196679 0.145891
O O3 0.452421 0.355376 0.356397
O O4 0.490149 0.715505 0.181333
O O5 0.062927 0.545542 0.854178
O O6 0.139371 0.004387 0.773452
O O7 0.000000 0.000000 0.000000
O O8 0.244350 0.368583 0.620698
O O9 0.930093 0.392585 0.779878
O O10 0.742134 0.838023 0.771278
O O11 0.500000 0.000000 0.000000
O O12 0.798865 0.397441 0.663892
O O13 0.035927 0.555229 0.575575
O O14 0.255161 0.768214 0.487763
O O15 0.000000 0.000000 0.500000
O O16 0.500000 0.500000 0.500000
#
# Coordination Sequence:
#
# PCOD9016499 Si02
#       7
#     2   2   2   2   2   2   2
#     4  12  27  48  74 107 145 196 242 312 375 433
#     4  12  28  49  73 103 150 193 249 301 364 447
#     4  11  27  45  75 109 140 198 241 304 370 444
#     4  12  28  48  73 105 146 194 254 306 365 441
#     4  10  24  40  69 102 139 187 239 298 363 431
#     4  10  21  42  68 102 145 187 236 297 370 437
#     4  11  23  45  73 111 152 189 245 306 374 443
#
# _framework density 23.504268
#
# number of rings (size 3 to 8) (size 9 to 14) (size 15 to 20)
#    0.000    0.857    2.857    2.571    8.000    1.714 
#    0.000    0.000    0.000    0.000    0.000    0.000 
#    0.000    0.000    0.000    0.000    0.000    0.000 
#
# Total GULP energy -78163.683583 kJ/mol
# GULP energy per Si atom -5583.120256 kJ/mol
# Density = 2.345077 g / cm^3
# Si number density = 23.504268 Si / 1000 Ang^3
#
#
#
# Elastic Constant Matrix: (Units=GPa)
#
#
# Indices 1 2 3 4 5 6 
#
# 1 162.3497 63.7523 26.7533 -7.3655 37.2961 -40.5300
# 2 63.7523 138.1090 19.9519 -5.9869 13.3074 -18.8805
# 3 26.7533 19.9519 105.1586 16.7844 25.5661 -7.2195
# 4 -7.3655 -5.9869 16.7844 27.4977 -1.8025 5.8242
# 5 37.2961 13.3074 25.5661 -1.8025 38.6607 3.1516
# 6 -40.5300 -18.8805 -7.2195 5.8242 3.1516 42.5913
#
#
#
# Elastic Compliance Matrix: (Units=1/GPa)
#
#
# Indices 1 2 3 4 5 6 
#
# 1 0.013763 -0.003513 0.001918 -0.001998 -0.014506 0.013211
# 2 -0.003513 0.009037 -0.001461 0.001996 0.001334 0.000044
# 3 0.001918 -0.001461 0.014233 -0.010509 -0.011730 0.005895
# 4 -0.001998 0.001996 -0.010509 0.045494 0.011113 -0.009841
# 5 -0.014506 0.001334 -0.011730 0.011113 0.049337 -0.020372
# 6 0.013211 0.000044 0.005895 -0.009841 -0.020372 0.039923
#
#
# Mechanical properties :
#
#
# Convention : Reuss Voigt Hill
#
# Bulk Modulus (GPa) = 32.34060 69.61470 50.97765
# Shear Modulus (GPa) = 26.56667 41.42726 33.99697
#
# Velocity S-wave (km/s) = 3.36563 4.20282 3.80730
# Velocity P-wave (km/s) = 5.37518 7.29615 6.40806
#
# Compressibility (1/GPa) = 0.03092088
#
# Stress axis : x y z
#
# Youngs Moduli (GPa) = 72.65828 110.65191 70.26165
#
# Poissons Ratio (x) = 0.38872 -0.13475
# Poissons Ratio (y) = 0.25525 0.10264
# Poissons Ratio (z) = -0.13934 0.16165
#
# Static dielectric constant tensor:
#      x y z
#    x 1.888100 -0.004360 -0.034090 
#    y -0.004360 1.861730 0.016590 
#    z -0.034090 0.016590 2.000430 
# 
# From -- ./inp_files/410198.got.cif
#   From: 2010.05.17/outbox.cif.g08.bks.cpg/sg2_206_cif.got.tgz:410198.got - 2010.06.03 11:33:40.
