data_PCOD9016616
_publ_section_title
;
Structure prediction by ZEFSAII (Michael W. Deem and Ramdas Pophale) SiO2 
 PCOD9016616
Probable space group: P -1
;
_chemical_formula_sum "Si O2"
_cell_formula_units_Z 14
_cell_length_a 8.946748
_cell_length_b 9.541858
_cell_length_c 22.501947
_cell_angle_alpha 145.527318
_cell_angle_beta 30.742150
_cell_angle_gamma 134.192359
_cell_volume 555.357483
_symmetry_space_group_name_H-M "P -1"
_symmetry_group_IT_number 2
_symmetry_cell_setting 'triclinic'
loop_
_space_group_symop_operation_xyz
x,y,z
-x,-y,-z
loop_
_atom_site_type_symbol
_atom_site_label
_atom_site_fract_x
_atom_site_fract_y
_atom_site_fract_z
Si Si1 0.335074 0.950529 0.356042
Si Si2 0.172319 0.833133 0.786114
Si Si3 0.531392 0.986589 0.826733
Si Si4 0.318294 0.208231 0.703857
Si Si5 0.603838 0.569239 0.890172
Si Si6 0.276307 0.728484 0.935921
Si Si7 0.885576 0.225608 0.442632
O O1 0.521872 0.186501 0.359342
O O2 0.461722 0.841740 0.335616
O O3 0.420402 0.725210 0.202748
O O4 0.000000 0.000000 0.500000
O O5 0.274333 0.904131 0.842283
O O6 0.952045 0.613644 0.782619
O O7 0.981217 0.062181 0.902257
O O8 0.491310 0.820368 0.842446
O O9 0.846774 0.921472 0.666318
O O10 0.501198 0.263551 0.959843
O O11 0.150819 0.466698 0.865989
O O12 0.547294 0.247414 0.585879
O O13 0.135082 0.966094 0.672254
O O14 0.446142 0.681275 0.923375
O O15 0.000000 0.500000 0.500000
#
# Coordination Sequence:
#
# PCOD9016616 Si02
#       7
#     2   2   2   2   2   2   2
#     4  11  26  44  63  95 129 168 218 262 320 388
#     4  11  24  41  66  96 130 174 204 269 328 361
#     4  11  22  41  66  95 130 167 216 260 320 379
#     4  10  24  41  64  97 125 168 220 260 312 382
#     4  10  24  42  68  96 126 168 218 263 315 383
#     4  10  21  42  68  96 128 164 223 261 312 389
#     4  11  23  41  65  95 127 170 207 265 320 372
#
# _framework density 25.208988999999999
#
# number of rings (size 3 to 8) (size 9 to 14) (size 15 to 20)
#    0.000    1.429    1.429    4.286    6.000    3.429 
#    7.714    0.000    0.000    0.000    0.000    0.000 
#    0.000    0.000    0.000    0.000    0.000    0.000 
#
# Total GULP energy -78216.952859 kJ/mol
# GULP energy per Si atom -5586.925204 kJ/mol
# Density = 2.515161 g / cm^3
# Si number density = 25.208989 Si / 1000 Ang^3
#
#
#
# Elastic Constant Matrix: (Units=GPa)
#
#
# Indices 1 2 3 4 5 6 
#
# 1 85.4550 7.4211 -0.1017 13.0381 -8.9901 14.4603
# 2 7.4211 119.4152 32.9858 14.3226 1.8519 29.1951
# 3 -0.1017 32.9858 62.4929 -10.6739 -2.5446 8.1394
# 4 13.0381 14.3226 -10.6739 53.3589 9.3790 4.8740
# 5 -8.9901 1.8519 -2.5446 9.3790 29.4683 -1.6774
# 6 14.4603 29.1951 8.1394 4.8740 -1.6774 35.7502
#
#
#
# Elastic Compliance Matrix: (Units=1/GPa)
#
#
# Indices 1 2 3 4 5 6 
#
# 1 0.013697 0.000968 -0.000260 -0.004049 0.005072 -0.005481
# 2 0.000968 0.012675 -0.006245 -0.004041 -0.000254 -0.008781
# 3 -0.000260 -0.006245 0.020321 0.005785 0.000215 -0.000200
# 4 -0.004049 -0.004041 0.005785 0.023357 -0.007912 0.000065
# 5 0.005072 -0.000254 0.000215 -0.007912 0.038090 0.000973
# 6 -0.005481 -0.008781 -0.000200 0.000065 0.000973 0.037442
#
#
# Mechanical properties :
#
#
# Convention : Reuss Voigt Hill
#
# Bulk Modulus (GPa) = 28.07637 38.66373 33.37005
# Shear Modulus (GPa) = 29.66846 38.85267 34.26057
#
# Velocity S-wave (km/s) = 3.43432 3.93010 3.69054
# Velocity P-wave (km/s) = 5.18533 5.99707 5.60591
#
# Compressibility (1/GPa) = 0.03561714
#
# Stress axis : x y z
#
# Youngs Moduli (GPa) = 73.01079 78.89769 49.21050
#
# Poissons Ratio (x) = -0.07634 0.01278
# Poissons Ratio (y) = -0.07064 0.30734
# Poissons Ratio (z) = 0.01896 0.49275
#
# Static dielectric constant tensor:
#      x y z
#    x 2.045360 -0.032380 0.060650 
#    y -0.032380 2.022220 -0.077060 
#    z 0.060650 -0.077060 2.064760 
# 
# From -- ./inp_files/617054.got.cif
#   From: 2010.05.17/outbox.cif.g08.bks.cpg/sg2_309_cif.got.tgz:617054.got - 2010.06.03 11:33:40.
