data_PCOD9016378
_publ_section_title
;
Structure prediction by ZEFSAII (Michael W. Deem and Ramdas Pophale) SiO2 
 PCOD9016378
Probable space group: P -1
;
_chemical_formula_sum "Si O2"
_cell_formula_units_Z 16
_cell_length_a 9.056007
_cell_length_b 11.944511
_cell_length_c 15.980209
_cell_angle_alpha 60.829892
_cell_angle_beta 66.770841
_cell_angle_gamma 121.296010
_cell_volume 640.555213
_symmetry_space_group_name_H-M "P -1"
_symmetry_group_IT_number 2
_symmetry_cell_setting 'triclinic'
loop_
_space_group_symop_operation_xyz
x,y,z
-x,-y,-z
loop_
_atom_site_type_symbol
_atom_site_label
_atom_site_fract_x
_atom_site_fract_y
_atom_site_fract_z
Si Si1 0.709304 0.899745 0.079369
Si Si2 0.740085 0.607328 0.838450
Si Si3 0.455008 0.058719 0.355680
Si Si4 0.577131 0.214393 0.441999
Si Si5 0.402166 0.330055 0.511588
Si Si6 0.717598 0.943121 0.869212
Si Si7 0.252874 0.346813 0.365980
Si Si8 0.348221 0.839635 0.292791
O O1 0.356266 0.566706 0.280337
O O2 0.643930 0.965531 0.134915
O O3 0.775655 0.996269 0.936164
O O4 0.000000 0.000000 0.000000
O O5 0.636943 0.593806 0.775845
O O6 0.151279 0.917503 0.645631
O O7 0.500000 0.500000 0.000000
O O8 0.643281 0.387930 0.940272
O O9 0.679762 0.290304 0.292906
O O10 0.528612 0.029443 0.266521
O O11 0.162786 0.953095 0.431746
O O12 0.305306 0.835920 0.526931
O O13 0.640689 0.373074 0.436373
O O14 0.500000 0.500000 0.500000
O O15 0.412559 0.382994 0.393429
O O16 0.996521 0.041211 0.731990
O O17 0.744192 0.098501 0.762329
O O18 0.000000 0.500000 0.500000
#
# Coordination Sequence:
#
# PCOD9016378 Si02
#       8
#     2   2   2   2   2   2   2   2
#     4  11  24  42  62 100 144 178 227 288 354 413
#     4  10  21  42  67  95 138 184 226 284 359 417
#     4  10  22  42  65  94 130 183 233 276 351 401
#     4  10  24  41  64  99 136 177 229 297 331 415
#     4  12  24  39  68 107 135 175 241 292 350 413
#     4  11  24  41  66 101 135 184 232 275 362 420
#     4  10  22  41  64  96 134 178 228 285 343 419
#     4  12  24  43  71  99 138 187 235 288 346 427
#
# _framework density 24.978331000000001
#
# number of rings (size 3 to 8) (size 9 to 14) (size 15 to 20)
#    0.000    1.250    3.750    1.125    5.250    3.000 
#    0.000    1.875    0.000    0.000    0.000    0.000 
#    0.000    0.000    0.000    0.000    0.000    0.000 
#
# Total GULP energy -89241.304917 kJ/mol
# GULP energy per Si atom -5577.581557 kJ/mol
# Density = 2.492148 g / cm^3
# Si number density = 24.978331 Si / 1000 Ang^3
#
#
#
# Elastic Constant Matrix: (Units=GPa)
#
#
# Indices 1 2 3 4 5 6 
#
# 1 73.3542 36.0812 9.9204 12.0243 -0.8706 -13.4571
# 2 36.0812 152.3431 43.9711 38.5881 -9.0784 -20.5677
# 3 9.9204 43.9711 79.7809 17.5208 3.2119 -10.6050
# 4 12.0243 38.5881 17.5208 60.2432 -8.7319 -9.9184
# 5 -0.8706 -9.0784 3.2119 -8.7319 33.3902 5.1478
# 6 -13.4571 -20.5677 -10.6050 -9.9184 5.1478 43.9945
#
#
#
# Elastic Compliance Matrix: (Units=1/GPa)
#
#
# Indices 1 2 3 4 5 6 
#
# 1 0.015948 -0.003341 0.000545 -0.000826 -0.001287 0.003412
# 2 -0.003341 0.009817 -0.003992 -0.003966 0.001696 0.001513
# 3 0.000545 -0.003992 0.015561 -0.002258 -0.003459 0.001947
# 4 -0.000826 -0.003966 -0.002258 0.020843 0.004330 0.001541
# 5 -0.001287 0.001696 -0.003459 0.004330 0.032341 -0.003243
# 6 0.003412 0.001513 0.001947 0.001541 -0.003243 0.025677
#
#
# Mechanical properties :
#
#
# Convention : Reuss Voigt Hill
#
# Bulk Modulus (GPa) = 36.03469 53.93596 44.98532
# Shear Modulus (GPa) = 34.96173 41.89263 38.42718
#
# Velocity S-wave (km/s) = 3.74529 4.09976 3.92653
# Velocity P-wave (km/s) = 5.75853 6.63707 6.21334
#
# Compressibility (1/GPa) = 0.02775104
#
# Stress axis : x y z
#
# Youngs Moduli (GPa) = 62.70217 101.85949 64.26522
#
# Poissons Ratio (x) = 0.34035 -0.03505
# Poissons Ratio (y) = 0.20951 0.25652
# Poissons Ratio (z) = -0.03419 0.40658
#
# Static dielectric constant tensor:
#      x y z
#    x 1.957410 0.008090 -0.003580 
#    y 0.008090 2.158800 -0.121100 
#    z -0.003580 -0.121100 2.091740 
# 
# From -- ./inp_files/500164.got.cif
#   From: 2010.05.17/outbox.cif.g08.bks.cpg/sg2_251_cif.got.tgz:500164.got - 2010.06.03 11:33:40.
