data_PCOD9016734
_publ_section_title
;
Structure prediction by ZEFSAII (Michael W. Deem and Ramdas Pophale) SiO2 
 PCOD9016734
Probable space group: P -1
;
_chemical_formula_sum "Si O2"
_cell_formula_units_Z 16
_cell_length_a 20.425802
_cell_length_b 11.740535
_cell_length_c 5.139971
_cell_angle_alpha 109.882373
_cell_angle_beta 117.494049
_cell_angle_gamma 35.116365
_cell_volume 627.263452
_symmetry_space_group_name_H-M "P -1"
_symmetry_group_IT_number 2
_symmetry_cell_setting 'triclinic'
loop_
_space_group_symop_operation_xyz
x,y,z
-x,-y,-z
loop_
_atom_site_type_symbol
_atom_site_label
_atom_site_fract_x
_atom_site_fract_y
_atom_site_fract_z
Si Si1 0.658856 0.077097 0.594147
Si Si2 0.143322 0.111011 0.875449
Si Si3 0.953110 0.895738 0.804967
Si Si4 0.403535 0.347966 0.198341
Si Si5 0.183957 0.530216 0.698558
Si Si6 0.897483 0.630277 0.637069
Si Si7 0.797453 0.281350 0.514877
Si Si8 0.388823 0.613378 0.068656
O O1 0.537683 0.157613 0.406945
O O2 0.629627 0.259305 0.643206
O O3 0.770387 0.864529 0.495873
O O4 0.716999 0.025850 0.948660
O O5 0.097643 0.127335 0.530250
O O6 0.101623 0.070351 0.993860
O O7 0.078007 0.316488 0.026127
O O8 0.094607 0.677776 0.888995
O O9 0.898495 0.092504 0.743601
O O10 0.312522 0.510884 0.379633
O O11 0.412775 0.451869 0.109903
O O12 0.324277 0.352011 0.902924
O O13 0.147328 0.448291 0.458036
O O14 0.155999 0.680315 0.574693
O O15 0.000000 0.500000 0.500000
O O16 0.730013 0.258629 0.224862
O O17 0.500000 0.500000 0.000000
#
# Coordination Sequence:
#
# PCOD9016734 Si02
#       8
#     2   2   2   2   2   2   2   2
#     4  10  21  42  69 102 135 181 237 296 352 423
#     4  10  25  42  76 105 133 181 245 302 362 405
#     4  12  24  46  73 105 144 182 243 306 363 422
#     4  11  25  40  65 101 143 185 231 286 369 428
#     4  11  26  44  63 100 144 191 237 287 358 437
#     4  10  22  48  71 103 134 189 242 304 348 423
#     4  11  24  40  66 100 142 190 229 294 364 427
#     4  11  21  38  68 101 136 178 235 297 355 423
#
# _framework density 25.507624
#
# number of rings (size 3 to 8) (size 9 to 14) (size 15 to 20)
#    0.750    0.500    3.750    1.500    5.250    1.500 
#    2.250    0.625    0.000    0.000    0.000    0.000 
#    0.000    0.000    0.000    0.000    0.000    0.000 
#
# Total GULP energy -89352.161225 kJ/mol
# GULP energy per Si atom -5584.510077 kJ/mol
# Density = 2.544957 g / cm^3
# Si number density = 25.507624 Si / 1000 Ang^3
#
#
#
# Elastic Constant Matrix: (Units=GPa)
#
#
# Indices 1 2 3 4 5 6 
#
# 1 100.0024 43.6628 28.1479 -1.0433 26.1136 -2.4648
# 2 43.6628 97.2281 23.0918 9.9860 9.6679 -25.9552
# 3 28.1479 23.0918 119.9494 -9.9403 40.0301 -12.6765
# 4 -1.0433 9.9860 -9.9403 45.5482 -1.8973 14.7120
# 5 26.1136 9.6679 40.0301 -1.8973 44.0984 -4.4114
# 6 -2.4648 -25.9552 -12.6765 14.7120 -4.4114 42.9250
#
#
#
# Elastic Compliance Matrix: (Units=1/GPa)
#
#
# Indices 1 2 3 4 5 6 
#
# 1 0.015550 -0.008316 0.000338 0.003922 -0.008145 -0.006217
# 2 -0.008316 0.018759 -0.002239 -0.009058 0.003825 0.013702
# 3 0.000338 -0.002239 0.012625 0.002685 -0.011020 0.000341
# 4 0.003922 -0.009058 0.002685 0.029272 -0.002995 -0.014800
# 5 -0.008145 0.003825 -0.011020 -0.002995 0.036876 0.003407
# 6 -0.006217 0.013702 0.000341 -0.014800 0.003407 0.036748
#
#
# Mechanical properties :
#
#
# Convention : Reuss Voigt Hill
#
# Bulk Modulus (GPa) = 37.73603 56.33164 47.03384
# Shear Modulus (GPa) = 27.91784 41.33281 34.62533
#
# Velocity S-wave (km/s) = 3.31190 4.02980 3.68836
# Velocity P-wave (km/s) = 5.42688 6.61699 6.05126
#
# Compressibility (1/GPa) = 0.02649987
#
# Stress axis : x y z
#
# Youngs Moduli (GPa) = 64.30812 53.30746 79.21034
#
# Poissons Ratio (x) = 0.44330 -0.02678
# Poissons Ratio (y) = 0.53479 0.17736
# Poissons Ratio (z) = -0.02174 0.11936
#
# Static dielectric constant tensor:
#      x y z
#    x 2.114200 0.058820 -0.019470 
#    y 0.058820 2.215340 -0.089310 
#    z -0.019470 -0.089310 2.141130 
# 
# From -- ./inp_files/118813.got.cif
#   From: 2010.05.17/outbox.cif.g08.bks.cpg/sg2_60_cif.got.tgz:118813.got - 2010.06.03 11:33:40.
