data_PCOD9016495
_publ_section_title
;
Structure prediction by ZEFSAII (Michael W. Deem and Ramdas Pophale) SiO2 
 PCOD9016495
Probable space group: P -1
;
_chemical_formula_sum "Si O2"
_cell_formula_units_Z 14
_cell_length_a 5.303112
_cell_length_b 29.409242
_cell_length_c 8.862335
_cell_angle_alpha 149.742431
_cell_angle_beta 54.734191
_cell_angle_gamma 124.284886
_cell_volume 561.595890
_symmetry_space_group_name_H-M "P -1"
_symmetry_group_IT_number 2
_symmetry_cell_setting 'triclinic'
loop_
_space_group_symop_operation_xyz
x,y,z
-x,-y,-z
loop_
_atom_site_type_symbol
_atom_site_label
_atom_site_fract_x
_atom_site_fract_y
_atom_site_fract_z
Si Si1 0.008061 0.513392 0.281465
Si Si2 0.518257 0.420506 0.968742
Si Si3 0.568318 0.222528 0.297777
Si Si4 0.330796 0.080228 0.724797
Si Si5 0.858987 0.713152 0.921692
Si Si6 0.720275 0.196322 0.692645
Si Si7 0.710118 0.085445 0.095676
O O1 0.249290 0.538908 0.131039
O O2 0.893860 0.607966 0.632325
O O3 0.213213 0.468837 0.203781
O O4 0.719810 0.443416 0.114885
O O5 0.443286 0.313502 0.652797
O O6 0.540308 0.149128 0.229839
O O7 0.930273 0.253839 0.205786
O O8 0.416785 0.171919 0.058271
O O9 0.476071 0.113530 0.611691
O O10 0.500000 0.000000 0.500000
O O11 0.966843 0.053338 0.805569
O O12 0.507467 0.731501 0.068462
O O13 0.027892 0.767707 0.163178
O O14 0.850972 0.152362 0.374620
O O15 0.500000 0.000000 0.000000
#
# Coordination Sequence:
#
# PCOD9016495 Si02
#       7
#     2   2   2   2   2   2   2
#     4   9  17  32  61  98 134 170 226 272 339 393
#     4   9  18  31  60  99 132 173 221 282 325 412
#     4  10  23  40  67  97 139 181 231 279 351 405
#     4  11  26  46  71  98 137 183 237 292 348 418
#     4  10  21  42  68 102 139 184 225 286 335 418
#     4  11  25  43  71  99 143 181 232 280 352 405
#     4  12  28  44  71 100 139 183 235 290 356 410
#
# _framework density 24.928958000000002
#
# number of rings (size 3 to 8) (size 9 to 14) (size 15 to 20)
#    0.000    1.714    1.429    1.714    8.000    5.714 
#    0.000    0.000    0.000    5.143    0.000    0.000 
#    0.000    0.000    0.000    0.000    0.000    0.000 
#
# Total GULP energy -78429.056252 kJ/mol
# GULP energy per Si atom -5602.075447 kJ/mol
# Density = 2.487222 g / cm^3
# Si number density = 24.928958 Si / 1000 Ang^3
#
#
#
# Elastic Constant Matrix: (Units=GPa)
#
#
# Indices 1 2 3 4 5 6 
#
# 1 106.8445 23.9102 31.3090 13.3835 -19.8922 -14.5822
# 2 23.9102 103.1661 28.5210 -10.1679 -13.5954 -5.8797
# 3 31.3090 28.5210 111.6695 5.6699 -10.7905 2.5385
# 4 13.3835 -10.1679 5.6699 41.7350 1.8862 -2.7757
# 5 -19.8922 -13.5954 -10.7905 1.8862 54.0000 1.6065
# 6 -14.5822 -5.8797 2.5385 -2.7757 1.6065 27.8321
#
#
#
# Elastic Compliance Matrix: (Units=1/GPa)
#
#
# Indices 1 2 3 4 5 6 
#
# 1 0.012464 -0.001732 -0.002643 -0.003835 0.003588 0.005816
# 2 -0.001732 0.011487 -0.002536 0.003764 0.001556 0.002036
# 3 -0.002643 -0.002536 0.010548 -0.001436 0.000637 -0.003062
# 4 -0.003835 0.003764 -0.001436 0.026491 -0.001727 0.001658
# 5 0.003588 0.001556 0.000637 -0.001727 0.020396 0.000801
# 6 0.005816 0.002036 -0.003062 0.001658 0.000801 0.039805
#
#
# Mechanical properties :
#
#
# Convention : Reuss Voigt Hill
#
# Bulk Modulus (GPa) = 48.35963 54.35118 51.35541
# Shear Modulus (GPa) = 35.23525 40.57607 37.90566
#
# Velocity S-wave (km/s) = 3.76364 4.03881 3.90365
# Velocity P-wave (km/s) = 6.19094 6.60296 6.40027
#
# Compressibility (1/GPa) = 0.02067841
#
# Stress axis : x y z
#
# Youngs Moduli (GPa) = 80.23424 87.05209 94.80789
#
# Poissons Ratio (x) = 0.15074 0.25057
# Poissons Ratio (y) = 0.13893 0.24039
# Poissons Ratio (z) = 0.21205 0.22072
#
# Static dielectric constant tensor:
#      x y z
#    x 1.974420 0.061010 0.008450 
#    y 0.061010 2.007260 -0.024910 
#    z 0.008450 -0.024910 1.976470 
# 
# From -- ./inp_files/128143.got.cif
#   From: 2010.05.17/outbox.cif.g08.bks.cpg/sg2_65_cif.got.tgz:128143.got - 2010.06.03 11:33:40.
