data_PCOD9016923
_publ_section_title
;
Structure prediction by ZEFSAII (Michael W. Deem and Ramdas Pophale) SiO2 
 PCOD9016923
Probable space group: P -1
;
_chemical_formula_sum "Si O2"
_cell_formula_units_Z 14
_cell_length_a 11.592188
_cell_length_b 9.739002
_cell_length_c 8.062318
_cell_angle_alpha 111.996865
_cell_angle_beta 104.504048
_cell_angle_gamma 122.500726
_cell_volume 581.018431
_symmetry_space_group_name_H-M "P -1"
_symmetry_group_IT_number 2
_symmetry_cell_setting 'triclinic'
loop_
_space_group_symop_operation_xyz
x,y,z
-x,-y,-z
loop_
_atom_site_type_symbol
_atom_site_label
_atom_site_fract_x
_atom_site_fract_y
_atom_site_fract_z
Si Si1 0.796380 0.020436 0.384094
Si Si2 0.267893 0.664637 0.867752
Si Si3 0.087893 0.081715 0.363541
Si Si4 0.327687 0.307335 0.272858
Si Si5 0.423259 0.106717 0.077067
Si Si6 0.077726 0.564372 0.244575
Si Si7 0.802506 0.597422 0.963106
O O1 0.820816 0.199122 0.566720
O O2 0.971541 0.110770 0.408173
O O3 0.772546 0.864565 0.436308
O O4 0.662887 0.935335 0.152434
O O5 0.377062 0.687169 0.770495
O O6 0.080492 0.567227 0.746041
O O7 0.257952 0.543852 0.962054
O O8 0.384523 0.910462 0.043814
O O9 0.171061 0.209965 0.284984
O O10 0.971056 0.836470 0.172755
O O11 0.500000 0.500000 0.500000
O O12 0.327369 0.132364 0.174347
O O13 0.318844 0.378811 0.125906
O O14 0.179880 0.502826 0.228987
O O15 0.000000 0.500000 0.000000
#
# Coordination Sequence:
#
# PCOD9016923 Si02
#       7
#     2   2   2   2   2   2   2
#     4  11  24  42  73 103 138 187 228 287 344 410
#     4  10  24  44  70 100 144 181 230 285 349 411
#     4  11  24  46  70 106 139 184 235 284 348 417
#     4  12  29  45  71 104 141 184 234 290 350 414
#     4  11  26  45  69 105 145 185 226 292 349 415
#     4  10  21  42  70 100 133 179 235 281 333 411
#     4  11  23  47  74 101 138 186 232 289 341 414
#
# _framework density 24.095621999999999
#
# number of rings (size 3 to 8) (size 9 to 14) (size 15 to 20)
#    0.000    1.143    4.286    1.286    8.000    3.429 
#    0.000    3.571    0.000    0.000    0.000    0.000 
#    0.000    0.000    0.000    0.000    0.000    0.000 
#
# Total GULP energy -78126.225314 kJ/mol
# GULP energy per Si atom -5580.444665 kJ/mol
# Density = 2.404078 g / cm^3
# Si number density = 24.095622 Si / 1000 Ang^3
#
#
#
# Elastic Constant Matrix: (Units=GPa)
#
#
# Indices 1 2 3 4 5 6 
#
# 1 76.9034 18.6241 -0.3905 8.4713 -24.7197 -7.7803
# 2 18.6241 121.1484 13.7457 2.4166 2.5292 -10.1889
# 3 -0.3905 13.7457 73.5557 -0.8203 -10.5127 -6.7655
# 4 8.4713 2.4166 -0.8203 13.6927 -5.0502 -2.8922
# 5 -24.7197 2.5292 -10.5127 -5.0502 33.1296 6.0711
# 6 -7.7803 -10.1889 -6.7655 -2.8922 6.0711 33.5314
#
#
#
# Elastic Compliance Matrix: (Units=1/GPa)
#
#
# Indices 1 2 3 4 5 6 
#
# 1 0.019190 -0.003385 0.002821 -0.005585 0.014457 0.000894
# 2 -0.003385 0.009332 -0.002198 -0.000846 -0.004495 0.002348
# 3 0.002821 -0.002198 0.015255 0.002614 0.007146 0.001996
# 4 -0.005585 -0.000846 0.002614 0.080766 0.008223 0.004452
# 5 0.014457 -0.004495 0.007146 0.008223 0.045590 -0.004115
# 6 0.000894 0.002348 0.001996 0.004452 -0.004115 0.032275
#
#
# Mechanical properties :
#
#
# Convention : Reuss Voigt Hill
#
# Bulk Modulus (GPa) = 26.14223 37.28512 31.71367
# Shear Modulus (GPa) = 22.65674 32.04595 27.35134
#
# Velocity S-wave (km/s) = 3.06973 3.65080 3.37280
# Velocity P-wave (km/s) = 4.84121 5.76876 5.32521
#
# Compressibility (1/GPa) = 0.03825228
#
# Stress axis : x y z
#
# Youngs Moduli (GPa) = 52.10976 107.15448 65.55277
#
# Poissons Ratio (x) = 0.36276 -0.18490
# Poissons Ratio (y) = 0.17641 0.14408
# Poissons Ratio (z) = -0.14699 0.23552
#
# Static dielectric constant tensor:
#      x y z
#    x 2.087080 0.026920 -0.004570 
#    y 0.026920 1.885990 -0.033450 
#    z -0.004570 -0.033450 2.009550 
# 
# From -- ./inp_files/245160.got.cif
#   From: 2010.05.17/outbox.cif.g08.bks.cpg/sg2_123_cif.got.tgz:245160.got - 2010.06.03 11:33:40.
