data_PCOD9016687
_publ_section_title
;
Structure prediction by ZEFSAII (Michael W. Deem and Ramdas Pophale) SiO2 
 PCOD9016687
Probable space group: P -1
;
_chemical_formula_sum "Si O2"
_cell_formula_units_Z 16
_cell_length_a 17.130238
_cell_length_b 6.858492
_cell_length_c 10.513031
_cell_angle_alpha 62.383490
_cell_angle_beta 127.387027
_cell_angle_gamma 86.465751
_cell_volume 759.322408
_symmetry_space_group_name_H-M "P -1"
_symmetry_group_IT_number 2
_symmetry_cell_setting 'triclinic'
loop_
_space_group_symop_operation_xyz
x,y,z
-x,-y,-z
loop_
_atom_site_type_symbol
_atom_site_label
_atom_site_fract_x
_atom_site_fract_y
_atom_site_fract_z
Si Si1 0.502852 0.433177 0.871606
Si Si2 0.501630 0.704991 0.532438
Si Si3 0.259032 0.920333 0.783254
Si Si4 0.980562 0.114922 0.809439
Si Si5 0.028389 0.402948 0.414499
Si Si6 0.738025 0.232054 0.455036
Si Si7 0.131606 0.699723 0.878034
Si Si8 0.307516 0.157837 0.313938
O O1 0.520972 0.604776 0.729664
O O2 0.373686 0.510150 0.695318
O O3 0.500000 0.500000 0.000000
O O4 0.610608 0.158975 0.041982
O O5 0.500000 0.500000 0.500000
O O6 0.598823 0.768678 0.567830
O O7 0.379558 0.955664 0.336389
O O8 0.257282 0.804904 0.679757
O O9 0.218843 0.783747 0.886381
O O10 0.160564 0.206392 0.596849
O O11 0.004514 0.345858 0.770943
O O12 0.851410 0.221148 0.613053
O O13 0.057376 0.901738 0.849591
O O14 0.000000 0.000000 0.000000
O O15 0.000000 0.500000 0.500000
O O16 0.953068 0.288207 0.320189
O O17 0.726529 0.999810 0.575570
O O18 0.201833 0.415923 0.086041
#
# Coordination Sequence:
#
# PCOD9016687 Si02
#       8
#     2   2   2   2   2   2   2   2
#     4   9  20  40  69  94 131 176 214 273 338 395
#     4  10  21  42  68  99 135 173 226 283 329 405
#     4  11  21  43  69  93 134 172 223 278 333 404
#     4  12  27  44  66  99 138 175 228 287 333 403
#     4  12  25  42  67  98 130 176 228 271 344 398
#     4  10  22  44  67  95 135 175 219 279 337 397
#     4  12  24  43  69  96 134 180 224 281 337 404
#     4  10  23  40  68  98 131 179 221 268 348 396
#
# _framework density 21.071417
#
# number of rings (size 3 to 8) (size 9 to 14) (size 15 to 20)
#    0.000    1.250    3.750    1.875    1.750    5.000 
#    0.000    0.625    0.000    0.000    0.000    0.000 
#    0.000    0.000    0.000    0.000    0.000    0.000 
#
# Total GULP energy -89293.570019 kJ/mol
# GULP energy per Si atom -5580.848126 kJ/mol
# Density = 2.102346 g / cm^3
# Si number density = 21.071417 Si / 1000 Ang^3
#
#
#
# Elastic Constant Matrix: (Units=GPa)
#
#
# Indices 1 2 3 4 5 6 
#
# 1 93.1769 30.6440 28.4717 4.3403 18.6421 -12.4497
# 2 30.6440 81.3726 19.0210 -11.6113 20.0331 -10.1852
# 3 28.4717 19.0210 102.7518 -17.3930 34.4607 -20.6848
# 4 4.3403 -11.6113 -17.3930 22.9909 -10.1776 1.6709
# 5 18.6421 20.0331 34.4607 -10.1776 50.7741 -9.8975
# 6 -12.4497 -10.1852 -20.6848 1.6709 -9.8975 21.4821
#
#
#
# Elastic Compliance Matrix: (Units=1/GPa)
#
#
# Indices 1 2 3 4 5 6 
#
# 1 0.014696 -0.005152 -0.003364 -0.009181 -0.002448 0.002421
# 2 -0.005152 0.016409 0.001864 0.008934 -0.003195 0.004422
# 3 -0.003364 0.001864 0.016449 0.010369 -0.006442 0.010998
# 4 -0.009181 0.008934 0.010369 0.059805 0.006179 0.007095
# 5 -0.002448 -0.003195 -0.006442 0.006179 0.028116 0.003337
# 6 0.002421 0.004422 0.010998 0.007095 0.003337 0.061626
#
#
# Mechanical properties :
#
#
# Convention : Reuss Voigt Hill
#
# Bulk Modulus (GPa) = 29.19804 48.17495 38.68650
# Shear Modulus (GPa) = 22.54079 32.32704 27.43391
#
# Velocity S-wave (km/s) = 3.27423 3.92109 3.61217
# Velocity P-wave (km/s) = 5.30856 6.58880 5.98302
#
# Compressibility (1/GPa) = 0.03424887
#
# Stress axis : x y z
#
# Youngs Moduli (GPa) = 68.04773 60.94399 60.79380
#
# Poissons Ratio (x) = 0.31400 0.20451
# Poissons Ratio (y) = 0.35060 -0.11332
# Poissons Ratio (z) = 0.22891 -0.11360
#
# Static dielectric constant tensor:
#      x y z
#    x 1.747160 0.001470 0.016950 
#    y 0.001470 1.728230 -0.006600 
#    z 0.016950 -0.006600 1.772370 
# 
# From -- ./inp_files/81660.got.cif
#   From: 2010.05.17/outbox.cif.g08.bks.cpg/sg2_41_cif.got.tgz:81660.got - 2010.06.03 11:33:40.
