data_PCOD9016920
_publ_section_title
;
Structure prediction by ZEFSAII (Michael W. Deem and Ramdas Pophale) SiO2 
 PCOD9016920
Probable space group: P -1
;
_chemical_formula_sum "Si O2"
_cell_formula_units_Z 16
_cell_length_a 9.297186
_cell_length_b 12.991561
_cell_length_c 8.838823
_cell_angle_alpha 44.037470
_cell_angle_beta 95.892151
_cell_angle_gamma 90.306142
_cell_volume 734.569968
_symmetry_space_group_name_H-M "P -1"
_symmetry_group_IT_number 2
_symmetry_cell_setting 'triclinic'
loop_
_space_group_symop_operation_xyz
x,y,z
-x,-y,-z
loop_
_atom_site_type_symbol
_atom_site_label
_atom_site_fract_x
_atom_site_fract_y
_atom_site_fract_z
Si Si1 0.378722 0.264728 0.376502
Si Si2 0.149206 0.495422 0.106329
Si Si3 0.260170 0.173936 0.953197
Si Si4 0.448464 0.939114 0.718444
Si Si5 0.461388 0.345049 0.598783
Si Si6 0.247447 0.832335 0.267584
Si Si7 0.963002 0.360426 0.744491
Si Si8 0.327178 0.733924 0.729754
O O1 0.214162 0.323536 0.276873
O O2 0.426231 0.376782 0.388416
O O3 0.497039 0.288413 0.237062
O O4 0.398070 0.097771 0.621826
O O5 0.121738 0.568955 0.191651
O O6 0.253399 0.591364 0.919454
O O7 0.000000 0.500000 0.000000
O O8 0.321946 0.280790 0.722496
O O9 0.114474 0.263173 0.909262
O O10 0.407010 0.138996 0.106461
O O11 0.222650 0.011004 0.067649
O O12 0.315221 0.848083 0.750951
O O13 0.500000 0.000000 0.500000
O O14 0.500000 0.500000 0.500000
O O15 0.601991 0.224608 0.741270
O O16 0.271899 0.792004 0.494526
O O17 0.128267 0.743702 0.262879
O O18 0.000000 0.500000 0.500000
#
# Coordination Sequence:
#
# PCOD9016920 Si02
#       8
#     2   2   2   2   2   2   2   2
#     4  10  22  43  66  97 136 168 227 285 332 395
#     4  12  27  43  66 102 135 185 225 270 348 409
#     4  12  24  43  73  99 135 185 225 284 342 406
#     4  10  21  42  70 100 131 169 234 279 339 390
#     4  11  23  39  68 103 132 175 229 281 337 400
#     4  11  23  46  68 103 134 176 232 285 342 400
#     4  12  28  48  66  98 147 183 223 278 347 418
#     4  10  23  43  72  98 133 174 231 284 336 396
#
# _framework density 21.781452000000002
#
# number of rings (size 3 to 8) (size 9 to 14) (size 15 to 20)
#    0.000    1.000    3.750    4.125    7.000    1.000 
#    0.000    3.750    0.000    0.000    0.000    0.000 
#    0.000    0.000    0.000    0.000    0.000    0.000 
#
# Total GULP energy -89147.033418 kJ/mol
# GULP energy per Si atom -5571.689589 kJ/mol
# Density = 2.173188 g / cm^3
# Si number density = 21.781452 Si / 1000 Ang^3
#
#
#
# Elastic Constant Matrix: (Units=GPa)
#
#
# Indices 1 2 3 4 5 6 
#
# 1 89.3365 33.6534 38.0750 -8.0474 17.3902 -7.3631
# 2 33.6534 106.4944 35.6183 0.8393 0.1745 15.6207
# 3 38.0750 35.6183 66.3114 -16.1379 6.8856 -4.2930
# 4 -8.0474 0.8393 -16.1379 26.6854 -2.2417 8.6103
# 5 17.3902 0.1745 6.8856 -2.2417 41.3528 -3.1395
# 6 -7.3631 15.6207 -4.2930 8.6103 -3.1395 43.5688
#
#
#
# Elastic Compliance Matrix: (Units=1/GPa)
#
#
# Indices 1 2 3 4 5 6 
#
# 1 0.016831 -0.003324 -0.007256 -0.000666 -0.005661 0.003045
# 2 -0.003324 0.013493 -0.006766 -0.003683 0.001873 -0.005203
# 3 -0.007256 -0.006766 0.026296 0.013538 -0.000483 0.001081
# 4 -0.000666 -0.003683 0.013538 0.047811 0.000109 -0.006899
# 5 -0.005661 0.001873 -0.000483 0.000109 0.026658 0.000224
# 6 0.003045 -0.005203 0.001081 -0.006899 0.000224 0.026818
#
#
# Mechanical properties :
#
#
# Convention : Reuss Voigt Hill
#
# Bulk Modulus (GPa) = 45.60559 52.98176 49.29368
# Shear Modulus (GPa) = 25.01139 32.64109 28.82624
#
# Velocity S-wave (km/s) = 3.39232 3.87534 3.64185
# Velocity P-wave (km/s) = 6.02719 6.66344 6.35328
#
# Compressibility (1/GPa) = 0.02192714
#
# Stress axis : x y z
#
# Youngs Moduli (GPa) = 59.41355 74.11286 38.02911
#
# Poissons Ratio (x) = 0.24637 0.27593
# Poissons Ratio (y) = 0.19750 0.25732
# Poissons Ratio (z) = 0.43109 0.50148
#
# Static dielectric constant tensor:
#      x y z
#    x 1.979940 -0.068020 0.101550 
#    y -0.068020 2.155940 0.019550 
#    z 0.101550 0.019550 1.940970 
# 
# From -- ./inp_files/184366.got.cif
#   From: 2010.05.17/outbox.cif.g08.bks.cpg/sg2_93_cif.got.tgz:184366.got - 2010.06.03 11:33:40.
