data_PCOD9016197
_publ_section_title
;
Structure prediction by ZEFSAII (Michael W. Deem and Ramdas Pophale) SiO2 
 PCOD9016197
Probable space group: P -1
;
_chemical_formula_sum "Si O2"
_cell_formula_units_Z 16
_cell_length_a 12.332915
_cell_length_b 17.959473
_cell_length_c 9.301743
_cell_angle_alpha 121.897283
_cell_angle_beta 131.729219
_cell_angle_gamma 27.465995
_cell_volume 697.493559
_symmetry_space_group_name_H-M "P -1"
_symmetry_group_IT_number 2
_symmetry_cell_setting 'triclinic'
loop_
_space_group_symop_operation_xyz
x,y,z
-x,-y,-z
loop_
_atom_site_type_symbol
_atom_site_label
_atom_site_fract_x
_atom_site_fract_y
_atom_site_fract_z
Si Si1 0.711550 0.674153 0.257338
Si Si2 0.505503 0.723018 0.681972
Si Si3 0.702618 0.327472 0.125733
Si Si4 0.123780 0.313779 0.133323
Si Si5 0.803348 0.092237 0.133082
Si Si6 0.215358 0.188785 0.394825
Si Si7 0.323364 0.532660 0.265887
Si Si8 0.406691 0.722660 0.272190
O O1 0.901116 0.500201 0.184477
O O2 0.852146 0.692857 0.442623
O O3 0.574725 0.710819 0.322589
O O4 0.464424 0.817462 0.075337
O O5 0.241400 0.871403 0.699615
O O6 0.666451 0.570590 0.764495
O O7 0.469773 0.696873 0.468519
O O8 0.655220 0.738647 0.804373
O O9 0.804313 0.183553 0.141540
O O10 0.489281 0.464119 0.196937
O O11 0.966677 0.249882 0.256004
O O12 0.548360 0.383574 0.898453
O O13 0.231584 0.212391 0.268560
O O14 0.987139 0.310212 0.904857
O O15 0.084362 0.902008 0.159406
O O16 0.500000 0.000000 0.500000
O O17 0.500000 0.500000 0.500000
#
# Coordination Sequence:
#
# PCOD9016197 Si02
#       8
#     2   2   2   2   2   2   2   2
#     4  11  22  43  70 100 132 185 236 282 339 414
#     4  11  24  40  69  99 142 179 231 277 350 418
#     4  10  23  41  66  95 137 172 235 284 341 398
#     4  12  25  45  70 102 139 182 239 277 347 424
#     4  10  21  42  66  99 135 182 226 283 341 420
#     4  12  26  42  68 107 140 179 229 296 350 400
#     4  11  26  45  67 101 139 181 223 294 352 403
#     4  11  20  40  69  99 133 180 234 282 337 410
#
# _framework density 22.939278999999999
#
# number of rings (size 3 to 8) (size 9 to 14) (size 15 to 20)
#    0.000    1.000    5.000    4.125    3.500    0.500 
#    0.000    0.000    0.000    2.250    0.000    0.000 
#    0.000    0.000    0.000    0.000    0.000    0.000 
#
# Total GULP energy -89420.006820 kJ/mol
# GULP energy per Si atom -5588.750426 kJ/mol
# Density = 2.288707 g / cm^3
# Si number density = 22.939279 Si / 1000 Ang^3
#
#
#
# Elastic Constant Matrix: (Units=GPa)
#
#
# Indices 1 2 3 4 5 6 
#
# 1 145.9245 11.6438 74.5883 -3.7751 -10.8931 -4.8206
# 2 11.6438 35.1618 15.0123 -6.5739 -12.4145 -10.8031
# 3 74.5883 15.0123 167.1359 9.0434 -1.7529 8.6662
# 4 -3.7751 -6.5739 9.0434 33.5147 -3.8392 -9.0227
# 5 -10.8931 -12.4145 -1.7529 -3.8392 52.7567 5.4166
# 6 -4.8206 -10.8031 8.6662 -9.0227 5.4166 20.4324
#
#
#
# Elastic Compliance Matrix: (Units=1/GPa)
#
#
# Indices 1 2 3 4 5 6 
#
# 1 0.009997 0.003601 -0.005527 0.005902 0.002273 0.008610
# 2 0.003601 0.052616 -0.009760 0.025698 0.010421 0.041394
# 3 -0.005527 -0.009760 0.010576 -0.009576 -0.002287 -0.014573
# 4 0.005902 0.025698 -0.009576 0.049409 0.006526 0.039129
# 5 0.002273 0.010421 -0.002287 0.006526 0.021854 0.004104
# 6 0.008610 0.041394 -0.014573 0.039129 0.004104 0.095231
#
#
# Mechanical properties :
#
#
# Convention : Reuss Voigt Hill
#
# Bulk Modulus (GPa) = 20.07371 61.19012 40.63191
# Shear Modulus (GPa) = 17.87868 37.80596 27.84232
#
# Velocity S-wave (km/s) = 2.79479 4.06407 3.48766
# Velocity P-wave (km/s) = 4.37998 6.98247 5.82834
#
# Compressibility (1/GPa) = 0.04981641
#
# Stress axis : x y z
#
# Youngs Moduli (GPa) = 100.02528 19.00554 94.55222
#
# Poissons Ratio (x) = -0.06843 0.52259
# Poissons Ratio (y) = -0.36016 0.92287
# Poissons Ratio (z) = 0.55284 0.18550
#
# Static dielectric constant tensor:
#      x y z
#    x 1.829910 0.036870 0.022420 
#    y 0.036870 1.909990 0.015580 
#    z 0.022420 0.015580 1.926310 
# 
# From -- ./inp_files/207833.got.cif
#   From: 2010.05.17/outbox.cif.g08.bks.cpg/sg2_104_cif.got.tgz:207833.got - 2010.06.03 11:33:40.
