data_PCOD9016766
_publ_section_title
;
Structure prediction by ZEFSAII (Michael W. Deem and Ramdas Pophale) SiO2 
 PCOD9016766
Probable space group: P -1
;
_chemical_formula_sum "Si O2"
_cell_formula_units_Z 16
_cell_length_a 9.652354
_cell_length_b 16.982368
_cell_length_c 11.538527
_cell_angle_alpha 140.159174
_cell_angle_beta 103.913871
_cell_angle_gamma 47.343735
_cell_volume 716.972057
_symmetry_space_group_name_H-M "P -1"
_symmetry_group_IT_number 2
_symmetry_cell_setting 'triclinic'
loop_
_space_group_symop_operation_xyz
x,y,z
-x,-y,-z
loop_
_atom_site_type_symbol
_atom_site_label
_atom_site_fract_x
_atom_site_fract_y
_atom_site_fract_z
Si Si1 0.497766 0.225989 0.101926
Si Si2 0.989462 0.858863 0.237987
Si Si3 0.321192 0.754992 0.483508
Si Si4 0.863887 0.483839 0.018530
Si Si5 0.093674 0.319619 0.109069
Si Si6 0.069414 0.048094 0.972619
Si Si7 0.459104 0.653227 0.987624
Si Si8 0.231512 0.513734 0.586292
O O1 0.333656 0.225379 0.031005
O O2 0.703975 0.043414 0.024207
O O3 0.577270 0.244814 0.023755
O O4 0.328420 0.421571 0.374067
O O5 0.234852 0.746419 0.113197
O O6 0.798425 0.096024 0.481617
O O7 0.883157 0.841316 0.095590
O O8 0.024012 0.732040 0.200965
O O9 0.138480 0.914661 0.727856
O O10 0.377948 0.574929 0.270143
O O11 0.559945 0.646715 0.461046
O O12 0.899966 0.492363 0.170524
O O13 0.609311 0.636451 0.086058
O O14 0.000000 0.500000 0.000000
O O15 0.990488 0.404902 0.312163
O O16 0.000000 0.000000 0.000000
O O17 0.853469 0.288350 0.195602
#
# Coordination Sequence:
#
# PCOD9016766 Si02
#       8
#     2   2   2   2   2   2   2   2
#     4  11  24  36  65  90 126 165 204 250 303 364
#     4  10  22  39  65  92 123 161 202 254 304 361
#     4  11  20  37  62  90 126 155 204 252 302 365
#     4  10  21  42  69  87 124 163 203 256 307 360
#     4  10  21  44  59  90 123 164 203 251 308 360
#     4  11  21  37  57  91 127 161 203 251 301 361
#     4  12  21  40  66  94 120 165 204 251 309 358
#     4  11  22  41  61  91 124 167 202 249 307 365
#
# _framework density 22.316071999999998
#
# number of rings (size 3 to 8) (size 9 to 14) (size 15 to 20)
#    0.750    0.500    3.750    3.000    0.000    3.000 
#    2.250    0.000    2.750    3.750    0.000    0.000 
#    0.000    0.000    0.000    0.000    0.000    0.000 
#
# Total GULP energy -89120.259453 kJ/mol
# GULP energy per Si atom -5570.016216 kJ/mol
# Density = 2.226528 g / cm^3
# Si number density = 22.316072 Si / 1000 Ang^3
#
#
#
# Elastic Constant Matrix: (Units=GPa)
#
#
# Indices 1 2 3 4 5 6 
#
# 1 146.3425 30.4846 33.6861 2.4950 3.5211 -0.9418
# 2 30.4846 89.9142 28.7375 12.4420 1.0093 -4.5258
# 3 33.6861 28.7375 73.4384 7.2696 -12.7284 5.1549
# 4 2.4950 12.4420 7.2696 37.2811 -2.6870 5.0025
# 5 3.5211 1.0093 -12.7284 -2.6870 11.7626 -6.8549
# 6 -0.9418 -4.5258 5.1549 5.0025 -6.8549 44.9077
#
#
#
# Elastic Compliance Matrix: (Units=1/GPa)
#
#
# Indices 1 2 3 4 5 6 
#
# 1 0.008353 -0.001344 -0.004625 0.000323 -0.007689 -0.000639
# 2 -0.001344 0.014198 -0.005891 -0.004220 -0.007320 0.001432
# 3 -0.004625 -0.005891 0.022668 -0.000323 0.026834 0.000839
# 4 0.000323 -0.004220 -0.000323 0.029009 0.004870 -0.002869
# 5 -0.007689 -0.007320 0.026834 0.004870 0.126734 0.014823
# 6 -0.000639 0.001432 0.000839 -0.002869 0.014823 0.024885
#
#
# Mechanical properties :
#
#
# Convention : Reuss Voigt Hill
#
# Bulk Modulus (GPa) = 46.51557 55.05683 50.78620
# Shear Modulus (GPa) = 19.47539 33.24275 26.35907
#
# Velocity S-wave (km/s) = 2.95737 3.86376 3.44054
# Velocity P-wave (km/s) = 5.70531 6.68056 6.21210
#
# Compressibility (1/GPa) = 0.02149818
#
# Stress axis : x y z
#
# Youngs Moduli (GPa) = 119.71148 70.43043 44.11554
#
# Poissons Ratio (x) = 0.09469 0.20405
# Poissons Ratio (y) = 0.16094 0.25988
# Poissons Ratio (z) = 0.55371 0.41490
#
# Static dielectric constant tensor:
#      x y z
#    x 1.867490 -0.014420 0.012500 
#    y -0.014420 2.019140 -0.002920 
#    z 0.012500 -0.002920 1.834420 
# 
# From -- ./inp_files/437399.got.cif
#   From: 2010.05.17/outbox.cif.g08.bks.cpg/sg2_219_cif.got.tgz:437399.got - 2010.06.03 11:33:40.
