data_PCOD9017697
_publ_section_title
;
Structure prediction by ZEFSAII (Michael W. Deem and Ramdas Pophale) SiO2 
 PCOD9017697
Probable space group: P -1
;
_chemical_formula_sum "Si O2"
_cell_formula_units_Z 14
_cell_length_a 9.159730
_cell_length_b 9.530080
_cell_length_c 9.651420
_cell_angle_alpha 59.041102
_cell_angle_beta 68.700684
_cell_angle_gamma 66.428357
_cell_volume 648.757173
_symmetry_space_group_name_H-M "P -1"
_symmetry_group_IT_number 2
_symmetry_cell_setting 'triclinic'
loop_
_space_group_symop_operation_xyz
x,y,z
-x,-y,-z
loop_
_atom_site_type_symbol
_atom_site_label
_atom_site_fract_x
_atom_site_fract_y
_atom_site_fract_z
Si Si1 0.541105 1.000000 0.822787
Si Si2 0.077720 0.098852 0.312678
Si Si3 0.815566 0.376756 0.729240
Si Si4 0.981038 0.379457 0.414092
Si Si5 0.713609 0.676268 0.213289
Si Si6 0.995573 0.161646 0.011433
Si Si7 0.511656 0.637792 0.043885
O O1 0.431796 0.188274 0.724012
O O2 0.730665 0.980273 0.739694
O O3 0.498219 0.823402 0.883908
O O4 0.500000 0.000000 0.000000
O O5 0.053748 0.278521 0.304432
O O6 0.972143 0.127708 0.195327
O O7 0.000000 0.000000 0.500000
O O8 0.919549 0.280807 0.611598
O O9 0.872035 0.549014 0.615717
O O10 0.870951 0.309341 0.897880
O O11 0.633939 0.365518 0.797190
O O12 0.820144 0.522991 0.346876
O O13 0.659827 0.612385 0.116555
O O14 0.835647 0.789602 0.078144
O O15 0.000000 0.000000 0.000000
O O16 0.500000 0.500000 0.000000
#
# Coordination Sequence:
#
# PCOD9017697 Si02
#       7
#     2   2   2   2   2   2   2
#     4  10  21  43  65  99 135 183 223 281 341 416
#     4  12  25  41  70 101 139 176 234 289 344 404
#     4  10  23  40  68  93 141 179 231 276 349 410
#     4  10  24  44  64 104 139 181 231 292 340 412
#     4  10  23  42  70  95 141 181 234 276 351 408
#     4  11  22  40  68  99 129 186 234 274 343 421
#     4  11  22  38  69 101 136 181 233 283 339 412
#
# _framework density 21.579722
#
# number of rings (size 3 to 8) (size 9 to 14) (size 15 to 20)
#    0.000    1.429    2.857    2.571    8.000    1.714 
#    0.000    0.000    0.000   10.286    0.000    0.000 
#    0.000    0.000    0.000    0.000    0.000    0.000 
#
# Total GULP energy -77999.320833 kJ/mol
# GULP energy per Si atom -5571.380059 kJ/mol
# Density = 2.153061 g / cm^3
# Si number density = 21.579722 Si / 1000 Ang^3
#
#
#
# Elastic Constant Matrix: (Units=GPa)
#
#
# Indices 1 2 3 4 5 6 
#
# 1 104.7306 35.2668 34.2991 3.1984 -3.3043 9.0595
# 2 35.2668 92.3877 17.4106 14.8397 4.6428 12.0941
# 3 34.2991 17.4106 111.9596 13.5336 -3.5710 1.8455
# 4 3.1984 14.8397 13.5336 28.7007 6.0745 4.7578
# 5 -3.3043 4.6428 -3.5710 6.0745 39.8381 2.4164
# 6 9.0595 12.0941 1.8455 4.7578 2.4164 48.9016
#
#
#
# Elastic Compliance Matrix: (Units=1/GPa)
#
#
# Indices 1 2 3 4 5 6 
#
# 1 0.012139 -0.004274 -0.003298 0.002441 0.000919 -0.001350
# 2 -0.004274 0.013752 -0.000092 -0.006069 -0.000921 -0.001970
# 3 -0.003298 -0.000092 0.010593 -0.004985 0.001408 0.000650
# 4 0.002441 -0.006069 -0.004985 0.041695 -0.005741 -0.002536
# 5 0.000919 -0.000921 0.001408 -0.005741 0.026331 -0.000738
# 6 -0.001350 -0.001970 0.000650 -0.002536 -0.000738 0.021445
#
#
# Mechanical properties :
#
#
# Convention : Reuss Voigt Hill
#
# Bulk Modulus (GPa) = 47.26819 53.67009 50.46914
# Shear Modulus (GPa) = 33.70755 38.29485 36.00120
#
# Velocity S-wave (km/s) = 3.95650 4.21714 4.08890
# Velocity P-wave (km/s) = 6.54396 6.97402 6.76241
#
# Compressibility (1/GPa) = 0.02115588
#
# Stress axis : x y z
#
# Youngs Moduli (GPa) = 82.38140 72.71805 94.39977
#
# Poissons Ratio (x) = 0.31078 0.31130
# Poissons Ratio (y) = 0.35208 0.00873
# Poissons Ratio (z) = 0.27166 0.00673
#
# Static dielectric constant tensor:
#      x y z
#    x 1.830750 -0.047550 0.046560 
#    y -0.047550 1.916230 0.009330 
#    z 0.046560 0.009330 1.823390 
# 
# From -- ./inp_files/157182.got.cif
#   From: 2010.05.17/outbox.cif.g08.bks.cpg/sg2_79_cif.got.tgz:157182.got - 2010.06.03 11:33:40.
