data_PCOD9017216
_publ_section_title
;
Structure prediction by ZEFSAII (Michael W. Deem and Ramdas Pophale) SiO2 
 PCOD9017216
Probable space group: P -1
;
_chemical_formula_sum "Si O2"
_cell_formula_units_Z 15
_cell_length_a 12.900646
_cell_length_b 9.409074
_cell_length_c 7.097359
_cell_angle_alpha 124.341230
_cell_angle_beta 61.159852
_cell_angle_gamma 84.900088
_cell_volume 539.941075
_symmetry_space_group_name_H-M "P -1"
_symmetry_group_IT_number 2
_symmetry_cell_setting 'triclinic'
loop_
_space_group_symop_operation_xyz
x,y,z
-x,-y,-z
loop_
_atom_site_type_symbol
_atom_site_label
_atom_site_fract_x
_atom_site_fract_y
_atom_site_fract_z
Si Si1 0.264220 0.477868 0.171357
Si Si2 0.092219 0.275071 0.815891
Si Si3 0.528148 0.598467 0.769493
Si Si4 0.365299 0.241270 0.523947
Si Si5 0.063097 0.125163 0.136185
Si Si6 0.248345 0.874740 0.369132
Si Si7 0.000000 0.500000 0.500000
Si Si8 0.634309 0.135897 0.344092
O O1 0.410392 0.388265 0.076344
O O2 0.221646 0.707059 0.358152
O O3 0.165316 0.429245 0.340929
O O4 0.291666 0.379836 0.870933
O O5 0.246594 0.195528 0.542322
O O6 0.100467 0.066521 0.601657
O O7 0.063198 0.277927 0.075849
O O8 0.000000 0.500000 0.000000
O O9 0.611843 0.643782 0.578241
O O10 0.562774 0.372389 0.553837
O O11 0.367759 0.755601 0.025260
O O12 0.521079 0.083430 0.331018
O O13 0.006627 0.306318 0.467077
O O14 0.214731 0.971830 0.954698
O O15 0.000000 0.000000 0.000000
O O16 0.320395 0.918587 0.518849
#
# Coordination Sequence:
#
# PCOD9017216 Si02
#       8
#     2   2   2   2   2   2   1   2
#     4  11  23  45  72 105 145 186 253 305 364 460
#     4  11  27  46  65 103 155 192 240 314 375 437
#     4  11  22  41  75 105 146 187 238 312 390 434
#     4  12  24  42  72 107 146 182 239 318 369 438
#     4  11  25  47  76 106 146 207 253 305 385 452
#     4  10  21  45  74  99 142 195 237 304 380 444
#     4  12  24  44  70 104 140 200 258 290 370 466
#     4  10  21  42  72 107 140 187 248 311 372 445
#
# _framework density 27.780809999999999
#
# number of rings (size 3 to 8) (size 9 to 14) (size 15 to 20)
#    0.000    1.067    4.000    3.600    3.733    3.733 
#    2.400    0.667    0.000    0.000    0.000    0.000 
#    0.000    0.000    0.000    0.000    0.000    0.000 
#
# Total GULP energy -83559.417008 kJ/mol
# GULP energy per Si atom -5570.627801 kJ/mol
# Density = 2.771758 g / cm^3
# Si number density = 27.780810 Si / 1000 Ang^3
#
#
#
# Elastic Constant Matrix: (Units=GPa)
#
#
# Indices 1 2 3 4 5 6 
#
# 1 75.1385 24.2544 7.8962 13.6762 -18.9081 17.9373
# 2 24.2544 137.5939 24.3492 12.1834 -11.7207 -8.3850
# 3 7.8962 24.3492 105.6398 28.9941 -7.3705 -4.5201
# 4 13.6762 12.1834 28.9941 66.4437 -0.6268 -11.2046
# 5 -18.9081 -11.7207 -7.3705 -0.6268 37.6775 -8.7145
# 6 17.9373 -8.3850 -4.5201 -11.2046 -8.7145 42.6207
#
#
#
# Elastic Compliance Matrix: (Units=1/GPa)
#
#
# Indices 1 2 3 4 5 6 
#
# 1 0.018748 -0.002940 0.000752 -0.004993 0.006627 -0.008346
# 2 -0.002940 0.008355 -0.001544 0.000285 0.001545 0.003108
# 3 0.000752 -0.001544 0.011204 -0.004792 0.001941 -0.000295
# 4 -0.004993 0.000285 -0.004792 0.019177 -0.001562 0.006371
# 5 0.006627 0.001545 0.001941 -0.001562 0.031572 0.003766
# 6 -0.008346 0.003108 -0.000295 0.006371 0.003766 0.030000
#
#
# Mechanical properties :
#
#
# Convention : Reuss Voigt Hill
#
# Bulk Modulus (GPa) = 32.42171 47.93021 40.17596
# Shear Modulus (GPa) = 36.54979 46.80653 41.67816
#
# Velocity S-wave (km/s) = 3.63112 4.10915 3.87751
# Velocity P-wave (km/s) = 5.41073 6.30903 5.87707
#
# Compressibility (1/GPa) = 0.03084353
#
# Stress axis : x y z
#
# Youngs Moduli (GPa) = 53.34001 119.68998 89.25577
#
# Poissons Ratio (x) = 0.35186 -0.06711
# Poissons Ratio (y) = 0.15681 0.13777
# Poissons Ratio (z) = -0.04011 0.18474
#
# Static dielectric constant tensor:
#      x y z
#    x 2.133320 0.009340 -0.668820 
#    y 0.009340 2.472330 -0.186320 
#    z -0.668820 -0.186320 1.428090 
# 
# From -- ./inp_files/296336.got.cif
#   From: 2010.05.17/outbox.cif.g08.bks.cpg/sg2_149_cif.got.tgz:296336.got - 2010.06.03 11:33:40.
