data_PCOD9017665
_publ_section_title
;
Structure prediction by ZEFSAII (Michael W. Deem and Ramdas Pophale) SiO2 
 PCOD9017665
Probable space group: P -1
;
_chemical_formula_sum "Si O2"
_cell_formula_units_Z 16
_cell_length_a 5.506681
_cell_length_b 19.140248
_cell_length_c 9.449555
_cell_angle_alpha 65.215723
_cell_angle_beta 123.600897
_cell_angle_gamma 120.113384
_cell_volume 703.613133
_symmetry_space_group_name_H-M "P -1"
_symmetry_group_IT_number 2
_symmetry_cell_setting 'triclinic'
loop_
_space_group_symop_operation_xyz
x,y,z
-x,-y,-z
loop_
_atom_site_type_symbol
_atom_site_label
_atom_site_fract_x
_atom_site_fract_y
_atom_site_fract_z
Si Si1 0.614981 0.959463 0.708437
Si Si2 0.584003 0.631999 0.709154
Si Si3 0.553590 0.342064 0.054024
Si Si4 0.113144 0.594275 0.360749
Si Si5 0.783947 0.065519 0.955131
Si Si6 0.136722 0.781900 0.762695
Si Si7 0.130764 0.757843 0.115752
Si Si8 0.372826 0.526744 0.244737
O O1 0.309231 0.877559 0.706383
O O2 0.500000 0.000000 0.500000
O O3 0.743888 0.028169 0.815381
O O4 0.906506 0.924742 0.855781
O O5 0.548195 0.618123 0.876701
O O6 0.252732 0.605381 0.551906
O O7 0.734555 0.570031 0.740376
O O8 0.774856 0.728920 0.662630
O O9 0.706671 0.277322 0.210119
O O10 0.734454 0.413646 0.942980
O O11 0.235759 0.280986 0.932868
O O12 0.245222 0.686036 0.261036
O O13 0.260172 0.543343 0.348647
O O14 0.741270 0.559119 0.291448
O O15 0.738459 0.152232 0.854421
O O16 0.500000 0.000000 0.000000
O O17 0.173632 0.770316 0.951528
#
# Coordination Sequence:
#
# PCOD9017665 Si02
#       8
#     2   2   2   2   2   2   2   2
#     4  11  26  45  70 108 136 179 239 301 361 433
#     4  11  26  39  66 101 133 182 231 292 351 413
#     4  10  22  41  66  92 135 180 226 281 339 418
#     4  11  25  43  69  99 140 185 235 294 348 425
#     4  11  23  44  74  95 140 186 228 293 365 435
#     4  11  22  43  66  91 140 170 226 288 348 423
#     4  10  21  43  65  96 128 182 225 277 353 426
#     4  11  24  45  67  98 140 188 235 287 350 421
#
# _framework density 22.739768999999999
#
# number of rings (size 3 to 8) (size 9 to 14) (size 15 to 20)
#    0.000    1.250    3.750    1.125    3.500    3.000 
#    2.250    0.000    0.000    0.000    0.000    0.000 
#    0.000    0.000    0.000    0.000    0.000    0.000 
#
# Total GULP energy -89134.528101 kJ/mol
# GULP energy per Si atom -5570.908006 kJ/mol
# Density = 2.268801 g / cm^3
# Si number density = 22.739769 Si / 1000 Ang^3
#
#
#
# Elastic Constant Matrix: (Units=GPa)
#
#
# Indices 1 2 3 4 5 6 
#
# 1 63.0602 29.8651 12.6670 9.3398 -4.5429 -1.5694
# 2 29.8651 164.6441 45.1166 -15.1759 -15.7032 2.8062
# 3 12.6670 45.1166 91.5782 -5.7981 2.1169 18.2235
# 4 9.3398 -15.1759 -5.7981 39.1071 7.1110 -5.0581
# 5 -4.5429 -15.7032 2.1169 7.1110 24.2294 -1.3003
# 6 -1.5694 2.8062 18.2235 -5.0581 -1.3003 38.3594
#
#
#
# Elastic Compliance Matrix: (Units=1/GPa)
#
#
# Indices 1 2 3 4 5 6 
#
# 1 0.019008 -0.003251 -0.001746 -0.006572 0.003597 0.001100
# 2 -0.003251 0.008401 -0.003939 0.002861 0.004428 0.001651
# 3 -0.001746 -0.003939 0.014625 0.001062 -0.004832 -0.006755
# 4 -0.006572 0.002861 0.001062 0.030252 -0.008203 0.002728
# 5 0.003597 0.004428 -0.004832 -0.008203 0.047789 0.002657
# 6 0.001100 0.001651 -0.006755 0.002728 0.002657 0.029652
#
#
# Mechanical properties :
#
#
# Convention : Reuss Voigt Hill
#
# Bulk Modulus (GPa) = 41.38652 54.95331 48.16992
# Shear Modulus (GPa) = 28.46544 35.78145 32.12344
#
# Velocity S-wave (km/s) = 3.54190 3.97106 3.76261
# Velocity P-wave (km/s) = 5.91324 6.72640 6.33288
#
# Compressibility (1/GPa) = 0.02416246
#
# Stress axis : x y z
#
# Youngs Moduli (GPa) = 52.60932 119.03937 68.37791
#
# Poissons Ratio (x) = 0.38699 0.11937
# Poissons Ratio (y) = 0.17103 0.26932
# Poissons Ratio (z) = 0.09184 0.46886
#
# Static dielectric constant tensor:
#      x y z
#    x 1.953840 -0.047610 0.064850 
#    y -0.047610 1.860410 -0.012270 
#    z 0.064850 -0.012270 1.903710 
# 
# From -- ./inp_files/112948.got.cif
#   From: 2010.05.17/outbox.cif.g08.bks.cpg/sg2_57_cif.got.tgz:112948.got - 2010.06.03 11:33:40.
