data_PCOD9017925
_publ_section_title
;
Structure prediction by ZEFSAII (Michael W. Deem and Ramdas Pophale) SiO2 
 PCOD9017925
Probable space group: P -1
;
_chemical_formula_sum "Si O2"
_cell_formula_units_Z 14
_cell_length_a 9.540387
_cell_length_b 8.921687
_cell_length_c 14.338534
_cell_angle_alpha 133.434141
_cell_angle_beta 79.073311
_cell_angle_gamma 133.040029
_cell_volume 550.497073
_symmetry_space_group_name_H-M "P -1"
_symmetry_group_IT_number 2
_symmetry_cell_setting 'triclinic'
loop_
_space_group_symop_operation_xyz
x,y,z
-x,-y,-z
loop_
_atom_site_type_symbol
_atom_site_label
_atom_site_fract_x
_atom_site_fract_y
_atom_site_fract_z
Si Si1 0.224231 0.226713 0.133973
Si Si2 0.838993 0.766859 0.538217
Si Si3 0.200343 0.641660 0.339916
Si Si4 0.475900 0.925336 0.688325
Si Si5 0.111552 0.419394 0.734023
Si Si6 0.240024 0.801489 0.048955
Si Si7 0.299789 0.073754 0.672668
O O1 0.201675 0.410589 0.276840
O O2 0.472404 0.534240 0.186576
O O3 0.233412 0.024596 0.102793
O O4 0.000000 0.000000 0.000000
O O5 0.635618 0.422009 0.465408
O O6 0.813381 0.658525 0.387413
O O7 0.884072 0.059394 0.651835
O O8 0.072503 0.947243 0.631509
O O9 0.959192 0.456588 0.259582
O O10 0.339282 0.803264 0.294949
O O11 0.299336 0.919141 0.517081
O O12 0.576707 0.032321 0.823976
O O13 0.295450 0.907911 0.687649
O O14 0.261863 0.658263 0.902374
O O15 0.000000 0.500000 0.000000
#
# Coordination Sequence:
#
# PCOD9017925 Si02
#       7
#     2   2   2   2   2   2   2
#     4  11  21  39  65  94 126 169 206 259 330 378
#     4  10  24  42  68  90 131 174 219 256 318 384
#     4  10  21  43  67  94 128 169 219 269 314 377
#     4  11  22  40  66  98 127 165 218 271 315 376
#     4  10  22  43  62  95 131 169 214 267 319 380
#     4  12  24  40  64 101 135 157 214 274 322 375
#     4  10  23  45  65  94 132 172 216 263 317 387
#
# _framework density 25.431562
#
# number of rings (size 3 to 8) (size 9 to 14) (size 15 to 20)
#    0.000    1.429    2.857    3.000    6.000    3.429 
#    0.000    0.714    0.000    0.000    0.000    0.000 
#    0.000    0.000    0.000    0.000    0.000    0.000 
#
# Total GULP energy -78294.509526 kJ/mol
# GULP energy per Si atom -5592.464966 kJ/mol
# Density = 2.537368 g / cm^3
# Si number density = 25.431562 Si / 1000 Ang^3
#
#
#
# Elastic Constant Matrix: (Units=GPa)
#
#
# Indices 1 2 3 4 5 6 
#
# 1 94.8334 27.9413 41.6643 -9.5652 5.8694 -37.8214
# 2 27.9413 121.5139 58.2441 8.3778 4.9052 -27.7895
# 3 41.6643 58.2441 137.3498 -7.3121 26.8467 -14.4167
# 4 -9.5652 8.3778 -7.3121 48.5161 -13.9175 6.7200
# 5 5.8694 4.9052 26.8467 -13.9175 52.4530 5.6848
# 6 -37.8214 -27.7895 -14.4167 6.7200 5.6848 46.3497
#
#
#
# Elastic Compliance Matrix: (Units=1/GPa)
#
#
# Indices 1 2 3 4 5 6 
#
# 1 0.017703 0.001114 -0.004080 0.000341 -0.001420 0.013969
# 2 0.001114 0.012279 -0.004855 -0.003830 -0.000605 0.007390
# 3 -0.004080 -0.004855 0.011230 0.000794 -0.004375 -0.002326
# 4 0.000341 -0.003830 0.000794 0.024332 0.007038 -0.006162
# 5 -0.001420 -0.000605 -0.004375 0.007038 0.024130 -0.006862
# 6 0.013969 0.007390 -0.002326 -0.006162 -0.006862 0.038416
#
#
# Mechanical properties :
#
#
# Convention : Reuss Voigt Hill
#
# Bulk Modulus (GPa) = 39.10986 67.71073 53.41030
# Shear Modulus (GPa) = 32.83940 44.52026 38.67983
#
# Velocity S-wave (km/s) = 3.59734 4.18855 3.90415
# Velocity P-wave (km/s) = 5.71545 7.07632 6.43198
#
# Compressibility (1/GPa) = 0.02556900
#
# Stress axis : x y z
#
# Youngs Moduli (GPa) = 56.48913 81.44036 89.04487
#
# Poissons Ratio (x) = -0.09068 0.36333
# Poissons Ratio (y) = -0.06290 0.43228
# Poissons Ratio (z) = 0.23049 0.39536
#
# Static dielectric constant tensor:
#      x y z
#    x 2.107900 0.050670 0.033700 
#    y 0.050670 2.045780 0.034060 
#    z 0.033700 0.034060 2.003170 
# 
# From -- ./inp_files/513707.got.cif
#   From: 2010.05.17/outbox.cif.g08.bks.cpg/sg2_257_cif.got.tgz:513707.got - 2010.06.03 11:33:40.
