data_PCOD9017602
_publ_section_title
;
Structure prediction by ZEFSAII (Michael W. Deem and Ramdas Pophale) SiO2 
 PCOD9017602
Probable space group: P -1
;
_chemical_formula_sum "Si O2"
_cell_formula_units_Z 16
_cell_length_a 22.039572
_cell_length_b 9.096286
_cell_length_c 21.397401
_cell_angle_alpha 143.589673
_cell_angle_beta 161.826141
_cell_angle_gamma 33.597203
_cell_volume 738.134026
_symmetry_space_group_name_H-M "P -1"
_symmetry_group_IT_number 2
_symmetry_cell_setting 'triclinic'
loop_
_space_group_symop_operation_xyz
x,y,z
-x,-y,-z
loop_
_atom_site_type_symbol
_atom_site_label
_atom_site_fract_x
_atom_site_fract_y
_atom_site_fract_z
Si Si1 0.512535 0.241121 0.637171
Si Si2 0.943483 0.588938 0.699518
Si Si3 0.559253 0.590457 0.155314
Si Si4 0.131434 0.182989 0.510983
Si Si5 0.970121 0.217387 0.492619
Si Si6 0.211632 0.454107 0.035277
Si Si7 0.842619 0.969507 0.074107
Si Si8 0.071646 0.083132 0.995085
O O1 0.287811 0.389393 0.499501
O O2 0.695395 0.091613 0.814010
O O3 0.500000 0.000000 0.500000
O O4 0.595854 0.447132 0.753101
O O5 0.999805 0.459082 0.642097
O O6 0.111898 0.430412 0.862554
O O7 0.945957 0.884312 0.803066
O O8 0.665401 0.806383 0.319479
O O9 0.734438 0.343770 0.276882
O O10 0.500000 0.500000 0.000000
O O11 0.340121 0.751432 0.028072
O O12 0.000000 0.500000 0.500000
O O13 0.132192 0.093507 0.552624
O O14 0.015710 0.039224 0.305910
O O15 0.000000 0.000000 0.500000
O O16 0.244830 0.197494 0.021862
O O17 0.034654 0.691646 0.980941
O O18 0.926064 0.819964 0.040023
#
# Coordination Sequence:
#
# PCOD9017602 Si02
#       8
#     2   2   2   2   2   2   2   2
#     4  11  20  43  66  87 129 168 210 263 321 380
#     4  11  22  40  67  89 125 171 212 259 324 375
#     4  11  23  43  67  90 132 174 209 259 329 383
#     4  10  21  43  65  86 131 173 205 261 321 379
#     4  11  23  41  67  96 125 165 218 268 312 377
#     4  11  24  40  63  96 127 166 211 268 317 378
#     4  12  24  41  65  95 130 166 217 264 322 382
#     4  11  22  40  65  91 123 172 211 259 322 383
#
# _framework density 21.676280999999999
#
# number of rings (size 3 to 8) (size 9 to 14) (size 15 to 20)
#    0.000    1.000    5.000    4.125    0.000    2.000 
#    0.000    1.250    0.000    0.000    0.000    0.000 
#    0.000    0.000    0.000    0.000    0.000    0.000 
#
# Total GULP energy -89403.065445 kJ/mol
# GULP energy per Si atom -5587.691590 kJ/mol
# Density = 2.162695 g / cm^3
# Si number density = 21.676281 Si / 1000 Ang^3
#
#
#
# Elastic Constant Matrix: (Units=GPa)
#
#
# Indices 1 2 3 4 5 6 
#
# 1 97.6252 7.8471 44.6333 -1.0161 -17.1954 12.4912
# 2 7.8471 58.0090 29.3529 -0.8315 -5.1181 18.4514
# 3 44.6333 29.3529 127.5406 10.8286 2.5260 9.7012
# 4 -1.0161 -0.8315 10.8286 23.3538 -4.1878 -0.3745
# 5 -17.1954 -5.1181 2.5260 -4.1878 38.8102 5.3490
# 6 12.4912 18.4514 9.7012 -0.3745 5.3490 37.6768
#
#
#
# Elastic Compliance Matrix: (Units=1/GPa)
#
#
# Indices 1 2 3 4 5 6 
#
# 1 0.015459 0.004281 -0.006522 0.005419 0.009363 -0.006818
# 2 0.004281 0.025083 -0.006909 0.005516 0.008043 -0.013011
# 3 -0.006522 -0.006909 0.012197 -0.007175 -0.005804 0.003158
# 4 0.005419 0.005516 -0.007175 0.048186 0.009276 -0.003488
# 5 0.009363 0.008043 -0.005804 0.009276 0.033767 -0.010250
# 6 -0.006818 -0.013011 0.003158 -0.003488 -0.010250 0.035781
#
#
# Mechanical properties :
#
#
# Convention : Reuss Voigt Hill
#
# Bulk Modulus (GPa) = 29.03652 49.64905 39.34279
# Shear Modulus (GPa) = 24.96851 33.39092 29.17972
#
# Velocity S-wave (km/s) = 3.39762 3.92910 3.67298
# Velocity P-wave (km/s) = 5.36809 6.59835 6.01476
#
# Compressibility (1/GPa) = 0.03443939
#
# Stress axis : x y z
#
# Youngs Moduli (GPa) = 64.68772 39.86796 81.98645
#
# Poissons Ratio (x) = -0.17069 0.53473
# Poissons Ratio (y) = -0.27696 0.56644
# Poissons Ratio (z) = 0.42190 0.27545
#
# Static dielectric constant tensor:
#      x y z
#    x 1.851940 0.005090 0.028350 
#    y 0.005090 1.837990 -0.002040 
#    z 0.028350 -0.002040 1.789350 
# 
# From -- ./inp_files/601288.got.cif
#   From: 2010.05.17/outbox.cif.g08.bks.cpg/sg2_301_cif.got.tgz:601288.got - 2010.06.03 11:33:40.
