data_PCOD9017943
_publ_section_title
;
Structure prediction by ZEFSAII (Michael W. Deem and Ramdas Pophale) SiO2 
 PCOD9017943
Probable space group: P -1
;
_chemical_formula_sum "Si O2"
_cell_formula_units_Z 15
_cell_length_a 6.780071
_cell_length_b 13.502271
_cell_length_c 8.510990
_cell_angle_alpha 63.520257
_cell_angle_beta 120.322876
_cell_angle_gamma 108.895325
_cell_volume 597.066278
_symmetry_space_group_name_H-M "P -1"
_symmetry_group_IT_number 2
_symmetry_cell_setting 'triclinic'
loop_
_space_group_symop_operation_xyz
x,y,z
-x,-y,-z
loop_
_atom_site_type_symbol
_atom_site_label
_atom_site_fract_x
_atom_site_fract_y
_atom_site_fract_z
Si Si1 0.425428 0.407676 0.179213
Si Si2 0.499595 0.215216 0.133366
Si Si3 0.301592 0.315559 0.521648
Si Si4 0.243994 0.010619 0.011494
Si Si5 0.719959 0.380239 0.880133
Si Si6 0.305904 0.065399 0.658336
Si Si7 0.500000 0.000000 0.500000
Si Si8 0.046570 0.511223 0.693871
O O1 0.375083 0.311920 0.095527
O O2 0.436847 0.343019 0.394337
O O3 0.277306 0.504680 0.104375
O O4 0.679555 0.467484 0.199311
O O5 0.353560 0.136947 0.003368
O O6 0.537938 0.126568 0.346541
O O7 0.710864 0.279985 0.071946
O O8 0.479537 0.357694 0.702477
O O9 0.233093 0.183695 0.585264
O O10 0.084140 0.383270 0.388754
O O11 0.410845 0.935105 0.225312
O O12 0.242743 0.989339 0.840204
O O13 0.000000 0.000000 0.000000
O O14 0.920182 0.405990 0.814660
O O15 0.268266 0.028747 0.490472
O O16 0.000000 0.500000 0.500000
#
# Coordination Sequence:
#
# PCOD9017943 Si02
#       8
#     2   2   2   2   2   2   1   2
#     4  11  22  41  65  99 139 175 217 275 335 410
#     4  11  23  43  67  94 136 176 215 287 344 385
#     4  11  20  39  67  95 134 175 215 275 332 398
#     4  10  23  44  70  99 125 173 236 285 340 411
#     4  11  22  40  65  99 137 177 220 274 335 404
#     4  10  21  43  67  95 132 171 224 283 346 394
#     4  10  22  44  70  88 126 182 224 276 348 390
#     4  11  21  38  66 101 135 175 228 261 329 416
#
# _framework density 25.12284
#
# number of rings (size 3 to 8) (size 9 to 14) (size 15 to 20)
#    0.000    1.333    5.333    1.200    0.000    1.600 
#    2.400   10.667    0.000    0.000    0.000    0.000 
#    0.000    0.000    0.000    0.000    0.000    0.000 
#
# Total GULP energy -83572.099547 kJ/mol
# GULP energy per Si atom -5571.473303 kJ/mol
# Density = 2.506566 g / cm^3
# Si number density = 25.122840 Si / 1000 Ang^3
#
#
#
# Elastic Constant Matrix: (Units=GPa)
#
#
# Indices 1 2 3 4 5 6 
#
# 1 129.4440 36.9756 20.9432 -9.8448 -5.3176 -6.5377
# 2 36.9756 100.2008 44.1578 -11.3241 -3.8283 -25.2225
# 3 20.9432 44.1578 96.8891 -23.3041 -21.5767 -0.7800
# 4 -9.8448 -11.3241 -23.3041 52.8297 -7.5500 1.2719
# 5 -5.3176 -3.8283 -21.5767 -7.5500 39.5618 4.7186
# 6 -6.5377 -25.2225 -0.7800 1.2719 4.7186 36.9415
#
#
#
# Elastic Compliance Matrix: (Units=1/GPa)
#
#
# Indices 1 2 3 4 5 6 
#
# 1 0.008754 -0.003389 0.000233 0.001220 0.001324 -0.000971
# 2 -0.003389 0.017800 -0.008918 -0.001812 -0.005388 0.012116
# 3 0.000233 -0.008918 0.018968 0.008395 0.012006 -0.007470
# 4 0.001220 -0.001812 0.008395 0.023893 0.009470 -0.002876
# 5 0.001324 -0.005388 0.012006 0.009470 0.034230 -0.007889
# 6 -0.000971 0.012116 -0.007470 -0.002876 -0.007889 0.036119
#
#
# Mechanical properties :
#
#
# Convention : Reuss Voigt Hill
#
# Bulk Modulus (GPa) = 46.78606 58.96525 52.87566
# Shear Modulus (GPa) = 29.23367 40.83040 35.03204
#
# Velocity S-wave (km/s) = 3.41490 4.03579 3.73826
# Velocity P-wave (km/s) = 5.84911 6.72596 6.30280
#
# Compressibility (1/GPa) = 0.02137389
#
# Stress axis : x y z
#
# Youngs Moduli (GPa) = 114.23537 56.18093 52.72113
#
# Poissons Ratio (x) = 0.19039 -0.01228
# Poissons Ratio (y) = 0.38712 0.47015
# Poissons Ratio (z) = -0.02660 0.50101
#
# Static dielectric constant tensor:
#      x y z
#    x 1.545500 2.109760 1.983090 
#    y 2.109760 -7.623970 -8.937330 
#    z 1.983090 -8.937330 -6.241110 
# 
# From -- ./inp_files/134841.got.cif
#   From: 2010.05.17/outbox.cif.g08.bks.cpg/sg2_68_cif.got.tgz:134841.got - 2010.06.03 11:33:40.
