data_PCOD9017274
_publ_section_title
;
Structure prediction by ZEFSAII (Michael W. Deem and Ramdas Pophale) SiO2 
 PCOD9017274
Probable space group: P -1
;
_chemical_formula_sum "Si O2"
_cell_formula_units_Z 12
_cell_length_a 16.010896
_cell_length_b 9.116316
_cell_length_c 9.185725
_cell_angle_alpha 48.004408
_cell_angle_beta 38.191014
_cell_angle_gamma 38.867316
_cell_volume 514.522530
_symmetry_space_group_name_H-M "P -1"
_symmetry_group_IT_number 2
_symmetry_cell_setting 'triclinic'
loop_
_space_group_symop_operation_xyz
x,y,z
-x,-y,-z
loop_
_atom_site_type_symbol
_atom_site_label
_atom_site_fract_x
_atom_site_fract_y
_atom_site_fract_z
Si Si1 0.425308 0.032577 0.239831
Si Si2 0.051098 0.016523 0.256676
Si Si3 0.691277 0.883190 0.226434
Si Si4 0.447408 0.377479 0.380746
Si Si5 0.725108 0.280627 0.344139
Si Si6 0.698113 0.457181 0.935185
O O1 0.571404 0.946784 0.211223
O O2 0.335905 0.895601 0.462746
O O3 0.301557 0.311628 0.242108
O O4 0.500000 0.000000 0.000000
O O5 0.101952 0.856266 0.724114
O O6 0.178309 0.754143 0.196707
O O7 0.000000 0.000000 0.500000
O O8 0.144762 0.149702 0.028037
O O9 0.695869 0.660259 0.438240
O O10 0.600619 0.110068 0.308172
O O11 0.391545 0.503123 0.531193
O O12 0.513115 0.525371 0.119635
O O13 0.731746 0.370999 0.114821
#
# Coordination Sequence:
#
# PCOD9017274 Si02
#       6
#     2   2   2   2   2   2
#     4  12  23  40  75 104 134 179 237 281 337 410
#     4  11  27  45  66 104 146 183 227 282 352 413
#     4  10  23  43  69 103 135 181 232 280 344 409
#     4  10  21  42  73 101 132 179 234 283 339 405
#     4  12  24  45  72 103 141 178 231 287 346 407
#     4  11  24  44  73 102 138 181 232 287 340 404
#
# _framework density 23.322596000000001
#
# number of rings (size 3 to 8) (size 9 to 14) (size 15 to 20)
#    0.000    1.000    3.333    3.000    2.333    2.667 
#    0.000    1.667    0.000    0.000    0.000    0.000 
#    0.000    0.000    0.000    0.000    0.000    0.000 
#
# Total GULP energy -67048.416081 kJ/mol
# GULP energy per Si atom -5587.368007 kJ/mol
# Density = 2.326951 g / cm^3
# Si number density = 23.322596 Si / 1000 Ang^3
#
#
#
# Elastic Constant Matrix: (Units=GPa)
#
#
# Indices 1 2 3 4 5 6 
#
# 1 170.4237 46.2458 92.7301 -6.1447 -4.7154 3.8555
# 2 46.2458 126.0655 64.7384 -11.2704 -9.8151 29.5687
# 3 92.7301 64.7384 147.3525 9.4975 -8.4092 5.8665
# 4 -6.1447 -11.2704 9.4975 48.6242 18.2164 1.9030
# 5 -4.7154 -9.8151 -8.4092 18.2164 60.6271 2.6329
# 6 3.8555 29.5687 5.8665 1.9030 2.6329 41.7520
#
#
#
# Elastic Compliance Matrix: (Units=1/GPa)
#
#
# Indices 1 2 3 4 5 6 
#
# 1 0.009221 -0.000175 -0.005951 0.002634 -0.000930 0.000047
# 2 -0.000175 0.013446 -0.005700 0.004392 0.000441 -0.008933
# 3 -0.005951 -0.005700 0.013396 -0.005557 0.002019 0.002830
# 4 0.002634 0.004392 -0.005557 0.025943 -0.007507 -0.003282
# 5 -0.000930 0.000441 0.002019 -0.007507 0.019089 -0.001372
# 6 0.000047 -0.008933 0.002830 -0.003282 -0.001372 0.030112
#
#
# Mechanical properties :
#
#
# Convention : Reuss Voigt Hill
#
# Bulk Modulus (GPa) = 80.56267 94.58559 87.57413
# Shear Modulus (GPa) = 35.97256 46.20917 41.09086
#
# Velocity S-wave (km/s) = 3.93159 4.45601 4.20199
# Velocity P-wave (km/s) = 7.43153 8.19257 7.82131
#
# Compressibility (1/GPa) = 0.01241270
#
# Stress axis : x y z
#
# Youngs Moduli (GPa) = 108.44424 74.37349 74.64745
#
# Poissons Ratio (x) = 0.01299 0.44423
# Poissons Ratio (y) = 0.01894 0.42546
# Poissons Ratio (z) = 0.64535 0.42390
#
# Static dielectric constant tensor:
#      x y z
#    x 1.968550 -0.036160 0.032300 
#    y -0.036160 1.912900 -0.060610 
#    z 0.032300 -0.060610 1.933910 
# 
# From -- ./inp_files/160915.got.cif
#   From: 2010.05.17/outbox.cif.g08.bks.cpg/sg2_81_cif.got.tgz:160915.got - 2010.06.03 11:33:40.
