data_PCOD9017924
_publ_section_title
;
Structure prediction by ZEFSAII (Michael W. Deem and Ramdas Pophale) SiO2 
 PCOD9017924
Probable space group: P -1
;
_chemical_formula_sum "Si O2"
_cell_formula_units_Z 14
_cell_length_a 11.492932
_cell_length_b 10.648261
_cell_length_c 14.751908
_cell_angle_alpha 45.849870
_cell_angle_beta 27.060938
_cell_angle_gamma 54.530729
_cell_volume 584.862117
_symmetry_space_group_name_H-M "P -1"
_symmetry_group_IT_number 2
_symmetry_cell_setting 'triclinic'
loop_
_space_group_symop_operation_xyz
x,y,z
-x,-y,-z
loop_
_atom_site_type_symbol
_atom_site_label
_atom_site_fract_x
_atom_site_fract_y
_atom_site_fract_z
Si Si1 0.914300 0.830322 0.527783
Si Si2 0.853773 0.132783 0.833544
Si Si3 0.858030 0.209664 0.410983
Si Si4 0.694555 0.699723 0.458766
Si Si5 0.835561 0.453059 0.013356
Si Si6 0.190212 0.546565 0.182793
Si Si7 0.696900 0.763459 0.217673
O O1 0.747139 0.639162 0.728373
O O2 0.138284 0.846872 0.289094
O O3 0.024437 0.817435 0.558513
O O4 0.794493 0.014455 0.511283
O O5 0.723357 0.286375 0.897374
O O6 0.154350 0.167399 0.640357
O O7 0.737152 0.945676 0.044359
O O8 0.603335 0.305839 0.550675
O O9 0.068338 0.339714 0.145109
O O10 0.405857 0.628635 0.719826
O O11 0.725684 0.787332 0.294370
O O12 0.877504 0.543628 0.409916
O O13 0.763095 0.431304 0.967580
O O14 0.084014 0.352023 0.906676
#
# Coordination Sequence:
#
# PCOD9017924 Si02
#       7
#     2   2   2   2   2   2   2
#     4  10  21  46  64  89 133 167 215 260 306 378
#     4  10  22  41  65  98 127 164 208 260 326 372
#     4  10  24  43  63  96 126 169 222 249 310 382
#     4   9  22  40  69  96 127 159 212 259 326 372
#     4  10  21  43  67  94 128 168 205 266 315 371
#     4   8  20  42  65  96 126 157 212 262 314 375
#     4  11  23  42  64  98 131 164 208 265 313 379
#
# _framework density 23.937268
#
# number of rings (size 3 to 8) (size 9 to 14) (size 15 to 20)
#    0.857    1.429    0.000    1.286    2.000    2.857 
#   15.429    3.571    0.000    0.000    0.000    0.000 
#    0.000    0.000    0.000    0.000    0.000    0.000 
#
# Total GULP energy -78217.343474 kJ/mol
# GULP energy per Si atom -5586.953105 kJ/mol
# Density = 2.388279 g / cm^3
# Si number density = 23.937268 Si / 1000 Ang^3
#
#
#
# Elastic Constant Matrix: (Units=GPa)
#
#
# Indices 1 2 3 4 5 6 
#
# 1 -39.4748 -1.2519 62.0791 5.4648 0.6046 57.7913
# 2 -1.2519 74.3047 -6.2442 -2.9475 15.6822 7.2190
# 3 62.0791 -6.2442 15.1720 -5.4635 27.3594 -55.1196
# 4 5.4648 -2.9475 -5.4635 35.9297 -11.4899 -11.3066
# 5 0.6046 15.6822 27.3594 -11.4899 43.7581 9.4820
# 6 57.7913 7.2190 -55.1196 -11.3066 9.4820 -30.6969
#
#
#
# Elastic Compliance Matrix: (Units=1/GPa)
#
#
# Indices 1 2 3 4 5 6 
#
# 1 0.023328 0.001434 0.009583 0.001608 -0.011377 0.022942
# 2 0.001434 0.015748 0.004140 -0.001791 -0.008100 -0.002872
# 3 0.009583 0.004140 0.014496 -0.004787 -0.010121 -0.008378
# 4 0.001608 -0.001791 -0.004787 0.031261 0.011143 0.003129
# 5 -0.011377 -0.008100 -0.010121 0.011143 0.034840 0.001507
# 6 0.022942 -0.002872 -0.008378 0.003129 0.001507 0.024296
#
#
# Mechanical properties :
#
#
# Convention : Reuss Voigt Hill
#
# Bulk Modulus (GPa) = 11.92099 17.68531 14.80315
# Shear Modulus (GPa) = 35.30650 9.49277 22.39963
#
# Velocity S-wave (km/s) = 3.84469 1.99356 3.06234
# Velocity P-wave (km/s) = 4.96988 3.56417 4.32452
#
# Compressibility (1/GPa) = 0.08388567
#
# Stress axis : x y z
#
# Youngs Moduli (GPa) = 42.86664 63.50169 68.98456
#
# Poissons Ratio (x) = -0.09108 -0.66107
# Poissons Ratio (y) = -0.06149 -0.28558
# Poissons Ratio (z) = -0.41078 -0.26288
#
# Static dielectric constant tensor:
#      x y z
#    x 1.896750 0.020390 -0.038340 
#    y 0.020390 1.940690 0.019780 
#    z -0.038340 0.019780 1.901850 
# 
# From -- ./inp_files/573368.got.cif
#   From: 2010.05.17/outbox.cif.g08.bks.cpg/sg2_287_cif.got.tgz:573368.got - 2010.06.03 11:33:40.
