data_PCOD9017369
_publ_section_title
;
Structure prediction by ZEFSAII (Michael W. Deem and Ramdas Pophale) SiO2 
 PCOD9017369
Probable space group: P -1
;
_chemical_formula_sum "Si O2"
_cell_formula_units_Z 14
_cell_length_a 11.685480
_cell_length_b 4.986326
_cell_length_c 11.100839
_cell_angle_alpha 100.460893
_cell_angle_beta 115.992865
_cell_angle_gamma 60.772984
_cell_volume 506.943083
_symmetry_space_group_name_H-M "P -1"
_symmetry_group_IT_number 2
_symmetry_cell_setting 'triclinic'
loop_
_space_group_symop_operation_xyz
x,y,z
-x,-y,-z
loop_
_atom_site_type_symbol
_atom_site_label
_atom_site_fract_x
_atom_site_fract_y
_atom_site_fract_z
Si Si1 0.191321 0.094017 0.607485
Si Si2 0.427467 0.216668 0.616903
Si Si3 0.276934 0.367017 0.333532
Si Si4 0.548344 0.235396 0.904592
Si Si5 0.309122 0.442857 0.080345
Si Si6 0.019995 0.566710 0.872987
Si Si7 0.052170 0.806419 0.683107
O O1 0.341221 0.036729 0.610717
O O2 0.128585 0.445518 0.654848
O O3 0.090858 0.068969 0.453649
O O4 0.157986 0.933698 0.693134
O O5 0.329966 0.448093 0.488051
O O6 0.446608 0.382172 0.755476
O O7 0.592937 0.989928 0.637184
O O8 0.293522 0.477762 0.219333
O O9 0.109538 0.452395 0.260977
O O10 0.695748 0.236957 0.934247
O O11 0.560298 0.903034 0.902411
O O12 0.500000 0.500000 0.000000
O O13 0.192219 0.396690 0.944604
O O14 0.011905 0.856188 0.810796
O O15 0.000000 0.500000 0.000000
#
# Coordination Sequence:
#
# PCOD9017369 Si02
#       7
#     2   2   2   2   2   2   2
#     4  10  22  41  69 100 141 180 233 295 354 418
#     4  10  21  42  76 103 145 185 240 303 362 422
#     4   9  20  44  73 107 139 187 244 297 360 425
#     4  11  25  46  70 102 144 190 237 287 361 431
#     4  10  24  45  70 104 139 189 237 292 353 423
#     4  10  21  44  75 101 148 185 242 293 357 429
#     4  10  22  42  66 104 138 182 233 286 356 424
#
# _framework density 27.616513000000001
#
# number of rings (size 3 to 8) (size 9 to 14) (size 15 to 20)
#    0.000    2.000    1.429    0.429    2.000    4.000 
#    0.000   23.571    0.000    0.857    0.000    0.000 
#    0.000    0.000    0.000    0.000    0.000    0.000 
#
# Total GULP energy -77935.050339 kJ/mol
# GULP energy per Si atom -5566.789310 kJ/mol
# Density = 2.755366 g / cm^3
# Si number density = 27.616513 Si / 1000 Ang^3
#
#
#
# Elastic Constant Matrix: (Units=GPa)
#
#
# Indices 1 2 3 4 5 6 
#
# 1 87.3452 39.0784 27.4134 -2.0031 -7.0257 12.3799
# 2 39.0784 126.6964 28.5566 -1.9419 4.7519 23.2154
# 3 27.4134 28.5566 194.1875 -3.8940 6.0355 -6.0426
# 4 -2.0031 -1.9419 -3.8940 30.3966 6.3893 8.6807
# 5 -7.0257 4.7519 6.0355 6.3893 51.6770 -15.4326
# 6 12.3799 23.2154 -6.0426 8.6807 -15.4326 36.6976
#
#
#
# Elastic Compliance Matrix: (Units=1/GPa)
#
#
# Indices 1 2 3 4 5 6 
#
# 1 0.014018 -0.003630 -0.001549 0.000756 0.001682 -0.002159
# 2 -0.003630 0.011109 -0.001180 0.003758 -0.004458 -0.008761
# 3 -0.001549 -0.001180 0.005611 -0.000054 -0.000105 0.002161
# 4 0.000756 0.003758 -0.000054 0.039954 -0.010050 -0.016319
# 5 0.001682 -0.004458 -0.000105 -0.010050 0.025871 0.015492
# 6 -0.002159 -0.008761 0.002161 -0.016319 0.015492 0.044252
#
#
# Mechanical properties :
#
#
# Convention : Reuss Voigt Hill
#
# Bulk Modulus (GPa) = 55.49727 66.48067 60.98897
# Shear Modulus (GPa) = 31.33997 44.63293 37.98645
#
# Velocity S-wave (km/s) = 3.37237 4.02452 3.71279
# Velocity P-wave (km/s) = 5.94165 6.76171 6.36490
#
# Compressibility (1/GPa) = 0.01801890
#
# Stress axis : x y z
#
# Youngs Moduli (GPa) = 71.33684 90.01923 178.21075
#
# Poissons Ratio (x) = 0.32681 0.27611
# Poissons Ratio (y) = 0.25899 0.21025
# Poissons Ratio (z) = 0.11052 0.10620
#
# Static dielectric constant tensor:
#      x y z
#    x 1.505030 0.259860 0.297410 
#    y 0.259860 2.060720 -0.108210 
#    z 0.297410 -0.108210 1.996540 
# 
# From -- ./inp_files/409513.got.cif
#   From: 2010.05.17/outbox.cif.g08.bks.cpg/sg2_205_cif.got.tgz:409513.got - 2010.06.03 11:33:40.
