data_PCOD9017941
_publ_section_title
;
Structure prediction by ZEFSAII (Michael W. Deem and Ramdas Pophale) SiO2 
 PCOD9017941
Probable space group: P -1
;
_chemical_formula_sum "Si O2"
_cell_formula_units_Z 16
_cell_length_a 18.899304
_cell_length_b 11.661867
_cell_length_c 8.324671
_cell_angle_alpha 121.732133
_cell_angle_beta 56.928665
_cell_angle_gamma 154.720365
_cell_volume 653.859789
_symmetry_space_group_name_H-M "P -1"
_symmetry_group_IT_number 2
_symmetry_cell_setting 'triclinic'
loop_
_space_group_symop_operation_xyz
x,y,z
-x,-y,-z
loop_
_atom_site_type_symbol
_atom_site_label
_atom_site_fract_x
_atom_site_fract_y
_atom_site_fract_z
Si Si1 0.399658 0.566101 0.477546
Si Si2 0.606626 0.975937 0.993041
Si Si3 0.774977 0.801021 0.866774
Si Si4 0.123276 0.768946 0.945777
Si Si5 0.591540 0.566853 0.241292
Si Si6 0.862799 0.481471 0.807122
Si Si7 0.396960 0.895516 0.387488
Si Si8 0.133983 0.227162 0.815643
O O1 0.330360 0.438753 0.294806
O O2 0.475289 0.528218 0.412647
O O3 0.548902 0.876659 0.534460
O O4 0.239715 0.402093 0.652134
O O5 0.511054 0.715439 0.845215
O O6 0.735971 0.217239 0.881584
O O7 0.699546 0.054195 0.099257
O O8 0.481029 0.917346 0.163939
O O9 0.650666 0.679583 0.069493
O O10 0.935640 0.938142 0.826342
O O11 0.856398 0.050467 0.876371
O O12 0.045403 0.684677 0.801945
O O13 0.000000 0.500000 0.000000
O O14 0.772095 0.778007 0.248714
O O15 0.800989 0.386375 0.628125
O O16 0.847289 0.615692 0.980533
O O17 0.500000 0.000000 0.500000
#
# Coordination Sequence:
#
# PCOD9017941 Si02
#       8
#     2   2   2   2   2   2   2   2
#     4  12  25  42  65 105 136 170 224 289 329 395
#     4  11  20  42  70  94 128 182 229 264 333 413
#     4  11  24  43  67  99 139 176 220 273 348 403
#     4   9  21  40  71  93 125 177 226 267 323 410
#     4  12  24  41  69 100 138 174 222 282 340 394
#     4  10  21  43  67  95 129 178 232 271 326 409
#     4  12  25  40  66  96 136 174 225 282 336 397
#     4  11  23  44  68  96 134 183 225 274 333 410
#
# _framework density 24.470079999999999
#
# number of rings (size 3 to 8) (size 9 to 14) (size 15 to 20)
#    0.000    1.000    3.750    3.375    1.750    0.000 
#    0.000    0.625    0.000    0.000    0.000    0.000 
#    0.000    0.000    0.000    0.000    0.000    0.000 
#
# Total GULP energy -89350.659205 kJ/mol
# GULP energy per Si atom -5584.416200 kJ/mol
# Density = 2.441439 g / cm^3
# Si number density = 24.470080 Si / 1000 Ang^3
#
#
#
# Elastic Constant Matrix: (Units=GPa)
#
#
# Indices 1 2 3 4 5 6 
#
# 1 124.5749 31.4184 37.0329 17.7736 3.9923 30.0444
# 2 31.4184 49.9093 22.6965 12.4628 -7.8698 13.5946
# 3 37.0329 22.6965 72.9199 25.4855 -10.8568 6.7884
# 4 17.7736 12.4628 25.4855 36.8533 3.9768 5.2273
# 5 3.9923 -7.8698 -10.8568 3.9768 48.9896 12.9186
# 6 30.0444 13.5946 6.7884 5.2273 12.9186 48.7153
#
#
#
# Elastic Compliance Matrix: (Units=1/GPa)
#
#
# Indices 1 2 3 4 5 6 
#
# 1 0.011633 -0.004102 -0.004149 -0.000508 -0.001142 -0.005094
# 2 -0.004102 0.027959 -0.003471 -0.004893 0.005997 -0.005854
# 3 -0.004149 -0.003471 0.022200 -0.012832 0.005660 0.000310
# 4 -0.000508 -0.004893 -0.012832 0.038496 -0.007030 0.001200
# 5 -0.001142 0.005997 0.005660 -0.007030 0.025330 -0.007721
# 6 -0.005094 -0.005854 0.000310 0.001200 -0.007721 0.027178
#
#
# Mechanical properties :
#
#
# Convention : Reuss Voigt Hill
#
# Bulk Modulus (GPa) = 26.07729 47.74442 36.91086
# Shear Modulus (GPa) = 26.45161 37.32873 31.89017
#
# Velocity S-wave (km/s) = 3.29139 3.90998 3.61395
# Velocity P-wave (km/s) = 5.01241 6.31962 5.70359
#
# Compressibility (1/GPa) = 0.03834754
#
# Stress axis : x y z
#
# Youngs Moduli (GPa) = 85.96250 35.76646 45.04489
#
# Poissons Ratio (x) = 0.14670 0.18691
# Poissons Ratio (y) = 0.35259 0.15636
# Poissons Ratio (z) = 0.35670 0.12415
#
# Static dielectric constant tensor:
#      x y z
#    x 2.054700 -0.017150 0.123010 
#    y -0.017150 1.919330 -0.008680 
#    z 0.123010 -0.008680 1.945380 
# 
# From -- ./inp_files/333735.got.cif
#   From: 2010.05.17/outbox.cif.g08.bks.cpg/sg2_167_cif.got.tgz:333735.got - 2010.06.03 11:33:40.
