data_PCOD9017913
_publ_section_title
;
Structure prediction by ZEFSAII (Michael W. Deem and Ramdas Pophale) SiO2 
 PCOD9017913
Probable space group: P -1
;
_chemical_formula_sum "Si O2"
_cell_formula_units_Z 14
_cell_length_a 5.714507
_cell_length_b 22.059375
_cell_length_c 9.121581
_cell_angle_alpha 144.552581
_cell_angle_beta 123.042183
_cell_angle_gamma 60.967441
_cell_volume 557.008448
_symmetry_space_group_name_H-M "P -1"
_symmetry_group_IT_number 2
_symmetry_cell_setting 'triclinic'
loop_
_space_group_symop_operation_xyz
x,y,z
-x,-y,-z
loop_
_atom_site_type_symbol
_atom_site_label
_atom_site_fract_x
_atom_site_fract_y
_atom_site_fract_z
Si Si1 0.859059 0.116854 0.195936
Si Si2 0.726685 0.855241 0.088267
Si Si3 0.602593 0.780937 0.340041
Si Si4 0.838383 0.058278 0.394459
Si Si5 0.833616 0.454583 0.635264
Si Si6 0.722030 0.653810 0.833351
Si Si7 0.627457 0.584404 0.108883
O O1 0.749887 0.110435 0.313088
O O2 0.110357 0.191006 0.431161
O O3 0.607192 0.140096 0.042269
O O4 0.000000 0.000000 0.000000
O O5 0.862456 0.910689 0.384106
O O6 0.825980 0.933047 0.148860
O O7 0.819156 0.731220 0.892959
O O8 0.391179 0.884277 0.460862
O O9 0.463458 0.691491 0.211194
O O10 0.687907 0.727110 0.109334
O O11 0.896616 0.543465 0.712278
O O12 0.585072 0.385180 0.374210
O O13 0.107799 0.388080 0.650972
O O14 0.727188 0.524195 0.876540
O O15 0.500000 0.500000 0.000000
#
# Coordination Sequence:
#
# PCOD9017913 Si02
#       7
#     2   2   2   2   2   2   2
#     4  12  25  46  69  95 135 182 222 272 330 398
#     4  11  24  42  70  96 134 177 214 276 334 389
#     4  11  24  43  68  95 137 178 219 276 333 399
#     4  11  26  45  63 105 136 169 229 277 323 403
#     4   9  21  43  64  94 131 168 223 275 322 397
#     4  10  21  43  67  92 132 179 217 270 337 389
#     4  10  22  40  67  96 127 171 221 274 332 387
#
# _framework density 25.134269
#
# number of rings (size 3 to 8) (size 9 to 14) (size 15 to 20)
#    0.000    1.429    2.857    1.286    2.000    5.714 
#    5.143    2.143    0.000    0.000    0.000    0.000 
#    0.000    0.000    0.000    0.000    0.000    0.000 
#
# Total GULP energy -78214.243026 kJ/mol
# GULP energy per Si atom -5586.731645 kJ/mol
# Density = 2.507706 g / cm^3
# Si number density = 25.134269 Si / 1000 Ang^3
#
#
#
# Elastic Constant Matrix: (Units=GPa)
#
#
# Indices 1 2 3 4 5 6 
#
# 1 30.9473 26.7189 25.1841 -3.5553 6.2054 6.5003
# 2 26.7189 139.6209 43.0475 28.7714 26.6373 8.4940
# 3 25.1841 43.0475 130.0542 -8.9233 35.5924 -5.9851
# 4 -3.5553 28.7714 -8.9233 48.8834 1.6806 28.9822
# 5 6.2054 26.6373 35.5924 1.6806 41.9266 -0.3088
# 6 6.5003 8.4940 -5.9851 28.9822 -0.3088 34.6633
#
#
#
# Elastic Compliance Matrix: (Units=1/GPa)
#
#
# Indices 1 2 3 4 5 6 
#
# 1 0.063351 -0.015605 -0.008025 0.035101 0.005658 -0.038739
# 2 -0.015605 0.014225 -0.000841 -0.017921 -0.005191 0.014233
# 3 -0.008025 -0.000841 0.012024 0.000390 -0.008476 0.003385
# 4 0.035101 -0.017921 0.000390 0.068974 0.002654 -0.059769
# 5 0.005658 -0.005191 -0.008476 0.002654 0.033377 -0.003174
# 6 -0.038739 0.014233 0.003385 -0.059769 -0.003174 0.083155
#
#
# Mechanical properties :
#
#
# Convention : Reuss Voigt Hill
#
# Bulk Modulus (GPa) = 24.59523 54.50260 39.54892
# Shear Modulus (GPa) = 14.81038 38.80614 26.80826
#
# Velocity S-wave (km/s) = 2.43008 3.93358 3.26943
# Velocity P-wave (km/s) = 4.20482 6.50864 5.47918
#
# Compressibility (1/GPa) = 0.04065829
#
# Stress axis : x y z
#
# Youngs Moduli (GPa) = 15.78498 70.29812 83.16974
#
# Poissons Ratio (x) = 1.09699 0.66748
# Poissons Ratio (y) = 0.24632 0.06991
# Poissons Ratio (z) = 0.12668 0.05909
#
# Static dielectric constant tensor:
#      x y z
#    x 2.058470 0.096240 -0.018660 
#    y 0.096240 2.039160 -0.050320 
#    z -0.018660 -0.050320 1.971710 
# 
# From -- ./inp_files/117363.got.cif
#   From: 2010.05.17/outbox.cif.g08.bks.cpg/sg2_59_cif.got.tgz:117363.got - 2010.06.03 11:33:40.
