data_PCOD9017997
_publ_section_title
;
Structure prediction by ZEFSAII (Michael W. Deem and Ramdas Pophale) SiO2 
 PCOD9017997
Probable space group: P -1
;
_chemical_formula_sum "Si O2"
_cell_formula_units_Z 16
_cell_length_a 11.853841
_cell_length_b 10.779154
_cell_length_c 13.348158
_cell_angle_alpha 119.781159
_cell_angle_beta 24.804460
_cell_angle_gamma 120.467232
_cell_volume 613.582575
_symmetry_space_group_name_H-M "P -1"
_symmetry_group_IT_number 2
_symmetry_cell_setting 'triclinic'
loop_
_space_group_symop_operation_xyz
x,y,z
-x,-y,-z
loop_
_atom_site_type_symbol
_atom_site_label
_atom_site_fract_x
_atom_site_fract_y
_atom_site_fract_z
Si Si1 0.798157 0.691470 0.523807
Si Si2 0.725150 0.073548 0.268452
Si Si3 0.340316 0.463277 0.762367
Si Si4 0.818774 0.684599 0.959790
Si Si5 0.110538 0.349959 0.334125
Si Si6 0.520973 0.039545 0.114345
Si Si7 0.385148 0.885421 0.343839
Si Si8 0.967472 0.276216 0.854411
O O1 0.651647 0.533496 0.542711
O O2 0.660482 0.834034 0.672070
O O3 0.040530 0.713112 0.255551
O O4 0.785001 0.677584 0.649326
O O5 0.872712 0.231811 0.242952
O O6 0.500000 0.000000 0.500000
O O7 0.522780 0.048183 0.326724
O O8 0.000000 0.000000 0.000000
O O9 0.253082 0.336414 0.701732
O O10 0.246719 0.410680 0.927461
O O11 0.205490 0.608418 0.911537
O O12 0.763865 0.622414 0.867188
O O13 0.596421 0.792732 0.183784
O O14 0.904117 0.198177 0.425118
O O15 0.000000 0.500000 0.500000
O O16 0.409012 0.896585 0.209916
O O17 0.829816 0.112964 0.922020
O O18 0.500000 0.000000 0.000000
#
# Coordination Sequence:
#
# PCOD9017997 Si02
#       8
#     2   2   2   2   2   2   2   2
#     4  11  24  42  65  95 126 171 218 275 333 398
#     4  10  21  43  67  97 136 177 226 283 344 408
#     4  10  22  42  67  94 127 167 216 271 336 399
#     4  11  23  41  66  96 132 172 216 274 338 407
#     4  12  25  40  64  95 131 169 216 270 340 408
#     4  11  24  42  64  91 129 172 221 271 334 403
#     4  11  24  42  63  94 129 172 220 276 337 404
#     4  10  22  43  66  92 126 164 218 272 331 402
#
# _framework density 26.076359
#
# number of rings (size 3 to 8) (size 9 to 14) (size 15 to 20)
#    0.000    1.250    1.250    4.125    0.000    7.000 
#    4.500    0.000    0.000    0.000    0.000    0.000 
#    0.000    0.000    0.000    0.000    0.000    0.000 
#
# Total GULP energy -89200.027895 kJ/mol
# GULP energy per Si atom -5575.001743 kJ/mol
# Density = 2.601701 g / cm^3
# Si number density = 26.076359 Si / 1000 Ang^3
#
#
#
# Elastic Constant Matrix: (Units=GPa)
#
#
# Indices 1 2 3 4 5 6 
#
# 1 94.8716 16.5705 10.0162 -6.8135 24.8686 7.5271
# 2 16.5705 95.1499 21.0344 -1.1491 -7.4832 5.3236
# 3 10.0162 21.0344 72.6904 -13.6510 27.4128 5.2163
# 4 -6.8135 -1.1491 -13.6510 49.6635 -6.7602 5.8979
# 5 24.8686 -7.4832 27.4128 -6.7602 40.5696 -2.3374
# 6 7.5271 5.3236 5.2163 5.8979 -2.3374 39.9446
#
#
#
# Elastic Compliance Matrix: (Units=1/GPa)
#
#
# Indices 1 2 3 4 5 6 
#
# 1 0.014617 -0.004367 0.004735 0.001909 -0.012867 -0.003825
# 2 -0.004367 0.013640 -0.007378 -0.001028 0.010048 0.000708
# 3 0.004735 -0.007378 0.024062 0.004961 -0.019981 -0.004953
# 4 0.001909 -0.001028 0.004961 0.022062 -0.001278 -0.004203
# 5 -0.012867 0.010048 -0.019981 -0.001278 0.048064 0.006696
# 6 -0.003825 0.000708 -0.004953 -0.004203 0.006696 0.027320
#
#
# Mechanical properties :
#
#
# Convention : Reuss Voigt Hill
#
# Bulk Modulus (GPa) = 26.11142 39.77270 32.94206
# Shear Modulus (GPa) = 28.32042 40.37492 34.34767
#
# Velocity S-wave (km/s) = 3.29911 3.93916 3.63326
# Velocity P-wave (km/s) = 4.95453 5.99790 5.50101
#
# Compressibility (1/GPa) = 0.03829742
#
# Stress axis : x y z
#
# Youngs Moduli (GPa) = 68.41376 73.31623 41.55990
#
# Poissons Ratio (x) = 0.32019 -0.19679
# Poissons Ratio (y) = 0.29878 0.30664
# Poissons Ratio (z) = -0.32395 0.54094
#
# Static dielectric constant tensor:
#      x y z
#    x 2.284950 0.120420 -0.009090 
#    y 0.120420 2.121010 0.081400 
#    z -0.009090 0.081400 2.288260 
# 
# From -- ./inp_files/69867.got.cif
#   From: 2010.05.17/outbox.cif.g08.bks.cpg/sg2_35_cif.got.tgz:69867.got - 2010.06.03 11:33:40.
