data_PCOD9017648
_publ_section_title
;
Structure prediction by ZEFSAII (Michael W. Deem and Ramdas Pophale) SiO2 
 PCOD9017648
Probable space group: P -1
;
_chemical_formula_sum "Si O2"
_cell_formula_units_Z 11
_cell_length_a 14.037439
_cell_length_b 5.057823
_cell_length_c 7.158026
_cell_angle_alpha 80.726076
_cell_angle_beta 107.247326
_cell_angle_gamma 118.715459
_cell_volume 425.562202
_symmetry_space_group_name_H-M "P -1"
_symmetry_group_IT_number 2
_symmetry_cell_setting 'triclinic'
loop_
_space_group_symop_operation_xyz
x,y,z
-x,-y,-z
loop_
_atom_site_type_symbol
_atom_site_label
_atom_site_fract_x
_atom_site_fract_y
_atom_site_fract_z
Si Si1 0.241799 0.674206 0.618167
Si Si2 0.000000 0.000000 0.000000
Si Si3 0.346579 0.139531 0.305070
Si Si4 0.844497 0.241053 0.058395
Si Si5 0.829594 0.690495 0.735512
Si Si6 0.463819 0.728575 0.861017
O O1 0.316437 0.969763 0.503913
O O2 0.331747 0.581934 0.769036
O O3 0.181721 0.739822 0.745641
O O4 0.168273 0.439892 0.446292
O O5 0.083297 0.964603 0.225333
O O6 0.921879 0.081490 0.099009
O O7 0.267285 0.935355 0.113088
O O8 0.296795 0.378375 0.276446
O O9 0.469808 0.211080 0.303730
O O10 0.886620 0.581301 0.952204
O O11 0.500000 0.500000 0.000000
O O12 0.500000 0.000000 0.000000
#
# Coordination Sequence:
#
# PCOD9017648 Si02
#       6
#     2   1   2   2   2   2
#     4  11  24  41  69  97 135 178 233 275 345 408
#     4  10  22  42  68  92 134 168 228 284 358 400
#     4  10  23  42  65  98 138 177 226 277 340 405
#     4  10  21  43  65  94 132 174 224 283 346 406
#     4  10  23  41  66  96 129 180 220 292 335 418
#     4  12  26  44  73 103 142 190 229 281 346 408
#
# _framework density 25.848161999999999
#
# number of rings (size 3 to 8) (size 9 to 14) (size 15 to 20)
#    0.000    1.455    1.818    2.182    5.091    4.364 
#    0.000    9.091    0.000    0.000    0.000    0.000 
#    0.000    0.000    0.000    0.000    0.000    0.000 
#
# Total GULP energy -61379.940071 kJ/mol
# GULP energy per Si atom -5579.994552 kJ/mol
# Density = 2.578933 g / cm^3
# Si number density = 25.848162 Si / 1000 Ang^3
#
#
#
# Elastic Constant Matrix: (Units=GPa)
#
#
# Indices 1 2 3 4 5 6 
#
# 1 162.5471 39.0193 48.5191 35.7028 -18.6677 -38.8896
# 2 39.0193 84.8187 48.1756 25.0250 -3.2290 -32.3297
# 3 48.5191 48.1756 146.3220 35.2224 -32.2207 -25.6246
# 4 35.7028 25.0250 35.2224 41.1888 -18.1270 -8.1634
# 5 -18.6677 -3.2290 -32.2207 -18.1270 41.1075 6.3682
# 6 -38.8896 -32.3297 -25.6246 -8.1634 6.3682 41.4162
#
#
#
# Elastic Compliance Matrix: (Units=1/GPa)
#
#
# Indices 1 2 3 4 5 6 
#
# 1 0.009474 0.001030 -0.000449 -0.006983 -0.000301 0.008092
# 2 0.001030 0.022570 -0.004191 -0.011829 -0.008581 0.014980
# 3 -0.000449 -0.004191 0.010761 -0.003241 0.006261 0.001363
# 4 -0.006983 -0.011829 -0.003241 0.044544 0.014750 -0.011283
# 5 -0.000301 -0.008581 0.006261 0.014750 0.035812 -0.005707
# 6 0.008092 0.014980 0.001363 -0.011283 -0.005707 0.042934
#
#
# Mechanical properties :
#
#
# Convention : Reuss Voigt Hill
#
# Bulk Modulus (GPa) = 28.10301 73.90175 51.00238
# Shear Modulus (GPa) = 27.00133 41.94074 34.47104
#
# Velocity S-wave (km/s) = 3.23555 4.03250 3.65581
# Velocity P-wave (km/s) = 4.98541 7.09466 6.13142
#
# Compressibility (1/GPa) = 0.03558338
#
# Stress axis : x y z
#
# Youngs Moduli (GPa) = 105.55153 44.30705 92.93229
#
# Poissons Ratio (x) = -0.04563 0.04172
# Poissons Ratio (y) = -0.10870 0.38951
# Poissons Ratio (z) = 0.04738 0.18571
#
# Static dielectric constant tensor:
#      x y z
#    x 2.184490 0.218690 -0.072340 
#    y 0.218690 2.648570 -0.169180 
#    z -0.072340 -0.169180 2.079080 
# 
# From -- ./inp_files/86216.got.cif
#   From: 2010.05.17/outbox.cif.g08.bks.cpg/sg2_44_cif.got.tgz:86216.got - 2010.06.03 11:33:40.
