data_PCOD9017093
_publ_section_title
;
Structure prediction by ZEFSAII (Michael W. Deem and Ramdas Pophale) SiO2 
 PCOD9017093
Probable space group: P -1
;
_chemical_formula_sum "Si O2"
_cell_formula_units_Z 16
_cell_length_a 16.429604
_cell_length_b 9.555640
_cell_length_c 11.176330
_cell_angle_alpha 48.014956
_cell_angle_beta 32.565923
_cell_angle_gamma 51.879098
_cell_volume 695.720455
_symmetry_space_group_name_H-M "P -1"
_symmetry_group_IT_number 2
_symmetry_cell_setting 'triclinic'
loop_
_space_group_symop_operation_xyz
x,y,z
-x,-y,-z
loop_
_atom_site_type_symbol
_atom_site_label
_atom_site_fract_x
_atom_site_fract_y
_atom_site_fract_z
Si Si1 0.573029 0.595729 0.966043
Si Si2 0.887303 0.285982 0.976464
Si Si3 0.173590 0.067180 0.888584
Si Si4 0.878066 0.480521 0.541088
Si Si5 0.662737 0.573549 0.250353
Si Si6 0.570714 0.011541 0.036675
Si Si7 0.675919 0.585115 0.497262
Si Si8 0.117587 0.920900 0.299877
O O1 0.480698 0.507706 0.237405
O O2 0.500000 0.500000 0.000000
O O3 0.750684 0.527053 0.773224
O O4 0.548850 0.823480 0.849647
O O5 0.775708 0.448736 0.090305
O O6 0.802979 0.130253 0.101021
O O7 0.012921 0.176367 0.974986
O O8 0.996508 0.380972 0.696398
O O9 0.314365 0.189198 0.628349
O O10 0.150214 0.039048 0.074629
O O11 0.790302 0.506814 0.505870
O O12 0.941431 0.261891 0.579583
O O13 0.500000 0.500000 0.500000
O O14 0.620343 0.796985 0.142678
O O15 0.730450 0.545351 0.316849
O O16 0.500000 0.000000 0.000000
O O17 0.723021 0.110084 0.807902
O O18 0.000000 0.000000 0.500000
#
# Coordination Sequence:
#
# PCOD9017093 Si02
#       8
#     2   2   2   2   2   2   2   2
#     4  10  21  44  71 101 138 188 240 288 355 426
#     4  10  25  49  71 107 144 188 238 302 361 429
#     4  10  24  45  75 105 143 186 243 295 365 423
#     4  10  23  43  73  99 141 190 236 294 357 420
#     4  12  27  43  68 108 144 190 238 296 366 430
#     4  12  26  46  68 105 147 187 241 299 365 427
#     4  10  21  42  71 102 136 186 233 293 352 425
#     4  12  25  42  71 110 143 192 243 294 364 438
#
# _framework density 22.997741000000001
#
# number of rings (size 3 to 8) (size 9 to 14) (size 15 to 20)
#    0.000    1.250    3.750    1.500    1.750    8.500 
#    0.000    3.750    0.000    0.000    0.000    0.000 
#    0.000    0.000    0.000    0.000    0.000    0.000 
#
# Total GULP energy -89301.407766 kJ/mol
# GULP energy per Si atom -5581.337985 kJ/mol
# Density = 2.294540 g / cm^3
# Si number density = 22.997741 Si / 1000 Ang^3
#
#
#
# Elastic Constant Matrix: (Units=GPa)
#
#
# Indices 1 2 3 4 5 6 
#
# 1 121.9771 23.6141 22.3667 6.5912 2.3989 4.2161
# 2 23.6141 172.3007 64.4429 -0.3366 7.7193 18.5559
# 3 22.3667 64.4429 103.2539 -5.4567 12.6226 11.5206
# 4 6.5912 -0.3366 -5.4567 40.8085 3.3396 -1.4637
# 5 2.3989 7.7193 12.6226 3.3396 30.5922 -4.2894
# 6 4.2161 18.5559 11.5206 -1.4637 -4.2894 31.3577
#
#
#
# Elastic Compliance Matrix: (Units=1/GPa)
#
#
# Indices 1 2 3 4 5 6 
#
# 1 0.008700 -0.000573 -0.001617 -0.001658 0.000272 -0.000277
# 2 -0.000573 0.007887 -0.004424 -0.000503 -0.000494 -0.003056
# 3 -0.001617 -0.004424 0.013869 0.002398 -0.005141 -0.002852
# 4 -0.001658 -0.000503 0.002398 0.025384 -0.003454 0.000352
# 5 0.000272 -0.000494 -0.005141 -0.003454 0.036263 0.006944
# 6 -0.000277 -0.003056 -0.002852 0.000352 0.006944 0.035750
#
#
# Mechanical properties :
#
#
# Convention : Reuss Voigt Hill
#
# Bulk Modulus (GPa) = 58.04207 68.70878 63.37543
# Shear Modulus (GPa) = 34.05460 39.69222 36.87341
#
# Velocity S-wave (km/s) = 3.85227 4.15892 4.00853
# Velocity P-wave (km/s) = 6.71413 7.28034 7.00296
#
# Compressibility (1/GPa) = 0.01722888
#
# Stress axis : x y z
#
# Youngs Moduli (GPa) = 114.94906 126.78928 72.10149
#
# Poissons Ratio (x) = 0.07268 0.11656
# Poissons Ratio (y) = 0.06589 0.31895
# Poissons Ratio (z) = 0.18584 0.56087
#
# Static dielectric constant tensor:
#      x y z
#    x 1.913250 -0.038480 0.013830 
#    y -0.038480 1.963090 -0.048630 
#    z 0.013830 -0.048630 1.859800 
# 
# From -- ./inp_files/261671.got.cif
#   From: 2010.05.17/outbox.cif.g08.bks.cpg/sg2_131_cif.got.tgz:261671.got - 2010.06.03 11:33:40.
