data_PCOD9017184
_publ_section_title
;
Structure prediction by ZEFSAII (Michael W. Deem and Ramdas Pophale) SiO2 
 PCOD9017184
Probable space group: P -1
;
_chemical_formula_sum "Si O2"
_cell_formula_units_Z 16
_cell_length_a 9.577423
_cell_length_b 12.148482
_cell_length_c 22.050942
_cell_angle_alpha 35.374455
_cell_angle_beta 28.234377
_cell_angle_gamma 44.228135
_cell_volume 702.650453
_symmetry_space_group_name_H-M "P -1"
_symmetry_group_IT_number 2
_symmetry_cell_setting 'triclinic'
loop_
_space_group_symop_operation_xyz
x,y,z
-x,-y,-z
loop_
_atom_site_type_symbol
_atom_site_label
_atom_site_fract_x
_atom_site_fract_y
_atom_site_fract_z
Si Si1 0.819844 0.197621 0.596059
Si Si2 0.739741 0.657387 0.032452
Si Si3 0.591223 0.237386 0.426207
Si Si4 0.875168 0.023416 0.312466
Si Si5 0.339085 0.337972 0.800383
Si Si6 0.777453 0.821741 0.725795
Si Si7 0.857416 0.210080 0.963727
Si Si8 0.180929 0.484034 0.256113
O O1 0.517207 0.212273 0.741544
O O2 0.027999 0.109622 0.608549
O O3 0.951526 0.391519 0.432418
O O4 0.782585 0.051374 0.619784
O O5 0.646480 0.702330 0.116555
O O6 0.465356 0.566959 0.143260
O O7 0.000000 0.500000 0.000000
O O8 0.856259 0.855432 0.870895
O O9 0.318469 0.096685 0.607509
O O10 0.518384 0.455967 0.356890
O O11 0.897388 0.221070 0.352805
O O12 0.670328 0.180099 0.352609
O O13 0.000897 0.317252 0.918547
O O14 0.735082 0.690202 0.742769
O O15 0.497253 0.783729 0.894471
O O16 0.942036 0.342771 0.814856
O O17 0.000000 0.000000 0.000000
#
# Coordination Sequence:
#
# PCOD9017184 Si02
#       8
#     2   2   2   2   2   2   2   2
#     4  11  26  46  71 110 150 191 243 303 369 431
#     4  12  26  44  76 111 141 192 248 297 366 439
#     4  10  21  42  72 100 142 191 237 302 359 421
#     4  10  23  45  68 104 150 186 247 302 356 437
#     4  12  25  48  72 106 152 193 241 301 373 432
#     4  11  23  46  74 105 145 191 242 303 355 432
#     4  12  26  50  72 109 152 193 241 306 367 433
#     4  12  26  47  78 108 145 197 248 296 367 438
#
# _framework density 22.770924999999998
#
# number of rings (size 3 to 8) (size 9 to 14) (size 15 to 20)
#    0.000    0.750    3.750    3.750    3.500    3.000 
#    4.500    0.000    0.000    0.000    0.000    0.000 
#    0.000    0.000    0.000    0.000    0.000    0.000 
#
# Total GULP energy -89371.603514 kJ/mol
# GULP energy per Si atom -5585.725220 kJ/mol
# Density = 2.271910 g / cm^3
# Si number density = 22.770925 Si / 1000 Ang^3
#
#
#
# Elastic Constant Matrix: (Units=GPa)
#
#
# Indices 1 2 3 4 5 6 
#
# 1 125.5389 27.9422 71.4077 -17.8863 -15.1791 15.2343
# 2 27.9422 54.5550 33.9046 -14.0149 15.8896 6.6895
# 3 71.4077 33.9046 160.1391 -21.4418 -4.1805 9.4999
# 4 -17.8863 -14.0149 -21.4418 30.7462 8.3682 -4.3615
# 5 -15.1791 15.8896 -4.1805 8.3682 41.4505 -8.8269
# 6 15.2343 6.6895 9.4999 -4.3615 -8.8269 25.5785
#
#
#
# Elastic Compliance Matrix: (Units=1/GPa)
#
#
# Indices 1 2 3 4 5 6 
#
# 1 0.012461 -0.005004 -0.004171 0.000199 0.005457 -0.002647
# 2 -0.005004 0.033148 -0.002856 0.014275 -0.019618 -0.008964
# 3 -0.004171 -0.002856 0.009041 0.002617 0.000020 0.000327
# 4 0.000199 0.014275 0.002617 0.044633 -0.014628 -0.002261
# 5 0.005457 -0.019618 0.000020 -0.014628 0.039359 0.012961
# 6 -0.002647 -0.008964 0.000327 -0.002261 0.012961 0.046982
#
#
# Mechanical properties :
#
#
# Convention : Reuss Voigt Hill
#
# Bulk Modulus (GPa) = 32.69207 67.41579 50.05393
# Shear Modulus (GPa) = 22.73941 33.35362 28.04652
#
# Velocity S-wave (km/s) = 3.16352 3.83135 3.51334
# Velocity P-wave (km/s) = 5.26611 7.01731 6.20381
#
# Compressibility (1/GPa) = 0.03058846
#
# Stress axis : x y z
#
# Youngs Moduli (GPa) = 80.24812 30.16743 110.61037
#
# Poissons Ratio (x) = 0.15096 0.46137
# Poissons Ratio (y) = 0.40157 0.31588
# Poissons Ratio (z) = 0.33472 0.08615
#
# Static dielectric constant tensor:
#      x y z
#    x 1.866320 -0.042910 -0.026450 
#    y -0.042910 1.894340 0.005530 
#    z -0.026450 0.005530 1.876580 
# 
# From -- ./inp_files/589427.got.cif
#   From: 2010.05.17/outbox.cif.g08.bks.cpg/sg2_295_cif.got.tgz:589427.got - 2010.06.03 11:33:40.
