data_PCOD9017742
_publ_section_title
;
Structure prediction by ZEFSAII (Michael W. Deem and Ramdas Pophale) SiO2 
 PCOD9017742
Probable space group: P -1
;
_chemical_formula_sum "Si O2"
_cell_formula_units_Z 14
_cell_length_a 8.655084
_cell_length_b 14.209051
_cell_length_c 9.316681
_cell_angle_alpha 97.658792
_cell_angle_beta 52.427423
_cell_angle_gamma 135.100008
_cell_volume 542.042166
_symmetry_space_group_name_H-M "P -1"
_symmetry_group_IT_number 2
_symmetry_cell_setting 'triclinic'
loop_
_space_group_symop_operation_xyz
x,y,z
-x,-y,-z
loop_
_atom_site_type_symbol
_atom_site_label
_atom_site_fract_x
_atom_site_fract_y
_atom_site_fract_z
Si Si1 0.383537 0.669683 0.298245
Si Si2 0.372634 0.588203 0.708335
Si Si3 0.452932 0.046384 0.208803
Si Si4 0.846135 0.145416 0.408621
Si Si5 0.167835 0.294022 0.784429
Si Si6 0.752585 0.281503 0.348729
Si Si7 0.364330 0.195340 0.122765
O O1 0.618412 0.672850 0.205503
O O2 0.458658 0.773882 0.403267
O O3 0.000000 0.500000 0.500000
O O4 0.443530 0.732564 0.119661
O O5 0.204850 0.422562 0.797739
O O6 0.664582 0.677270 0.450924
O O7 0.158225 0.582551 0.743166
O O8 0.486391 0.682500 0.808489
O O9 0.574384 0.160723 0.294942
O O10 0.305219 0.067703 0.192044
O O11 0.220626 0.881747 0.388130
O O12 0.782978 0.128705 0.979433
O O13 0.995287 0.298987 0.285394
O O14 0.046444 0.131071 0.255126
O O15 0.500000 0.000000 0.500000
#
# Coordination Sequence:
#
# PCOD9017742 Si02
#       7
#     2   2   2   2   2   2   2
#     4  11  25  38  59  96 132 162 206 257 314 380
#     4   9  22  40  64  92 125 166 209 257 309 380
#     4  10  22  41  68  90 124 169 213 255 306 372
#     4  10  21  43  66  90 127 166 211 258 313 370
#     4  10  22  42  63  90 131 165 208 251 324 368
#     4   9  21  40  61  89 123 166 206 251 313 365
#     4  11  24  39  64  95 126 162 216 260 311 364
#
# _framework density 25.828251000000002
#
# number of rings (size 3 to 8) (size 9 to 14) (size 15 to 20)
#    0.000    2.000    0.000    2.143   10.000    1.714 
#    0.000   15.714    0.000    0.000    0.000    0.000 
#    0.000    0.000    0.000    0.000    0.000    0.000 
#
# Total GULP energy -78284.362848 kJ/mol
# GULP energy per Si atom -5591.740203 kJ/mol
# Density = 2.576947 g / cm^3
# Si number density = 25.828251 Si / 1000 Ang^3
#
#
#
# Elastic Constant Matrix: (Units=GPa)
#
#
# Indices 1 2 3 4 5 6 
#
# 1 186.2635 51.5820 30.6675 -7.8688 5.2080 -43.3062
# 2 51.5820 97.1089 30.2742 28.5370 7.9817 -19.1067
# 3 30.6675 30.2742 108.4604 20.4827 6.6923 -8.3969
# 4 -7.8688 28.5370 20.4827 32.8624 5.1815 1.2072
# 5 5.2080 7.9817 6.6923 5.1815 49.9947 -1.7263
# 6 -43.3062 -19.1067 -8.3969 1.2072 -1.7263 37.9177
#
#
#
# Elastic Compliance Matrix: (Units=1/GPa)
#
#
# Indices 1 2 3 4 5 6 
#
# 1 0.009069 -0.004963 -0.002025 0.007546 -0.000417 0.007150
# 2 -0.004963 0.019141 -0.000207 -0.017764 -0.000516 0.004474
# 3 -0.002025 -0.000207 0.011275 -0.007265 -0.000503 0.000288
# 4 0.007546 -0.017764 -0.007265 0.052734 -0.002572 -0.003738
# 5 -0.000417 -0.000516 -0.000503 -0.002572 0.020467 0.000167
# 6 0.007150 0.004474 0.000288 -0.003738 0.000167 0.036983
#
#
# Mechanical properties :
#
#
# Convention : Reuss Voigt Hill
#
# Bulk Modulus (GPa) = 39.84519 68.54224 54.19371
# Shear Modulus (GPa) = 28.99819 42.77555 35.88687
#
# Velocity S-wave (km/s) = 3.35435 4.07400 3.73157
# Velocity P-wave (km/s) = 5.51930 6.98035 6.29238
#
# Compressibility (1/GPa) = 0.02509713
#
# Stress axis : x y z
#
# Youngs Moduli (GPa) = 110.26343 52.24373 88.68801
#
# Poissons Ratio (x) = 0.25927 0.17959
# Poissons Ratio (y) = 0.54720 0.01833
# Poissons Ratio (z) = 0.22328 0.01080
#
# Static dielectric constant tensor:
#      x y z
#    x 2.071870 -0.017710 0.014510 
#    y -0.017710 2.126880 -0.022980 
#    z 0.014510 -0.022980 2.077420 
# 
# From -- ./inp_files/201834.got.cif
#   From: 2010.05.17/outbox.cif.g08.bks.cpg/sg2_101_cif.got.tgz:201834.got - 2010.06.03 11:33:40.
