data_PCOD9017173
_publ_section_title
;
Structure prediction by ZEFSAII (Michael W. Deem and Ramdas Pophale) SiO2 
 PCOD9017173
Probable space group: P -1
;
_chemical_formula_sum "Si O2"
_cell_formula_units_Z 16
_cell_length_a 9.136390
_cell_length_b 13.237813
_cell_length_c 15.107202
_cell_angle_alpha 136.488856
_cell_angle_beta 37.068394
_cell_angle_gamma 113.815645
_cell_volume 687.656400
_symmetry_space_group_name_H-M "P -1"
_symmetry_group_IT_number 2
_symmetry_cell_setting 'triclinic'
loop_
_space_group_symop_operation_xyz
x,y,z
-x,-y,-z
loop_
_atom_site_type_symbol
_atom_site_label
_atom_site_fract_x
_atom_site_fract_y
_atom_site_fract_z
Si Si1 0.607301 0.036325 0.063861
Si Si2 0.381805 0.554003 0.493584
Si Si3 0.852955 0.196620 0.370271
Si Si4 0.063584 0.727687 0.311426
Si Si5 0.911320 0.652008 0.508922
Si Si6 0.068851 0.534420 0.892079
Si Si7 0.379634 0.905673 0.238798
Si Si8 0.538509 0.842183 0.326328
O O1 0.385889 0.218891 0.299878
O O2 0.588737 0.920948 0.078345
O O3 0.500000 0.000000 0.000000
O O4 0.921174 0.986642 0.866393
O O5 0.500000 0.500000 0.500000
O O6 0.276460 0.734116 0.618187
O O7 0.134289 0.508249 0.570331
O O8 0.644684 0.460961 0.248049
O O9 0.631433 0.218999 0.565247
O O10 0.010010 0.293013 0.402070
O O11 0.940769 0.616041 0.253476
O O12 0.296597 0.756954 0.166286
O O13 0.121755 0.652306 0.333530
O O14 0.858359 0.914603 0.543442
O O15 0.835270 0.703527 0.084321
O O16 0.000000 0.500000 0.000000
O O17 0.439975 0.890225 0.304283
O O18 0.500000 0.000000 0.500000
#
# Coordination Sequence:
#
# PCOD9017173 Si02
#       8
#     2   2   2   2   2   2   2   2
#     4   9  22  40  68 103 132 169 227 276 339 403
#     4  12  26  43  67  94 138 181 222 282 347 406
#     4  11  24  46  66 101 135 178 231 286 338 408
#     4  10  21  42  71  99 137 172 233 278 338 415
#     4  10  21  45  69  99 134 177 227 284 339 404
#     4  12  26  45  64  99 137 184 227 281 344 407
#     4  10  22  42  72 102 132 183 223 285 340 404
#     4  12  27  45  68  98 138 181 231 284 347 412
#
# _framework density 23.267434999999999
#
# number of rings (size 3 to 8) (size 9 to 14) (size 15 to 20)
#    0.000    1.250    3.750    1.125    5.250    2.500 
#    2.250    1.250    0.000    0.000    0.000    0.000 
#    0.000    0.000    0.000    0.000    0.000    0.000 
#
# Total GULP energy -89186.290891 kJ/mol
# GULP energy per Si atom -5574.143181 kJ/mol
# Density = 2.321448 g / cm^3
# Si number density = 23.267435 Si / 1000 Ang^3
#
#
#
# Elastic Constant Matrix: (Units=GPa)
#
#
# Indices 1 2 3 4 5 6 
#
# 1 69.7745 29.2365 -12.8651 6.6429 6.2046 -16.5164
# 2 29.2365 94.4155 7.6885 -3.7495 3.5754 -16.3366
# 3 -12.8651 7.6885 42.6905 -7.0464 -10.1161 0.9153
# 4 6.6429 -3.7495 -7.0464 23.1751 -3.1653 13.3679
# 5 6.2046 3.5754 -10.1161 -3.1653 35.1423 1.5458
# 6 -16.5164 -16.3366 0.9153 13.3679 1.5458 43.5920
#
#
#
# Elastic Compliance Matrix: (Units=1/GPa)
#
#
# Indices 1 2 3 4 5 6 
#
# 1 0.021140 -0.005606 0.004490 -0.011514 -0.003323 0.009463
# 2 -0.005606 0.013269 -0.004462 0.000521 -0.001723 0.002844
# 3 0.004490 -0.004462 0.029655 0.010713 0.009348 -0.004211
# 4 -0.011514 0.000521 0.010713 0.065878 0.012098 -0.025023
# 5 -0.003323 -0.001723 0.009348 0.012098 0.033306 -0.006992
# 6 0.009463 0.002844 -0.004211 -0.025023 -0.006992 0.035601
#
#
# Mechanical properties :
#
#
# Convention : Reuss Voigt Hill
#
# Bulk Modulus (GPa) = 18.90113 28.33336 23.61724
# Shear Modulus (GPa) = 21.96431 32.56992 27.26712
#
# Velocity S-wave (km/s) = 3.07578 3.74546 3.42702
# Velocity P-wave (km/s) = 4.55576 5.55952 5.08248
#
# Compressibility (1/GPa) = 0.05290690
#
# Stress axis : x y z
#
# Youngs Moduli (GPa) = 47.30269 75.36530 33.72139
#
# Poissons Ratio (x) = 0.42249 -0.15139
# Poissons Ratio (y) = 0.26517 0.15047
# Poissons Ratio (z) = -0.21237 0.33630
#
# Static dielectric constant tensor:
#      x y z
#    x 1.991250 0.057250 0.019200 
#    y 0.057250 1.960610 -0.066540 
#    z 0.019200 -0.066540 1.897390 
# 
# From -- ./inp_files/263339.got.cif
#   From: 2010.05.17/outbox.cif.g08.bks.cpg/sg2_132_cif.got.tgz:263339.got - 2010.06.03 11:33:40.
