data_PCOD9017178
_publ_section_title
;
Structure prediction by ZEFSAII (Michael W. Deem and Ramdas Pophale) SiO2 
 PCOD9017178
Probable space group: P -1
;
_chemical_formula_sum "Si O2"
_cell_formula_units_Z 16
_cell_length_a 26.567465
_cell_length_b 12.329119
_cell_length_c 6.647498
_cell_angle_alpha 133.802083
_cell_angle_beta 58.018598
_cell_angle_gamma 150.170461
_cell_volume 766.344067
_symmetry_space_group_name_H-M "P -1"
_symmetry_group_IT_number 2
_symmetry_cell_setting 'triclinic'
loop_
_space_group_symop_operation_xyz
x,y,z
-x,-y,-z
loop_
_atom_site_type_symbol
_atom_site_label
_atom_site_fract_x
_atom_site_fract_y
_atom_site_fract_z
Si Si1 0.740943 0.834725 0.910251
Si Si2 0.671803 0.439193 0.781652
Si Si3 0.289928 0.745999 0.825550
Si Si4 0.944204 0.225734 0.260482
Si Si5 0.816595 0.822628 0.341088
Si Si6 0.080445 0.259217 0.799196
Si Si7 0.598282 0.814520 0.172241
Si Si8 0.419429 0.941606 0.200417
O O1 0.653608 0.549735 0.835180
O O2 0.763769 0.809006 0.612134
O O3 0.698326 0.913816 0.108924
O O4 0.845222 0.031687 0.072149
O O5 0.725736 0.434369 0.511307
O O6 0.586245 0.164049 0.713766
O O7 0.737409 0.621505 0.072010
O O8 0.170723 0.542926 0.861406
O O9 0.367019 0.018280 0.888814
O O10 0.338515 0.798855 0.004442
O O11 0.000000 0.500000 0.500000
O O12 0.904910 0.102998 0.408081
O O13 0.016735 0.241894 0.049335
O O14 0.862574 0.758977 0.230559
O O15 0.000000 0.000000 0.500000
O O16 0.578594 0.888639 0.491541
O O17 0.500000 0.500000 0.000000
O O18 0.500000 0.000000 0.000000
#
# Coordination Sequence:
#
# PCOD9017178 Si02
#       8
#     2   2   2   2   2   2   2   2
#     4  11  24  45  66 100 143 181 232 286 351 414
#     4  10  21  42  72 100 133 179 228 290 340 413
#     4  11  25  46  72 105 144 180 237 290 344 421
#     4  11  27  40  66 102 141 183 232 287 347 420
#     4  11  22  43  69  97 140 187 226 286 346 409
#     4  12  22  44  71 105 136 186 236 284 347 410
#     4  11  30  46  71 104 143 186 231 290 353 422
#     4  11  26  46  74 103 133 183 232 293 353 411
#
# _framework density 20.878349
#
# number of rings (size 3 to 8) (size 9 to 14) (size 15 to 20)
#    0.000    1.000    3.750    1.125    8.750    4.000 
#    0.000    0.000    0.000    0.000    0.000    0.000 
#    0.000    0.000    0.000    0.000    0.000    0.000 
#
# Total GULP energy -89084.911011 kJ/mol
# GULP energy per Si atom -5567.806938 kJ/mol
# Density = 2.083083 g / cm^3
# Si number density = 20.878349 Si / 1000 Ang^3
#
#
#
# Elastic Constant Matrix: (Units=GPa)
#
#
# Indices 1 2 3 4 5 6 
#
# 1 93.9797 47.3287 61.1002 -11.8157 -19.0051 -1.9622
# 2 47.3287 100.1545 52.0132 -7.1998 -2.5386 -16.0435
# 3 61.1002 52.0132 150.7772 -15.5945 -13.8662 1.1928
# 4 -11.8157 -7.1998 -15.5945 26.9808 0.1515 -4.2355
# 5 -19.0051 -2.5386 -13.8662 0.1515 37.6592 -1.7552
# 6 -1.9622 -16.0435 1.1928 -4.2355 -1.7552 34.7976
#
#
#
# Elastic Compliance Matrix: (Units=1/GPa)
#
#
# Indices 1 2 3 4 5 6 
#
# 1 0.018468 -0.006178 -0.004285 0.003791 0.007272 -0.000832
# 2 -0.006178 0.015614 -0.003126 0.000754 -0.002897 0.006903
# 3 -0.004285 -0.003126 0.009848 0.002719 0.001166 -0.001631
# 4 0.003791 0.000754 0.002719 0.041367 0.003062 0.005658
# 5 0.007272 -0.002897 0.001166 0.003062 0.030489 0.000945
# 6 -0.000832 0.006903 -0.001631 0.005658 0.000945 0.032666
#
#
# Mechanical properties :
#
#
# Convention : Reuss Voigt Hill
#
# Bulk Modulus (GPa) = 59.69416 73.97730 66.83573
# Shear Modulus (GPa) = 27.59162 32.18545 29.88854
#
# Velocity S-wave (km/s) = 3.63925 3.93054 3.78770
# Velocity P-wave (km/s) = 6.80531 7.49055 7.15614
#
# Compressibility (1/GPa) = 0.01675206
#
# Stress axis : x y z
#
# Youngs Moduli (GPa) = 54.14905 64.04515 101.53891
#
# Poissons Ratio (x) = 0.39567 0.43510
# Poissons Ratio (y) = 0.33453 0.31739
# Poissons Ratio (z) = 0.23203 0.20019
#
# Static dielectric constant tensor:
#      x y z
#    x 1.711760 0.013830 0.038890 
#    y 0.013830 1.943670 -0.016320 
#    z 0.038890 -0.016320 1.782790 
# 
# From -- ./inp_files/48939.got.cif
#   From: 2010.05.17/outbox.cif.g08.bks.cpg/sg2_25_cif.got.tgz:48939.got - 2010.06.03 11:33:40.
