data_PCOD9017519
_publ_section_title
;
Structure prediction by ZEFSAII (Michael W. Deem and Ramdas Pophale) SiO2 
 PCOD9017519
Probable space group: P -1
;
_chemical_formula_sum "Si O2"
_cell_formula_units_Z 14
_cell_length_a 7.804450
_cell_length_b 18.287973
_cell_length_c 7.093051
_cell_angle_alpha 91.487798
_cell_angle_beta 98.177404
_cell_angle_gamma 36.054285
_cell_volume 582.848167
_symmetry_space_group_name_H-M "P -1"
_symmetry_group_IT_number 2
_symmetry_cell_setting 'triclinic'
loop_
_space_group_symop_operation_xyz
x,y,z
-x,-y,-z
loop_
_atom_site_type_symbol
_atom_site_label
_atom_site_fract_x
_atom_site_fract_y
_atom_site_fract_z
Si Si1 0.503524 0.692241 0.856931
Si Si2 0.070742 0.591338 0.070268
Si Si3 0.395002 0.985739 0.656892
Si Si4 0.588834 0.174467 0.494004
Si Si5 0.248524 0.640468 0.400619
Si Si6 0.953685 0.718432 0.718738
Si Si7 0.822624 0.200881 0.815701
O O1 0.241077 0.773739 0.972883
O O2 0.758384 0.658481 0.982891
O O3 0.685165 0.554115 0.851221
O O4 0.380988 0.774203 0.658192
O O5 0.049442 0.659747 0.231967
O O6 0.149849 0.608352 0.891761
O O7 0.153141 0.097220 0.774007
O O8 0.500000 0.000000 0.500000
O O9 0.271829 0.951915 0.546531
O O10 0.699252 0.852644 0.792351
O O11 0.237074 0.275795 0.429893
O O12 0.696954 0.169015 0.707009
O O13 0.500000 0.500000 0.500000
O O14 0.360223 0.670505 0.301296
O O15 0.099022 0.715999 0.577948
#
# Coordination Sequence:
#
# PCOD9017519 Si02
#       7
#     2   2   2   2   2   2   2
#     4  10  22  39  65  91 124 157 205 251 304 362
#     4  10  22  43  60  90 128 162 200 254 301 360
#     4  10  21  43  64  89 123 161 207 249 304 363
#     4   9  21  40  63  91 121 158 198 254 305 356
#     4  12  24  37  63  92 123 164 206 246 306 366
#     4   9  21  42  62  84 123 164 203 249 303 358
#     4  12  22  38  64  93 122 161 202 251 304 359
#
# _framework density 24.019977000000001
#
# number of rings (size 3 to 8) (size 9 to 14) (size 15 to 20)
#    0.857    0.857    1.429    3.000    0.000    4.000 
#    0.000    6.429    0.000    0.000    0.000    0.000 
#    0.000    0.000    0.000    0.000    0.000    0.000 
#
# Total GULP energy -78192.803858 kJ/mol
# GULP energy per Si atom -5585.200276 kJ/mol
# Density = 2.396531 g / cm^3
# Si number density = 24.019977 Si / 1000 Ang^3
#
#
#
# Elastic Constant Matrix: (Units=GPa)
#
#
# Indices 1 2 3 4 5 6 
#
# 1 85.2202 7.4419 22.5459 3.4335 -1.9588 11.5000
# 2 7.4419 83.9352 13.2741 7.1243 -0.3061 7.4666
# 3 22.5459 13.2741 78.5579 13.6455 -17.2705 1.0392
# 4 3.4335 7.1243 13.6455 27.9162 0.9367 -5.5016
# 5 -1.9588 -0.3061 -17.2705 0.9367 42.3567 -3.5470
# 6 11.5000 7.4666 1.0392 -5.5016 -3.5470 35.8668
#
#
#
# Elastic Compliance Matrix: (Units=1/GPa)
#
#
# Indices 1 2 3 4 5 6 
#
# 1 0.013372 -0.000134 -0.003972 -0.000481 -0.001356 -0.004352
# 2 -0.000134 0.012724 -0.001735 -0.002964 -0.000815 -0.003091
# 3 -0.003972 -0.001735 0.016978 -0.007466 0.006949 0.000685
# 4 -0.000481 -0.002964 -0.007466 0.041793 -0.003421 0.007060
# 5 -0.001356 -0.000815 0.006949 -0.003421 0.026660 0.002515
# 6 -0.004352 -0.003091 0.000685 0.007060 0.002515 0.031232
#
#
# Mechanical properties :
#
#
# Convention : Reuss Voigt Hill
#
# Bulk Modulus (GPa) = 31.85549 37.13746 34.49647
# Shear Modulus (GPa) = 30.32052 34.85805 32.58928
#
# Velocity S-wave (km/s) = 3.55675 3.81361 3.68741
# Velocity P-wave (km/s) = 5.49164 5.90645 5.70282
#
# Compressibility (1/GPa) = 0.03139177
#
# Stress axis : x y z
#
# Youngs Moduli (GPa) = 74.78058 78.59289 58.89981
#
# Poissons Ratio (x) = 0.01056 0.23396
# Poissons Ratio (y) = 0.01005 0.10218
# Poissons Ratio (z) = 0.29704 0.13634
#
# Static dielectric constant tensor:
#      x y z
#    x 1.998100 -0.046340 0.018220 
#    y -0.046340 1.974340 0.017830 
#    z 0.018220 0.017830 1.860660 
# 
# From -- ./inp_files/47832.got.cif
#   From: 2010.05.17/outbox.cif.g08.bks.cpg/sg2_24_cif.got.tgz:47832.got - 2010.06.03 11:33:40.
