data_PCOD9017482
_publ_section_title
;
Structure prediction by ZEFSAII (Michael W. Deem and Ramdas Pophale) SiO2 
 PCOD9017482
Probable space group: P -1
;
_chemical_formula_sum "Si O2"
_cell_formula_units_Z 15
_cell_length_a 26.732730
_cell_length_b 9.416178
_cell_length_c 13.478320
_cell_angle_alpha 151.688026
_cell_angle_beta 157.194243
_cell_angle_gamma 36.658842
_cell_volume 622.890919
_symmetry_space_group_name_H-M "P -1"
_symmetry_group_IT_number 2
_symmetry_cell_setting 'triclinic'
loop_
_space_group_symop_operation_xyz
x,y,z
-x,-y,-z
loop_
_atom_site_type_symbol
_atom_site_label
_atom_site_fract_x
_atom_site_fract_y
_atom_site_fract_z
Si Si1 0.289491 0.890835 0.094031
Si Si2 0.500000 0.500000 0.500000
Si Si3 0.738506 0.414821 0.949795
Si Si4 0.527895 0.327757 0.845131
Si Si5 0.432473 0.677977 0.696880
Si Si6 0.775542 0.070343 0.413712
Si Si7 0.859817 0.596521 0.770858
Si Si8 0.042820 0.977935 0.950873
O O1 0.420562 0.057514 0.475972
O O2 0.185558 0.140837 0.076939
O O3 0.251432 0.627109 0.939760
O O4 0.331028 0.784207 0.996164
O O5 0.614064 0.246611 0.571071
O O6 0.457689 0.478353 0.526466
O O7 0.868791 0.305139 0.074225
O O8 0.694883 0.754225 0.054952
O O9 0.492964 0.539624 0.819861
O O10 0.500000 0.500000 0.000000
O O11 0.285216 0.741295 0.493461
O O12 0.500000 0.000000 0.000000
O O13 0.777620 0.291514 0.460008
O O14 0.914072 0.965556 0.639471
O O15 0.871830 0.746676 0.776147
O O16 0.000000 0.500000 0.000000
O O17 0.000000 0.000000 0.000000
#
# Coordination Sequence:
#
# PCOD9017482 Si02
#       8
#     2   1   2   2   2   2   2   2
#     4  10  21  43  63  95 132 176 226 270 345 402
#     4  12  24  40  64  96 142 178 228 274 344 398
#     4  11  23  41  67  95 136 182 226 283 341 412
#     4  11  24  40  65  95 134 179 229 281 338 406
#     4  12  24  41  63  99 134 178 227 279 340 405
#     4  11  21  43  67  97 133 177 234 280 339 408
#     4   9  20  40  70  89 129 174 217 284 337 397
#     4  10  22  43  68  97 130 179 229 282 348 406
#
# _framework density 24.081264000000001
#
# number of rings (size 3 to 8) (size 9 to 14) (size 15 to 20)
#    0.000    1.333    4.000    1.200    1.867    0.000 
#    4.800    0.667    0.000    0.000    0.000    0.000 
#    0.000    0.000    0.000    0.000    0.000    0.000 
#
# Total GULP energy -83535.152801 kJ/mol
# GULP energy per Si atom -5569.010187 kJ/mol
# Density = 2.402645 g / cm^3
# Si number density = 24.081264 Si / 1000 Ang^3
#
#
#
# Elastic Constant Matrix: (Units=GPa)
#
#
# Indices 1 2 3 4 5 6 
#
# 1 227.2467 83.6465 36.8003 14.1927 -23.0192 -20.5380
# 2 83.6465 150.2261 12.2735 1.5103 -5.1244 -21.3550
# 3 36.8003 12.2735 30.1102 14.0573 -12.5305 1.5274
# 4 14.1927 1.5103 14.0573 40.6217 7.6902 19.7324
# 5 -23.0192 -5.1244 -12.5305 7.6902 37.0772 3.4008
# 6 -20.5380 -21.3550 1.5274 19.7324 3.4008 66.8964
#
#
#
# Elastic Compliance Matrix: (Units=1/GPa)
#
#
# Indices 1 2 3 4 5 6 
#
# 1 0.006902 -0.003062 -0.005688 -0.001509 0.002105 0.001609
# 2 -0.003062 0.008614 -0.000394 0.000206 -0.001053 0.001811
# 3 -0.005688 -0.000394 0.060657 -0.024493 0.021731 0.002863
# 4 -0.001509 0.000206 -0.024493 0.042396 -0.016926 -0.011484
# 5 0.002105 -0.001053 0.021731 -0.016926 0.038727 0.002838
# 6 0.001609 0.001811 0.002863 -0.011484 0.002838 0.019198
#
#
# Mechanical properties :
#
#
# Convention : Reuss Voigt Hill
#
# Bulk Modulus (GPa) = 17.27614 74.78038 46.02826
# Shear Modulus (GPa) = 23.35610 47.24325 35.29967
#
# Velocity S-wave (km/s) = 3.11768 4.43406 3.83280
# Velocity P-wave (km/s) = 4.48883 7.57200 6.22434
#
# Compressibility (1/GPa) = 0.05788330
#
# Stress axis : x y z
#
# Youngs Moduli (GPa) = 144.88922 116.09623 16.48613
#
# Poissons Ratio (x) = 0.35554 0.09377
# Poissons Ratio (y) = 0.44372 0.00650
# Poissons Ratio (z) = 0.82412 0.04575
#
# Static dielectric constant tensor:
#      x y z
#    x 1.976470 -0.000470 0.081190 
#    y -0.000470 1.961430 0.064960 
#    z 0.081190 0.064960 1.789530 
# 
# From -- ./inp_files/474453.got.cif
#   From: 2010.05.17/outbox.cif.g08.bks.cpg/sg2_238_cif.got.tgz:474453.got - 2010.06.03 11:33:40.
