data_PCOD9017432
_publ_section_title
;
Structure prediction by ZEFSAII (Michael W. Deem and Ramdas Pophale) SiO2 
 PCOD9017432
Probable space group: P -1
;
_chemical_formula_sum "Si O2"
_cell_formula_units_Z 16
_cell_length_a 19.456565
_cell_length_b 11.959858
_cell_length_c 15.817359
_cell_angle_alpha 155.988879
_cell_angle_beta 157.797571
_cell_angle_gamma 30.776720
_cell_volume 563.792964
_symmetry_space_group_name_H-M "P -1"
_symmetry_group_IT_number 2
_symmetry_cell_setting 'triclinic'
loop_
_space_group_symop_operation_xyz
x,y,z
-x,-y,-z
loop_
_atom_site_type_symbol
_atom_site_label
_atom_site_fract_x
_atom_site_fract_y
_atom_site_fract_z
Si Si1 0.296708 0.369280 0.050804
Si Si2 0.781682 0.427119 0.142310
Si Si3 0.232263 0.849130 0.900824
Si Si4 0.450503 0.038206 0.747210
Si Si5 0.051692 0.162307 0.756398
Si Si6 0.315180 0.773642 0.566144
Si Si7 0.995522 0.715969 0.850685
Si Si8 0.385526 0.461972 0.681976
O O1 0.287806 0.088994 0.790347
O O2 0.162973 0.622293 0.038576
O O3 0.223424 0.305282 0.016330
O O4 0.510431 0.394546 0.311891
O O5 0.590778 0.318355 0.811612
O O6 0.841375 0.207170 0.130132
O O7 0.708299 0.730320 0.299567
O O8 0.937109 0.473919 0.284404
O O9 0.330231 0.549910 0.776332
O O10 0.409990 0.024873 0.214415
O O11 0.098083 0.977590 0.764356
O O12 0.364307 0.821067 0.557441
O O13 0.574056 0.223218 0.080065
O O14 0.869348 0.349763 0.701977
O O15 0.000000 0.000000 0.500000
O O16 0.804881 0.658906 0.639937
O O17 0.000000 0.000000 0.000000
#
# Coordination Sequence:
#
# PCOD9017432 Si02
#       8
#     2   2   2   2   2   2   2   2
#     4  10  19  33  47  75 110 135 181 224 269 323
#     4   9  20  36  52  78 118 143 182 224 276 333
#     4   9  17  33  54  85 116 142 169 225 287 340
#     4   8  16  31  51  81 112 143 169 217 290 332
#     4  10  19  28  50  81 114 142 170 211 278 339
#     4  10  17  30  52  78 108 145 165 220 280 332
#     4  12  24  37  56  78 108 154 195 228 262 319
#     4   8  18  34  51  80 109 144 176 223 279 322
#
# _framework density 28.379211999999999
#
# number of rings (size 3 to 8) (size 9 to 14) (size 15 to 20)
#    1.500    0.750    2.500    3.000    0.000    2.000 
#    2.250    0.000    0.000    0.750    0.000    1.750 
#    0.000    0.000    0.000    0.000    0.000    0.000 
#
# Total GULP energy -89196.780651 kJ/mol
# GULP energy per Si atom -5574.798791 kJ/mol
# Density = 2.831462 g / cm^3
# Si number density = 28.379212 Si / 1000 Ang^3
#
#
#
# Elastic Constant Matrix: (Units=GPa)
#
#
# Indices 1 2 3 4 5 6 
#
# 1 102.7375 27.4880 36.9347 -5.7563 32.0382 21.2261
# 2 27.4880 167.0782 69.4003 -16.5658 3.2240 26.4681
# 3 36.9347 69.4003 158.5644 -22.7876 38.4018 -2.0893
# 4 -5.7563 -16.5658 -22.7876 48.2017 -12.3968 5.4127
# 5 32.0382 3.2240 38.4018 -12.3968 46.5093 3.7014
# 6 21.2261 26.4681 -2.0893 5.4127 3.7014 47.6054
#
#
#
# Elastic Compliance Matrix: (Units=1/GPa)
#
#
# Indices 1 2 3 4 5 6 
#
# 1 0.014013 -0.001074 -0.000870 -0.000786 -0.008678 -0.004925
# 2 -0.001074 0.009155 -0.004680 0.002749 0.005142 -0.005529
# 3 -0.000870 -0.004680 0.010661 0.000829 -0.007974 0.003984
# 4 -0.000786 0.002749 0.000829 0.024141 0.006450 -0.004388
# 5 -0.008678 0.005142 -0.007974 0.006450 0.035652 -0.002845
# 6 -0.004925 -0.005529 0.003984 -0.004388 -0.002845 0.027171
#
#
# Mechanical properties :
#
#
# Convention : Reuss Voigt Hill
#
# Bulk Modulus (GPa) = 48.59036 77.33623 62.96329
# Shear Modulus (GPa) = 35.48569 48.10041 41.79305
#
# Velocity S-wave (km/s) = 3.53995 4.12140 3.84169
# Velocity P-wave (km/s) = 5.81956 7.06811 6.47400
#
# Compressibility (1/GPa) = 0.02058022
#
# Stress axis : x y z
#
# Youngs Moduli (GPa) = 71.35995 109.22847 93.80418
#
# Poissons Ratio (x) = 0.11735 0.08163
# Poissons Ratio (y) = 0.07666 0.43900
# Poissons Ratio (z) = 0.06210 0.51118
#
# Static dielectric constant tensor:
#      x y z
#    x 2.325850 -0.120720 -0.162040 
#    y -0.120720 2.226330 0.049790 
#    z -0.162040 0.049790 2.509380 
# 
# From -- ./inp_files/602088.got.cif
#   From: 2010.05.17/outbox.cif.g08.bks.cpg/sg2_302_cif.got.tgz:602088.got - 2010.06.03 11:33:40.
