data_PCOD9017802
_publ_section_title
;
Structure prediction by ZEFSAII (Michael W. Deem and Ramdas Pophale) SiO2 
 PCOD9017802
Probable space group: P -1
;
_chemical_formula_sum "Si O2"
_cell_formula_units_Z 16
_cell_length_a 13.838467
_cell_length_b 8.781606
_cell_length_c 8.115415
_cell_angle_alpha 129.699930
_cell_angle_beta 70.105737
_cell_angle_gamma 84.553591
_cell_volume 643.624583
_symmetry_space_group_name_H-M "P -1"
_symmetry_group_IT_number 2
_symmetry_cell_setting 'triclinic'
loop_
_space_group_symop_operation_xyz
x,y,z
-x,-y,-z
loop_
_atom_site_type_symbol
_atom_site_label
_atom_site_fract_x
_atom_site_fract_y
_atom_site_fract_z
Si Si1 0.575307 0.738434 0.267884
Si Si2 0.494980 0.414918 0.264302
Si Si3 0.283518 0.377008 0.237907
Si Si4 0.279222 0.932252 0.977398
Si Si5 0.789433 0.431506 0.108277
Si Si6 0.966938 0.525999 0.231179
Si Si7 0.898044 0.955714 0.113799
Si Si8 0.911189 0.245121 0.560995
O O1 0.511707 0.580735 0.236719
O O2 0.674804 0.645204 0.281261
O O3 0.500000 0.000000 0.500000
O O4 0.640991 0.690162 0.022530
O O5 0.500000 0.500000 0.500000
O O6 0.373294 0.415438 0.323929
O O7 0.600260 0.177412 0.063277
O O8 0.168636 0.590142 0.416048
O O9 0.254976 0.182260 0.176030
O O10 0.225000 0.781975 0.979914
O O11 0.228359 0.935807 0.819036
O O12 0.851920 0.498855 0.261770
O O13 0.852869 0.346006 0.837527
O O14 0.971849 0.730944 0.464662
O O15 0.000000 0.500000 0.000000
O O16 0.060750 0.304334 0.102996
O O17 0.909542 0.021984 0.343426
O O18 0.000000 0.000000 0.000000
#
# Coordination Sequence:
#
# PCOD9017802 Si02
#       8
#     2   2   2   2   2   2   2   2
#     4  10  22  41  68  95 128 172 216 266 328 384
#     4  11  23  41  64  95 132 166 217 274 323 385
#     4  11  22  43  66  94 129 172 222 263 325 395
#     4  11  22  41  64  94 132 168 215 273 323 384
#     4   9  21  42  66  94 134 166 221 272 319 395
#     4  10  21  43  66  95 131 168 222 269 321 391
#     4  12  24  43  66  95 136 170 216 273 324 390
#     4  10  23  42  68  94 129 179 216 268 332 384
#
# _framework density 24.859211999999999
#
# number of rings (size 3 to 8) (size 9 to 14) (size 15 to 20)
#    0.000    1.500    2.500    2.250    0.000    2.500 
#    0.000    2.500    0.000    0.000    0.000    0.000 
#    0.000    0.000    0.000    0.000    0.000    0.000 
#
# Total GULP energy -89182.591760 kJ/mol
# GULP energy per Si atom -5573.911985 kJ/mol
# Density = 2.480263 g / cm^3
# Si number density = 24.859212 Si / 1000 Ang^3
#
#
#
# Elastic Constant Matrix: (Units=GPa)
#
#
# Indices 1 2 3 4 5 6 
#
# 1 167.6691 34.8250 33.5768 10.0428 29.4201 -18.0449
# 2 34.8250 106.5669 24.9781 14.5548 -4.3420 -18.3216
# 3 33.5768 24.9781 72.7015 5.2367 15.2709 -9.7989
# 4 10.0428 14.5548 5.2367 36.2630 -0.4706 -2.7240
# 5 29.4201 -4.3420 15.2709 -0.4706 35.6415 -8.6520
# 6 -18.0449 -18.3216 -9.7989 -2.7240 -8.6520 22.9272
#
#
#
# Elastic Compliance Matrix: (Units=1/GPa)
#
#
# Indices 1 2 3 4 5 6 
#
# 1 0.007944 -0.002055 -0.001439 -0.001117 -0.005799 0.001674
# 2 -0.002055 0.013345 -0.003575 -0.003440 0.007193 0.009825
# 3 -0.001439 -0.003575 0.017154 -0.000663 -0.006401 0.000848
# 4 -0.001117 -0.003440 -0.000663 0.029379 0.001181 0.000025
# 5 -0.005799 0.007193 -0.006401 0.001181 0.039780 0.013600
# 6 0.001674 0.009825 0.000848 0.000025 0.013600 0.058284
#
#
# Mechanical properties :
#
#
# Convention : Reuss Voigt Hill
#
# Bulk Modulus (GPa) = 41.14116 59.29972 50.22044
# Shear Modulus (GPa) = 26.57817 35.87018 31.22417
#
# Velocity S-wave (km/s) = 3.27333 3.80272 3.54791
# Velocity P-wave (km/s) = 5.55624 6.57167 6.08518
#
# Compressibility (1/GPa) = 0.02430656
#
# Stress axis : x y z
#
# Youngs Moduli (GPa) = 125.88750 74.93300 58.29505
#
# Poissons Ratio (x) = 0.15396 0.08386
# Poissons Ratio (y) = 0.25865 0.20841
# Poissons Ratio (z) = 0.18110 0.26789
#
# Static dielectric constant tensor:
#      x y z
#    x 2.034280 0.083190 -0.024120 
#    y 0.083190 1.993060 -0.091860 
#    z -0.024120 -0.091860 1.938130 
# 
# From -- ./inp_files/299688.got.cif
#   From: 2010.05.17/outbox.cif.g08.bks.cpg/sg2_150_cif.got.tgz:299688.got - 2010.06.03 11:33:40.
