data_PCOD9017099
_publ_section_title
;
Structure prediction by ZEFSAII (Michael W. Deem and Ramdas Pophale) SiO2 
 PCOD9017099
Probable space group: P -1
;
_chemical_formula_sum "Si O2"
_cell_formula_units_Z 12
_cell_length_a 14.917865
_cell_length_b 5.067515
_cell_length_c 7.541300
_cell_angle_alpha 101.395500
_cell_angle_beta 48.465099
_cell_angle_gamma 105.018974
_cell_volume 411.907248
_symmetry_space_group_name_H-M "P -1"
_symmetry_group_IT_number 2
_symmetry_cell_setting 'triclinic'
loop_
_space_group_symop_operation_xyz
x,y,z
-x,-y,-z
loop_
_atom_site_type_symbol
_atom_site_label
_atom_site_fract_x
_atom_site_fract_y
_atom_site_fract_z
Si Si1 0.395839 0.220334 0.037902
Si Si2 0.634327 0.647720 0.284400
Si Si3 0.908243 0.772435 0.982148
Si Si4 0.646298 0.068156 0.597707
Si Si5 0.112774 0.533131 0.546157
Si Si6 0.842238 0.032578 0.740286
O O1 0.361682 0.398176 0.940058
O O2 0.536182 0.215147 0.822148
O O3 0.371500 0.192842 0.277300
O O4 0.300251 0.951873 0.068646
O O5 0.500000 0.500000 0.500000
O O6 0.632140 0.955576 0.402983
O O7 0.768591 0.625433 0.187061
O O8 0.885530 0.941459 0.857941
O O9 0.992034 0.544977 0.815352
O O10 0.000000 0.000000 0.000000
O O11 0.772708 0.268421 0.488561
O O12 0.141757 0.233148 0.435832
O O13 0.099010 0.701064 0.405658
#
# Coordination Sequence:
#
# PCOD9017099 Si02
#       6
#     2   2   2   2   2   2
#     4   9  22  40  67 101 141 195 237 302 369 438
#     4  11  24  42  70 107 147 193 251 313 371 448
#     4  11  23  46  73 105 152 193 249 303 384 443
#     4  10  21  42  71 102 149 190 254 302 375 446
#     4  11  23  46  74 109 145 196 249 310 371 450
#     4  10  24  44  75 107 148 193 252 306 374 447
#
# _framework density 29.132770000000001
#
# number of rings (size 3 to 8) (size 9 to 14) (size 15 to 20)
#    0.000    1.667    1.667    1.500    0.000   12.000 
#    0.000    6.667    0.000    0.000    0.000    0.000 
#    0.000    0.000    0.000    0.000    0.000    0.000 
#
# Total GULP energy -67040.108598 kJ/mol
# GULP energy per Si atom -5586.675716 kJ/mol
# Density = 2.906646 g / cm^3
# Si number density = 29.132770 Si / 1000 Ang^3
#
#
#
# Elastic Constant Matrix: (Units=GPa)
#
#
# Indices 1 2 3 4 5 6 
#
# 1 175.7962 56.6485 67.2588 -4.4502 -24.7549 27.6579
# 2 56.6485 172.6615 40.2803 -15.5070 -5.4332 10.7452
# 3 67.2588 40.2803 142.8827 -29.1187 -35.1574 4.0317
# 4 -4.4502 -15.5070 -29.1187 44.0378 11.0253 -3.2673
# 5 -24.7549 -5.4332 -35.1574 11.0253 75.5726 -14.9010
# 6 27.6579 10.7452 4.0317 -3.2673 -14.9010 59.6793
#
#
#
# Elastic Compliance Matrix: (Units=1/GPa)
#
#
# Indices 1 2 3 4 5 6 
#
# 1 0.008201 -0.001860 -0.003628 -0.002617 0.000614 -0.003211
# 2 -0.001860 0.006765 -0.000865 0.001809 -0.000872 -0.000416
# 3 -0.003628 -0.000865 0.010924 0.005863 0.003425 0.002275
# 4 -0.002617 0.001809 0.005863 0.027500 -0.001702 0.001572
# 5 0.000614 -0.000872 0.003425 -0.001702 0.015906 0.003520
# 6 -0.003211 -0.000416 0.002275 0.001572 0.003520 0.019130
#
#
# Mechanical properties :
#
#
# Convention : Reuss Voigt Hill
#
# Bulk Modulus (GPa) = 75.85670 91.07950 83.46810
# Shear Modulus (GPa) = 47.38123 57.66814 52.52469
#
# Velocity S-wave (km/s) = 4.03723 4.45398 4.25071
# Velocity P-wave (km/s) = 6.91571 7.60145 7.26667
#
# Compressibility (1/GPa) = 0.01318275
#
# Stress axis : x y z
#
# Youngs Moduli (GPa) = 121.93401 147.82257 91.54395
#
# Poissons Ratio (x) = 0.27499 0.33210
# Poissons Ratio (y) = 0.22683 0.07922
# Poissons Ratio (z) = 0.44235 0.12793
#
# Static dielectric constant tensor:
#      x y z
#    x 2.305000 0.009840 0.002710 
#    y 0.009840 2.303290 0.020290 
#    z 0.002710 0.020290 2.364160 
# 
# From -- ./inp_files/287972.got.cif
#   From: 2010.05.17/outbox.cif.g08.bks.cpg/sg2_144_cif.got.tgz:287972.got - 2010.06.03 11:33:40.
