data_PCOD9017567
_publ_section_title
;
Structure prediction by ZEFSAII (Michael W. Deem and Ramdas Pophale) SiO2 
 PCOD9017567
Probable space group: P -1
;
_chemical_formula_sum "Si O2"
_cell_formula_units_Z 16
_cell_length_a 13.654066
_cell_length_b 8.190547
_cell_length_c 12.326018
_cell_angle_alpha 110.526742
_cell_angle_beta 35.961529
_cell_angle_gamma 85.449241
_cell_volume 569.308841
_symmetry_space_group_name_H-M "P -1"
_symmetry_group_IT_number 2
_symmetry_cell_setting 'triclinic'
loop_
_space_group_symop_operation_xyz
x,y,z
-x,-y,-z
loop_
_atom_site_type_symbol
_atom_site_label
_atom_site_fract_x
_atom_site_fract_y
_atom_site_fract_z
Si Si1 0.026220 0.896272 0.663227
Si Si2 0.265421 0.692003 0.191490
Si Si3 0.454324 0.443572 0.294062
Si Si4 0.003815 0.209685 0.907443
Si Si5 0.149224 0.373521 0.228572
Si Si6 0.569887 0.221900 0.466010
Si Si7 0.638680 0.869142 0.181436
Si Si8 0.857407 0.563669 0.303973
O O1 0.108252 0.891837 0.469199
O O2 0.260165 0.688145 0.465015
O O3 0.885668 0.818829 0.780474
O O4 0.917158 0.118704 0.888101
O O5 0.150271 0.584712 0.246075
O O6 0.500000 0.500000 0.000000
O O7 0.353237 0.712336 0.003706
O O8 0.488217 0.541823 0.394296
O O9 0.324177 0.360070 0.427093
O O10 0.122943 0.263743 0.731227
O O11 0.175519 0.996985 0.783645
O O12 0.858601 0.428198 0.169027
O O13 0.000000 0.500000 0.500000
O O14 0.409055 0.170192 0.903185
O O15 0.436558 0.200581 0.669322
O O16 0.559688 0.116190 0.340266
O O17 0.908939 0.636658 0.885948
#
# Coordination Sequence:
#
# PCOD9017567 Si02
#       8
#     2   2   2   2   2   2   2   2
#     4   9  18  31  53  76 101 138 180 217 254 308
#     4   9  18  31  49  78 107 132 173 222 265 307
#     4  10  17  30  52  80 101 141 174 216 257 316
#     4   9  20  36  52  78 111 145 171 217 264 313
#     4  10  18  30  51  80 105 132 173 225 264 302
#     4   9  19  31  55  76 108 133 177 221 261 301
#     4  10  18  32  52  80 101 137 175 221 256 305
#     4  10  20  33  56  76 112 142 175 212 268 314
#
# _framework density 28.104254999999998
#
# number of rings (size 3 to 8) (size 9 to 14) (size 15 to 20)
#    0.000    2.500    2.500    0.000    1.750    1.500 
#    0.000    0.625    2.750    6.000    0.000    0.000 
#    0.000    0.000    0.000    0.000    0.000    0.000 
#
# Total GULP energy -89133.614648 kJ/mol
# GULP energy per Si atom -5570.850915 kJ/mol
# Density = 2.804029 g / cm^3
# Si number density = 28.104255 Si / 1000 Ang^3
#
#
#
# Elastic Constant Matrix: (Units=GPa)
#
#
# Indices 1 2 3 4 5 6 
#
# 1 55.9518 32.6558 -16.7261 -4.9379 0.3905 -6.2786
# 2 32.6558 135.5135 77.9165 -14.2647 18.9230 37.9240
# 3 -16.7261 77.9165 186.6688 -14.6854 20.3742 15.1258
# 4 -4.9379 -14.2647 -14.6854 65.2126 1.6076 8.2019
# 5 0.3905 18.9230 20.3742 1.6076 30.1964 7.9064
# 6 -6.2786 37.9240 15.1258 8.2019 7.9064 44.7818
#
#
#
# Elastic Compliance Matrix: (Units=1/GPa)
#
#
# Indices 1 2 3 4 5 6 
#
# 1 0.032866 -0.018080 0.008924 -0.001621 0.000489 0.017116
# 2 -0.018080 0.023285 -0.009070 0.004201 -0.003393 -0.019361
# 3 0.008924 -0.009070 0.009751 0.000189 -0.002609 0.006064
# 4 -0.001621 0.004201 0.000189 0.017055 -0.001910 -0.006635
# 5 0.000489 -0.003393 -0.002609 -0.001910 0.037751 -0.002492
# 6 0.017116 -0.019361 0.006064 -0.006635 -0.002492 0.040733
#
#
# Mechanical properties :
#
#
# Convention : Reuss Voigt Hill
#
# Bulk Modulus (GPa) = 33.95501 62.86961 48.41231
# Shear Modulus (GPa) = 24.07209 46.99069 35.53139
#
# Velocity S-wave (km/s) = 2.92983 4.09346 3.55952
# Velocity P-wave (km/s) = 4.85316 6.69034 5.84439
#
# Compressibility (1/GPa) = 0.02945073
#
# Stress axis : x y z
#
# Youngs Moduli (GPa) = 30.42628 42.94561 102.55760
#
# Poissons Ratio (x) = 0.77644 -0.91519
# Poissons Ratio (y) = 0.55010 0.93017
# Poissons Ratio (z) = -0.27152 0.38951
#
# Static dielectric constant tensor:
#      x y z
#    x 2.451740 -0.076930 -0.089290 
#    y -0.076930 2.153830 -0.013230 
#    z -0.089290 -0.013230 2.235140 
# 
# From -- ./inp_files/195783.got.cif
#   From: 2010.05.17/outbox.cif.g08.bks.cpg/sg2_98_cif.got.tgz:195783.got - 2010.06.03 11:33:40.
