data_PCOD9017899
_publ_section_title
;
Structure prediction by ZEFSAII (Michael W. Deem and Ramdas Pophale) SiO2 
 PCOD9017899
Probable space group: P -1
;
_chemical_formula_sum "Si O2"
_cell_formula_units_Z 14
_cell_length_a 11.622119
_cell_length_b 11.366822
_cell_length_c 10.691869
_cell_angle_alpha 86.985265
_cell_angle_beta 66.085348
_cell_angle_gamma 142.250237
_cell_volume 589.179481
_symmetry_space_group_name_H-M "P -1"
_symmetry_group_IT_number 2
_symmetry_cell_setting 'triclinic'
loop_
_space_group_symop_operation_xyz
x,y,z
-x,-y,-z
loop_
_atom_site_type_symbol
_atom_site_label
_atom_site_fract_x
_atom_site_fract_y
_atom_site_fract_z
Si Si1 0.203000 0.143451 0.216436
Si Si2 0.675829 0.572677 0.518833
Si Si3 0.016256 0.632448 0.327475
Si Si4 0.812305 0.651190 0.958557
Si Si5 0.298628 0.110743 0.901955
Si Si6 0.041149 0.585012 0.841484
Si Si7 0.427321 0.898609 0.311036
O O1 0.151358 0.231480 0.181660
O O2 0.490638 0.380633 0.149474
O O3 0.261154 0.120524 0.060637
O O4 0.940062 0.872782 0.418003
O O5 0.500000 0.500000 0.500000
O O6 0.493676 0.363205 0.721992
O O7 0.828905 0.588604 0.386648
O O8 0.277271 0.867803 0.289130
O O9 0.095847 0.626441 0.172145
O O10 0.813206 0.369715 0.496524
O O11 0.907678 0.600812 0.881642
O O12 0.006976 0.859917 0.972105
O O13 0.426195 0.085770 0.831488
O O14 0.368956 0.877545 0.689224
O O15 0.000000 0.500000 0.000000
#
# Coordination Sequence:
#
# PCOD9017899 Si02
#       7
#     2   2   2   2   2   2   2
#     4  11  23  42  68  88 130 169 204 264 311 365
#     4  11  24  40  67  98 121 166 216 255 310 382
#     4  10  22  41  64  88 124 160 206 261 307 368
#     4  10  23  41  62  95 126 165 212 252 313 379
#     4  10  21  43  67  90 128 165 208 258 319 367
#     4  11  24  37  62  95 125 159 204 254 312 377
#     4   9  21  41  63  89 120 165 205 254 315 363
#
# _framework density 23.761858
#
# number of rings (size 3 to 8) (size 9 to 14) (size 15 to 20)
#    0.000    1.714    1.429    1.714    6.000    0.571 
#    0.000    4.286    0.000    0.000    0.000    0.000 
#    0.000    0.000    0.000    0.000    0.000    0.000 
#
# Total GULP energy -78282.443449 kJ/mol
# GULP energy per Si atom -5591.603103 kJ/mol
# Density = 2.370777 g / cm^3
# Si number density = 23.761858 Si / 1000 Ang^3
#
#
#
# Elastic Constant Matrix: (Units=GPa)
#
#
# Indices 1 2 3 4 5 6 
#
# 1 5488.7444 3504.3976 -797.8357 -765.7419-1968.1681-2311.5425
# 2 3504.3976 2317.2994 -487.5992 -511.1994-1264.4744-1490.8830
# 3 -797.8357 -487.5992 223.8709 86.5811 305.5683 356.9310
# 4 -765.7419 -511.1994 86.5811 154.4481 275.8117 317.0704
# 5 -1968.1681-1264.4744 305.5683 275.8117 731.5946 830.2778
# 6 -2311.5425-1490.8830 356.9310 317.0704 830.2778 1029.2906
#
#
#
# Elastic Compliance Matrix: (Units=1/GPa)
#
#
# Indices 1 2 3 4 5 6 
#
# 1 0.010587 -0.005188 -0.001035 0.000346 0.012723 0.006252
# 2 -0.005188 0.017860 -0.005093 0.006306 0.008584 0.007118
# 3 -0.001035 -0.005093 0.014932 0.004995 -0.012706 -0.006169
# 4 0.000346 0.006306 0.004995 0.026918 -0.003265 0.002520
# 5 0.012723 0.008584 -0.012706 -0.003265 0.050739 0.005489
# 6 0.006252 0.007118 -0.006169 0.002520 0.005489 0.022259
#
#
# Mechanical properties :
#
#
# Convention : Reuss Voigt Hill
#
# Bulk Modulus (GPa) = 48.19856 1385.31559 716.75707
# Shear Modulus (GPa) = 28.92823 770.46347 399.69585
#
# Velocity S-wave (km/s) = 3.49294 18.02631 12.98361
# Velocity P-wave (km/s) = 6.04943 31.89873 22.95784
#
# Compressibility (1/GPa) = 0.02074751
#
# Stress axis : x y z
#
# Youngs Moduli (GPa) = 94.45117 55.99165 66.97157
#
# Poissons Ratio (x) = 0.29047 0.06933
# Poissons Ratio (y) = 0.48999 0.34107
# Poissons Ratio (z) = 0.09778 0.28515
#
# Static dielectric constant tensor:
#      x y z
#    x 2.021840 0.669240 -0.146360 
#    y 0.669240 5.275420 -0.707180 
#    z -0.146360 -0.707180 2.092100 
# 
# From -- ./inp_files/428131.got.cif
#   From: 2010.05.17/outbox.cif.g08.bks.cpg/sg2_215_cif.got.tgz:428131.got - 2010.06.03 11:33:40.
