data_PCOD9017780
_publ_section_title
;
Structure prediction by ZEFSAII (Michael W. Deem and Ramdas Pophale) SiO2 
 PCOD9017780
Probable space group: P -1
;
_chemical_formula_sum "Si O2"
_cell_formula_units_Z 16
_cell_length_a 12.658211
_cell_length_b 19.434478
_cell_length_c 22.424383
_cell_angle_alpha 18.241020
_cell_angle_beta 144.977697
_cell_angle_gamma 153.610280
_cell_volume 747.119608
_symmetry_space_group_name_H-M "P -1"
_symmetry_group_IT_number 2
_symmetry_cell_setting 'triclinic'
loop_
_space_group_symop_operation_xyz
x,y,z
-x,-y,-z
loop_
_atom_site_type_symbol
_atom_site_label
_atom_site_fract_x
_atom_site_fract_y
_atom_site_fract_z
Si Si1 0.246658 0.306087 0.914638
Si Si2 0.403583 0.136790 0.308595
Si Si3 0.494907 0.362331 0.355922
Si Si4 0.761931 0.960912 0.042485
Si Si5 0.473976 0.841739 0.787482
Si Si6 0.292598 0.871882 0.889132
Si Si7 0.974230 0.793558 0.707816
Si Si8 0.994552 0.838232 0.880985
O O1 0.394633 0.524764 0.858887
O O2 0.332823 0.496747 0.738350
O O3 0.350287 0.139448 0.099289
O O4 0.966531 0.111722 0.961524
O O5 0.404132 0.091127 0.276564
O O6 0.148407 0.041864 0.289661
O O7 0.500000 0.000000 0.500000
O O8 0.239239 0.276992 0.289996
O O9 0.614107 0.616265 0.250866
O O10 0.448980 0.081153 0.588313
O O11 0.893139 0.083569 0.065562
O O12 0.569120 0.006241 0.908346
O O13 0.215292 0.512546 0.936222
O O14 0.213780 0.930045 0.744061
O O15 0.205279 0.954923 0.834753
O O16 0.130425 0.519909 0.106139
O O17 0.000000 0.000000 0.500000
#
# Coordination Sequence:
#
# PCOD9017780 Si02
#       8
#     2   2   2   2   2   2   2   2
#     4  11  21  41  62  92 128 166 208 257 313 372
#     4  11  20  37  65  93 123 160 211 266 309 362
#     4  11  24  38  66  95 124 161 212 259 315 371
#     4  11  23  41  61  92 135 169 204 256 318 377
#     4  11  21  38  66  91 119 164 210 256 315 363
#     4  10  23  40  66  91 123 170 209 255 309 373
#     4  10  21  43  66  94 123 158 215 265 305 369
#     4  11  21  42  67  91 129 168 210 257 315 372
#
# _framework density 21.415579999999999
#
# number of rings (size 3 to 8) (size 9 to 14) (size 15 to 20)
#    0.000    1.250    3.750    3.750    0.000    2.500 
#    0.000    5.000    0.000    5.250    0.000    0.000 
#    0.000    0.000    0.000    0.000    0.000    0.000 
#
# Total GULP energy -89426.201449 kJ/mol
# GULP energy per Si atom -5589.137591 kJ/mol
# Density = 2.136684 g / cm^3
# Si number density = 21.415580 Si / 1000 Ang^3
#
#
#
# Elastic Constant Matrix: (Units=GPa)
#
#
# Indices 1 2 3 4 5 6 
#
# 1 87.8987 45.3443 28.9886 11.0572 15.0594 15.5645
# 2 45.3443 135.0574 42.1013 23.5267 7.4758 20.6226
# 3 28.9886 42.1013 95.9079 34.5228 9.8778 8.6595
# 4 11.0572 23.5267 34.5228 28.5034 0.8594 5.0358
# 5 15.0594 7.4758 9.8778 0.8594 28.0948 13.6208
# 6 15.5645 20.6226 8.6595 5.0358 13.6208 32.1517
#
#
#
# Elastic Compliance Matrix: (Units=1/GPa)
#
#
# Indices 1 2 3 4 5 6 
#
# 1 0.015408 -0.003916 -0.002486 0.000805 -0.005327 -0.002147
# 2 -0.003916 0.010613 -0.001692 -0.004424 0.002303 -0.004739
# 3 -0.002486 -0.001692 0.020494 -0.022796 -0.006154 0.002947
# 4 0.000805 -0.004424 -0.022796 0.066793 0.009597 -0.005940
# 5 -0.005327 0.002303 -0.006154 0.009597 0.049203 -0.019588
# 6 -0.002147 -0.004739 0.002947 -0.005940 -0.019588 0.043617
#
#
# Mechanical properties :
#
#
# Convention : Reuss Voigt Hill
#
# Bulk Modulus (GPa) = 32.97293 61.30358 47.13826
# Shear Modulus (GPa) = 21.51230 31.24532 26.37881
#
# Velocity S-wave (km/s) = 3.17285 3.82383 3.51345
# Velocity P-wave (km/s) = 5.37148 6.94143 6.20629
#
# Compressibility (1/GPa) = 0.03032791
#
# Stress axis : x y z
#
# Youngs Moduli (GPa) = 64.90104 94.22228 48.79395
#
# Poissons Ratio (x) = 0.36896 0.12128
# Poissons Ratio (y) = 0.25414 0.08258
# Poissons Ratio (z) = 0.16132 0.15946
#
# Static dielectric constant tensor:
#      x y z
#    x 1.816040 0.019670 0.031640 
#    y 0.019670 1.784980 0.003930 
#    z 0.031640 0.003930 1.802660 
# 
# From -- ./inp_files/454362.got.cif
#   From: 2010.05.17/outbox.cif.g08.bks.cpg/sg2_228_cif.got.tgz:454362.got - 2010.06.03 11:33:40.
