data_PCOD9017170
_publ_section_title
;
Structure prediction by ZEFSAII (Michael W. Deem and Ramdas Pophale) SiO2 
 PCOD9017170
Probable space group: P -1
;
_chemical_formula_sum "Si O2"
_cell_formula_units_Z 16
_cell_length_a 7.854584
_cell_length_b 7.449193
_cell_length_c 15.267597
_cell_angle_alpha 99.543567
_cell_angle_beta 107.664686
_cell_angle_gamma 125.990685
_cell_volume 616.297492
_symmetry_space_group_name_H-M "P -1"
_symmetry_group_IT_number 2
_symmetry_cell_setting 'triclinic'
loop_
_space_group_symop_operation_xyz
x,y,z
-x,-y,-z
loop_
_atom_site_type_symbol
_atom_site_label
_atom_site_fract_x
_atom_site_fract_y
_atom_site_fract_z
Si Si1 0.553618 0.948548 0.751794
Si Si2 0.706365 0.705902 0.118405
Si Si3 0.305561 0.577116 0.165024
Si Si4 0.322383 0.685679 0.854073
Si Si5 0.157841 0.911481 0.960374
Si Si6 0.325587 0.361300 0.325074
Si Si7 0.161272 0.328793 0.480971
Si Si8 0.297685 0.846628 0.529801
O O1 0.722896 0.226731 0.838088
O O2 0.317973 0.745148 0.759118
O O3 0.663232 0.831563 0.731823
O O4 0.446165 0.969662 0.651904
O O5 0.563944 0.709123 0.173833
O O6 0.806287 0.590929 0.166593
O O7 0.866243 0.955562 0.108755
O O8 0.500000 0.500000 0.000000
O O9 0.282407 0.482129 0.252499
O O10 0.100754 0.319895 0.059603
O O11 0.239803 0.782566 0.915102
O O12 0.617856 0.872796 0.927001
O O13 0.151253 0.240425 0.373705
O O14 0.597343 0.578039 0.425433
O O15 0.205846 0.574895 0.489887
O O16 0.928766 0.171852 0.496704
O O17 0.500000 0.000000 0.500000
#
# Coordination Sequence:
#
# PCOD9017170 Si02
#       8
#     2   2   2   2   2   2   2   2
#     4  11  23  41  65  98 139 169 224 275 332 401
#     4  10  22  43  65  92 129 174 225 282 330 385
#     4  12  24  41  67  96 136 178 224 276 327 405
#     4  10  21  44  63  95 133 175 220 282 325 394
#     4  10  24  42  66  91 133 178 226 270 339 384
#     4  10  22  43  66 101 134 177 224 274 338 406
#     4   9  21  43  70  91 137 177 215 279 337 399
#     4  10  21  42  71  99 132 176 221 273 337 405
#
# _framework density 25.961487000000002
#
# number of rings (size 3 to 8) (size 9 to 14) (size 15 to 20)
#    0.000    1.750    2.500    0.750    1.750    3.500 
#    2.250   12.500    0.000    0.000    0.000    0.000 
#    0.000    0.000    0.000    0.000    0.000    0.000 
#
# Total GULP energy -89535.038837 kJ/mol
# GULP energy per Si atom -5595.939927 kJ/mol
# Density = 2.590240 g / cm^3
# Si number density = 25.961487 Si / 1000 Ang^3
#
#
#
# Elastic Constant Matrix: (Units=GPa)
#
#
# Indices 1 2 3 4 5 6 
#
# 1 102.7040 30.8459 6.8071 1.9962 -18.2191 12.9817
# 2 30.8459 136.1288 8.1917 1.7411 -10.2399 -16.4506
# 3 6.8071 8.1917 36.3611 -20.1124 -6.2469 10.1240
# 4 1.9962 1.7411 -20.1124 32.6557 -2.5589 -8.6093
# 5 -18.2191 -10.2399 -6.2469 -2.5589 43.8311 0.7577
# 6 12.9817 -16.4506 10.1240 -8.6093 0.7577 44.0813
#
#
#
# Elastic Compliance Matrix: (Units=1/GPa)
#
#
# Indices 1 2 3 4 5 6 
#
# 1 0.012079 -0.002966 -0.000520 -0.001883 0.004230 -0.004985
# 2 -0.002966 0.008815 -0.003289 -0.001056 0.000215 0.004708
# 3 -0.000520 -0.003289 0.046896 0.027956 0.007444 -0.006513
# 4 -0.001883 -0.001056 0.027956 0.049328 0.005778 0.003275
# 5 0.004230 0.000215 0.007444 0.005778 0.026060 -0.002195
# 6 -0.004985 0.004708 -0.006513 0.003275 -0.002195 0.028084
#
#
# Mechanical properties :
#
#
# Convention : Reuss Voigt Hill
#
# Bulk Modulus (GPa) = 18.43661 40.76479 29.60070
# Shear Modulus (GPa) = 24.64384 39.40354 32.02369
#
# Velocity S-wave (km/s) = 3.08433 3.90008 3.51594
# Velocity P-wave (km/s) = 4.44984 6.00141 5.28290
#
# Compressibility (1/GPa) = 0.05423991
#
# Stress axis : x y z
#
# Youngs Moduli (GPa) = 82.78776 113.44843 21.32384
#
# Poissons Ratio (x) = 0.33648 0.01109
# Poissons Ratio (y) = 0.24554 0.07013
# Poissons Ratio (z) = 0.04306 0.37311
#
# Static dielectric constant tensor:
#      x y z
#    x 2.073660 0.017060 0.039250 
#    y 0.017060 2.097360 0.048400 
#    z 0.039250 0.048400 2.133570 
# 
# From -- ./inp_files/493204.got.cif
#   From: 2010.05.17/outbox.cif.g08.bks.cpg/sg2_247_cif.got.tgz:493204.got - 2010.06.03 11:33:40.
