data_PCOD9017471
_publ_section_title
;
Structure prediction by ZEFSAII (Michael W. Deem and Ramdas Pophale) SiO2 
 PCOD9017471
Probable space group: P -1
;
_chemical_formula_sum "Si O2"
_cell_formula_units_Z 16
_cell_length_a 8.573749
_cell_length_b 11.383539
_cell_length_c 14.774109
_cell_angle_alpha 147.132867
_cell_angle_beta 92.141260
_cell_angle_gamma 71.216165
_cell_volume 660.226999
_symmetry_space_group_name_H-M "P -1"
_symmetry_group_IT_number 2
_symmetry_cell_setting 'triclinic'
loop_
_space_group_symop_operation_xyz
x,y,z
-x,-y,-z
loop_
_atom_site_type_symbol
_atom_site_label
_atom_site_fract_x
_atom_site_fract_y
_atom_site_fract_z
Si Si1 0.475770 0.106201 0.938535
Si Si2 0.476565 0.782162 0.192856
Si Si3 0.450714 0.566874 0.321708
Si Si4 0.870074 0.426482 0.998108
Si Si5 0.822369 0.112465 0.634608
Si Si6 0.091161 0.186720 0.027740
Si Si7 0.662227 0.522813 0.567300
Si Si8 0.179629 0.618921 0.700412
O O1 0.512319 0.124180 0.845627
O O2 0.582517 0.813517 0.780349
O O3 0.532764 0.275177 0.103394
O O4 0.260266 0.214340 0.021134
O O5 0.286107 0.987161 0.371320
O O6 0.500000 0.500000 0.000000
O O7 0.672227 0.686025 0.182340
O O8 0.344898 0.721872 0.331915
O O9 0.302225 0.636292 0.443843
O O10 0.622321 0.568250 0.368003
O O11 0.856373 0.258343 0.809926
O O12 0.000000 0.500000 0.000000
O O13 0.956689 0.275464 0.995195
O O14 0.000000 0.000000 0.500000
O O15 0.980043 0.349311 0.218154
O O16 0.156918 0.896528 0.866731
O O17 0.500000 0.500000 0.500000
O O18 0.814032 0.455437 0.451657
#
# Coordination Sequence:
#
# PCOD9017471 Si02
#       8
#     2   2   2   2   2   2   2   2
#     4  12  21  41  70  94 128 174 222 264 320 396
#     4  10  21  43  63  93 129 172 218 256 325 387
#     4  11  21  42  69  92 131 172 218 265 327 394
#     4  11  21  40  67  94 129 171 217 262 317 398
#     4  11  25  42  66  96 131 171 215 272 332 382
#     4  11  22  39  68  96 131 167 216 261 330 384
#     4  10  22  40  64  94 127 171 213 267 326 375
#     4  10  24  42  65  96 131 170 216 267 326 387
#
# _framework density 24.234088
#
# number of rings (size 3 to 8) (size 9 to 14) (size 15 to 20)
#    0.000    1.250    6.250    1.125    3.500    0.000 
#    4.500    1.250    0.000    0.000    0.000    0.000 
#    0.000    0.000    0.000    0.000    0.000    0.000 
#
# Total GULP energy -89320.388597 kJ/mol
# GULP energy per Si atom -5582.524287 kJ/mol
# Density = 2.417893 g / cm^3
# Si number density = 24.234088 Si / 1000 Ang^3
#
#
#
# Elastic Constant Matrix: (Units=GPa)
#
#
# Indices 1 2 3 4 5 6 
#
# 1 101.3597 25.9517 29.1967 -15.6999 -38.3273 23.6541
# 2 25.9517 123.6582 4.7080 -35.5426 -15.4951 10.8738
# 3 29.1967 4.7080 67.8759 -31.6102 -34.0943 11.2860
# 4 -15.6999 -35.5426 -31.6102 40.9647 15.6275 -8.6088
# 5 -38.3273 -15.4951 -34.0943 15.6275 48.0473 -13.6433
# 6 23.6541 10.8738 11.2860 -8.6088 -13.6433 33.9839
#
#
#
# Elastic Compliance Matrix: (Units=1/GPa)
#
#
# Indices 1 2 3 4 5 6 
#
# 1 0.015631 -0.002080 -0.001775 -0.002117 0.009415 -0.006381
# 2 -0.002080 0.013625 0.010126 0.017162 0.004279 -0.000209
# 3 -0.001775 0.010126 0.038852 0.030757 0.019633 0.000766
# 4 -0.002117 0.017162 0.030757 0.060314 0.007168 0.003924
# 5 0.009415 0.004279 0.019633 0.007168 0.042571 0.004464
# 6 -0.006381 -0.000209 0.000766 0.003924 0.004464 0.036466
#
#
# Mechanical properties :
#
#
# Convention : Reuss Voigt Hill
#
# Bulk Modulus (GPa) = 12.39917 45.84520 29.12219
# Shear Modulus (GPa) = 22.54276 40.13498 31.33887
#
# Velocity S-wave (km/s) = 3.05324 4.07398 3.59997
# Velocity P-wave (km/s) = 4.19014 6.41003 5.41506
#
# Compressibility (1/GPa) = 0.08065055
#
# Stress axis : x y z
#
# Youngs Moduli (GPa) = 63.97452 73.39270 25.73882
#
# Poissons Ratio (x) = 0.15269 0.04569
# Poissons Ratio (y) = 0.13309 -0.26064
# Poissons Ratio (z) = 0.11355 -0.74321
#
# Static dielectric constant tensor:
#      x y z
#    x 1.967700 0.003380 -0.061670 
#    y 0.003380 1.911940 0.014460 
#    z -0.061670 0.014460 1.988430 
# 
# From -- ./inp_files/500992.got.cif
#   From: 2010.05.17/outbox.cif.g08.bks.cpg/sg2_251_cif.got.tgz:500992.got - 2010.06.03 11:33:40.
