data_PCOD9017049
_publ_section_title
;
Structure prediction by ZEFSAII (Michael W. Deem and Ramdas Pophale) SiO2 
 PCOD9017049
Probable space group: P -1
;
_chemical_formula_sum "Si O2"
_cell_formula_units_Z 16
_cell_length_a 11.872068
_cell_length_b 21.855740
_cell_length_c 7.865104
_cell_angle_alpha 71.296322
_cell_angle_beta 97.770531
_cell_angle_gamma 158.052597
_cell_volume 642.150128
_symmetry_space_group_name_H-M "P -1"
_symmetry_group_IT_number 2
_symmetry_cell_setting 'triclinic'
loop_
_space_group_symop_operation_xyz
x,y,z
-x,-y,-z
loop_
_atom_site_type_symbol
_atom_site_label
_atom_site_fract_x
_atom_site_fract_y
_atom_site_fract_z
Si Si1 0.403106 0.574863 0.367885
Si Si2 0.526559 0.622620 0.850009
Si Si3 0.805729 0.005500 0.743900
Si Si4 0.724752 0.374799 0.916614
Si Si5 0.695859 0.037687 0.997738
Si Si6 0.493084 0.509662 0.237918
Si Si7 0.200111 0.553111 0.639651
Si Si8 0.714244 0.947077 0.379573
O O1 0.326842 0.578829 0.185213
O O2 0.338388 0.465527 0.405497
O O3 0.186801 0.494143 0.539088
O O4 0.798831 0.790902 0.308203
O O5 0.595584 0.611027 0.714062
O O6 0.285731 0.551427 0.814247
O O7 0.382460 0.495239 0.069700
O O8 0.888350 0.847424 0.767415
O O9 0.712784 0.966954 0.561209
O O10 0.626819 0.843441 0.904883
O O11 0.647338 0.974242 0.866021
O O12 0.869080 0.416362 0.739843
O O13 0.000000 0.500000 0.000000
O O14 0.604440 0.942779 0.224665
O O15 0.500000 0.000000 0.000000
O O16 0.100167 0.267110 0.880683
O O17 0.503676 0.767781 0.488752
#
# Coordination Sequence:
#
# PCOD9017049 Si02
#       8
#     2   2   2   2   2   2   2   2
#     4  11  24  44  69 101 138 189 239 287 347 431
#     4  10  21  42  70  98 135 181 236 288 343 423
#     4  11  24  46  71 101 141 194 236 286 355 430
#     4  12  25  43  65 104 146 182 230 294 360 412
#     4  10  24  45  70  99 145 184 234 299 353 424
#     4   9  22  43  67  98 132 187 237 278 353 422
#     4  12  24  41  72 103 144 178 232 301 352 408
#     4  11  23  45  69 107 134 187 243 283 358 427
#
# _framework density 24.91629
#
# number of rings (size 3 to 8) (size 9 to 14) (size 15 to 20)
#    0.000    1.250    2.500    2.625    1.750    2.000 
#    2.250    0.000    0.000    0.000    0.000    0.000 
#    0.000    0.000    0.000    0.000    0.000    0.000 
#
# Total GULP energy -89544.156224 kJ/mol
# GULP energy per Si atom -5596.509764 kJ/mol
# Density = 2.485958 g / cm^3
# Si number density = 24.916290 Si / 1000 Ang^3
#
#
#
# Elastic Constant Matrix: (Units=GPa)
#
#
# Indices 1 2 3 4 5 6 
#
# 1 191.1955 34.6244 49.5944 24.2686 -6.8765 12.7689
# 2 34.6244 72.4415 22.3010 15.5558 1.1141 -4.1942
# 3 49.5944 22.3010 86.8765 15.3259 -0.5607 3.8938
# 4 24.2686 15.5558 15.3259 42.8249 -6.4887 7.8113
# 5 -6.8765 1.1141 -0.5607 -6.4887 51.2570 10.3117
# 6 12.7689 -4.1942 3.8938 7.8113 10.3117 38.9082
#
#
#
# Elastic Compliance Matrix: (Units=1/GPa)
#
#
# Indices 1 2 3 4 5 6 
#
# 1 0.006753 -0.002163 -0.002946 -0.001410 0.001182 -0.002185
# 2 -0.002163 0.016996 -0.002419 -0.005229 -0.002239 0.004427
# 3 -0.002946 -0.002419 0.014276 -0.002627 -0.000507 -0.000061
# 4 -0.001410 -0.005229 -0.002627 0.029016 0.004974 -0.006982
# 5 0.001182 -0.002239 -0.000507 0.004974 0.021822 -0.007360
# 6 -0.002185 0.004427 -0.000061 -0.006982 -0.007360 0.030254
#
#
# Mechanical properties :
#
#
# Convention : Reuss Voigt Hill
#
# Bulk Modulus (GPa) = 43.53327 62.61703 53.07515
# Shear Modulus (GPa) = 35.25362 42.86425 39.05894
#
# Velocity S-wave (km/s) = 3.76557 4.15219 3.96360
# Velocity P-wave (km/s) = 6.03455 6.94068 6.50342
#
# Compressibility (1/GPa) = 0.02297094
#
# Stress axis : x y z
#
# Youngs Moduli (GPa) = 148.07303 58.83640 70.04800
#
# Poissons Ratio (x) = 0.12726 0.20635
# Poissons Ratio (y) = 0.32029 0.16941
# Poissons Ratio (z) = 0.43619 0.14230
#
# Static dielectric constant tensor:
#      x y z
#    x 1.915300 -0.048050 -0.057110 
#    y -0.048050 2.020210 0.131490 
#    z -0.057110 0.131490 2.100130 
# 
# From -- ./inp_files/285162.got.cif
#   From: 2010.05.17/outbox.cif.g08.bks.cpg/sg2_143_cif.got.tgz:285162.got - 2010.06.03 11:33:40.
