data_PCOD9017931
_publ_section_title
;
Structure prediction by ZEFSAII (Michael W. Deem and Ramdas Pophale) SiO2 
 PCOD9017931
Probable space group: P -1
;
_chemical_formula_sum "Si O2"
_cell_formula_units_Z 16
_cell_length_a 5.960176
_cell_length_b 9.803270
_cell_length_c 22.531381
_cell_angle_alpha 45.991690
_cell_angle_beta 61.106168
_cell_angle_gamma 86.855733
_cell_volume 741.982566
_symmetry_space_group_name_H-M "P -1"
_symmetry_group_IT_number 2
_symmetry_cell_setting 'triclinic'
loop_
_space_group_symop_operation_xyz
x,y,z
-x,-y,-z
loop_
_atom_site_type_symbol
_atom_site_label
_atom_site_fract_x
_atom_site_fract_y
_atom_site_fract_z
Si Si1 0.328162 0.130775 0.973186
Si Si2 0.285404 0.465277 0.129758
Si Si3 0.173816 0.389598 0.549834
Si Si4 0.876565 0.300165 0.335420
Si Si5 0.220637 0.160688 0.500816
Si Si6 0.167094 0.530890 0.338616
Si Si7 0.725357 0.902743 0.152049
Si Si8 0.292657 0.674518 0.940820
O O1 0.486593 0.368341 0.904435
O O2 0.282486 0.121230 0.911355
O O3 0.500000 0.000000 0.000000
O O4 0.059759 0.003942 0.088875
O O5 0.434394 0.326385 0.127003
O O6 0.988340 0.355499 0.236943
O O7 0.265541 0.593951 0.036399
O O8 0.500000 0.500000 0.500000
O O9 0.189159 0.216500 0.556263
O O10 0.000000 0.500000 0.500000
O O11 0.993418 0.349581 0.645084
O O12 0.547673 0.244382 0.409699
O O13 0.078345 0.494927 0.292473
O O14 0.915761 0.091241 0.410064
O O15 0.082538 0.293992 0.444327
O O16 0.498210 0.672019 0.270422
O O17 0.655399 0.084530 0.133038
O O18 0.000000 0.500000 0.000000
#
# Coordination Sequence:
#
# PCOD9017931 Si02
#       8
#     2   2   2   2   2   2   2   2
#     4  11  22  40  64  95 131 164 220 280 327 403
#     4  11  24  41  67  93 129 178 217 277 338 404
#     4  10  21  43  67  94 134 179 224 291 344 407
#     4  11  23  42  67  93 129 177 223 282 338 414
#     4  10  24  42  63  98 133 171 228 279 344 403
#     4  11  23  40  67  96 133 177 224 283 339 413
#     4  11  24  38  66  97 128 176 220 271 339 404
#     4  11  24  45  61  93 136 170 218 273 336 410
#
# _framework density 21.563846999999999
#
# number of rings (size 3 to 8) (size 9 to 14) (size 15 to 20)
#    0.000    1.250    5.000    0.375    3.500    1.000 
#    0.000    2.500    0.000    0.000    0.000    0.000 
#    0.000    0.000    0.000    0.000    0.000    0.000 
#
# Total GULP energy -89082.446285 kJ/mol
# GULP energy per Si atom -5567.652893 kJ/mol
# Density = 2.151477 g / cm^3
# Si number density = 21.563847 Si / 1000 Ang^3
#
#
#
# Elastic Constant Matrix: (Units=GPa)
#
#
# Indices 1 2 3 4 5 6 
#
# 1 19.5637 3.6913 1.0653 1.1242 -4.6664 -3.1758
# 2 3.6913 147.1563 42.4958 7.9945 2.5046 -1.8810
# 3 1.0653 42.4958 61.3239 11.2579 -14.7839 -10.2233
# 4 1.1242 7.9945 11.2579 35.2777 -0.6417 -5.0703
# 5 -4.6664 2.5046 -14.7839 -0.6417 20.4055 0.2996
# 6 -3.1758 -1.8810 -10.2233 -5.0703 0.2996 35.7065
#
#
#
# Elastic Compliance Matrix: (Units=1/GPa)
#
#
# Indices 1 2 3 4 5 6 
#
# 1 0.057118 -0.003772 0.007676 -0.002119 0.018922 0.006619
# 2 -0.003772 0.009626 -0.009136 0.000364 -0.008617 -0.002320
# 3 0.007676 -0.009136 0.031065 -0.006487 0.025063 0.007964
# 4 -0.002119 0.000364 -0.006487 0.030663 -0.004300 0.002363
# 5 0.018922 -0.008617 0.025063 -0.004300 0.072309 0.007187
# 6 0.006619 -0.002320 0.007964 0.002363 0.007187 0.031028
#
#
# Mechanical properties :
#
#
# Convention : Reuss Voigt Hill
#
# Bulk Modulus (GPa) = 11.44879 35.83877 23.64378
# Shear Modulus (GPa) = 18.42380 30.33069 24.37725
#
# Velocity S-wave (km/s) = 2.92616 3.75447 3.36589
# Velocity P-wave (km/s) = 4.09112 5.95405 5.10823
#
# Compressibility (1/GPa) = 0.08734550
#
# Stress axis : x y z
#
# Youngs Moduli (GPa) = 17.50747 103.88970 32.19045
#
# Poissons Ratio (x) = 0.39184 -0.24708
# Poissons Ratio (y) = 0.06603 0.29409
# Poissons Ratio (z) = -0.13438 0.94912
#
# Static dielectric constant tensor:
#      x y z
#    x 1.856090 0.018290 -0.017620 
#    y 0.018290 1.747910 0.021780 
#    z -0.017620 0.021780 1.809100 
# 
# From -- ./inp_files/138557.got.cif
#   From: 2010.05.17/outbox.cif.g08.bks.cpg/sg2_70_cif.got.tgz:138557.got - 2010.06.03 11:33:40.
