data_PCOD9017946
_publ_section_title
;
Structure prediction by ZEFSAII (Michael W. Deem and Ramdas Pophale) SiO2 
 PCOD9017946
Probable space group: P -1
;
_chemical_formula_sum "Si O2"
_cell_formula_units_Z 15
_cell_length_a 20.165473
_cell_length_b 5.376588
_cell_length_c 10.913259
_cell_angle_alpha 60.247239
_cell_angle_beta 34.354321
_cell_angle_gamma 72.679164
_cell_volume 564.344358
_symmetry_space_group_name_H-M "P -1"
_symmetry_group_IT_number 2
_symmetry_cell_setting 'triclinic'
loop_
_space_group_symop_operation_xyz
x,y,z
-x,-y,-z
loop_
_atom_site_type_symbol
_atom_site_label
_atom_site_fract_x
_atom_site_fract_y
_atom_site_fract_z
Si Si1 0.780814 0.667386 0.834293
Si Si2 0.757252 0.590580 0.302743
Si Si3 0.924782 0.675536 0.234177
Si Si4 0.916814 0.197740 0.815888
Si Si5 0.542633 0.750529 0.728366
Si Si6 0.605802 0.334867 0.367308
Si Si7 0.684510 0.729843 0.728933
Si Si8 0.000000 0.000000 0.500000
O O1 0.864586 0.427117 0.757798
O O2 0.732860 0.845258 0.757800
O O3 0.855038 0.902956 0.756351
O O4 0.665902 0.451754 0.121018
O O5 0.865150 0.508013 0.241132
O O6 0.636156 0.570075 0.573609
O O7 0.711808 0.428929 0.285187
O O8 0.816528 0.933341 0.092720
O O9 0.803491 0.692358 0.487175
O O10 0.010685 0.601192 0.230806
O O11 0.000000 0.000000 0.000000
O O12 0.007343 0.064421 0.625242
O O13 0.611616 0.896215 0.710657
O O14 0.545625 0.998180 0.564293
O O15 0.414417 0.567479 0.013859
O O16 0.500000 0.500000 0.500000
#
# Coordination Sequence:
#
# PCOD9017946 Si02
#       8
#     2   2   2   2   2   2   2   1
#     4  12  25  43  68 101 141 180 222 290 348 398
#     4  10  21  43  67  95 134 180 227 279 341 408
#     4   9  20  40  67  94 133 178 223 271 338 412
#     4  11  22  43  67  97 137 179 225 279 343 405
#     4  10  23  46  68  94 137 181 231 288 341 411
#     4  12  26  43  70 106 133 180 237 285 343 411
#     4  10  22  42  69  96 134 186 224 276 356 403
#     4  12  24  40  64 102 140 170 228 282 336 416
#
# _framework density 26.579516000000002
#
# number of rings (size 3 to 8) (size 9 to 14) (size 15 to 20)
#    0.000    1.333    4.000    1.200    1.867    1.067 
#    2.400   10.000    0.000    0.000    0.000    0.000 
#    0.000    0.000    0.000    0.000    0.000    0.000 
#
# Total GULP energy -83536.922190 kJ/mol
# GULP energy per Si atom -5569.128146 kJ/mol
# Density = 2.651902 g / cm^3
# Si number density = 26.579516 Si / 1000 Ang^3
#
#
#
# Elastic Constant Matrix: (Units=GPa)
#
#
# Indices 1 2 3 4 5 6 
#
# 1 145.1990 13.1925 10.2934 -6.6482 -1.9181 13.5195
# 2 13.1925 40.0062 10.7308 3.6173 -6.4377 -1.1605
# 3 10.2934 10.7308 159.3543 -0.3767 -8.5397 -14.7387
# 4 -6.6482 3.6173 -0.3767 22.6522 2.5996 -3.8319
# 5 -1.9181 -6.4377 -8.5397 2.5996 47.1760 -7.7541
# 6 13.5195 -1.1605 -14.7387 -3.8319 -7.7541 18.7444
#
#
#
# Elastic Compliance Matrix: (Units=1/GPa)
#
#
# Indices 1 2 3 4 5 6 
#
# 1 0.007940 -0.002947 -0.001038 0.001775 -0.001514 -0.006989
# 2 -0.002947 0.027533 -0.001101 -0.005151 0.004330 0.003703
# 3 -0.001038 -0.001101 0.007238 0.001001 0.002300 0.007528
# 4 0.001775 -0.005151 0.001001 0.047073 -0.001711 0.008103
# 5 -0.001514 0.004330 0.002300 -0.001711 0.024357 0.012894
# 6 -0.006989 0.003703 0.007528 0.008103 0.012894 0.071529
#
#
# Mechanical properties :
#
#
# Convention : Reuss Voigt Hill
#
# Bulk Modulus (GPa) = 30.73144 45.88810 38.30977
# Shear Modulus (GPa) = 24.19087 38.40406 31.29747
#
# Velocity S-wave (km/s) = 3.02011 3.80527 3.43520
# Velocity P-wave (km/s) = 4.87326 6.05052 5.49351
#
# Compressibility (1/GPa) = 0.03253996
#
# Stress axis : x y z
#
# Youngs Moduli (GPa) = 125.93758 36.31972 138.15190
#
# Poissons Ratio (x) = 0.10703 0.14337
# Poissons Ratio (y) = 0.37113 0.15216
# Poissons Ratio (z) = 0.13070 0.04000
#
# Static dielectric constant tensor:
#      x y z
#    x 2.222830 -0.018780 -0.043100 
#    y -0.018780 2.346480 0.107440 
#    z -0.043100 0.107440 2.224660 
# 
# From -- ./inp_files/468273.got.cif
#   From: 2010.05.17/outbox.cif.g08.bks.cpg/sg2_235_cif.got.tgz:468273.got - 2010.06.03 11:33:40.
