data_PCOD9017565
_publ_section_title
;
Structure prediction by ZEFSAII (Michael W. Deem and Ramdas Pophale) SiO2 
 PCOD9017565
Probable space group: P -1
;
_chemical_formula_sum "Si O2"
_cell_formula_units_Z 16
_cell_length_a 14.542758
_cell_length_b 6.047098
_cell_length_c 8.411908
_cell_angle_alpha 66.104259
_cell_angle_beta 86.272384
_cell_angle_gamma 77.491259
_cell_volume 660.078394
_symmetry_space_group_name_H-M "P -1"
_symmetry_group_IT_number 2
_symmetry_cell_setting 'triclinic'
loop_
_space_group_symop_operation_xyz
x,y,z
-x,-y,-z
loop_
_atom_site_type_symbol
_atom_site_label
_atom_site_fract_x
_atom_site_fract_y
_atom_site_fract_z
Si Si1 0.046647 0.236263 0.971972
Si Si2 0.546471 0.302368 0.680057
Si Si3 0.925110 0.354474 0.347887
Si Si4 0.607704 0.403609 0.958659
Si Si5 0.871656 0.959551 0.668303
Si Si6 0.320691 0.004958 0.480584
Si Si7 0.745575 0.419948 0.193019
Si Si8 0.363714 0.146135 0.765888
O O1 0.069997 0.360920 0.767529
O O2 0.126565 0.106871 0.126238
O O3 0.000000 0.500000 0.000000
O O4 0.000000 0.000000 0.000000
O O5 0.500000 0.500000 0.500000
O O6 0.607858 0.070906 0.649450
O O7 0.457061 0.226890 0.793904
O O8 0.606497 0.418454 0.765801
O O9 0.855561 0.299726 0.227545
O O10 0.031410 0.202892 0.364198
O O11 0.879358 0.241965 0.537917
O O12 0.691002 0.495817 0.013419
O O13 0.633270 0.116767 0.083903
O O14 0.500000 0.500000 0.000000
O O15 0.782009 0.894591 0.609216
O O16 0.308775 0.755783 0.649226
O O17 0.362029 0.143492 0.576134
O O18 0.729144 0.668333 0.223487
#
# Coordination Sequence:
#
# PCOD9017565 Si02
#       8
#     2   2   2   2   2   2   2   2
#     4  10  22  45  67 100 140 179 236 298 351 429
#     4  12  22  41  62  93 128 174 217 275 347 394
#     4   9  20  43  70  98 134 184 227 285 359 415
#     4  11  23  41  65  92 133 170 223 278 330 416
#     4   9  20  44  67  99 137 178 238 286 349 424
#     4  10  22  41  63  96 132 172 227 278 338 411
#     4  10  21  43  64  96 132 172 227 274 340 415
#     4  11  22  42  64  89 133 170 218 282 333 409
#
# _framework density 24.239542
#
# number of rings (size 3 to 8) (size 9 to 14) (size 15 to 20)
#    0.000    1.750    2.500    1.500    0.000    1.500 
#   31.500    0.000    0.000    0.000    0.000    0.000 
#    0.000    0.000    0.000    0.000    0.000    0.000 
#
# Total GULP energy -89195.484476 kJ/mol
# GULP energy per Si atom -5574.717780 kJ/mol
# Density = 2.418437 g / cm^3
# Si number density = 24.239542 Si / 1000 Ang^3
#
#
#
# Elastic Constant Matrix: (Units=GPa)
#
#
# Indices 1 2 3 4 5 6 
#
# 1 95.7247 24.9949 16.0281 0.6346 26.2879 -8.3156
# 2 24.9949 76.6778 31.9712 -3.0864 9.5645 6.6716
# 3 16.0281 31.9712 135.5857 -13.4240 25.4236 4.1077
# 4 0.6346 -3.0864 -13.4240 44.9198 18.4017 -8.9895
# 5 26.2879 9.5645 25.4236 18.4017 48.2840 -8.6121
# 6 -8.3156 6.6716 4.1077 -8.9895 -8.6121 22.1510
#
#
#
# Elastic Compliance Matrix: (Units=1/GPa)
#
#
# Indices 1 2 3 4 5 6 
#
# 1 0.013986 -0.004282 0.001129 0.004123 -0.008064 0.004869
# 2 -0.004282 0.016292 -0.003280 -0.001116 0.000131 -0.006308
# 3 0.001129 -0.003280 0.010033 0.005647 -0.007598 -0.001111
# 4 0.004123 -0.001116 0.005647 0.031793 -0.015756 0.007614
# 5 -0.008064 0.000131 -0.007598 -0.015756 0.036152 0.006004
# 6 0.004869 -0.006308 -0.001111 0.007614 0.006004 0.054502
#
#
# Mechanical properties :
#
#
# Convention : Reuss Voigt Hill
#
# Bulk Modulus (GPa) = 36.43406 50.44184 43.43795
# Shear Modulus (GPa) = 27.06064 38.73724 32.89894
#
# Velocity S-wave (km/s) = 3.34486 4.00196 3.68807
# Velocity P-wave (km/s) = 5.47548 6.49686 6.00792
#
# Compressibility (1/GPa) = 0.02744684
#
# Stress axis : x y z
#
# Youngs Moduli (GPa) = 71.50194 61.37875 99.67348
#
# Poissons Ratio (x) = 0.26279 -0.11254
# Poissons Ratio (y) = 0.30614 0.32688
# Poissons Ratio (z) = -0.08073 0.20129
#
# Static dielectric constant tensor:
#      x y z
#    x 1.965800 0.049510 -0.023170 
#    y 0.049510 2.093360 0.036210 
#    z -0.023170 0.036210 2.000210 
# 
# From -- ./inp_files/288520.got.cif
#   From: 2010.05.17/outbox.cif.g08.bks.cpg/sg2_145_cif.got.tgz:288520.got - 2010.06.03 11:33:40.
