data_PCOD9017944
_publ_section_title
;
Structure prediction by ZEFSAII (Michael W. Deem and Ramdas Pophale) SiO2 
 PCOD9017944
Probable space group: P -1
;
_chemical_formula_sum "Si O2"
_cell_formula_units_Z 16
_cell_length_a 12.691868
_cell_length_b 7.520252
_cell_length_c 7.876626
_cell_angle_alpha 114.097021
_cell_angle_beta 91.302789
_cell_angle_gamma 101.467837
_cell_volume 668.025506
_symmetry_space_group_name_H-M "P -1"
_symmetry_group_IT_number 2
_symmetry_cell_setting 'triclinic'
loop_
_space_group_symop_operation_xyz
x,y,z
-x,-y,-z
loop_
_atom_site_type_symbol
_atom_site_label
_atom_site_fract_x
_atom_site_fract_y
_atom_site_fract_z
Si Si1 0.138558 0.815098 0.382370
Si Si2 0.555857 0.605702 0.207620
Si Si3 0.105848 0.937188 0.044463
Si Si4 0.481107 0.823781 0.789219
Si Si5 0.708926 0.742897 0.702257
Si Si6 0.364298 0.728291 0.418220
Si Si7 0.791616 0.783231 0.335708
Si Si8 0.049732 0.502289 0.814929
O O1 0.101776 0.884307 0.225445
O O2 0.262591 0.796451 0.360973
O O3 0.053370 0.609652 0.343630
O O4 0.141731 0.989332 0.586750
O O5 0.560411 0.409170 0.243336
O O6 0.477140 0.740262 0.328953
O O7 0.675491 0.730607 0.223398
O O8 0.500000 0.500000 0.000000
O O9 0.209265 0.121248 0.110231
O O10 0.107470 0.730717 0.868803
O O11 0.000000 0.000000 0.000000
O O12 0.599958 0.824030 0.721251
O O13 0.397686 0.836735 0.641115
O O14 0.500000 0.000000 0.000000
O O15 0.677712 0.511304 0.658838
O O16 0.761502 0.755980 0.523665
O O17 0.862971 0.630579 0.231285
O O18 0.000000 0.500000 0.000000
#
# Coordination Sequence:
#
# PCOD9017944 Si02
#       8
#     2   2   2   2   2   2   2   2
#     4  10  24  41  67  97 130 181 220 281 338 398
#     4  11  25  40  69 103 139 181 226 277 336 408
#     4  10  22  42  67  97 128 173 226 282 332 405
#     4  11  24  43  66  99 142 179 224 278 339 409
#     4  10  21  43  67  95 133 184 221 273 341 400
#     4  11  22  46  69  98 147 179 222 283 337 406
#     4  11  22  43  67  96 136 178 228 272 338 406
#     4  10  23  43  66  95 134 170 226 286 332 398
#
# _framework density 23.951180000000001
#
# number of rings (size 3 to 8) (size 9 to 14) (size 15 to 20)
#    0.000    1.500    2.500    1.875    7.000    1.500 
#    2.250   10.625    0.000    0.000    0.000    0.000 
#    0.000    0.000    0.000    0.000    0.000    0.000 
#
# Total GULP energy -89482.697629 kJ/mol
# GULP energy per Si atom -5592.668602 kJ/mol
# Density = 2.389667 g / cm^3
# Si number density = 23.951180 Si / 1000 Ang^3
#
#
#
# Elastic Constant Matrix: (Units=GPa)
#
#
# Indices 1 2 3 4 5 6 
#
# 1 146.9956 38.4213 77.4145 16.2753 21.2654 -21.5948
# 2 38.4213 73.9423 46.9121 25.2246 12.2633 -3.9896
# 3 77.4145 46.9121 130.2784 38.3592 27.0652 -7.5235
# 4 16.2753 25.2246 38.3592 49.6280 3.5883 6.8950
# 5 21.2654 12.2633 27.0652 3.5883 60.1924 7.7682
# 6 -21.5948 -3.9896 -7.5235 6.8950 7.7682 42.5354
#
#
#
# Elastic Compliance Matrix: (Units=1/GPa)
#
#
# Indices 1 2 3 4 5 6 
#
# 1 0.011054 -0.002120 -0.005575 0.001251 -0.001625 0.004521
# 2 -0.002120 0.019348 -0.003357 -0.006644 -0.001480 0.001492
# 3 -0.005575 -0.003357 0.015659 -0.008516 -0.004107 0.001755
# 4 0.001251 -0.006644 -0.008516 0.030411 0.003848 -0.007127
# 5 -0.001625 -0.001480 -0.004107 0.003848 0.019873 -0.005943
# 6 0.004521 0.001492 0.001755 -0.007127 -0.005943 0.028496
#
#
# Mechanical properties :
#
#
# Convention : Reuss Voigt Hill
#
# Bulk Modulus (GPa) = 41.74175 75.19025 58.46600
# Shear Modulus (GPa) = 32.27243 43.03572 37.65407
#
# Velocity S-wave (km/s) = 3.67471 4.24348 3.96930
# Velocity P-wave (km/s) = 5.95570 7.44787 6.74319
#
# Compressibility (1/GPa) = 0.02395683
#
# Stress axis : x y z
#
# Youngs Moduli (GPa) = 90.46835 51.68412 63.85989
#
# Poissons Ratio (x) = 0.10958 0.35599
# Poissons Ratio (y) = 0.19181 0.21441
# Poissons Ratio (z) = 0.50432 0.17353
#
# Static dielectric constant tensor:
#      x y z
#    x 1.911740 0.005420 0.031950 
#    y 0.005420 2.077060 -0.024370 
#    z 0.031950 -0.024370 1.943200 
# 
# From -- ./inp_files/246086.got.cif
#   From: 2010.05.17/outbox.cif.g08.bks.cpg/sg2_124_cif.got.tgz:246086.got - 2010.06.03 11:33:40.
