data_PCOD9017782
_publ_section_title
;
Structure prediction by ZEFSAII (Michael W. Deem and Ramdas Pophale) SiO2 
 PCOD9017782
Probable space group: P -1
;
_chemical_formula_sum "Si O2"
_cell_formula_units_Z 16
_cell_length_a 9.235087
_cell_length_b 14.250023
_cell_length_c 15.185889
_cell_angle_alpha 42.324006
_cell_angle_beta 41.258945
_cell_angle_gamma 65.448861
_cell_volume 841.926787
_symmetry_space_group_name_H-M "P -1"
_symmetry_group_IT_number 2
_symmetry_cell_setting 'triclinic'
loop_
_space_group_symop_operation_xyz
x,y,z
-x,-y,-z
loop_
_atom_site_type_symbol
_atom_site_label
_atom_site_fract_x
_atom_site_fract_y
_atom_site_fract_z
Si Si1 0.099692 0.420215 0.735748
Si Si2 0.515100 0.066615 0.848740
Si Si3 0.037666 0.993151 0.383093
Si Si4 0.493580 0.620676 0.308463
Si Si5 0.690640 0.461284 0.000056
Si Si6 0.691270 0.152592 0.050175
Si Si7 0.522487 0.885048 0.642650
Si Si8 0.647467 0.692543 0.992832
O O1 0.246613 0.509866 0.525827
O O2 0.293663 0.421423 0.718079
O O3 0.943360 0.260188 0.884633
O O4 0.918311 0.486956 0.818890
O O5 0.489391 0.224431 0.762735
O O6 0.761719 0.074309 0.688054
O O7 0.500000 0.000000 0.000000
O O8 0.328684 0.960282 0.941910
O O9 0.135992 0.162083 0.189221
O O10 0.000000 0.000000 0.500000
O O11 0.793493 0.906481 0.513516
O O12 0.524720 0.635920 0.179717
O O13 0.609435 0.289830 0.186026
O O14 0.500000 0.500000 0.000000
O O15 0.723066 0.570428 0.991558
O O16 0.573263 0.076054 0.247169
O O17 0.530542 0.250971 0.023822
O O18 0.500000 0.000000 0.500000
#
# Coordination Sequence:
#
# PCOD9017782 Si02
#       8
#     2   2   2   2   2   2   2   2
#     4  10  25  44  65  89 136 168 214 280 324 387
#     4  11  22  40  67  93 126 174 218 258 327 387
#     4  11  21  40  66  94 128 170 217 272 317 393
#     4  11  25  44  61  96 133 174 215 267 332 388
#     4  11  22  44  71  94 125 176 219 269 328 383
#     4  10  21  43  66  94 128 167 219 274 313 393
#     4  11  24  41  64 102 133 162 216 279 333 376
#     4  11  22  41  67  97 127 166 227 268 321 393
#
# _framework density 19.004027000000001
#
# number of rings (size 3 to 8) (size 9 to 14) (size 15 to 20)
#    0.000    1.250    7.500    0.000    7.000    1.500 
#    6.750    0.000    0.000    0.000    0.000    0.000 
#    0.000    0.000    0.000    0.000    0.000    0.000 
#
# Total GULP energy -89314.844094 kJ/mol
# GULP energy per Si atom -5582.177756 kJ/mol
# Density = 1.896077 g / cm^3
# Si number density = 19.004027 Si / 1000 Ang^3
#
#
#
# Elastic Constant Matrix: (Units=GPa)
#
#
# Indices 1 2 3 4 5 6 
#
# 1 49.8352 18.2691 46.2204 15.5976 10.1050 7.4208
# 2 18.2691 82.2767 27.8854 24.0602 1.9597 8.4531
# 3 46.2204 27.8854 137.4539 24.3257 10.6303 -0.6989
# 4 15.5976 24.0602 24.3257 30.5538 1.8866 0.4354
# 5 10.1050 1.9597 10.6303 1.8866 42.8944 2.3320
# 6 7.4208 8.4531 -0.6989 0.4354 2.3320 29.0216
#
#
#
# Elastic Compliance Matrix: (Units=1/GPa)
#
#
# Indices 1 2 3 4 5 6 
#
# 1 0.034029 -0.000843 -0.009378 -0.008827 -0.004822 -0.008162
# 2 -0.000843 0.016589 -0.001061 -0.011753 0.000465 -0.004503
# 3 -0.009378 -0.001061 0.011302 -0.003384 -0.000561 0.003075
# 4 -0.008827 -0.011753 -0.003384 0.049053 0.001038 0.004780
# 5 -0.004822 0.000465 -0.000561 0.001038 0.024570 -0.000906
# 6 -0.008162 -0.004503 0.003075 0.004780 -0.000906 0.037931
#
#
# Mechanical properties :
#
#
# Convention : Reuss Voigt Hill
#
# Bulk Modulus (GPa) = 25.40867 50.47954 37.94410
# Shear Modulus (GPa) = 23.90555 32.30669 28.10612
#
# Velocity S-wave (km/s) = 3.55057 4.12757 3.84989
# Velocity P-wave (km/s) = 5.49617 7.02396 6.30650
#
# Compressibility (1/GPa) = 0.03935665
#
# Stress axis : x y z
#
# Youngs Moduli (GPa) = 29.38702 60.27938 88.48113
#
# Poissons Ratio (x) = 0.05080 0.82977
# Poissons Ratio (y) = 0.02476 0.09388
# Poissons Ratio (z) = 0.27559 0.06396
#
# Static dielectric constant tensor:
#      x y z
#    x 1.671790 0.000600 -0.002240 
#    y 0.000600 1.660210 -0.013830 
#    z -0.002240 -0.013830 1.666150 
# 
# From -- ./inp_files/319116.got.cif
#   From: 2010.05.17/outbox.cif.g08.bks.cpg/sg2_160_cif.got.tgz:319116.got - 2010.06.03 11:33:40.
