data_PCOD9017673
_publ_section_title
;
Structure prediction by ZEFSAII (Michael W. Deem and Ramdas Pophale) SiO2 
 PCOD9017673
Probable space group: P -1
;
_chemical_formula_sum "Si O2"
_cell_formula_units_Z 16
_cell_length_a 6.861776
_cell_length_b 20.271077
_cell_length_c 5.247257
_cell_angle_alpha 76.928058
_cell_angle_beta 103.392864
_cell_angle_gamma 78.526307
_cell_volume 666.857070
_symmetry_space_group_name_H-M "P -1"
_symmetry_group_IT_number 2
_symmetry_cell_setting 'triclinic'
loop_
_space_group_symop_operation_xyz
x,y,z
-x,-y,-z
loop_
_atom_site_type_symbol
_atom_site_label
_atom_site_fract_x
_atom_site_fract_y
_atom_site_fract_z
Si Si1 0.218389 0.234387 0.821504
Si Si2 0.914566 0.606294 0.349270
Si Si3 0.610775 0.142747 0.261002
Si Si4 0.339383 0.106380 0.589987
Si Si5 0.873412 0.365554 0.122858
Si Si6 0.146040 0.989078 0.806694
Si Si7 0.971737 0.206482 0.186919
Si Si8 0.459445 0.458445 0.772884
O O1 0.217996 0.313736 0.706965
O O2 0.291794 0.177976 0.673578
O O3 0.399004 0.203257 0.108685
O O4 0.999258 0.229005 0.881712
O O5 0.761368 0.556988 0.329723
O O6 0.081477 0.597053 0.636981
O O7 0.013492 0.607400 0.100833
O O8 0.553464 0.095857 0.511752
O O9 0.693085 0.087649 0.105986
O O10 0.785041 0.184046 0.285010
O O11 0.148656 0.132159 0.311082
O O12 0.284480 0.044710 0.783580
O O13 0.966954 0.281517 0.249552
O O14 0.634885 0.385031 0.942051
O O15 0.000000 0.000000 0.500000
O O16 0.000000 0.000000 0.000000
O O17 0.500000 0.500000 0.500000
O O18 0.500000 0.500000 0.000000
#
# Coordination Sequence:
#
# PCOD9017673 Si02
#       8
#     2   2   2   2   2   2   2   2
#     4  10  23  41  67  99 132 179 228 294 343 422
#     4  11  24  46  72 103 144 183 237 290 349 417
#     4  11  24  41  67  97 135 182 228 294 357 410
#     4  11  23  42  67  98 133 173 235 285 351 414
#     4  11  24  45  73 103 139 193 228 291 354 411
#     4  12  27  45  69  94 137 187 232 285 348 422
#     4  10  21  43  65  97 135 175 232 285 350 415
#     4  12  27  46  70 108 145 186 238 284 340 428
#
# _framework density 23.993148999999999
#
# number of rings (size 3 to 8) (size 9 to 14) (size 15 to 20)
#    0.000    1.000    2.500    3.375    3.500    4.500 
#    4.500    0.000    0.000    0.000    0.000    0.000 
#    0.000    0.000    0.000    0.000    0.000    0.000 
#
# Total GULP energy -89264.643920 kJ/mol
# GULP energy per Si atom -5579.040245 kJ/mol
# Density = 2.393854 g / cm^3
# Si number density = 23.993149 Si / 1000 Ang^3
#
#
#
# Elastic Constant Matrix: (Units=GPa)
#
#
# Indices 1 2 3 4 5 6 
#
# 1 127.6508 31.0797 38.1403 -3.5044 -27.3363 29.4356
# 2 31.0797 106.4156 36.7800 -1.5715 -17.2753 7.1462
# 3 38.1403 36.7800 113.3281 9.9243 -18.1115 15.8417
# 4 -3.5044 -1.5715 9.9243 31.6256 -11.6431 0.1956
# 5 -27.3363 -17.2753 -18.1115 -11.6431 45.8004 -15.5049
# 6 29.4356 7.1462 15.8417 0.1956 -15.5049 41.9016
#
#
#
# Elastic Compliance Matrix: (Units=1/GPa)
#
#
# Indices 1 2 3 4 5 6 
#
# 1 0.011015 -0.001370 -0.002157 0.003467 0.004363 -0.005091
# 2 -0.001370 0.011368 -0.003118 0.002633 0.003396 0.001447
# 3 -0.002157 -0.003118 0.011233 -0.003790 0.000316 -0.002065
# 4 0.003467 0.002633 -0.003790 0.037774 0.012135 0.002862
# 5 0.004363 0.003396 0.000316 0.012135 0.031593 0.007870
# 6 -0.005091 0.001447 -0.002065 0.002862 0.007870 0.030875
#
#
# Mechanical properties :
#
#
# Convention : Reuss Voigt Hill
#
# Bulk Modulus (GPa) = 49.20121 62.15494 55.67807
# Shear Modulus (GPa) = 32.48329 39.95848 36.22089
#
# Velocity S-wave (km/s) = 3.68347 4.08537 3.88962
# Velocity P-wave (km/s) = 6.21623 6.94372 6.59002
#
# Compressibility (1/GPa) = 0.02032470
#
# Stress axis : x y z
#
# Youngs Moduli (GPa) = 90.78189 87.96505 89.02306
#
# Poissons Ratio (x) = 0.12053 0.19205
# Poissons Ratio (y) = 0.12439 0.27761
# Poissons Ratio (z) = 0.19584 0.27431
#
# Static dielectric constant tensor:
#      x y z
#    x 1.996810 -0.020140 0.126460 
#    y -0.020140 1.895700 -0.037870 
#    z 0.126460 -0.037870 2.201080 
# 
# From -- ./inp_files/10811.got.cif
#   From: 2010.05.17/outbox.cif.g08.bks.cpg/sg2_6_cif.got.tgz:10811.got - 2010.06.03 11:33:40.
