data_PCOD9017785
_publ_section_title
;
Structure prediction by ZEFSAII (Michael W. Deem and Ramdas Pophale) SiO2 
 PCOD9017785
Probable space group: P -1
;
_chemical_formula_sum "Si O2"
_cell_formula_units_Z 14
_cell_length_a 9.249306
_cell_length_b 12.938425
_cell_length_c 13.713434
_cell_angle_alpha 30.718186
_cell_angle_beta 90.404889
_cell_angle_gamma 110.707680
_cell_volume 614.366020
_symmetry_space_group_name_H-M "P -1"
_symmetry_group_IT_number 2
_symmetry_cell_setting 'triclinic'
loop_
_space_group_symop_operation_xyz
x,y,z
-x,-y,-z
loop_
_atom_site_type_symbol
_atom_site_label
_atom_site_fract_x
_atom_site_fract_y
_atom_site_fract_z
Si Si1 0.989553 0.872591 0.706729
Si Si2 0.009930 0.807812 0.374716
Si Si3 0.431882 0.070907 0.201861
Si Si4 0.692847 0.759129 0.344085
Si Si5 0.582873 0.797543 0.510883
Si Si6 0.576330 0.294420 0.222532
Si Si7 0.329198 0.810244 0.071358
O O1 0.801339 0.548530 0.985992
O O2 0.000000 0.000000 0.500000
O O3 0.979388 0.034825 0.658643
O O4 0.192823 0.940723 0.666348
O O5 0.895687 0.830917 0.274367
O O6 0.861451 0.481664 0.653139
O O7 0.226710 0.926570 0.267017
O O8 0.462280 0.867713 0.404849
O O9 0.457757 0.216372 0.185398
O O10 0.595090 0.241945 0.980284
O O11 0.500000 0.500000 0.500000
O O12 0.622728 0.679473 0.520829
O O13 0.726644 0.022284 0.103600
O O14 0.471780 0.620405 0.750804
O O15 0.500000 0.000000 0.500000
O O16 0.500000 0.000000 0.000000
#
# Coordination Sequence:
#
# PCOD9017785 Si02
#       7
#     2   2   2   2   2   2   2
#     4  11  23  40  66 101 141 182 225 276 342 406
#     4  11  24  41  67  96 131 173 224 273 341 398
#     4  10  23  40  65  98 131 168 224 274 332 399
#     4  10  21  43  66  94 129 174 224 279 334 398
#     4   9  22  40  66  94 137 177 222 276 337 400
#     4  10  22  41  67 100 136 178 226 274 336 407
#     4  11  23  44  68  90 131 176 222 279 339 397
#
# _framework density 22.787718999999999
#
# number of rings (size 3 to 8) (size 9 to 14) (size 15 to 20)
#    0.000    1.714    1.429    1.714    0.000   14.286 
#    0.000    2.143    0.000    0.000    0.000    0.000 
#    0.000    0.000    0.000    0.000    0.000    0.000 
#
# Total GULP energy -78140.873445 kJ/mol
# GULP energy per Si atom -5581.490960 kJ/mol
# Density = 2.273585 g / cm^3
# Si number density = 22.787719 Si / 1000 Ang^3
#
#
#
# Elastic Constant Matrix: (Units=GPa)
#
#
# Indices 1 2 3 4 5 6 
#
# 1 127.0436 16.5271 43.1948 4.1208 -7.6462 48.7580
# 2 16.5271 83.2797 22.9232 1.1910 -9.2506 19.9641
# 3 43.1948 22.9232 130.8711 4.8064 5.3473 20.2727
# 4 4.1208 1.1910 4.8064 30.6979 6.8115 -4.8913
# 5 -7.6462 -9.2506 5.3473 6.8115 40.0097 -0.4484
# 6 48.7580 19.9641 20.2727 -4.8913 -0.4484 39.0108
#
#
#
# Elastic Compliance Matrix: (Units=1/GPa)
#
#
# Indices 1 2 3 4 5 6 
#
# 1 0.018084 0.003639 -0.002887 -0.007159 0.005635 -0.023797
# 2 0.003639 0.015281 -0.002139 -0.003718 0.005017 -0.011666
# 3 -0.002887 -0.002139 0.009092 -0.000487 -0.002180 -0.000108
# 4 -0.007159 -0.003718 -0.000487 0.038155 -0.008482 0.015790
# 5 0.005635 0.005017 -0.002180 -0.008482 0.028863 -0.009210
# 6 -0.023797 -0.011666 -0.000108 0.015790 -0.009210 0.063277
#
#
# Mechanical properties :
#
#
# Convention : Reuss Voigt Hill
#
# Bulk Modulus (GPa) = 25.19956 56.27605 40.73780
# Shear Modulus (GPa) = 26.48938 39.18030 32.83484
#
# Velocity S-wave (km/s) = 3.41316 4.15102 3.80004
# Velocity P-wave (km/s) = 5.15900 6.90825 6.09669
#
# Compressibility (1/GPa) = 0.03968324
#
# Stress axis : x y z
#
# Youngs Moduli (GPa) = 55.29725 65.43942 109.98255
#
# Poissons Ratio (x) = -0.23813 0.31754
# Poissons Ratio (y) = -0.20123 0.23526
# Poissons Ratio (z) = 0.15965 0.13998
#
# Static dielectric constant tensor:
#      x y z
#    x 1.944510 -0.025880 0.076670 
#    y -0.025880 1.870730 -0.026640 
#    z 0.076670 -0.026640 1.850630 
# 
# From -- ./inp_files/521329.got.cif
#   From: 2010.05.17/outbox.cif.g08.bks.cpg/sg2_261_cif.got.tgz:521329.got - 2010.06.03 11:33:40.
