data_PCOD9017384
_publ_section_title
;
Structure prediction by ZEFSAII (Michael W. Deem and Ramdas Pophale) SiO2 
 PCOD9017384
Probable space group: P -1
;
_chemical_formula_sum "Si O2"
_cell_formula_units_Z 16
_cell_length_a 7.882127
_cell_length_b 12.197963
_cell_length_c 10.247355
_cell_angle_alpha 119.283904
_cell_angle_beta 118.393995
_cell_angle_gamma 83.584223
_cell_volume 746.517790
_symmetry_space_group_name_H-M "P -1"
_symmetry_group_IT_number 2
_symmetry_cell_setting 'triclinic'
loop_
_space_group_symop_operation_xyz
x,y,z
-x,-y,-z
loop_
_atom_site_type_symbol
_atom_site_label
_atom_site_fract_x
_atom_site_fract_y
_atom_site_fract_z
Si Si1 0.130382 0.000697 0.842471
Si Si2 0.906633 0.575448 0.295144
Si Si3 0.264477 0.738141 0.657953
Si Si4 0.260545 0.977294 0.149450
Si Si5 0.389216 0.263303 0.701078
Si Si6 0.395358 0.852602 0.519014
Si Si7 0.942385 0.815156 0.297334
Si Si8 0.705776 0.302292 0.059402
O O1 0.912042 0.974247 0.806453
O O2 0.139673 0.117881 0.815831
O O3 0.184690 0.873182 0.724817
O O4 0.267827 0.031325 0.036804
O O5 0.710878 0.616687 0.309843
O O6 0.864960 0.426824 0.170005
O O7 0.087036 0.629786 0.485215
O O8 0.932273 0.661998 0.222343
O O9 0.401269 0.763076 0.596364
O O10 0.343478 0.708536 0.810978
O O11 0.463896 0.017685 0.319506
O O12 0.213703 0.825959 0.026915
O O13 0.516448 0.210736 0.608148
O O14 0.198676 0.164571 0.620882
O O15 0.520204 0.303839 0.899791
O O16 0.171328 0.866405 0.421906
#
# Coordination Sequence:
#
# PCOD9017384 Si02
#       8
#     2   2   2   2   2   2   2   2
#     4  10  21  43  60 101 129 163 213 258 329 365
#     4   9  21  42  65  91 125 169 211 263 309 374
#     4  10  23  39  69  93 125 170 209 265 313 379
#     4  10  24  37  67  95 132 168 205 267 311 385
#     4  10  23  41  65  94 127 167 210 263 312 370
#     4  11  23  42  61  99 130 161 216 256 324 372
#     4   9  23  40  66  92 125 168 203 267 310 372
#     4  11  22  41  66  93 126 174 212 251 324 373
#
# _framework density 21.432843999999999
#
# number of rings (size 3 to 8) (size 9 to 14) (size 15 to 20)
#    0.750    1.250    0.000    2.250    3.500    6.000 
#    0.000    6.250    0.000    0.000    0.000    0.000 
#    0.000    0.000    0.000    0.000    0.000    0.000 
#
# Total GULP energy -89289.062411 kJ/mol
# GULP energy per Si atom -5580.566401 kJ/mol
# Density = 2.138406 g / cm^3
# Si number density = 21.432844 Si / 1000 Ang^3
#
#
#
# Elastic Constant Matrix: (Units=GPa)
#
#
# Indices 1 2 3 4 5 6 
#
# 1 92.6838 16.7259 52.1350 -6.7947 -3.6722 4.6427
# 2 16.7259 77.6034 57.0660 5.7386 -6.4401 21.4684
# 3 52.1350 57.0660 123.2032 -5.6586 0.4628 8.8105
# 4 -6.7947 5.7386 -5.6586 24.1506 3.3159 2.1123
# 5 -3.6722 -6.4401 0.4628 3.3159 17.9546 -7.8748
# 6 4.6427 21.4684 8.8105 2.1123 -7.8748 20.3018
#
#
#
# Elastic Compliance Matrix: (Units=1/GPa)
#
#
# Indices 1 2 3 4 5 6 
#
# 1 0.014774 0.003117 -0.007466 0.001467 0.002998 -0.002424
# 2 0.003117 0.029931 -0.013775 -0.007619 0.002302 -0.024700
# 3 -0.007466 -0.013775 0.017493 0.005463 -0.005265 0.006072
# 4 0.001467 -0.007619 0.005463 0.047159 -0.013362 -0.004740
# 5 0.002998 0.002302 -0.005265 -0.013362 0.072278 0.028591
# 6 -0.002424 -0.024700 0.006072 -0.004740 0.028591 0.084879
#
#
# Mechanical properties :
#
#
# Convention : Reuss Voigt Hill
#
# Bulk Modulus (GPa) = 38.53525 60.59381 49.56453
# Shear Modulus (GPa) = 16.05582 23.65229 19.85406
#
# Velocity S-wave (km/s) = 2.73998 3.32558 3.04688
# Velocity P-wave (km/s) = 5.29420 6.56345 5.96269
#
# Compressibility (1/GPa) = 0.02595027
#
# Stress axis : x y z
#
# Youngs Moduli (GPa) = 67.68444 33.40986 57.16593
#
# Poissons Ratio (x) = -0.10414 0.42681
# Poissons Ratio (y) = -0.21097 0.78746
# Poissons Ratio (z) = 0.50535 0.46022
#
# Static dielectric constant tensor:
#      x y z
#    x 1.778670 0.014720 0.011560 
#    y 0.014720 1.840810 -0.018410 
#    z 0.011560 -0.018410 1.779530 
# 
# From -- ./inp_files/393199.got.cif
#   From: 2010.05.17/outbox.cif.g08.bks.cpg/sg2_197_cif.got.tgz:393199.got - 2010.06.03 11:33:40.
