data_PCOD9017700
_publ_section_title
;
Structure prediction by ZEFSAII (Michael W. Deem and Ramdas Pophale) SiO2 
 PCOD9017700
Probable space group: P -1
;
_chemical_formula_sum "Si O2"
_cell_formula_units_Z 16
_cell_length_a 6.888147
_cell_length_b 7.931635
_cell_length_c 17.604426
_cell_angle_alpha 99.091946
_cell_angle_beta 44.827532
_cell_angle_gamma 101.273541
_cell_volume 664.704593
_symmetry_space_group_name_H-M "P -1"
_symmetry_group_IT_number 2
_symmetry_cell_setting 'triclinic'
loop_
_space_group_symop_operation_xyz
x,y,z
-x,-y,-z
loop_
_atom_site_type_symbol
_atom_site_label
_atom_site_fract_x
_atom_site_fract_y
_atom_site_fract_z
Si Si1 0.250021 0.008592 0.275819
Si Si2 0.914169 0.528156 0.425857
Si Si3 0.217813 0.054124 0.119222
Si Si4 0.358809 0.118470 0.738682
Si Si5 0.516701 0.388238 0.229376
Si Si6 0.403018 0.456421 0.108129
Si Si7 0.842078 0.187940 0.507286
Si Si8 0.833212 0.572719 0.280788
O O1 0.161470 0.971542 0.212443
O O2 0.456048 0.184242 0.224247
O O3 0.008038 0.066546 0.400596
O O4 0.421172 0.865832 0.252873
O O5 0.760624 0.354833 0.495573
O O6 0.780996 0.562274 0.384478
O O7 0.222830 0.465618 0.327664
O O8 0.961491 0.701834 0.476058
O O9 0.265071 0.258409 0.130488
O O10 0.918652 0.992586 0.161669
O O11 0.500000 0.000000 0.000000
O O12 0.574832 0.072837 0.609233
O O13 0.263926 0.285866 0.738701
O O14 0.605985 0.464073 0.126083
O O15 0.694960 0.412558 0.258171
O O16 0.161186 0.574894 0.191973
O O17 0.500000 0.500000 0.000000
#
# Coordination Sequence:
#
# PCOD9017700 Si02
#       8
#     2   2   2   2   2   2   2   2
#     4  10  24  44  66  94 143 177 216 279 330 404
#     4   9  20  40  62  96 135 172 219 275 321 391
#     4  11  26  48  69  96 133 176 226 281 339 396
#     4  12  25  40  66 104 134 181 218 266 346 402
#     4   9  19  41  64  92 129 171 222 265 330 394
#     4  10  22  42  69  94 125 169 224 289 331 383
#     4  10  21  43  65  99 140 180 220 273 335 398
#     4  11  22  38  67  97 131 175 222 273 328 402
#
# _framework density 24.070844000000001
#
# number of rings (size 3 to 8) (size 9 to 14) (size 15 to 20)
#    0.000    1.750    1.250    2.625    1.750    3.000 
#    2.250    0.000    0.000    0.000    0.000    0.000 
#    0.000    0.000    0.000    0.000    0.000    0.000 
#
# Total GULP energy -89156.858878 kJ/mol
# GULP energy per Si atom -5572.303680 kJ/mol
# Density = 2.401606 g / cm^3
# Si number density = 24.070844 Si / 1000 Ang^3
#
#
#
# Elastic Constant Matrix: (Units=GPa)
#
#
# Indices 1 2 3 4 5 6 
#
# 1 95.8616 6.9200 29.1275 10.7205 2.6625 -14.0511
# 2 6.9200 77.1791 4.4829 3.4967 -9.1472 -14.4844
# 3 29.1275 4.4829 100.8384 -8.8487 0.6178 -6.3426
# 4 10.7205 3.4967 -8.8487 28.9563 -2.2825 -0.7217
# 5 2.6625 -9.1472 0.6178 -2.2825 29.6848 -0.7015
# 6 -14.0511 -14.4844 -6.3426 -0.7217 -0.7015 38.8258
#
#
#
# Elastic Compliance Matrix: (Units=1/GPa)
#
#
# Indices 1 2 3 4 5 6 
#
# 1 0.012936 -0.000108 -0.004009 -0.006023 -0.001482 0.003848
# 2 -0.000108 0.014604 -0.000426 -0.001361 0.004542 0.005396
# 3 -0.004009 -0.000426 0.011564 0.005110 0.000390 0.000381
# 4 -0.006023 -0.001361 0.005110 0.038697 0.002964 -0.001080
# 5 -0.001482 0.004542 0.000390 0.002964 0.035485 0.001918
# 6 0.003848 0.005396 0.000381 -0.001080 0.001918 0.029239
#
#
# Mechanical properties :
#
#
# Convention : Reuss Voigt Hill
#
# Bulk Modulus (GPa) = 33.31309 39.43777 36.37543
# Shear Modulus (GPa) = 30.93738 35.04999 32.99369
#
# Velocity S-wave (km/s) = 3.58895 3.82005 3.70630
# Velocity P-wave (km/s) = 5.57169 5.98971 5.78448
#
# Compressibility (1/GPa) = 0.03001823
#
# Stress axis : x y z
#
# Youngs Moduli (GPa) = 77.30131 68.47464 86.47624
#
# Poissons Ratio (x) = 0.00737 0.34671
# Poissons Ratio (y) = 0.00832 0.03684
# Poissons Ratio (z) = 0.30992 0.02917
#
# Static dielectric constant tensor:
#      x y z
#    x 1.986050 0.045230 0.065350 
#    y 0.045230 1.985940 -0.014050 
#    z 0.065350 -0.014050 2.066580 
# 
# From -- ./inp_files/548073.got.cif
#   From: 2010.05.17/outbox.cif.g08.bks.cpg/sg2_275_cif.got.tgz:548073.got - 2010.06.03 11:33:40.
