data_PCOD9017674
_publ_section_title
;
Structure prediction by ZEFSAII (Michael W. Deem and Ramdas Pophale) SiO2 
 PCOD9017674
Probable space group: P -1
;
_chemical_formula_sum "Si O2"
_cell_formula_units_Z 16
_cell_length_a 8.936366
_cell_length_b 9.329850
_cell_length_c 13.365038
_cell_angle_alpha 90.820785
_cell_angle_beta 86.435763
_cell_angle_gamma 147.347337
_cell_volume 598.559775
_symmetry_space_group_name_H-M "P -1"
_symmetry_group_IT_number 2
_symmetry_cell_setting 'triclinic'
loop_
_space_group_symop_operation_xyz
x,y,z
-x,-y,-z
loop_
_atom_site_type_symbol
_atom_site_label
_atom_site_fract_x
_atom_site_fract_y
_atom_site_fract_z
Si Si1 0.572945 0.297500 0.760967
Si Si2 0.513913 0.964630 0.649809
Si Si3 0.190986 0.933690 0.165482
Si Si4 0.596564 0.792699 0.502734
Si Si5 0.120441 0.749039 0.962608
Si Si6 0.999940 0.072405 0.109639
Si Si7 0.181464 0.283954 0.389248
Si Si8 0.903332 0.441724 0.205920
O O1 0.298588 0.132818 0.827765
O O2 0.739870 0.570325 0.714106
O O3 0.789599 0.375190 0.814433
O O4 0.521826 0.140599 0.670757
O O5 0.607906 0.962117 0.546505
O O6 0.194364 0.659164 0.678485
O O7 0.666445 0.004294 0.737237
O O8 0.150424 0.070886 0.167639
O O9 0.902649 0.606777 0.177471
O O10 0.283615 0.957137 0.049044
O O11 0.310382 0.499063 0.467721
O O12 0.661634 0.737033 0.592079
O O13 0.858285 0.988186 0.418124
O O14 0.269133 0.808353 0.857562
O O15 0.904217 0.693070 0.928868
O O16 0.000000 0.500000 0.000000
O O17 0.000000 0.000000 0.000000
#
# Coordination Sequence:
#
# PCOD9017674 Si02
#       8
#     2   2   2   2   2   2   2   2
#     4  11  25  42  70 101 139 185 236 298 358 431
#     4  11  24  42  68 100 140 187 227 296 356 433
#     4   9  22  39  63  95 132 183 227 289 346 423
#     4  10  25  46  72 106 147 185 239 299 369 435
#     4   9  18  40  63  88 134 175 227 284 345 413
#     4  10  21  43  65  97 135 177 234 292 348 419
#     4  10  25  47  73 107 142 189 236 301 367 438
#     4  10  22  41  60 100 132 183 232 283 357 420
#
# _framework density 26.730830000000001
#
# number of rings (size 3 to 8) (size 9 to 14) (size 15 to 20)
#    0.000    2.000    1.250    0.000    7.000    4.500 
#   11.250    1.250    0.000    0.000    0.000    0.000 
#    0.000    0.000    0.000    0.000    0.000    0.000 
#
# Total GULP energy -89174.316089 kJ/mol
# GULP energy per Si atom -5573.394756 kJ/mol
# Density = 2.666999 g / cm^3
# Si number density = 26.730830 Si / 1000 Ang^3
#
#
#
# Elastic Constant Matrix: (Units=GPa)
#
#
# Indices 1 2 3 4 5 6 
#
# 1 140.0593 42.9588 25.4258 4.8888 27.6935 -33.2096
# 2 42.9588 87.1758 9.8530 -2.4466 -5.4570 -26.2009
# 3 25.4258 9.8530 67.5837 2.0696 -5.6043 -8.3003
# 4 4.8888 -2.4466 2.0696 47.3344 -9.5676 2.6249
# 5 27.6935 -5.4570 -5.6043 -9.5676 54.6411 -0.5661
# 6 -33.2096 -26.2009 -8.3003 2.6249 -0.5661 58.2711
#
#
#
# Elastic Compliance Matrix: (Units=1/GPa)
#
#
# Indices 1 2 3 4 5 6 
#
# 1 0.011792 -0.004683 -0.003759 -0.003003 -0.007312 0.004144
# 2 -0.004683 0.015335 0.000346 0.001899 0.004317 0.004232
# 3 -0.003759 0.000346 0.016502 0.000413 0.003708 0.000381
# 4 -0.003003 0.001899 0.000413 0.022771 0.005723 -0.001769
# 5 -0.007312 0.004317 0.003708 0.005723 0.023803 -0.001725
# 6 0.004144 0.004232 0.000381 -0.001769 -0.001725 0.021543
#
#
# Mechanical properties :
#
#
# Convention : Reuss Voigt Hill
#
# Bulk Modulus (GPa) = 36.44778 50.14377 43.29577
# Shear Modulus (GPa) = 36.47412 46.48807 41.48109
#
# Velocity S-wave (km/s) = 3.69792 4.17480 3.94357
# Velocity P-wave (km/s) = 5.64779 6.48368 6.08011
#
# Compressibility (1/GPa) = 0.02743652
#
# Stress axis : x y z
#
# Youngs Moduli (GPa) = 84.80582 65.21043 60.59894
#
# Poissons Ratio (x) = 0.30535 0.22779
# Poissons Ratio (y) = 0.39711 -0.02094
# Poissons Ratio (z) = 0.31878 -0.02253
#
# Static dielectric constant tensor:
#      x y z
#    x 2.102000 0.029680 0.073280 
#    y 0.029680 2.227650 0.022450 
#    z 0.073280 0.022450 2.427330 
# 
# From -- ./inp_files/495059.got.cif
#   From: 2010.05.17/outbox.cif.g08.bks.cpg/sg2_248_cif.got.tgz:495059.got - 2010.06.03 11:33:40.
