data_PCOD9017425
_publ_section_title
;
Structure prediction by ZEFSAII (Michael W. Deem and Ramdas Pophale) SiO2 
 PCOD9017425
Probable space group: P -1
;
_chemical_formula_sum "Si O2"
_cell_formula_units_Z 14
_cell_length_a 7.497151
_cell_length_b 9.270680
_cell_length_c 13.451705
_cell_angle_alpha 68.784215
_cell_angle_beta 138.845858
_cell_angle_gamma 97.476818
_cell_volume 557.918772
_symmetry_space_group_name_H-M "P -1"
_symmetry_group_IT_number 2
_symmetry_cell_setting 'triclinic'
loop_
_space_group_symop_operation_xyz
x,y,z
-x,-y,-z
loop_
_atom_site_type_symbol
_atom_site_label
_atom_site_fract_x
_atom_site_fract_y
_atom_site_fract_z
Si Si1 0.264169 0.351552 0.148026
Si Si2 0.556172 0.163011 0.692339
Si Si3 0.020239 0.779606 0.282965
Si Si4 0.109774 0.260390 0.307269
Si Si5 0.263351 0.402524 0.919697
Si Si6 0.816465 0.016161 0.318156
Si Si7 0.311381 0.503403 0.596476
O O1 0.216569 0.235329 0.244872
O O2 0.531158 0.418924 0.272948
O O3 0.278724 0.303755 0.052177
O O4 0.000000 0.500000 0.000000
O O5 0.860195 0.136359 0.778830
O O6 0.347470 0.187043 0.503701
O O7 0.466124 0.031178 0.755254
O O8 0.480900 0.329635 0.679454
O O9 0.263011 0.627622 0.454439
O O10 0.762760 0.709658 0.155071
O O11 0.951221 0.886198 0.324490
O O12 0.011973 0.450435 0.233666
O O13 0.853453 0.179314 0.243282
O O14 0.500000 0.500000 0.000000
O O15 0.000000 0.000000 0.500000
O O16 0.000000 0.500000 0.500000
#
# Coordination Sequence:
#
# PCOD9017425 Si02
#       7
#     2   2   2   2   2   2   2
#     4  10  22  39  63  93 134 178 221 278 345 401
#     4  11  21  39  69 102 134 167 227 280 342 397
#     4  12  23  43  70  99 132 176 229 285 340 401
#     4  10  21  43  62  94 135 174 217 277 340 400
#     4  11  24  42  67  98 132 173 229 280 336 406
#     4  10  25  42  65 102 139 172 221 284 345 408
#     4  12  21  37  70 102 131 172 233 296 333 395
#
# _framework density 25.093259
#
# number of rings (size 3 to 8) (size 9 to 14) (size 15 to 20)
#    0.000    1.143    4.286    3.000    0.000    2.286 
#    2.571    1.429    0.000    0.000    0.000    0.000 
#    0.000    0.000    0.000    0.000    0.000    0.000 
#
# Total GULP energy -78358.321160 kJ/mol
# GULP energy per Si atom -5597.022940 kJ/mol
# Density = 2.503615 g / cm^3
# Si number density = 25.093259 Si / 1000 Ang^3
#
#
#
# Elastic Constant Matrix: (Units=GPa)
#
#
# Indices 1 2 3 4 5 6 
#
# 1 138.9155 62.1568 23.9388 7.3087 -15.0347 19.8062
# 2 62.1568 142.6702 42.7819 5.0486 -20.4314 6.8931
# 3 23.9388 42.7819 85.0255 24.7472 -8.6098 -7.6187
# 4 7.3087 5.0486 24.7472 35.9809 2.7743 -7.5358
# 5 -15.0347 -20.4314 -8.6098 2.7743 41.4164 9.3921
# 6 19.8062 6.8931 -7.6187 -7.5358 9.3921 49.8548
#
#
#
# Elastic Compliance Matrix: (Units=1/GPa)
#
#
# Indices 1 2 3 4 5 6 
#
# 1 0.009902 -0.003454 -0.000458 -0.002370 0.002962 -0.004442
# 2 -0.003454 0.010287 -0.004563 0.001955 0.002971 -0.001012
# 3 -0.000458 -0.004563 0.017786 -0.011316 0.001698 0.001501
# 4 -0.002370 0.001955 -0.011316 0.037453 -0.006060 0.005745
# 5 0.002962 0.002971 0.001698 -0.006060 0.029201 -0.007745
# 6 -0.004442 -0.001012 0.001501 0.005745 -0.007745 0.024520
#
#
# Mechanical properties :
#
#
# Convention : Reuss Voigt Hill
#
# Bulk Modulus (GPa) = 47.56132 69.37402 58.46767
# Shear Modulus (GPa) = 32.65694 41.29932 36.97813
#
# Velocity S-wave (km/s) = 3.61144 4.06129 3.84295
# Velocity P-wave (km/s) = 6.03199 7.04972 6.56062
#
# Compressibility (1/GPa) = 0.02102549
#
# Stress axis : x y z
#
# Youngs Moduli (GPa) = 100.99426 97.20809 56.22371
#
# Poissons Ratio (x) = 0.33573 0.02576
# Poissons Ratio (y) = 0.34881 0.25653
# Poissons Ratio (z) = 0.04628 0.44353
#
# Static dielectric constant tensor:
#      x y z
#    x 2.102070 -0.025480 0.065900 
#    y -0.025480 2.061710 -0.070340 
#    z 0.065900 -0.070340 2.012320 
# 
# From -- ./inp_files/392884.got.cif
#   From: 2010.05.17/outbox.cif.g08.bks.cpg/sg2_197_cif.got.tgz:392884.got - 2010.06.03 11:33:40.
