data_PCOD9017018
_publ_section_title
;
Structure prediction by ZEFSAII (Michael W. Deem and Ramdas Pophale) SiO2 
 PCOD9017018
Probable space group: P -1
;
_chemical_formula_sum "Si O2"
_cell_formula_units_Z 16
_cell_length_a 20.285765
_cell_length_b 11.884914
_cell_length_c 17.944905
_cell_angle_alpha 147.517564
_cell_angle_beta 159.741811
_cell_angle_gamma 41.561123
_cell_volume 782.566288
_symmetry_space_group_name_H-M "P -1"
_symmetry_group_IT_number 2
_symmetry_cell_setting 'triclinic'
loop_
_space_group_symop_operation_xyz
x,y,z
-x,-y,-z
loop_
_atom_site_type_symbol
_atom_site_label
_atom_site_fract_x
_atom_site_fract_y
_atom_site_fract_z
Si Si1 0.542298 0.963151 0.610233
Si Si2 0.815616 0.414730 0.934289
Si Si3 0.373737 0.868669 0.962735
Si Si4 0.300337 0.328561 0.179413
Si Si5 0.358241 0.635368 0.961340
Si Si6 0.986475 0.195175 0.540035
Si Si7 0.811413 0.797292 0.396775
Si Si8 0.067890 0.130520 0.965945
O O1 0.392204 0.747606 0.359372
O O2 0.500000 0.000000 0.500000
O O3 0.763409 0.946813 0.853126
O O4 0.524222 0.171770 0.755301
O O5 0.807272 0.570223 0.942407
O O6 0.959444 0.264280 0.979550
O O7 0.890380 0.577826 0.172033
O O8 0.594966 0.841061 0.178480
O O9 0.362408 0.113634 0.098845
O O10 0.279824 0.743827 0.868168
O O11 0.236659 0.788147 0.701861
O O12 0.500000 0.500000 0.500000
O O13 0.174601 0.275912 0.091665
O O14 0.210121 0.455706 0.750491
O O15 0.500000 0.500000 0.000000
O O16 0.067970 0.142438 0.517099
O O17 0.000000 0.000000 0.500000
O O18 0.913504 0.938100 0.653522
#
# Coordination Sequence:
#
# PCOD9017018 Si02
#       8
#     2   2   2   2   2   2   2   2
#     4  12  26  46  66 101 143 176 225 277 338 407
#     4  12  26  43  69 100 141 179 223 280 340 396
#     4  11  23  44  69  99 133 173 230 278 327 404
#     4  12  21  44  71  96 134 175 224 283 331 394
#     4  10  21  42  70  96 129 172 227 275 332 394
#     4  12  25  44  62 100 140 175 225 275 335 406
#     4  11  24  43  73  98 131 181 224 280 341 391
#     4  12  25  44  71 104 130 178 233 274 338 406
#
# _framework density 20.445551999999999
#
# number of rings (size 3 to 8) (size 9 to 14) (size 15 to 20)
#    0.000    0.500    5.000    3.375    0.000    8.000 
#    0.000    0.000    0.000    0.000    0.000    0.000 
#    0.000    0.000    0.000    0.000    0.000    0.000 
#
# Total GULP energy -89456.230317 kJ/mol
# GULP energy per Si atom -5591.014395 kJ/mol
# Density = 2.039902 g / cm^3
# Si number density = 20.445552 Si / 1000 Ang^3
#
#
#
# Elastic Constant Matrix: (Units=GPa)
#
#
# Indices 1 2 3 4 5 6 
#
# 1 65.0739 41.0636 23.7896 -9.5656 -13.0357 13.1850
# 2 41.0636 118.1049 60.9164 -3.7649 -14.5214 5.5710
# 3 23.7896 60.9164 143.3823 -0.9307 -12.0783 1.2017
# 4 -9.5656 -3.7649 -0.9307 48.5461 0.4055 -0.3931
# 5 -13.0357 -14.5214 -12.0783 0.4055 34.8468 3.9193
# 6 13.1850 5.5710 1.2017 -0.3931 3.9193 43.0531
#
#
#
# Elastic Compliance Matrix: (Units=1/GPa)
#
#
# Indices 1 2 3 4 5 6 
#
# 1 0.022823 -0.006501 -0.000405 0.003878 0.006395 -0.006684
# 2 -0.006501 0.013150 -0.004386 -0.000356 0.001501 0.000272
# 3 -0.000405 -0.004386 0.008994 -0.000254 0.001103 0.000338
# 4 0.003878 -0.000356 -0.000254 0.021313 0.001083 -0.001038
# 5 0.006395 0.001501 0.001103 0.001083 0.032663 -0.005147
# 6 -0.006684 0.000272 0.000338 -0.001038 -0.005147 0.025688
#
#
# Mechanical properties :
#
#
# Convention : Reuss Voigt Hill
#
# Bulk Modulus (GPa) = 44.67923 64.23337 54.45630
# Shear Modulus (GPa) = 32.32542 38.67531 35.50036
#
# Velocity S-wave (km/s) = 3.98055 4.35400 4.17146
# Velocity P-wave (km/s) = 6.55947 7.53402 7.06357
#
# Compressibility (1/GPa) = 0.02238177
#
# Stress axis : x y z
#
# Youngs Moduli (GPa) = 43.81576 76.04382 111.19122
#
# Poissons Ratio (x) = 0.49439 0.04500
# Poissons Ratio (y) = 0.28486 0.48773
# Poissons Ratio (z) = 0.01773 0.33356
#
# Static dielectric constant tensor:
#      x y z
#    x 1.742580 0.015870 0.037350 
#    y 0.015870 1.735650 -0.007480 
#    z 0.037350 -0.007480 1.777500 
# 
# From -- ./inp_files/467093.got.cif
#   From: 2010.05.17/outbox.cif.g08.bks.cpg/sg2_234_cif.got.tgz:467093.got - 2010.06.03 11:33:40.
