data_PCOD9017196
_publ_section_title
;
Structure prediction by ZEFSAII (Michael W. Deem and Ramdas Pophale) SiO2 
 PCOD9017196
Probable space group: P -1
;
_chemical_formula_sum "Si O2"
_cell_formula_units_Z 12
_cell_length_a 8.234538
_cell_length_b 14.909755
_cell_length_c 9.455622
_cell_angle_alpha 132.346158
_cell_angle_beta 150.224607
_cell_angle_gamma 51.026988
_cell_volume 422.981046
_symmetry_space_group_name_H-M "P -1"
_symmetry_group_IT_number 2
_symmetry_cell_setting 'triclinic'
loop_
_space_group_symop_operation_xyz
x,y,z
-x,-y,-z
loop_
_atom_site_type_symbol
_atom_site_label
_atom_site_fract_x
_atom_site_fract_y
_atom_site_fract_z
Si Si1 0.055700 0.119332 0.488146
Si Si2 0.076684 0.854846 0.168547
Si Si3 0.408437 0.467701 0.122111
Si Si4 0.769723 0.162441 0.027916
Si Si5 0.720999 0.655564 0.406766
Si Si6 0.842081 0.683821 0.999783
O O1 0.002830 0.224892 0.676416
O O2 0.788049 0.134955 0.178984
O O3 0.097621 0.976050 0.404022
O O4 0.394374 0.144391 0.694154
O O5 0.413868 0.760996 0.318525
O O6 0.796498 0.775297 0.928278
O O7 0.033364 0.903633 0.026135
O O8 0.329024 0.400388 0.845457
O O9 0.424571 0.379124 0.176846
O O10 0.694519 0.550786 0.391919
O O11 0.098800 0.569880 0.027056
O O12 0.937113 0.287982 0.273694
#
# Coordination Sequence:
#
# PCOD9017196 Si02
#       6
#     2   2   2   2   2   2
#     4  12  26  45  72 103 141 181 227 282 345 409
#     4  11  24  42  71 105 139 179 228 287 342 410
#     4   9  19  42  75  95 142 179 234 282 337 407
#     4  12  24  45  71 105 137 181 233 279 339 410
#     4  10  21  42  72 103 132 182 236 279 339 400
#     4  10  21  45  68 103 141 183 225 284 349 405
#
# _framework density 28.370062999999998
#
# number of rings (size 3 to 8) (size 9 to 14) (size 15 to 20)
#    0.000    1.333    3.333    1.500    2.333    0.000 
#    6.000   16.667    0.000    0.000    0.000    0.000 
#    0.000    0.000    0.000    0.000    0.000    0.000 
#
# Total GULP energy -67148.651274 kJ/mol
# GULP energy per Si atom -5595.720940 kJ/mol
# Density = 2.830549 g / cm^3
# Si number density = 28.370063 Si / 1000 Ang^3
#
#
#
# Elastic Constant Matrix: (Units=GPa)
#
#
# Indices 1 2 3 4 5 6 
#
# 1 162.4372 54.8892 27.7412 11.5631 7.8590 -4.6306
# 2 54.8892 132.0205 30.4566 47.6925 -3.1766 -7.2313
# 3 27.7412 30.4566 85.9741 22.0954 12.1270 -15.4327
# 4 11.5631 47.6925 22.0954 51.6578 0.0928 -6.3524
# 5 7.8590 -3.1766 12.1270 0.0928 67.8339 23.1328
# 6 -4.6306 -7.2313 -15.4327 -6.3524 23.1328 52.3266
#
#
#
# Elastic Compliance Matrix: (Units=1/GPa)
#
#
# Indices 1 2 3 4 5 6 
#
# 1 0.007536 -0.003636 -0.001559 0.002387 -0.000902 0.000393
# 2 -0.003636 0.013356 -0.001049 -0.011171 0.001528 -0.000817
# 3 -0.001559 -0.001049 0.015336 -0.004533 -0.004548 0.005700
# 4 0.002387 -0.011171 -0.004533 0.031242 -0.000489 0.001340
# 5 -0.000902 0.001528 -0.004548 -0.000489 0.019034 -0.009684
# 6 0.000393 -0.000817 0.005700 0.001340 -0.009684 0.025158
#
#
# Mechanical properties :
#
#
# Convention : Reuss Voigt Hill
#
# Bulk Modulus (GPa) = 42.12537 67.40062 54.76300
# Shear Modulus (GPa) = 37.86050 52.18664 45.02357
#
# Velocity S-wave (km/s) = 3.65708 4.29359 3.98805
# Velocity P-wave (km/s) = 5.71953 6.95623 6.36797
#
# Compressibility (1/GPa) = 0.02373866
#
# Stress axis : x y z
#
# Youngs Moduli (GPa) = 132.69523 74.87276 65.20640
#
# Poissons Ratio (x) = 0.27223 0.10167
# Poissons Ratio (y) = 0.48247 0.06843
# Poissons Ratio (z) = 0.20691 0.07858
#
# Static dielectric constant tensor:
#      x y z
#    x 2.252240 0.003140 -0.020900 
#    y 0.003140 2.344220 0.027850 
#    z -0.020900 0.027850 2.083780 
# 
# From -- ./inp_files/403450.got.cif
#   From: 2010.05.17/outbox.cif.g08.bks.cpg/sg2_202_cif.got.tgz:403450.got - 2010.06.03 11:33:40.
