data_PCOD9017223
_publ_section_title
;
Structure prediction by ZEFSAII (Michael W. Deem and Ramdas Pophale) SiO2 
 PCOD9017223
Probable space group: P -1
;
_chemical_formula_sum "Si O2"
_cell_formula_units_Z 16
_cell_length_a 13.385377
_cell_length_b 8.790624
_cell_length_c 7.158106
_cell_angle_alpha 58.431183
_cell_angle_beta 128.628917
_cell_angle_gamma 120.013101
_cell_volume 541.255085
_symmetry_space_group_name_H-M "P -1"
_symmetry_group_IT_number 2
_symmetry_cell_setting 'triclinic'
loop_
_space_group_symop_operation_xyz
x,y,z
-x,-y,-z
loop_
_atom_site_type_symbol
_atom_site_label
_atom_site_fract_x
_atom_site_fract_y
_atom_site_fract_z
Si Si1 0.039326 0.968095 0.279498
Si Si2 0.560466 0.559015 0.238723
Si Si3 0.246935 0.438948 0.799652
Si Si4 0.964625 0.571575 0.698909
Si Si5 0.716969 0.136302 0.491965
Si Si6 0.162291 0.368757 0.143860
Si Si7 0.194934 0.891807 0.956304
Si Si8 0.530901 0.200856 0.707817
O O1 0.143517 0.164636 0.320929
O O2 0.149312 0.854388 0.473174
O O3 0.905171 0.970837 0.231994
O O4 0.000000 0.000000 0.000000
O O5 0.695233 0.668154 0.223682
O O6 0.513441 0.701883 0.224432
O O7 0.500000 0.500000 0.000000
O O8 0.260888 0.404855 0.059012
O O9 0.094279 0.391588 0.588362
O O10 0.300237 0.658747 0.687795
O O11 0.841894 0.525927 0.733355
O O12 0.028473 0.400674 0.878992
O O13 0.082500 0.731306 0.821315
O O14 0.756392 0.110595 0.769200
O O15 0.587954 0.971554 0.392389
O O16 0.555622 0.373488 0.475223
O O17 0.336392 0.869340 0.049103
#
# Coordination Sequence:
#
# PCOD9017223 Si02
#       8
#     2   2   2   2   2   2   2   2
#     4   9  20  38  69 109 144 191 252 301 378 450
#     4  11  29  48  73 112 148 199 270 313 373 465
#     4  12  25  44  76 113 154 194 261 320 382 453
#     4  10  22  40  73 112 144 197 251 299 391 455
#     4  11  23  44  76 115 152 204 254 310 390 465
#     4  10  22  38  71 104 146 191 241 317 367 448
#     4  10  21  42  72 111 147 197 250 308 375 457
#     4  11  26  49  80 104 154 210 252 316 388 456
#
# _framework density 29.560924
#
# number of rings (size 3 to 8) (size 9 to 14) (size 15 to 20)
#    0.000    1.500    1.250    3.750    7.000    0.000 
#    0.000    3.125    5.500   13.500    0.000    0.000 
#    0.000    0.000    0.000    0.000    0.000    0.000 
#
# Total GULP energy -89192.784417 kJ/mol
# GULP energy per Si atom -5574.549026 kJ/mol
# Density = 2.949364 g / cm^3
# Si number density = 29.560924 Si / 1000 Ang^3
#
#
#
# Elastic Constant Matrix: (Units=GPa)
#
#
# Indices 1 2 3 4 5 6 
#
# 1 231.4178 82.6596 65.1759 3.9142 5.3992 -46.7914
# 2 82.6596 145.5914 53.4736 13.0190 34.8796 -24.3159
# 3 65.1759 53.4736 160.5310 33.0743 28.0240 -13.5916
# 4 3.9142 13.0190 33.0743 68.9931 -6.8351 24.2189
# 5 5.3992 34.8796 28.0240 -6.8351 67.0623 9.3175
# 6 -46.7914 -24.3159 -13.5916 24.2189 9.3175 51.3615
#
#
#
# Elastic Compliance Matrix: (Units=1/GPa)
#
#
# Indices 1 2 3 4 5 6 
#
# 1 0.006550 -0.002502 -0.001358 -0.000843 0.000601 0.004712
# 2 -0.002502 0.011730 0.000154 -0.005433 -0.007524 0.007242
# 3 -0.001358 0.000154 0.009660 -0.007158 -0.005539 0.005772
# 4 -0.000843 -0.005433 -0.007158 0.027203 0.011455 -0.020140
# 5 0.000601 -0.007524 -0.005539 0.011455 0.024242 -0.014280
# 6 0.004712 0.007242 0.005772 -0.020140 -0.014280 0.040806
#
#
# Mechanical properties :
#
#
# Convention : Reuss Voigt Hill
#
# Bulk Modulus (GPa) = 48.71223 104.46207 76.58715
# Shear Modulus (GPa) = 37.18979 59.89877 48.54428
#
# Velocity S-wave (km/s) = 3.55078 4.50631 4.05678
# Velocity P-wave (km/s) = 5.77279 7.90508 6.92154
#
# Compressibility (1/GPa) = 0.02052873
#
# Stress axis : x y z
#
# Youngs Moduli (GPa) = 152.66426 85.25177 103.52309
#
# Poissons Ratio (x) = 0.21326 0.14062
# Poissons Ratio (y) = 0.38190 -0.01597
# Poissons Ratio (z) = 0.20737 -0.01315
#
# Static dielectric constant tensor:
#      x y z
#    x -3.873320 4.537610 -14.016640 
#    y 4.537610 0.075560 9.110830 
#    z -14.016640 9.110830 -28.328070 
# 
# From -- ./inp_files/266798.got.cif
#   From: 2010.05.17/outbox.cif.g08.bks.cpg/sg2_134_cif.got.tgz:266798.got - 2010.06.03 11:33:40.
