data_PCOD9017498
_publ_section_title
;
Structure prediction by ZEFSAII (Michael W. Deem and Ramdas Pophale) SiO2 
 PCOD9017498
Probable space group: P -1
;
_chemical_formula_sum "Si O2"
_cell_formula_units_Z 14
_cell_length_a 14.383162
_cell_length_b 12.183896
_cell_length_c 5.756138
_cell_angle_alpha 83.623697
_cell_angle_beta 52.610341
_cell_angle_gamma 118.641699
_cell_volume 574.641549
_symmetry_space_group_name_H-M "P -1"
_symmetry_group_IT_number 2
_symmetry_cell_setting 'triclinic'
loop_
_space_group_symop_operation_xyz
x,y,z
-x,-y,-z
loop_
_atom_site_type_symbol
_atom_site_label
_atom_site_fract_x
_atom_site_fract_y
_atom_site_fract_z
Si Si1 0.190944 0.119906 0.623447
Si Si2 0.758474 0.015120 0.769168
Si Si3 0.149366 0.689100 0.596498
Si Si4 0.337932 0.402043 0.621814
Si Si5 0.916851 0.778139 0.567018
Si Si6 0.836157 0.538461 0.391196
Si Si7 0.457023 0.914210 0.340541
O O1 0.303718 0.260594 0.591803
O O2 0.196090 0.200028 0.368924
O O3 0.233924 0.026755 0.494003
O O4 0.000000 0.000000 0.000000
O O5 0.806836 0.175761 0.654215
O O6 0.903574 0.060554 0.690154
O O7 0.576950 0.887366 0.164203
O O8 0.191865 0.601352 0.426907
O O9 0.268227 0.767995 0.623170
O O10 0.966513 0.588823 0.984052
O O11 0.500000 0.500000 0.500000
O O12 0.321094 0.495276 0.449232
O O13 0.176724 0.316831 0.038857
O O14 0.919326 0.679960 0.404547
O O15 0.500000 0.000000 0.500000
O O16 0.500000 0.000000 0.000000
#
# Coordination Sequence:
#
# PCOD9017498 Si02
#       7
#     2   2   2   2   2   2   2
#     4  11  23  42  69  99 132 174 231 284 345 419
#     4  11  21  40  69  98 132 175 223 290 347 417
#     4  10  21  43  63  97 134 172 228 274 346 417
#     4  11  25  44  64  97 134 175 228 280 343 411
#     4  11  22  41  67  93 131 175 228 275 345 416
#     4  10  22  42  67  90 133 178 219 278 338 422
#     4  10  23  42  63  98 137 177 229 289 347 413
#
# _framework density 24.363015000000001
#
# number of rings (size 3 to 8) (size 9 to 14) (size 15 to 20)
#    0.000    1.429    2.857    2.143    0.000    6.286 
#   10.286    0.000    0.000    0.000    0.000    0.000 
#    0.000    0.000    0.000    0.000    0.000    0.000 
#
# Total GULP energy -78101.491557 kJ/mol
# GULP energy per Si atom -5578.677968 kJ/mol
# Density = 2.430756 g / cm^3
# Si number density = 24.363015 Si / 1000 Ang^3
#
#
#
# Elastic Constant Matrix: (Units=GPa)
#
#
# Indices 1 2 3 4 5 6 
#
# 1 103.4147 52.2258 16.2172 -3.9106 -26.8740 23.4421
# 2 52.2258 159.6011 14.2918 13.2240 -10.3371 7.6664
# 3 16.2172 14.2918 35.3254 15.5943 -14.4552 1.7885
# 4 -3.9106 13.2240 15.5943 28.0837 -0.7444 -2.1419
# 5 -26.8740 -10.3371 -14.4552 -0.7444 36.9360 -10.6387
# 6 23.4421 7.6664 1.7885 -2.1419 -10.6387 48.9180
#
#
#
# Elastic Compliance Matrix: (Units=1/GPa)
#
#
# Indices 1 2 3 4 5 6 
#
# 1 0.016142 -0.004701 -0.005711 0.007437 0.006915 -0.004960
# 2 -0.004701 0.008061 0.000630 -0.004779 -0.000849 0.000572
# 3 -0.005711 0.000630 0.049130 -0.027731 0.015557 0.003011
# 4 0.007437 -0.004779 -0.027731 0.054082 -0.005895 -0.000715
# 5 0.006915 -0.000849 0.015557 -0.005895 0.039134 0.004503
# 6 -0.004960 0.000572 0.003011 -0.000715 0.004503 0.023568
#
#
# Mechanical properties :
#
#
# Convention : Reuss Voigt Hill
#
# Bulk Modulus (GPa) = 18.59785 51.53454 35.06620
# Shear Modulus (GPa) = 21.96799 37.16129 29.56464
#
# Velocity S-wave (km/s) = 3.00608 3.90977 3.48732
# Velocity P-wave (km/s) = 4.43834 6.44829 5.53531
#
# Compressibility (1/GPa) = 0.05376965
#
# Stress axis : x y z
#
# Youngs Moduli (GPa) = 61.94992 124.05548 20.35396
#
# Poissons Ratio (x) = 0.58316 0.11624
# Poissons Ratio (y) = 0.29121 -0.01282
# Poissons Ratio (z) = 0.35380 -0.07815
#
# Static dielectric constant tensor:
#      x y z
#    x 2.075400 -0.052940 0.040060 
#    y -0.052940 1.992240 -0.046700 
#    z 0.040060 -0.046700 2.059320 
# 
# From -- ./inp_files/67651.got.cif
#   From: 2010.05.17/outbox.cif.g08.bks.cpg/sg2_34_cif.got.tgz:67651.got - 2010.06.03 11:33:40.
