data_PCOD9017555
_publ_section_title
;
Structure prediction by ZEFSAII (Michael W. Deem and Ramdas Pophale) SiO2 
 PCOD9017555
Probable space group: P -1
;
_chemical_formula_sum "Si O2"
_cell_formula_units_Z 16
_cell_length_a 14.956002
_cell_length_b 7.365456
_cell_length_c 18.591278
_cell_angle_alpha 47.216475
_cell_angle_beta 143.243439
_cell_angle_gamma 143.221329
_cell_volume 729.728717
_symmetry_space_group_name_H-M "P -1"
_symmetry_group_IT_number 2
_symmetry_cell_setting 'triclinic'
loop_
_space_group_symop_operation_xyz
x,y,z
-x,-y,-z
loop_
_atom_site_type_symbol
_atom_site_label
_atom_site_fract_x
_atom_site_fract_y
_atom_site_fract_z
Si Si1 0.554550 0.928696 0.478991
Si Si2 0.014905 0.731305 0.890032
Si Si3 0.082948 0.816468 0.277168
Si Si4 0.895642 0.906962 0.382512
Si Si5 0.633304 0.343202 0.287940
Si Si6 0.422732 0.249024 0.954853
Si Si7 0.816033 0.505546 0.679095
Si Si8 0.306842 0.830161 0.778294
O O1 0.384795 0.583222 0.445690
O O2 0.500000 0.000000 0.500000
O O3 0.761905 0.039133 0.598690
O O4 0.537473 0.108344 0.354608
O O5 0.863822 0.530846 0.785824
O O6 0.966547 0.949796 0.834144
O O7 0.216548 0.959448 0.920777
O O8 0.000000 0.500000 0.000000
O O9 0.156589 0.729901 0.280632
O O10 0.892822 0.497288 0.261645
O O11 0.724584 0.915976 0.291668
O O12 0.028942 0.171514 0.342173
O O13 0.829140 0.595397 0.384364
O O14 0.000000 0.000000 0.500000
O O15 0.574939 0.559065 0.162370
O O16 0.625320 0.163054 0.260514
O O17 0.500000 0.500000 0.000000
O O18 0.564056 0.159452 0.078929
#
# Coordination Sequence:
#
# PCOD9017555 Si02
#       8
#     2   2   2   2   2   2   2   2
#     4  10  23  42  65  94 131 168 210 257 320 384
#     4  12  25  43  65  93 131 168 215 261 312 379
#     4  10  21  44  64  90 133 164 210 266 310 380
#     4  11  22  40  65  95 127 161 213 267 307 377
#     4  11  21  41  68  92 125 168 205 264 315 366
#     4  10  21  43  64  95 127 161 217 261 306 383
#     4  10  23  43  62  93 130 166 208 260 323 373
#     4  10  22  39  67  95 125 163 213 261 317 367
#
# _framework density 21.925958000000001
#
# number of rings (size 3 to 8) (size 9 to 14) (size 15 to 20)
#    0.000    1.500    3.750    2.250    3.500    4.500 
#    6.750    0.000    0.000    0.000    0.000    0.000 
#    0.000    0.000    0.000    0.000    0.000    0.000 
#
# Total GULP energy -89230.993044 kJ/mol
# GULP energy per Si atom -5576.937065 kJ/mol
# Density = 2.187605 g / cm^3
# Si number density = 21.925958 Si / 1000 Ang^3
#
#
#
# Elastic Constant Matrix: (Units=GPa)
#
#
# Indices 1 2 3 4 5 6 
#
# 1 72.3842 15.6067 22.9942 -7.6208 -11.5404 1.7463
# 2 15.6067 32.6913 1.5629 14.0560 -5.9833 4.0498
# 3 22.9942 1.5629 61.6540 5.9463 -5.4339 6.2196
# 4 -7.6208 14.0560 5.9463 46.5080 1.5426 -8.6772
# 5 -11.5404 -5.9833 -5.4339 1.5426 44.3703 5.0642
# 6 1.7463 4.0498 6.2196 -8.6772 5.0642 28.9308
#
#
#
# Elastic Compliance Matrix: (Units=1/GPa)
#
#
# Indices 1 2 3 4 5 6 
#
# 1 0.020732 -0.014008 -0.008703 0.009667 0.001506 0.005216
# 2 -0.014008 0.049092 0.008138 -0.021237 0.006455 -0.015276
# 3 -0.008703 0.008138 0.021091 -0.008173 0.002621 -0.008058
# 4 0.009667 -0.021237 -0.008173 0.033473 -0.004218 0.014924
# 5 0.001506 0.006455 0.002621 -0.004218 0.025091 -0.007215
# 6 0.005216 -0.015276 -0.008058 0.014924 -0.007215 0.043860
#
#
# Mechanical properties :
#
#
# Convention : Reuss Voigt Hill
#
# Bulk Modulus (GPa) = 16.18917 27.45080 21.81998
# Shear Modulus (GPa) = 20.56972 32.39954 26.48463
#
# Velocity S-wave (km/s) = 3.06624 3.84823 3.47927
# Velocity P-wave (km/s) = 4.46490 5.68262 5.11016
#
# Compressibility (1/GPa) = 0.06176968
#
# Stress axis : x y z
#
# Youngs Moduli (GPa) = 48.23434 20.36974 47.41338
#
# Poissons Ratio (x) = 0.28534 0.41263
# Poissons Ratio (y) = 0.67568 -0.38585
# Poissons Ratio (z) = 0.41978 -0.16577
#
# Static dielectric constant tensor:
#      x y z
#    x 1.842520 0.007000 0.050100 
#    y 0.007000 1.824690 0.029200 
#    z 0.050100 0.029200 1.912690 
# 
# From -- ./inp_files/599390.got.cif
#   From: 2010.05.17/outbox.cif.g08.bks.cpg/sg2_300_cif.got.tgz:599390.got - 2010.06.03 11:33:40.
