data_PCOD9017895
_publ_section_title
;
Structure prediction by ZEFSAII (Michael W. Deem and Ramdas Pophale) SiO2 
 PCOD9017895
Probable space group: P -1
;
_chemical_formula_sum "Si O2"
_cell_formula_units_Z 16
_cell_length_a 8.376242
_cell_length_b 8.910699
_cell_length_c 11.205280
_cell_angle_alpha 94.380843
_cell_angle_beta 47.480146
_cell_angle_gamma 90.823355
_cell_volume 613.828636
_symmetry_space_group_name_H-M "P -1"
_symmetry_group_IT_number 2
_symmetry_cell_setting 'triclinic'
loop_
_space_group_symop_operation_xyz
x,y,z
-x,-y,-z
loop_
_atom_site_type_symbol
_atom_site_label
_atom_site_fract_x
_atom_site_fract_y
_atom_site_fract_z
Si Si1 0.066590 0.504957 0.656257
Si Si2 0.227619 0.920630 0.512430
Si Si3 0.428974 0.646759 0.849054
Si Si4 0.702846 0.361999 0.678837
Si Si5 0.770698 0.926420 0.091886
Si Si6 0.202132 0.195402 0.182536
Si Si7 0.943981 0.642980 0.119741
Si Si8 0.497615 0.830705 0.605983
O O1 0.893135 0.401258 0.675385
O O2 0.933848 0.652709 0.782755
O O3 0.169817 0.411775 0.706795
O O4 0.217876 0.566145 0.481531
O O5 0.300846 0.815292 0.356054
O O6 0.368076 0.847906 0.548896
O O7 0.974763 0.892588 0.659091
O O8 0.266332 0.099120 0.514375
O O9 0.496213 0.470317 0.826970
O O10 0.605957 0.743892 0.831772
O O11 0.455570 0.685007 0.697040
O O12 0.189532 0.694266 0.019083
O O13 0.798749 0.769096 0.136418
O O14 0.607473 0.038551 0.248169
O O15 0.725307 0.898401 0.975101
O O16 0.000000 0.000000 0.000000
O O17 0.000000 0.500000 0.000000
#
# Coordination Sequence:
#
# PCOD9017895 Si02
#       8
#     2   2   2   2   2   2   2   2
#     4   9  20  41  66  98 126 162 214 265 323 376
#     4  10  22  42  66  90 126 174 213 266 318 381
#     4  11  25  42  63  99 128 168 216 268 323 382
#     4   9  21  41  67  92 129 167 208 270 319 370
#     4  12  23  45  65  89 132 176 208 267 325 373
#     4  10  21  43  67  89 133 165 208 273 321 375
#     4  12  25  42  69  98 127 170 220 266 317 389
#     4  11  25  42  61  95 131 167 220 258 323 389
#
# _framework density 26.065905999999998
#
# number of rings (size 3 to 8) (size 9 to 14) (size 15 to 20)
#    0.000    1.500    3.750    0.750    3.500    6.500 
#    2.250    0.000    0.000    0.000    0.000    0.000 
#    0.000    0.000    0.000    0.000    0.000    0.000 
#
# Total GULP energy -89630.744473 kJ/mol
# GULP energy per Si atom -5601.921530 kJ/mol
# Density = 2.600658 g / cm^3
# Si number density = 26.065906 Si / 1000 Ang^3
#
#
#
# Elastic Constant Matrix: (Units=GPa)
#
#
# Indices 1 2 3 4 5 6 
#
# 1 50.4827 22.1744 11.7675 -5.8310 -9.9659 16.3684
# 2 22.1744 84.3532 -0.8589 8.8673 -0.3638 14.6684
# 3 11.7675 -0.8589 55.0499 4.6786 3.9036 6.5613
# 4 -5.8310 8.8673 4.6786 48.7108 2.9944 -2.9371
# 5 -9.9659 -0.3638 3.9036 2.9944 39.3038 -5.0970
# 6 16.3684 14.6684 6.5613 -2.9371 -5.0970 52.2674
#
#
#
# Elastic Compliance Matrix: (Units=1/GPa)
#
#
# Indices 1 2 3 4 5 6 
#
# 1 0.027785 -0.006929 -0.006292 0.004480 0.006607 -0.005071
# 2 -0.006929 0.014544 0.002476 -0.003755 -0.001922 -0.002621
# 3 -0.006292 0.002476 0.020275 -0.003039 -0.003587 -0.001790
# 4 0.004480 -0.003755 -0.003039 0.022124 -0.000119 0.001264
# 5 0.006607 -0.001922 -0.003587 -0.000119 0.027675 0.001613
# 6 -0.005071 -0.002621 -0.001790 0.001264 0.001613 0.021909
#
#
# Mechanical properties :
#
#
# Convention : Reuss Voigt Hill
#
# Bulk Modulus (GPa) = 24.32313 28.45021 26.38667
# Shear Modulus (GPa) = 29.49747 38.50994 34.00370
#
# Velocity S-wave (km/s) = 3.36765 3.84787 3.61574
# Velocity P-wave (km/s) = 4.94703 5.53895 5.25133
#
# Compressibility (1/GPa) = 0.04111312
#
# Stress axis : x y z
#
# Youngs Moduli (GPa) = 35.99093 68.75843 49.32206
#
# Poissons Ratio (x) = 0.47640 0.31034
# Poissons Ratio (y) = 0.24937 -0.12211
# Poissons Ratio (z) = 0.22646 -0.17023
#
# Static dielectric constant tensor:
#      x y z
#    x 2.028180 0.068580 -0.095780 
#    y 0.068580 2.260030 -0.236890 
#    z -0.095780 -0.236890 2.247760 
# 
# From -- ./inp_files/209346.got.cif
#   From: 2010.05.17/outbox.cif.g08.bks.cpg/sg2_105_cif.got.tgz:209346.got - 2010.06.03 11:33:40.
