data_PCOD9017743
_publ_section_title
;
Structure prediction by ZEFSAII (Michael W. Deem and Ramdas Pophale) SiO2 
 PCOD9017743
Probable space group: P -1
;
_chemical_formula_sum "Si O2"
_cell_formula_units_Z 14
_cell_length_a 6.763543
_cell_length_b 8.484290
_cell_length_c 17.451956
_cell_angle_alpha 60.390527
_cell_angle_beta 78.373269
_cell_angle_gamma 116.847739
_cell_volume 650.071119
_symmetry_space_group_name_H-M "P -1"
_symmetry_group_IT_number 2
_symmetry_cell_setting 'triclinic'
loop_
_space_group_symop_operation_xyz
x,y,z
-x,-y,-z
loop_
_atom_site_type_symbol
_atom_site_label
_atom_site_fract_x
_atom_site_fract_y
_atom_site_fract_z
Si Si1 0.348444 0.016180 0.818337
Si Si2 0.177495 0.286511 0.505462
Si Si3 0.674108 0.288470 0.239255
Si Si4 0.964327 0.194716 0.957388
Si Si5 0.115977 0.639377 0.218902
Si Si6 0.217417 0.282399 0.675483
Si Si7 0.708440 0.001339 0.526823
O O1 0.623874 0.248232 0.778829
O O2 0.183855 0.083716 0.776197
O O3 0.389749 0.892257 0.778312
O O4 0.180952 0.840011 0.944385
O O5 0.096477 0.224758 0.614489
O O6 0.468341 0.533504 0.410891
O O7 0.196844 0.096354 0.515331
O O8 0.956274 0.256361 0.479401
O O9 0.436249 0.165908 0.347331
O O10 0.762609 0.533055 0.138324
O O11 0.939962 0.391010 0.244436
O O12 0.807504 0.174067 0.899623
O O13 0.000000 0.000000 0.000000
O O14 0.898376 0.617366 0.292500
O O15 0.500000 0.000000 0.500000
#
# Coordination Sequence:
#
# PCOD9017743 Si02
#       7
#     2   2   2   2   2   2   2
#     4  12  22  41  67  93 124 172 207 260 323 373
#     4  10  23  38  63  90 127 165 212 262 306 382
#     4  10  23  40  63  94 129 157 217 263 301 386
#     4  10  21  43  66  90 128 166 206 266 319 373
#     4  10  23  41  64  90 131 159 211 264 308 379
#     4  11  22  41  62  93 126 169 212 256 321 372
#     4  11  22  41  62  93 127 166 210 259 318 369
#
# _framework density 21.536104000000002
#
# number of rings (size 3 to 8) (size 9 to 14) (size 15 to 20)
#    0.857    0.571    2.857    2.571    2.000    0.000 
#    0.000    5.714    0.000    0.000    0.000    0.000 
#    0.000    0.000    0.000    0.000    0.000    0.000 
#
# Total GULP energy -78089.085364 kJ/mol
# GULP energy per Si atom -5577.791812 kJ/mol
# Density = 2.148709 g / cm^3
# Si number density = 21.536104 Si / 1000 Ang^3
#
#
#
# Elastic Constant Matrix: (Units=GPa)
#
#
# Indices 1 2 3 4 5 6 
#
# 1 51.5281 9.8467 8.6458 10.4982 8.1500 17.2543
# 2 9.8467 77.8259 21.3391 25.7297 2.5180 18.9159
# 3 8.6458 21.3391 112.7002 24.4899 -6.3459 3.7199
# 4 10.4982 25.7297 24.4899 43.6099 1.2972 -2.0965
# 5 8.1500 2.5180 -6.3459 1.2972 27.7765 0.5443
# 6 17.2543 18.9159 3.7199 -2.0965 0.5443 28.0737
#
#
#
# Elastic Compliance Matrix: (Units=1/GPa)
#
#
# Indices 1 2 3 4 5 6 
#
# 1 0.029593 0.005901 -0.000710 -0.011049 -0.008419 -0.022732
# 2 0.005901 0.022044 -0.000945 -0.014743 -0.002877 -0.019400
# 3 -0.000710 -0.000945 0.010440 -0.005258 0.002940 -0.000760
# 4 -0.011049 -0.014743 -0.005258 0.038180 0.001197 0.020249
# 5 -0.008419 -0.002877 0.002940 0.001197 0.039230 0.006052
# 6 -0.022732 -0.019400 -0.000760 0.020249 0.006052 0.064159
#
#
# Mechanical properties :
#
#
# Convention : Reuss Voigt Hill
#
# Bulk Modulus (GPa) = 14.17056 35.74637 24.95847
# Shear Modulus (GPa) = 22.86491 33.37352 28.11922
#
# Velocity S-wave (km/s) = 3.26191 3.94084 3.61734
# Velocity P-wave (km/s) = 4.55861 6.11075 5.39084
#
# Compressibility (1/GPa) = 0.07056883
#
# Stress axis : x y z
#
# Youngs Moduli (GPa) = 33.79185 45.36365 95.78855
#
# Poissons Ratio (x) = -0.26769 0.06804
# Poissons Ratio (y) = -0.19940 0.09048
# Poissons Ratio (z) = 0.02400 0.04285
#
# Static dielectric constant tensor:
#      x y z
#    x 1.813450 0.059450 -0.003690 
#    y 0.059450 1.798990 -0.023560 
#    z -0.003690 -0.023560 1.793910 
# 
# From -- ./inp_files/196416.got.cif
#   From: 2010.05.17/outbox.cif.g08.bks.cpg/sg2_99_cif.got.tgz:196416.got - 2010.06.03 11:33:40.
