data_PCOD9017327
_publ_section_title
;
Structure prediction by ZEFSAII (Michael W. Deem and Ramdas Pophale) SiO2 
 PCOD9017327
Probable space group: P -1
;
_chemical_formula_sum "Si O2"
_cell_formula_units_Z 12
_cell_length_a 9.239287
_cell_length_b 7.907931
_cell_length_c 8.779888
_cell_angle_alpha 51.951005
_cell_angle_beta 106.063762
_cell_angle_gamma 91.354975
_cell_volume 476.205030
_symmetry_space_group_name_H-M "P -1"
_symmetry_group_IT_number 2
_symmetry_cell_setting 'triclinic'
loop_
_space_group_symop_operation_xyz
x,y,z
-x,-y,-z
loop_
_atom_site_type_symbol
_atom_site_label
_atom_site_fract_x
_atom_site_fract_y
_atom_site_fract_z
Si Si1 0.782363 0.467245 0.808877
Si Si2 0.530218 0.573454 0.138166
Si Si3 0.241225 0.386842 0.603755
Si Si4 0.757704 0.948472 0.629755
Si Si5 0.948612 0.987196 0.167422
Si Si6 0.528393 0.977157 0.272989
O O1 0.599078 0.499330 0.757242
O O2 0.828531 0.475053 0.639764
O O3 0.816642 0.683993 0.780555
O O4 0.849531 0.231521 0.030072
O O5 0.699150 0.495126 0.300559
O O6 0.500000 0.500000 0.000000
O O7 0.501682 0.832915 0.963966
O O8 0.143421 0.207041 0.723880
O O9 0.400737 0.249374 0.658761
O O10 0.630118 0.008252 0.691192
O O11 0.905860 0.043506 0.661643
O O12 0.661201 0.013168 0.411433
O O13 0.000000 0.000000 0.000000
#
# Coordination Sequence:
#
# PCOD9017327 Si02
#       6
#     2   2   2   2   2   2
#     4  11  25  45  70 104 138 183 226 285 338 409
#     4  12  23  42  72 105 137 178 233 287 337 404
#     4  11  26  46  72 103 137 182 230 282 345 402
#     4  10  23  44  68 107 138 175 230 282 343 403
#     4  12  27  45  70  99 143 185 226 282 342 412
#     4  10  21  42  74 101 133 178 230 281 336 406
#
# _framework density 25.199231000000001
#
# number of rings (size 3 to 8) (size 9 to 14) (size 15 to 20)
#    0.000    1.000    3.333    2.500    2.333    4.667 
#    3.000    0.000    0.000    0.000    0.000    0.000 
#    0.000    0.000    0.000    0.000    0.000    0.000 
#
# Total GULP energy -67211.113493 kJ/mol
# GULP energy per Si atom -5600.926124 kJ/mol
# Density = 2.514188 g / cm^3
# Si number density = 25.199231 Si / 1000 Ang^3
#
#
#
# Elastic Constant Matrix: (Units=GPa)
#
#
# Indices 1 2 3 4 5 6 
#
# 1 103.9043 56.7797 53.7988 14.4355 2.8310 25.0578
# 2 56.7797 93.7096 23.7657 13.8225 13.7362 18.5872
# 3 53.7988 23.7657 124.8832 -6.8310 -7.3875 10.9366
# 4 14.4355 13.8225 -6.8310 35.6642 -1.7432 12.2237
# 5 2.8310 13.7362 -7.3875 -1.7432 42.6468 2.2832
# 6 25.0578 18.5872 10.9366 12.2237 2.2832 45.0738
#
#
#
# Elastic Compliance Matrix: (Units=1/GPa)
#
#
# Indices 1 2 3 4 5 6 
#
# 1 0.019373 -0.008641 -0.006507 -0.004168 0.000442 -0.004520
# 2 -0.008641 0.017327 0.000075 -0.003009 -0.005049 -0.001288
# 3 -0.006507 0.000075 0.011290 0.005126 0.002609 -0.000675
# 4 -0.004168 -0.003009 0.005126 0.034554 0.003935 -0.007256
# 5 0.000442 -0.005049 0.002609 0.003935 0.025721 -0.001167
# 6 -0.004520 -0.001288 -0.000675 -0.007256 -0.001167 0.027420
#
#
# Mechanical properties :
#
#
# Convention : Reuss Voigt Hill
#
# Bulk Modulus (GPa) = 56.04471 65.68726 60.86599
# Shear Modulus (GPa) = 29.10701 37.22048 33.16375
#
# Velocity S-wave (km/s) = 3.40233 3.84741 3.63169
# Velocity P-wave (km/s) = 6.14194 6.77204 6.46467
#
# Compressibility (1/GPa) = 0.01784290
#
# Stress axis : x y z
#
# Youngs Moduli (GPa) = 51.61946 57.71179 88.57090
#
# Poissons Ratio (x) = 0.49870 0.57634
# Poissons Ratio (y) = 0.44606 -0.00661
# Poissons Ratio (z) = 0.33589 -0.00431
#
# Static dielectric constant tensor:
#      x y z
#    x 1.949200 -0.064570 0.013880 
#    y -0.064570 2.123370 0.037370 
#    z 0.013880 0.037370 1.980990 
# 
# From -- ./inp_files/151829.got.cif
#   From: 2010.05.17/outbox.cif.g08.bks.cpg/sg2_76_cif.got.tgz:151829.got - 2010.06.03 11:33:40.
