data_PCOD9017168
_publ_section_title
;
Structure prediction by ZEFSAII (Michael W. Deem and Ramdas Pophale) SiO2 
 PCOD9017168
Probable space group: P -1
;
_chemical_formula_sum "Si O2"
_cell_formula_units_Z 16
_cell_length_a 8.610770
_cell_length_b 15.021988
_cell_length_c 14.963258
_cell_angle_alpha 151.837002
_cell_angle_beta 54.085513
_cell_angle_gamma 106.296541
_cell_volume 581.219715
_symmetry_space_group_name_H-M "P -1"
_symmetry_group_IT_number 2
_symmetry_cell_setting 'triclinic'
loop_
_space_group_symop_operation_xyz
x,y,z
-x,-y,-z
loop_
_atom_site_type_symbol
_atom_site_label
_atom_site_fract_x
_atom_site_fract_y
_atom_site_fract_z
Si Si1 0.214699 0.755551 0.028485
Si Si2 0.126711 0.455633 0.667809
Si Si3 0.085611 0.227659 0.709401
Si Si4 0.092495 0.147810 0.135925
Si Si5 0.538287 0.025955 0.277103
Si Si6 0.700231 0.330795 0.564090
Si Si7 0.508278 0.283432 0.259799
Si Si8 0.226371 0.618321 0.224352
O O1 0.152707 0.641129 0.870567
O O2 0.428844 0.579925 0.873667
O O3 0.373654 0.798630 0.950581
O O4 0.983371 0.863451 0.265823
O O5 0.323245 0.215718 0.447698
O O6 0.235475 0.386091 0.469541
O O7 0.859953 0.537670 0.851154
O O8 0.371079 0.036588 0.419410
O O9 0.936119 0.257949 0.699074
O O10 0.000000 0.500000 0.000000
O O11 0.229957 0.182756 0.043596
O O12 0.308362 0.956200 0.958887
O O13 0.000000 0.000000 0.000000
O O14 0.862181 0.341378 0.445418
O O15 0.648559 0.149970 0.390836
O O16 0.825772 0.247374 0.544389
O O17 0.500000 0.500000 0.500000
O O18 0.500000 0.500000 0.000000
#
# Coordination Sequence:
#
# PCOD9017168 Si02
#       8
#     2   2   2   2   2   2   2   2
#     4  10  17  30  52  75  96 132 168 201 248 297
#     4   8  16  28  44  70  98 124 162 206 240 285
#     4  11  16  29  49  73  99 127 171 212 240 290
#     4   9  17  31  51  75 102 128 162 211 250 288
#     4   8  15  28  46  68  93 127 160 199 240 285
#     4  10  18  29  48  78 101 129 159 208 260 284
#     4   9  17  31  51  74  96 131 174 201 241 299
#     4  11  18  27  47  78 102 125 168 213 246 287
#
# _framework density 27.528314999999999
#
# number of rings (size 3 to 8) (size 9 to 14) (size 15 to 20)
#    0.000    2.500    5.000    2.250    0.000    0.000 
#    0.000    6.250    0.000    3.750    3.250    0.000 
#    0.000    0.000    0.000    0.000    0.000    0.000 
#
# Total GULP energy -89250.380173 kJ/mol
# GULP energy per Si atom -5578.148761 kJ/mol
# Density = 2.746566 g / cm^3
# Si number density = 27.528315 Si / 1000 Ang^3
#
#
#
# Elastic Constant Matrix: (Units=GPa)
#
#
# Indices 1 2 3 4 5 6 
#
# 1 127.7414 28.0359 61.2092 -21.9978 -4.0495 9.2391
# 2 28.0359 108.6464 64.4341 -63.6809 5.7534 -19.3424
# 3 61.2092 64.4341 171.3530 -63.4877 -31.5014 16.4378
# 4 -21.9978 -63.6809 -63.4877 75.1920 8.7811 -0.6369
# 5 -4.0495 5.7534 -31.5014 8.7811 46.9998 -1.0266
# 6 9.2391 -19.3424 16.4378 -0.6369 -1.0266 21.5213
#
#
#
# Elastic Compliance Matrix: (Units=1/GPa)
#
#
# Indices 1 2 3 4 5 6 
#
# 1 0.009760 -0.002684 -0.002769 -0.001741 -0.000461 -0.004560
# 2 -0.002684 0.045353 -0.014234 0.028326 -0.019465 0.052695
# 3 -0.002769 -0.014234 0.016454 -0.000589 0.012126 -0.023610
# 4 -0.001741 0.028326 -0.000589 0.037736 -0.010467 0.027273
# 5 -0.000461 -0.019465 0.012126 -0.010467 0.033150 -0.025286
# 6 -0.004560 0.052695 -0.023610 0.027273 -0.025286 0.113418
#
#
# Mechanical properties :
#
#
# Convention : Reuss Voigt Hill
#
# Bulk Modulus (GPa) = 31.06308 79.45547 55.25927
# Shear Modulus (GPa) = 16.34115 45.68006 31.01060
#
# Velocity S-wave (km/s) = 2.43906 4.07797 3.35998
# Velocity P-wave (km/s) = 4.38641 7.14836 5.93041
#
# Compressibility (1/GPa) = 0.03219256
#
# Stress axis : x y z
#
# Youngs Moduli (GPa) = 102.46143 22.04909 60.77723
#
# Poissons Ratio (x) = 0.05918 0.16831
# Poissons Ratio (y) = 0.27499 0.86509
# Poissons Ratio (z) = 0.28375 0.31384
#
# Static dielectric constant tensor:
#      x y z
#    x 2.124280 0.064430 0.028790 
#    y 0.064430 2.244910 0.045330 
#    z 0.028790 0.045330 2.252170 
# 
# From -- ./inp_files/507053.got.cif
#   From: 2010.05.17/outbox.cif.g08.bks.cpg/sg2_254_cif.got.tgz:507053.got - 2010.06.03 11:33:40.
