data_PCOD9017803
_publ_section_title
;
Structure prediction by ZEFSAII (Michael W. Deem and Ramdas Pophale) SiO2 
 PCOD9017803
Probable space group: P -1
;
_chemical_formula_sum "Si O2"
_cell_formula_units_Z 14
_cell_length_a 11.431290
_cell_length_b 7.716761
_cell_length_c 10.781943
_cell_angle_alpha 56.544679
_cell_angle_beta 101.927975
_cell_angle_gamma 133.895440
_cell_volume 546.896200
_symmetry_space_group_name_H-M "P -1"
_symmetry_group_IT_number 2
_symmetry_cell_setting 'triclinic'
loop_
_space_group_symop_operation_xyz
x,y,z
-x,-y,-z
loop_
_atom_site_type_symbol
_atom_site_label
_atom_site_fract_x
_atom_site_fract_y
_atom_site_fract_z
Si Si1 0.854161 0.878231 0.423543
Si Si2 0.855252 0.991490 0.961246
Si Si3 0.401783 0.733116 0.986849
Si Si4 0.203600 0.857282 0.863539
Si Si5 0.925029 0.592111 0.363373
Si Si6 0.559056 0.539680 0.691671
Si Si7 0.394990 0.666610 0.751412
O O1 0.895971 0.151271 0.262658
O O2 0.865127 0.716114 0.383642
O O3 0.686284 0.678592 0.550438
O O4 0.000000 0.000000 0.500000
O O5 0.907321 0.156473 0.780198
O O6 0.856827 0.154718 0.009057
O O7 0.689831 0.647689 0.083219
O O8 0.000000 0.000000 0.000000
O O9 0.492161 0.856603 0.822838
O O10 0.230849 0.646420 0.950219
O O11 0.373631 0.491580 0.155701
O O12 0.500000 0.000000 0.000000
O O13 0.385204 0.203083 0.753741
O O14 0.756433 0.374789 0.320959
O O15 0.000000 0.500000 0.500000
O O16 0.512004 0.717877 0.648571
#
# Coordination Sequence:
#
# PCOD9017803 Si02
#       7
#     2   2   2   2   2   2   2
#     4  12  26  42  64  98 140 179 218 273 341 395
#     4   9  18  40  66  90 126 176 219 262 329 398
#     4  10  23  40  66 104 126 161 230 283 325 387
#     4  10  21  43  66  95 131 173 224 277 328 392
#     4  11  25  42  65 102 139 177 221 271 332 406
#     4  10  22  44  68  93 131 178 223 274 334 399
#     4  10  21  44  73  92 131 183 219 274 338 391
#
# _framework density 25.599007
#
# number of rings (size 3 to 8) (size 9 to 14) (size 15 to 20)
#    0.000    1.714    4.286    0.857    6.000    0.000 
#    0.000    4.286    0.000    0.000    0.000    0.000 
#    0.000    0.000    0.000    0.000    0.000    0.000 
#
# Total GULP energy -78195.923912 kJ/mol
# GULP energy per Si atom -5585.423137 kJ/mol
# Density = 2.554074 g / cm^3
# Si number density = 25.599007 Si / 1000 Ang^3
#
#
#
# Elastic Constant Matrix: (Units=GPa)
#
#
# Indices 1 2 3 4 5 6 
#
# 1 142.0906 7.5378 70.0845 -6.2974 -5.4743 -0.2823
# 2 7.5378 50.8024 31.4261 5.0196 -4.7785 19.6623
# 3 70.0845 31.4261 171.7895 1.1758 7.2840 14.0061
# 4 -6.2974 5.0196 1.1758 39.3831 6.6322 -1.6760
# 5 -5.4743 -4.7785 7.2840 6.6322 75.6765 -3.9143
# 6 -0.2823 19.6623 14.0061 -1.6760 -3.9143 18.0691
#
#
#
# Elastic Compliance Matrix: (Units=1/GPa)
#
#
# Indices 1 2 3 4 5 6 
#
# 1 0.009192 -0.000590 -0.004052 0.001665 0.001095 0.004319
# 2 -0.000590 0.037663 -0.003508 -0.006645 0.001258 -0.038618
# 3 -0.004052 -0.003508 0.008436 -0.000340 -0.001459 -0.003132
# 4 0.001665 -0.006645 -0.000340 0.027287 -0.002162 0.009584
# 5 0.001095 0.001258 -0.001459 -0.002162 0.013836 0.002575
# 6 0.004319 -0.038618 -0.003132 0.009584 0.002575 0.101308
#
#
# Mechanical properties :
#
#
# Convention : Reuss Voigt Hill
#
# Bulk Modulus (GPa) = 25.64790 64.75328 45.20059
# Shear Modulus (GPa) = 22.02449 43.66802 32.84626
#
# Velocity S-wave (km/s) = 2.93638 4.13467 3.58593
# Velocity P-wave (km/s) = 4.64083 6.93860 5.90260
#
# Compressibility (1/GPa) = 0.03898954
#
# Stress axis : x y z
#
# Youngs Moduli (GPa) = 108.78641 26.55098 118.54612
#
# Poissons Ratio (x) = 0.01567 0.48036
# Poissons Ratio (y) = 0.06422 0.41591
# Poissons Ratio (z) = 0.44081 0.09315
#
# Static dielectric constant tensor:
#      x y z
#    x 2.119510 -0.017110 0.020570 
#    y -0.017110 2.132310 0.197960 
#    z 0.020570 0.197960 1.755370 
# 
# From -- ./inp_files/237795.got.cif
#   From: 2010.05.17/outbox.cif.g08.bks.cpg/sg2_119_cif.got.tgz:237795.got - 2010.06.03 11:33:40.
