data_PCOD9017727
_publ_section_title
;
Structure prediction by ZEFSAII (Michael W. Deem and Ramdas Pophale) SiO2 
 PCOD9017727
Probable space group: P -1
;
_chemical_formula_sum "Si O2"
_cell_formula_units_Z 14
_cell_length_a 11.572441
_cell_length_b 15.071868
_cell_length_c 11.940410
_cell_angle_alpha 154.200771
_cell_angle_beta 143.795153
_cell_angle_gamma 43.208329
_cell_volume 535.362806
_symmetry_space_group_name_H-M "P -1"
_symmetry_group_IT_number 2
_symmetry_cell_setting 'triclinic'
loop_
_space_group_symop_operation_xyz
x,y,z
-x,-y,-z
loop_
_atom_site_type_symbol
_atom_site_label
_atom_site_fract_x
_atom_site_fract_y
_atom_site_fract_z
Si Si1 0.510082 0.146472 0.281893
Si Si2 0.692189 0.371397 0.100629
Si Si3 0.240874 0.400625 0.779596
Si Si4 0.710790 0.528097 0.642584
Si Si5 0.071957 0.736214 0.187846
Si Si6 0.124243 0.966805 0.281003
Si Si7 0.258129 0.881241 0.923865
O O1 0.347126 0.324215 0.339560
O O2 0.727794 0.237272 0.559076
O O3 0.500000 0.000000 0.000000
O O4 0.451184 0.006710 0.183303
O O5 0.469682 0.442355 0.024247
O O6 0.723869 0.204007 0.836468
O O7 0.799017 0.562130 0.341502
O O8 0.745733 0.243415 0.106252
O O9 0.211194 0.179709 0.554859
O O10 0.109396 0.553778 0.921890
O O11 0.500000 0.500000 0.500000
O O12 0.771781 0.300861 0.396532
O O13 0.864979 0.659459 0.985960
O O14 0.063579 0.934593 0.326549
O O15 0.921713 0.963036 0.050100
#
# Coordination Sequence:
#
# PCOD9017727 Si02
#       7
#     2   2   2   2   2   2   2
#     4  12  27  49  72 104 138 187 247 301 357 425
#     4  10  23  38  67 107 142 191 233 290 348 426
#     4  10  21  43  66 105 145 185 239 284 354 433
#     4  12  26  49  72 106 140 185 244 294 359 428
#     4  11  25  46  75 102 145 190 232 299 361 420
#     4  11  22  42  70 104 144 190 235 284 360 426
#     4  12  24  45  68 104 148 185 241 296 347 424
#
# _framework density 26.150490000000001
#
# number of rings (size 3 to 8) (size 9 to 14) (size 15 to 20)
#    0.000    0.857    4.286    2.571    0.000    5.143 
#    0.000    0.000    0.000    0.000    0.000    0.000 
#    0.000    0.000    0.000    0.000    0.000    0.000 
#
# Total GULP energy -78281.856569 kJ/mol
# GULP energy per Si atom -5591.561184 kJ/mol
# Density = 2.609097 g / cm^3
# Si number density = 26.150490 Si / 1000 Ang^3
#
#
#
# Elastic Constant Matrix: (Units=GPa)
#
#
# Indices 1 2 3 4 5 6 
#
# 1 60.5412 2.3532 31.2584 4.2386 25.7934 -0.0935
# 2 2.3532 117.2708 10.2859 6.4939 9.7395 1.6981
# 3 31.2584 10.2859 118.6927 1.5052 40.5889 1.0723
# 4 4.2386 6.4939 1.5052 48.5243 -2.1784 7.6970
# 5 25.7934 9.7395 40.5889 -2.1784 37.6793 4.2516
# 6 -0.0935 1.6981 1.0723 7.6970 4.2516 43.3412
#
#
#
# Elastic Compliance Matrix: (Units=1/GPa)
#
#
# Indices 1 2 3 4 5 6 
#
# 1 0.024094 0.001096 -0.000839 -0.003310 -0.016315 0.002218
# 2 0.001096 0.008844 0.000059 -0.001462 -0.003211 0.000229
# 3 -0.000839 0.000059 0.013498 -0.001191 -0.014193 0.001266
# 4 -0.003310 -0.001462 -0.001191 0.022084 0.005700 -0.004401
# 5 -0.016315 -0.003211 -0.014193 0.005700 0.054828 -0.005949
# 6 0.002218 0.000229 0.001266 -0.004401 -0.005949 0.024402
#
#
# Mechanical properties :
#
#
# Convention : Reuss Voigt Hill
#
# Bulk Modulus (GPa) = 21.24529 42.69996 31.97262
# Shear Modulus (GPa) = 30.71091 42.74943 36.73017
#
# Velocity S-wave (km/s) = 3.43066 4.04759 3.75182
# Velocity P-wave (km/s) = 4.88205 6.18126 5.56967
#
# Compressibility (1/GPa) = 0.04706925
#
# Stress axis : x y z
#
# Youngs Moduli (GPa) = 41.50336 113.06642 74.08387
#
# Poissons Ratio (x) = -0.12395 0.06219
# Poissons Ratio (y) = -0.04550 -0.00439
# Poissons Ratio (z) = 0.03484 -0.00670
#
# Static dielectric constant tensor:
#      x y z
#    x 2.130160 0.062410 0.033350 
#    y 0.062410 2.099780 -0.028630 
#    z 0.033350 -0.028630 2.072270 
# 
# From -- ./inp_files/433598.got.cif
#   From: 2010.05.17/outbox.cif.g08.bks.cpg/sg2_217_cif.got.tgz:433598.got - 2010.06.03 11:33:40.
