data_PCOD9017926
_publ_section_title
;
Structure prediction by ZEFSAII (Michael W. Deem and Ramdas Pophale) SiO2 
 PCOD9017926
Probable space group: P -1
;
_chemical_formula_sum "Si O2"
_cell_formula_units_Z 16
_cell_length_a 8.796092
_cell_length_b 8.870249
_cell_length_c 19.489559
_cell_angle_alpha 140.114972
_cell_angle_beta 43.455392
_cell_angle_gamma 114.679541
_cell_volume 636.254356
_symmetry_space_group_name_H-M "P -1"
_symmetry_group_IT_number 2
_symmetry_cell_setting 'triclinic'
loop_
_space_group_symop_operation_xyz
x,y,z
-x,-y,-z
loop_
_atom_site_type_symbol
_atom_site_label
_atom_site_fract_x
_atom_site_fract_y
_atom_site_fract_z
Si Si1 0.878177 0.829238 0.627460
Si Si2 0.188476 0.379498 0.553963
Si Si3 0.808506 0.662309 0.315013
Si Si4 0.411972 0.761153 0.955572
Si Si5 0.701006 0.408053 0.846883
Si Si6 0.276234 0.847957 0.740092
Si Si7 0.414086 0.725392 0.785930
Si Si8 0.079424 0.059126 0.747158
O O1 0.963095 0.663472 0.474111
O O2 0.664348 0.764401 0.710766
O O3 0.788096 0.109289 0.723134
O O4 0.061853 0.825980 0.625898
O O5 0.204547 0.223834 0.564473
O O6 0.138219 0.659794 0.695115
O O7 0.449459 0.292000 0.408159
O O8 0.620360 0.521307 0.321604
O O9 0.082124 0.502486 0.170317
O O10 0.795106 0.820400 0.307135
O O11 0.606244 0.531600 0.848061
O O12 0.343793 0.721602 0.886289
O O13 0.189528 0.816659 0.098393
O O14 0.500000 0.000000 0.000000
O O15 0.500000 0.500000 0.000000
O O16 0.251264 0.921707 0.853262
O O17 0.209784 0.045976 0.771407
#
# Coordination Sequence:
#
# PCOD9017926 Si02
#       8
#     2   2   2   2   2   2   2   2
#     4  10  21  43  67  94 129 169 210 258 318 373
#     4   9  20  41  63  90 129 168 210 260 315 373
#     4  10  23  42  66  96 129 166 212 259 318 377
#     4  12  24  42  65  94 131 166 212 262 313 383
#     4  11  22  44  65  91 134 165 202 269 313 370
#     4   9  21  41  62  91 130 166 210 266 310 372
#     4  10  22  40  63  93 124 170 210 252 314 376
#     4  11  23  40  63  96 129 166 213 263 314 371
#
# _framework density 25.147175000000001
#
# number of rings (size 3 to 8) (size 9 to 14) (size 15 to 20)
#    0.000    1.750    3.750    0.750    3.500    6.000 
#    4.500    7.500    0.000    0.000    0.000    0.000 
#    0.000    0.000    0.000    0.000    0.000    0.000 
#
# Total GULP energy -89257.369466 kJ/mol
# GULP energy per Si atom -5578.585592 kJ/mol
# Density = 2.508994 g / cm^3
# Si number density = 25.147175 Si / 1000 Ang^3
#
#
#
# Elastic Constant Matrix: (Units=GPa)
#
#
# Indices 1 2 3 4 5 6 
#
# 1 119.1098 37.3284 16.7908 -6.6730 24.8124 -27.4298
# 2 37.3284 145.4888 34.6838 -31.5431 1.4466 -14.8456
# 3 16.7908 34.6838 55.2565 -16.5121 11.6022 -4.0739
# 4 -6.6730 -31.5431 -16.5121 38.2954 -5.2692 0.8768
# 5 24.8124 1.4466 11.6022 -5.2692 36.3061 -20.3660
# 6 -27.4298 -14.8456 -4.0739 0.8768 -20.3660 58.0692
#
#
#
# Elastic Compliance Matrix: (Units=1/GPa)
#
#
# Indices 1 2 3 4 5 6 
#
# 1 0.011076 -0.002706 -0.000644 -0.001476 -0.006145 0.002362
# 2 -0.002706 0.010375 -0.004609 0.006779 0.005509 0.002880
# 3 -0.000644 -0.004609 0.024289 0.005553 -0.007787 -0.002593
# 4 -0.001476 0.006779 0.005553 0.034536 0.005582 0.002862
# 5 -0.006145 0.005509 -0.007787 0.005582 0.041867 0.012559
# 6 0.002362 0.002880 -0.002593 0.002862 0.012559 0.023252
#
#
# Mechanical properties :
#
#
# Convention : Reuss Voigt Hill
#
# Bulk Modulus (GPa) = 33.53094 55.27346 44.40220
# Shear Modulus (GPa) = 29.19644 41.93761 35.56702
#
# Velocity S-wave (km/s) = 3.41107 4.08816 3.76487
# Velocity P-wave (km/s) = 5.37371 6.65671 6.04932
#
# Compressibility (1/GPa) = 0.02982320
#
# Stress axis : x y z
#
# Youngs Moduli (GPa) = 90.28652 96.38242 41.17108
#
# Poissons Ratio (x) = 0.26084 0.02650
# Poissons Ratio (y) = 0.24434 0.18974
# Poissons Ratio (z) = 0.05811 0.44418
#
# Static dielectric constant tensor:
#      x y z
#    x 2.063870 -0.060550 0.015530 
#    y -0.060550 2.115110 0.049260 
#    z 0.015530 0.049260 2.024440 
# 
# From -- ./inp_files/214506.got.cif
#   From: 2010.05.17/outbox.cif.g08.bks.cpg/sg2_108_cif.got.tgz:214506.got - 2010.06.03 11:33:40.
