data_PCOD9017199
_publ_section_title
;
Structure prediction by ZEFSAII (Michael W. Deem and Ramdas Pophale) SiO2 
 PCOD9017199
Probable space group: P -1
;
_chemical_formula_sum "Si O2"
_cell_formula_units_Z 14
_cell_length_a 5.284935
_cell_length_b 6.687614
_cell_length_c 20.364632
_cell_angle_alpha 61.087952
_cell_angle_beta 104.248783
_cell_angle_gamma 97.608235
_cell_volume 610.591780
_symmetry_space_group_name_H-M "P -1"
_symmetry_group_IT_number 2
_symmetry_cell_setting 'triclinic'
loop_
_space_group_symop_operation_xyz
x,y,z
-x,-y,-z
loop_
_atom_site_type_symbol
_atom_site_label
_atom_site_fract_x
_atom_site_fract_y
_atom_site_fract_z
Si Si1 0.400861 0.537543 0.737258
Si Si2 0.070979 0.208896 0.260743
Si Si3 0.790249 0.243441 0.588965
Si Si4 0.858926 0.157363 0.016428
Si Si5 0.659959 0.481456 0.412962
Si Si6 0.296351 0.006005 0.831805
Si Si7 0.352817 0.404249 0.071121
O O1 0.681702 0.629784 0.764480
O O2 0.378138 0.609991 0.648017
O O3 0.379882 0.262128 0.779391
O O4 0.161342 0.643521 0.745828
O O5 0.164599 0.016989 0.348144
O O6 0.963869 0.067050 0.213300
O O7 0.687864 0.290780 0.501435
O O8 0.579975 0.358883 0.605807
O O9 0.070141 0.372134 0.592698
O O10 0.082385 0.288865 0.050899
O O11 0.712701 0.016109 0.086083
O O12 0.702261 0.353651 0.937462
O O13 0.000000 0.000000 0.000000
O O14 0.484865 0.799750 0.856786
O O15 0.500000 0.500000 0.000000
#
# Coordination Sequence:
#
# PCOD9017199 Si02
#       7
#     2   2   2   2   2   2   2
#     4  12  28  44  73 108 144 196 248 289 362 439
#     4  12  28  45  71 107 146 195 242 297 365 425
#     4  10  21  42  73 100 146 193 237 307 354 416
#     4  10  23  45  76 102 133 179 235 293 352 436
#     4  10  21  42  72 103 140 195 245 294 363 413
#     4  11  27  47  69 101 150 183 231 305 359 430
#     4   9  22  44  68  99 134 176 222 288 354 424
#
# _framework density 22.928577000000001
#
# number of rings (size 3 to 8) (size 9 to 14) (size 15 to 20)
#    0.000    1.429    1.429    1.714    4.000    8.000 
#    0.000    0.000    0.000    0.000    0.000    0.000 
#    0.000    0.000    0.000    0.000    0.000    0.000 
#
# Total GULP energy -78286.960686 kJ/mol
# GULP energy per Si atom -5591.925763 kJ/mol
# Density = 2.287639 g / cm^3
# Si number density = 22.928577 Si / 1000 Ang^3
#
#
#
# Elastic Constant Matrix: (Units=GPa)
#
#
# Indices 1 2 3 4 5 6 
#
# 1 146.5227 58.7482 39.2146 -16.2166 2.4860 -6.2126
# 2 58.7482 132.5484 66.2677 -18.4314 3.5761 -3.1364
# 3 39.2146 66.2677 113.4222 -19.3432 5.8381 -7.4511
# 4 -16.2166 -18.4314 -19.3432 33.8272 -17.6746 1.3538
# 5 2.4860 3.5761 5.8381 -17.6746 20.5862 0.6365
# 6 -6.2126 -3.1364 -7.4511 1.3538 0.6365 52.3575
#
#
#
# Elastic Compliance Matrix: (Units=1/GPa)
#
#
# Indices 1 2 3 4 5 6 
#
# 1 0.008589 -0.003036 -0.000712 0.003374 0.002570 0.000617
# 2 -0.003036 0.012078 -0.005607 0.003403 0.002798 -0.000557
# 3 -0.000712 -0.005607 0.013176 0.004834 0.001433 0.001312
# 4 0.003374 0.003403 0.004834 0.062774 0.051556 -0.000958
# 5 0.002570 0.002798 0.001433 0.051556 0.091692 -0.001771
# 6 0.000617 -0.000557 0.001312 -0.000958 -0.001771 0.019372
#
#
# Mechanical properties :
#
#
# Convention : Reuss Voigt Hill
#
# Bulk Modulus (GPa) = 66.08566 80.10603 73.09584
# Shear Modulus (GPa) = 21.60425 36.57168 29.08797
#
# Velocity S-wave (km/s) = 3.07293 3.99811 3.56565
# Velocity P-wave (km/s) = 6.44014 7.50508 6.99291
#
# Compressibility (1/GPa) = 0.01513188
#
# Stress axis : x y z
#
# Youngs Moduli (GPa) = 116.43028 82.79472 75.89843
#
# Poissons Ratio (x) = 0.25140 0.05402
# Poissons Ratio (y) = 0.35354 0.42557
# Poissons Ratio (z) = 0.08287 0.46423
#
# Static dielectric constant tensor:
#      x y z
#    x 1.872730 -0.001300 0.005740 
#    y -0.001300 1.825000 0.039170 
#    z 0.005740 0.039170 1.952600 
# 
# From -- ./inp_files/114497.got.cif
#   From: 2010.05.17/outbox.cif.g08.bks.cpg/sg2_58_cif.got.tgz:114497.got - 2010.06.03 11:33:40.
