data_PCOD9017637
_publ_section_title
;
Structure prediction by ZEFSAII (Michael W. Deem and Ramdas Pophale) SiO2 
 PCOD9017637
Probable space group: P -1
;
_chemical_formula_sum "Si O2"
_cell_formula_units_Z 15
_cell_length_a 9.553472
_cell_length_b 16.385921
_cell_length_c 15.735609
_cell_angle_alpha 151.132721
_cell_angle_beta 140.181086
_cell_angle_gamma 31.827820
_cell_volume 624.368827
_symmetry_space_group_name_H-M "P -1"
_symmetry_group_IT_number 2
_symmetry_cell_setting 'triclinic'
loop_
_space_group_symop_operation_xyz
x,y,z
-x,-y,-z
loop_
_atom_site_type_symbol
_atom_site_label
_atom_site_fract_x
_atom_site_fract_y
_atom_site_fract_z
Si Si1 0.269497 0.700304 0.432547
Si Si2 0.500000 0.500000 0.000000
Si Si3 0.562120 0.762619 0.880508
Si Si4 0.514637 0.825960 0.233261
Si Si5 0.167495 0.408630 0.409498
Si Si6 0.056613 0.211580 0.474031
Si Si7 0.905931 0.808923 0.957798
Si Si8 0.849916 0.748610 0.161489
O O1 0.514895 0.715323 0.543063
O O2 0.115966 0.800142 0.541913
O O3 0.069583 0.777622 0.329293
O O4 0.377963 0.458927 0.275166
O O5 0.505799 0.629378 0.041272
O O6 0.825020 0.321396 0.982389
O O7 0.704093 0.819815 0.068698
O O8 0.251895 0.945823 0.897930
O O9 0.698646 0.765218 0.860948
O O10 0.740280 0.761172 0.350851
O O11 0.616486 0.855000 0.220053
O O12 0.250302 0.015942 0.326067
O O13 0.061261 0.282881 0.203742
O O14 0.000000 0.500000 0.500000
O O15 0.099155 0.593374 0.482177
O O16 0.000000 0.500000 0.000000
#
# Coordination Sequence:
#
# PCOD9017637 Si02
#       8
#     2   1   2   2   2   2   2   2
#     4  10  21  43  72  92 126 182 220 262 336 403
#     4  12  22  42  62  92 134 166 214 268 340 382
#     4  10  22  43  69  94 129 170 230 268 321 405
#     4  10  22  38  68  94 127 170 222 269 324 393
#     4  12  26  41  62  96 140 165 217 284 326 383
#     4  10  21  43  65  93 130 178 218 261 328 407
#     4  11  25  41  63  98 131 175 215 278 331 387
#     4   9  19  40  68  96 126 172 216 272 320 394
#
# _framework density 24.024263000000001
#
# number of rings (size 3 to 8) (size 9 to 14) (size 15 to 20)
#    0.000    1.600    2.667    2.000    3.733    4.267 
#    0.000    2.000    0.000    0.000    0.000    0.000 
#    0.000    0.000    0.000    0.000    0.000    0.000 
#
# Total GULP energy -83567.668532 kJ/mol
# GULP energy per Si atom -5571.177902 kJ/mol
# Density = 2.396958 g / cm^3
# Si number density = 24.024263 Si / 1000 Ang^3
#
#
#
# Elastic Constant Matrix: (Units=GPa)
#
#
# Indices 1 2 3 4 5 6 
#
# 1 66.1794 30.1050 21.8196 -9.2756 -24.7353 -18.3936
# 2 30.1050 131.3967 38.9122 -8.0426 -12.8279 -23.5942
# 3 21.8196 38.9122 67.6378 9.9987 -21.4699 1.0339
# 4 -9.2756 -8.0426 9.9987 34.1279 -1.0706 0.3019
# 5 -24.7353 -12.8279 -21.4699 -1.0706 45.0919 0.7859
# 6 -18.3936 -23.5942 1.0339 0.3019 0.7859 35.5191
#
#
#
# Elastic Compliance Matrix: (Units=1/GPa)
#
#
# Indices 1 2 3 4 5 6 
#
# 1 0.026697 -0.000026 -0.006544 0.009407 0.011506 0.013664
# 2 -0.000026 0.011527 -0.007575 0.004848 -0.000363 0.007831
# 3 -0.006544 -0.007575 0.024863 -0.010579 0.006002 -0.009187
# 4 0.009407 0.004848 -0.010579 0.036099 0.002220 0.008044
# 5 0.011506 -0.000363 0.006002 0.002220 0.031212 0.004833
# 6 0.013664 0.007831 -0.009187 0.008044 0.004833 0.040524
#
#
# Mechanical properties :
#
#
# Convention : Reuss Voigt Hill
#
# Bulk Modulus (GPa) = 28.73830 49.65418 39.19624
# Shear Modulus (GPa) = 23.71797 34.57292 29.14545
#
# Velocity S-wave (km/s) = 3.14546 3.79764 3.48683
# Velocity P-wave (km/s) = 5.01798 6.32002 5.70626
#
# Compressibility (1/GPa) = 0.03479677
#
# Stress axis : x y z
#
# Youngs Moduli (GPa) = 37.45779 86.75125 40.22009
#
# Poissons Ratio (x) = 0.00225 0.26322
# Poissons Ratio (y) = 0.00097 0.30466
# Poissons Ratio (z) = 0.24514 0.65713
#
# Static dielectric constant tensor:
#      x y z
#    x 1.894570 -0.021700 0.053820 
#    y -0.021700 1.901920 -0.024140 
#    z 0.053820 -0.024140 2.032280 
# 
# From -- ./inp_files/562100.got.cif
#   From: 2010.05.17/outbox.cif.g08.bks.cpg/sg2_282_cif.got.tgz:562100.got - 2010.06.03 11:33:40.
