data_PCOD9017152
_publ_section_title
;
Structure prediction by ZEFSAII (Michael W. Deem and Ramdas Pophale) SiO2 
 PCOD9017152
Probable space group: P -1
;
_chemical_formula_sum "Si O2"
_cell_formula_units_Z 16
_cell_length_a 12.621704
_cell_length_b 11.735341
_cell_length_c 12.517975
_cell_angle_alpha 101.684871
_cell_angle_beta 140.420132
_cell_angle_gamma 109.077550
_cell_volume 732.517354
_symmetry_space_group_name_H-M "P -1"
_symmetry_group_IT_number 2
_symmetry_cell_setting 'triclinic'
loop_
_space_group_symop_operation_xyz
x,y,z
-x,-y,-z
loop_
_atom_site_type_symbol
_atom_site_label
_atom_site_fract_x
_atom_site_fract_y
_atom_site_fract_z
Si Si1 0.570544 0.877148 0.871659
Si Si2 0.545406 0.120181 0.842870
Si Si3 0.766280 0.729291 0.930460
Si Si4 0.611559 0.942689 0.527644
Si Si5 0.246053 0.200320 0.285174
Si Si6 0.886853 0.053779 0.367231
Si Si7 0.730786 0.641850 0.451402
Si Si8 0.030748 0.485878 0.397054
O O1 0.700824 0.828239 0.924595
O O2 0.259503 0.695131 0.575048
O O3 0.650721 0.044292 0.916017
O O4 0.662055 0.927277 0.076108
O O5 0.506126 0.138446 0.695633
O O6 0.270600 0.968044 0.664815
O O7 0.746716 0.319446 0.091704
O O8 0.683190 0.673848 0.731246
O O9 0.582969 0.547368 0.824893
O O10 0.074145 0.875098 0.208353
O O11 0.500000 0.000000 0.500000
O O12 0.563679 0.804199 0.538701
O O13 0.201922 0.241705 0.371316
O O14 0.000000 0.000000 0.000000
O O15 0.134181 0.238548 0.528660
O O16 0.000000 0.000000 0.500000
O O17 0.844921 0.574024 0.536297
O O18 0.000000 0.500000 0.500000
#
# Coordination Sequence:
#
# PCOD9017152 Si02
#       8
#     2   2   2   2   2   2   2   2
#     4  11  22  43  68  98 137 184 235 285 342 419
#     4  12  24  43  72  99 147 183 233 289 354 408
#     4  10  23  43  70 103 138 177 241 286 351 419
#     4  11  25  44  70 104 138 182 233 289 357 420
#     4  10  21  42  71  96 135 184 236 282 347 416
#     4  12  23  41  68  97 138 186 227 281 353 409
#     4  11  23  41  72  99 138 183 236 289 347 417
#     4  11  23  41  68 104 135 183 241 284 339 416
#
# _framework density 21.842485
#
# number of rings (size 3 to 8) (size 9 to 14) (size 15 to 20)
#    0.000    1.000    2.500    5.250    3.500    0.000 
#    4.500    3.750    0.000    0.000    0.000    0.000 
#    0.000    0.000    0.000    0.000    0.000    0.000 
#
# Total GULP energy -89266.119179 kJ/mol
# GULP energy per Si atom -5579.132449 kJ/mol
# Density = 2.179277 g / cm^3
# Si number density = 21.842485 Si / 1000 Ang^3
#
#
#
# Elastic Constant Matrix: (Units=GPa)
#
#
# Indices 1 2 3 4 5 6 
#
# 1 67.0995 -7.6479 26.0823 -0.0467 9.7025 -10.2464
# 2 -7.6479 61.8605 46.2862 0.1176 5.1377 5.0537
# 3 26.0823 46.2862 111.4308 4.2456 -3.4404 3.3776
# 4 -0.0467 0.1176 4.2456 42.1321 7.8058 2.9163
# 5 9.7025 5.1377 -3.4404 7.8058 42.0015 1.5967
# 6 -10.2464 5.0537 3.3776 2.9163 1.5967 42.7905
#
#
#
# Elastic Compliance Matrix: (Units=1/GPa)
#
#
# Indices 1 2 3 4 5 6 
#
# 1 0.021749 0.010266 -0.009819 0.002063 -0.007654 0.004915
# 2 0.010266 0.029177 -0.014876 0.002836 -0.007697 0.000281
# 3 -0.009819 -0.014876 0.017808 -0.002760 0.006137 -0.002041
# 4 0.002063 0.002836 -0.002760 0.025137 -0.005678 -0.001124
# 5 -0.007654 -0.007697 0.006137 -0.005678 0.028155 -0.002072
# 6 0.004915 0.000281 -0.002041 -0.001124 -0.002072 0.024829
#
#
# Mechanical properties :
#
#
# Convention : Reuss Voigt Hill
#
# Bulk Modulus (GPa) = 25.07842 41.09245 33.08543
# Shear Modulus (GPa) = 26.45430 37.09618 31.77524
#
# Velocity S-wave (km/s) = 3.48392 4.12557 3.81825
# Velocity P-wave (km/s) = 5.26213 6.44575 5.88378
#
# Compressibility (1/GPa) = 0.03987492
#
# Stress axis : x y z
#
# Youngs Moduli (GPa) = 45.97934 34.27406 56.15351
#
# Poissons Ratio (x) = -0.35185 0.55136
# Poissons Ratio (y) = -0.47202 0.83537
# Poissons Ratio (z) = 0.45146 0.50988
#
# Static dielectric constant tensor:
#      x y z
#    x 1.845580 0.029780 0.051870 
#    y 0.029780 1.822450 0.074390 
#    z 0.051870 0.074390 1.820570 
# 
# From -- ./inp_files/428597.got.cif
#   From: 2010.05.17/outbox.cif.g08.bks.cpg/sg2_215_cif.got.tgz:428597.got - 2010.06.03 11:33:40.
