data_PCOD9017147
_publ_section_title
;
Structure prediction by ZEFSAII (Michael W. Deem and Ramdas Pophale) SiO2 
 PCOD9017147
Probable space group: P -1
;
_chemical_formula_sum "Si O2"
_cell_formula_units_Z 16
_cell_length_a 14.347762
_cell_length_b 5.347809
_cell_length_c 10.027850
_cell_angle_alpha 124.099891
_cell_angle_beta 69.628702
_cell_angle_gamma 91.955192
_cell_volume 584.290721
_symmetry_space_group_name_H-M "P -1"
_symmetry_group_IT_number 2
_symmetry_cell_setting 'triclinic'
loop_
_space_group_symop_operation_xyz
x,y,z
-x,-y,-z
loop_
_atom_site_type_symbol
_atom_site_label
_atom_site_fract_x
_atom_site_fract_y
_atom_site_fract_z
Si Si1 0.942878 0.529542 0.365749
Si Si2 0.419674 0.335363 0.415844
Si Si3 0.655681 0.627294 0.815746
Si Si4 0.566716 0.745850 0.193051
Si Si5 0.729695 0.180031 0.999325
Si Si6 0.126429 0.737986 0.406659
Si Si7 0.114767 0.467607 0.890533
Si Si8 0.266850 0.897283 0.721919
O O1 0.912576 0.347801 0.453018
O O2 0.897334 0.413458 0.220131
O O3 0.063990 0.519922 0.289608
O O4 0.904424 0.901047 0.506681
O O5 0.500000 0.500000 0.500000
O O6 0.418805 0.386896 0.272880
O O7 0.308622 0.533139 0.568649
O O8 0.455529 0.969775 0.316915
O O9 0.752491 0.351293 0.695483
O O10 0.596475 0.700299 0.006541
O O11 0.712728 0.905865 0.834245
O O12 0.621044 0.414851 0.124235
O O13 0.634577 0.949564 0.300187
O O14 0.820982 0.356793 0.990609
O O15 0.752296 0.048284 0.096213
O O16 0.178578 0.117418 0.751565
O O17 0.000000 0.500000 0.000000
#
# Coordination Sequence:
#
# PCOD9017147 Si02
#       8
#     2   2   2   2   2   2   2   2
#     4  10  24  43  66 101 140 185 245 289 349 418
#     4  10  21  42  71  95 132 175 226 291 351 426
#     4  11  23  40  69  95 138 179 226 286 355 414
#     4   9  21  41  64  96 131 176 223 284 349 421
#     4  10  24  41  63  99 137 172 235 281 351 423
#     4  10  24  44  68  99 140 189 235 295 349 423
#     4  11  25  40  68  96 136 184 231 289 347 415
#     4   9  21  43  63  97 131 177 227 282 348 415
#
# _framework density 27.383628000000002
#
# number of rings (size 3 to 8) (size 9 to 14) (size 15 to 20)
#    0.000    2.000    0.000    1.125   10.500    3.500 
#    0.000    2.500    0.000    0.000    0.000    0.000 
#    0.000    0.000    0.000    0.000    0.000    0.000 
#
# Total GULP energy -89488.439269 kJ/mol
# GULP energy per Si atom -5593.027454 kJ/mol
# Density = 2.732130 g / cm^3
# Si number density = 27.383628 Si / 1000 Ang^3
#
#
#
# Elastic Constant Matrix: (Units=GPa)
#
#
# Indices 1 2 3 4 5 6 
#
# 1 158.7257 10.2722 32.4912 -12.4461 1.4495 -19.8888
# 2 10.2722 97.9528 2.8168 -9.4276 7.0829 -20.4269
# 3 32.4912 2.8168 56.1474 -13.2839 1.6723 -7.6439
# 4 -12.4461 -9.4276 -13.2839 37.5996 -6.3827 0.1804
# 5 1.4495 7.0829 1.6723 -6.3827 54.1231 -1.1171
# 6 -19.8888 -20.4269 -7.6439 0.1804 -1.1171 41.8221
#
#
#
# Elastic Compliance Matrix: (Units=1/GPa)
#
#
# Indices 1 2 3 4 5 6 
#
# 1 0.007507 0.000034 -0.003668 0.001202 0.000110 0.002914
# 2 0.000034 0.011785 0.000957 0.003092 -0.001086 0.005905
# 3 -0.003668 0.000957 0.021845 0.006756 0.000150 0.002691
# 4 0.001202 0.003092 0.006756 0.030656 0.003037 0.003265
# 5 0.000110 -0.001086 0.000150 0.003037 0.018970 0.000043
# 6 0.002914 0.005905 0.002691 0.003265 0.000043 0.028659
#
#
# Mechanical properties :
#
#
# Convention : Reuss Voigt Hill
#
# Bulk Modulus (GPa) = 27.94642 44.88738 36.41690
# Shear Modulus (GPa) = 36.57488 44.52534 40.55011
#
# Velocity S-wave (km/s) = 3.65862 4.03672 3.85231
# Velocity P-wave (km/s) = 5.29858 6.17693 5.75454
#
# Compressibility (1/GPa) = 0.03578276
#
# Stress axis : x y z
#
# Youngs Moduli (GPa) = 133.20470 84.85052 45.77671
#
# Poissons Ratio (x) = -0.00285 0.16791
# Poissons Ratio (y) = -0.00448 -0.04381
# Poissons Ratio (z) = 0.48861 -0.08120
#
# Static dielectric constant tensor:
#      x y z
#    x 2.276190 0.110590 0.003640 
#    y 0.110590 2.233390 -0.024810 
#    z 0.003640 -0.024810 2.157170 
# 
# From -- ./inp_files/442323.got.cif
#   From: 2010.05.17/outbox.cif.g08.bks.cpg/sg2_222_cif.got.tgz:442323.got - 2010.06.03 11:33:40.
