data_PCOD9017980
_publ_section_title
;
Structure prediction by ZEFSAII (Michael W. Deem and Ramdas Pophale) SiO2 
 PCOD9017980
Probable space group: P -1
;
_chemical_formula_sum "Si O2"
_cell_formula_units_Z 16
_cell_length_a 15.695042
_cell_length_b 8.601941
_cell_length_c 8.044044
_cell_angle_alpha 61.869106
_cell_angle_beta 76.260248
_cell_angle_gamma 116.733454
_cell_volume 702.288578
_symmetry_space_group_name_H-M "P -1"
_symmetry_group_IT_number 2
_symmetry_cell_setting 'triclinic'
loop_
_space_group_symop_operation_xyz
x,y,z
-x,-y,-z
loop_
_atom_site_type_symbol
_atom_site_label
_atom_site_fract_x
_atom_site_fract_y
_atom_site_fract_z
Si Si1 0.776812 0.472337 0.964499
Si Si2 0.160746 0.082821 0.715250
Si Si3 0.782969 0.798855 0.022213
Si Si4 0.333524 0.997245 0.583876
Si Si5 0.755340 0.106962 0.671076
Si Si6 0.318549 0.620253 0.280626
Si Si7 0.454123 0.635394 0.484895
Si Si8 0.017747 0.664506 0.761372
O O1 0.814469 0.706680 0.907953
O O2 0.677489 0.361989 0.928454
O O3 0.893628 0.539946 0.800588
O O4 0.731372 0.273416 0.221801
O O5 0.223198 0.342432 0.497412
O O6 0.255736 0.048790 0.678377
O O7 0.064623 0.896447 0.723011
O O8 0.129073 0.060430 0.935432
O O9 0.750628 0.943867 0.887419
O O10 0.670289 0.556982 0.275995
O O11 0.332899 0.039330 0.368173
O O12 0.456346 0.155599 0.537723
O O13 0.725494 0.253413 0.691178
O O14 0.883064 0.266608 0.446046
O O15 0.431773 0.708794 0.286150
O O16 0.500000 0.500000 0.500000
O O17 0.000000 0.500000 0.000000
#
# Coordination Sequence:
#
# PCOD9017980 Si02
#       8
#     2   2   2   2   2   2   2   2
#     4  12  25  44  69 102 139 176 226 279 333 400
#     4  10  21  43  67  96 137 175 219 279 326 400
#     4  11  25  43  68 102 137 175 226 280 332 400
#     4  11  21  44  69  95 138 174 221 283 329 396
#     4  11  25  44  68 102 141 173 227 278 332 402
#     4  11  25  43  68 102 136 175 228 278 331 403
#     4  11  24  45  73  95 135 182 224 275 349 392
#     4  11  24  44  72  97 137 184 220 270 346 395
#
# _framework density 22.782658000000001
#
# number of rings (size 3 to 8) (size 9 to 14) (size 15 to 20)
#    0.000    1.000    5.000    3.750    0.000    6.000 
#    0.000    0.000    0.000    0.000    0.000    0.000 
#    0.000    0.000    0.000    0.000    0.000    0.000 
#
# Total GULP energy -89493.570547 kJ/mol
# GULP energy per Si atom -5593.348159 kJ/mol
# Density = 2.273080 g / cm^3
# Si number density = 22.782658 Si / 1000 Ang^3
#
#
#
# Elastic Constant Matrix: (Units=GPa)
#
#
# Indices 1 2 3 4 5 6 
#
# 1 86.0015 16.0286 6.8263 -1.1181 13.9645 -3.5571
# 2 16.0286 77.9576 5.7877 -2.6662 6.6171 -25.4277
# 3 6.8263 5.7877 32.0496 0.2023 21.6032 4.0454
# 4 -1.1181 -2.6662 0.2023 38.3829 1.4115 5.8426
# 5 13.9645 6.6171 21.6032 1.4115 34.0662 -6.5998
# 6 -3.5571 -25.4277 4.0454 5.8426 -6.5998 42.3005
#
#
#
# Elastic Compliance Matrix: (Units=1/GPa)
#
#
# Indices 1 2 3 4 5 6 
#
# 1 0.013007 -0.002951 0.002670 0.000735 -0.006891 -0.002112
# 2 -0.002951 0.017357 -0.007110 -0.000795 0.004647 0.011700
# 3 0.002670 -0.007110 0.063324 0.003487 -0.043377 -0.017355
# 4 0.000735 -0.000795 0.003487 0.026953 -0.004477 -0.005171
# 5 -0.006891 0.004647 -0.043377 -0.004477 0.062203 0.016685
# 6 -0.002112 0.011700 -0.017355 -0.005171 0.016685 0.035473
#
#
# Mechanical properties :
#
#
# Convention : Reuss Voigt Hill
#
# Bulk Modulus (GPa) = 12.67346 28.14375 20.40861
# Shear Modulus (GPa) = 19.27518 34.10766 26.69142
#
# Velocity S-wave (km/s) = 2.91184 3.87342 3.42653
# Velocity P-wave (km/s) = 4.10852 5.69074 4.96309
#
# Compressibility (1/GPa) = 0.07890506
#
# Stress axis : x y z
#
# Youngs Moduli (GPa) = 76.88143 57.61426 15.79178
#
# Poissons Ratio (x) = 0.17005 -0.04216
# Poissons Ratio (y) = 0.22691 0.11227
# Poissons Ratio (z) = -0.20525 0.40962
#
# Static dielectric constant tensor:
#      x y z
#    x 1.843940 0.012300 -0.023380 
#    y 0.012300 1.866010 0.027950 
#    z -0.023380 0.027950 1.833300 
# 
# From -- ./inp_files/297437.got.cif
#   From: 2010.05.17/outbox.cif.g08.bks.cpg/sg2_149_cif.got.tgz:297437.got - 2010.06.03 11:33:40.
