data_PCOD9017820
_publ_section_title
;
Structure prediction by ZEFSAII (Michael W. Deem and Ramdas Pophale) SiO2 
 PCOD9017820
Probable space group: P -1
;
_chemical_formula_sum "Si O2"
_cell_formula_units_Z 16
_cell_length_a 12.294934
_cell_length_b 9.004866
_cell_length_c 15.890522
_cell_angle_alpha 56.099571
_cell_angle_beta 70.116318
_cell_angle_gamma 116.227684
_cell_volume 806.709431
_symmetry_space_group_name_H-M "P -1"
_symmetry_group_IT_number 2
_symmetry_cell_setting 'triclinic'
loop_
_space_group_symop_operation_xyz
x,y,z
-x,-y,-z
loop_
_atom_site_type_symbol
_atom_site_label
_atom_site_fract_x
_atom_site_fract_y
_atom_site_fract_z
Si Si1 0.229607 0.751932 0.590478
Si Si2 0.060709 0.275403 0.924372
Si Si3 0.322930 0.093811 0.760353
Si Si4 0.298854 0.189045 0.545214
Si Si5 0.349689 0.170458 0.179065
Si Si6 0.099195 0.587404 0.355408
Si Si7 0.969673 0.875140 0.457087
Si Si8 0.568077 0.160254 0.243940
O O1 0.143615 0.492190 0.755540
O O2 0.060170 0.593238 0.618641
O O3 0.290571 0.003055 0.548111
O O4 0.418593 0.924600 0.433600
O O5 0.234828 0.506721 0.874431
O O6 0.866685 0.122396 0.063061
O O7 0.000000 0.000000 0.000000
O O8 0.274143 0.097017 0.677053
O O9 0.499124 0.445556 0.631934
O O10 0.385833 0.965597 0.777011
O O11 0.126923 0.106829 0.586795
O O12 0.455764 0.163902 0.215347
O O13 0.262286 0.943612 0.197063
O O14 0.173842 0.053735 0.310308
O O15 0.500000 0.500000 0.000000
O O16 0.000000 0.500000 0.500000
O O17 0.168711 0.470965 0.381434
O O18 0.000000 0.000000 0.500000
#
# Coordination Sequence:
#
# PCOD9017820 Si02
#       8
#     2   2   2   2   2   2   2   2
#     4  12  24  45  72  99 138 183 230 282 341 413
#     4  12  29  43  69 103 141 178 231 290 343 395
#     4  11  27  45  69 105 136 182 229 284 343 407
#     4  11  24  43  74 100 140 179 232 275 348 408
#     4  11  26  42  68 102 134 180 223 279 340 399
#     4  10  21  43  66  96 132 176 229 265 339 402
#     4  11  21  42  70  99 132 176 227 277 330 408
#     4  12  24  47  70  99 142 181 231 276 345 416
#
# _framework density 19.833660999999999
#
# number of rings (size 3 to 8) (size 9 to 14) (size 15 to 20)
#    0.000    0.750    5.000    2.250    8.750    0.000 
#    0.000    0.625    0.000    0.000    0.000    0.000 
#    0.000    0.000    0.000    0.000    0.000    0.000 
#
# Total GULP energy -89458.348446 kJ/mol
# GULP energy per Si atom -5591.146778 kJ/mol
# Density = 1.978852 g / cm^3
# Si number density = 19.833661 Si / 1000 Ang^3
#
#
#
# Elastic Constant Matrix: (Units=GPa)
#
#
# Indices 1 2 3 4 5 6 
#
# 1 132.9143 53.9350 55.1674 -0.2421 -12.6000 -4.8817
# 2 53.9350 138.9380 58.7080 -18.1611 2.9221 -15.8766
# 3 55.1674 58.7080 132.7832 -9.6569 -10.2183 -18.8272
# 4 -0.2421 -18.1611 -9.6569 30.1863 -9.4390 1.9894
# 5 -12.6000 2.9221 -10.2183 -9.4390 20.1275 2.3166
# 6 -4.8817 -15.8766 -18.8272 1.9894 2.3166 41.2027
#
#
#
# Elastic Compliance Matrix: (Units=1/GPa)
#
#
# Indices 1 2 3 4 5 6 
#
# 1 0.010463 -0.003317 -0.002766 -0.001030 0.005323 -0.001552
# 2 -0.003317 0.010616 -0.002940 0.004198 -0.003411 0.002343
# 3 -0.002766 -0.002940 0.011086 0.003266 0.005494 0.003138
# 4 -0.001030 0.004198 0.003266 0.043174 0.020681 -0.000259
# 5 0.005323 -0.003411 0.005494 0.020681 0.066332 -0.002901
# 6 -0.001552 0.002343 0.003138 -0.000259 -0.002901 0.026599
#
#
# Mechanical properties :
#
#
# Convention : Reuss Voigt Hill
#
# Bulk Modulus (GPa) = 70.83135 82.25068 76.54102
# Shear Modulus (GPa) = 26.17486 34.09163 30.13324
#
# Velocity S-wave (km/s) = 3.63673 4.15043 3.90205
# Velocity P-wave (km/s) = 7.30922 8.03296 7.67962
#
# Compressibility (1/GPa) = 0.01411804
#
# Stress axis : x y z
#
# Youngs Moduli (GPa) = 95.57080 94.19858 90.20705
#
# Poissons Ratio (x) = 0.31246 0.24951
# Poissons Ratio (y) = 0.31701 0.26525
# Poissons Ratio (z) = 0.26435 0.27699
#
# Static dielectric constant tensor:
#      x y z
#    x 1.698350 0.006160 0.009700 
#    y 0.006160 1.689250 -0.058180 
#    z 0.009700 -0.058180 1.675890 
# 
# From -- ./inp_files/274894.got.cif
#   From: 2010.05.17/outbox.cif.g08.bks.cpg/sg2_138_cif.got.tgz:274894.got - 2010.06.03 11:33:40.
