data_PCOD9017108
_publ_section_title
;
Structure prediction by ZEFSAII (Michael W. Deem and Ramdas Pophale) SiO2 
 PCOD9017108
Probable space group: P -1
;
_chemical_formula_sum "Si O2"
_cell_formula_units_Z 16
_cell_length_a 6.975518
_cell_length_b 5.944431
_cell_length_c 17.149019
_cell_angle_alpha 117.750926
_cell_angle_beta 68.494000
_cell_angle_gamma 102.797696
_cell_volume 584.374176
_symmetry_space_group_name_H-M "P -1"
_symmetry_group_IT_number 2
_symmetry_cell_setting 'triclinic'
loop_
_space_group_symop_operation_xyz
x,y,z
-x,-y,-z
loop_
_atom_site_type_symbol
_atom_site_label
_atom_site_fract_x
_atom_site_fract_y
_atom_site_fract_z
Si Si1 0.192939 0.872505 0.516073
Si Si2 0.230390 0.141807 0.979919
Si Si3 0.314402 0.521609 0.306819
Si Si4 0.542263 0.788747 0.565482
Si Si5 0.944644 0.845414 0.140107
Si Si6 0.712701 0.352546 0.277406
Si Si7 0.022560 0.790547 0.299193
Si Si8 0.344370 0.116971 0.120524
O O1 0.219952 0.619487 0.418841
O O2 0.373098 0.919626 0.560590
O O3 0.242826 0.088641 0.477968
O O4 0.012348 0.940151 0.611997
O O5 0.298478 0.274731 0.073584
O O6 0.193041 0.294789 0.929645
O O7 0.422673 0.958618 0.914226
O O8 0.188651 0.872452 0.089710
O O9 0.561044 0.516455 0.275108
O O10 0.245014 0.711818 0.280601
O O11 0.262165 0.247129 0.231630
O O12 0.500000 0.500000 0.500000
O O13 0.461141 0.789435 0.664760
O O14 0.851905 0.127317 0.193690
O O15 0.000000 0.000000 0.000000
O O16 0.871798 0.565728 0.325647
O O17 0.953628 0.767175 0.216273
#
# Coordination Sequence:
#
# PCOD9017108 Si02
#       8
#     2   2   2   2   2   2   2   2
#     4  11  23  40  63  98 138 183 237 281 329 397
#     4   9  20  42  77 106 128 175 223 276 351 415
#     4  12  25  40  64 102 138 178 228 282 336 399
#     4  11  20  40  66  91 128 185 238 282 330 389
#     4  11  23  42  72  97 134 185 222 278 346 399
#     4  12  23  42  67  93 133 184 230 278 339 397
#     4  12  26  43  62 101 142 179 236 282 326 404
#     4  10  21  42  71 104 139 170 225 282 339 416
#
# _framework density 27.379718
#
# number of rings (size 3 to 8) (size 9 to 14) (size 15 to 20)
#    0.000    1.000    6.250    1.125    0.000    2.000 
#    0.000    2.500    0.000    4.500    0.000    0.000 
#    0.000    0.000    0.000    0.000    0.000    0.000 
#
# Total GULP energy -89150.111210 kJ/mol
# GULP energy per Si atom -5571.881951 kJ/mol
# Density = 2.731740 g / cm^3
# Si number density = 27.379718 Si / 1000 Ang^3
#
#
#
# Elastic Constant Matrix: (Units=GPa)
#
#
# Indices 1 2 3 4 5 6 
#
# 1 181.4003 23.4901 43.8751 -20.6668 6.2808 -35.2445
# 2 23.4901 56.3276 33.9546 -2.3702 -4.5280 2.6562
# 3 43.8751 33.9546 143.9305 -7.2549 2.8645 -9.9144
# 4 -20.6668 -2.3702 -7.2549 39.4151 -9.4412 9.4830
# 5 6.2808 -4.5280 2.8645 -9.4412 50.4439 0.4279
# 6 -35.2445 2.6562 -9.9144 9.4830 0.4279 36.3505
#
#
#
# Elastic Compliance Matrix: (Units=1/GPa)
#
#
# Indices 1 2 3 4 5 6 
#
# 1 0.007738 -0.002894 -0.001088 0.001797 -0.000884 0.006959
# 2 -0.002894 0.022441 -0.004833 0.001103 0.002907 -0.006086
# 3 -0.001088 -0.004833 0.008553 0.000143 -0.000771 0.001602
# 4 0.001797 0.001103 0.000143 0.029126 0.005369 -0.005961
# 5 -0.000884 0.002907 -0.000771 0.005369 0.021269 -0.002931
# 6 0.006959 -0.006086 0.001602 -0.005961 -0.002931 0.036729
#
#
# Mechanical properties :
#
#
# Convention : Reuss Voigt Hill
#
# Bulk Modulus (GPa) = 47.39463 64.92200 56.15831
# Shear Modulus (GPa) = 33.21807 43.93114 38.57460
#
# Velocity S-wave (km/s) = 3.48693 4.00998 3.75757
# Velocity P-wave (km/s) = 5.79304 6.72333 6.27545
#
# Compressibility (1/GPa) = 0.02109944
#
# Stress axis : x y z
#
# Youngs Moduli (GPa) = 129.22955 44.56136 116.92184
#
# Poissons Ratio (x) = 0.12898 0.12727
# Poissons Ratio (y) = 0.37405 0.56511
# Poissons Ratio (z) = 0.14067 0.21537
#
# Static dielectric constant tensor:
#      x y z
#    x 2.211310 -0.101710 0.023550 
#    y -0.101710 2.309180 -0.034390 
#    z 0.023550 -0.034390 2.270010 
# 
# From -- ./inp_files/585834.got.cif
#   From: 2010.05.17/outbox.cif.g08.bks.cpg/sg2_293_cif.got.tgz:585834.got - 2010.06.03 11:33:40.
