data_PCOD9017228
_publ_section_title
;
Structure prediction by ZEFSAII (Michael W. Deem and Ramdas Pophale) SiO2 
 PCOD9017228
Probable space group: P -1
;
_chemical_formula_sum "Si O2"
_cell_formula_units_Z 16
_cell_length_a 16.884071
_cell_length_b 9.617417
_cell_length_c 7.720088
_cell_angle_alpha 64.086766
_cell_angle_beta 119.351446
_cell_angle_gamma 67.977944
_cell_volume 648.393756
_symmetry_space_group_name_H-M "P -1"
_symmetry_group_IT_number 2
_symmetry_cell_setting 'triclinic'
loop_
_space_group_symop_operation_xyz
x,y,z
-x,-y,-z
loop_
_atom_site_type_symbol
_atom_site_label
_atom_site_fract_x
_atom_site_fract_y
_atom_site_fract_z
Si Si1 0.336176 0.713242 0.199806
Si Si2 0.101403 0.803267 0.859980
Si Si3 0.959464 0.381637 0.879952
Si Si4 0.418404 0.952470 0.667032
Si Si5 0.744974 0.871989 0.269903
Si Si6 0.879361 0.258405 0.557926
Si Si7 0.258539 0.879297 0.419163
Si Si8 0.703624 0.720900 0.972422
O O1 0.500000 0.500000 0.500000
O O2 0.292697 0.812653 0.292573
O O3 0.258878 0.654033 0.099105
O O4 0.279786 0.915311 0.898389
O O5 0.077566 0.657320 0.962046
O O6 0.000000 0.000000 0.500000
O O7 0.030777 0.994180 0.838339
O O8 0.890955 0.634221 0.637029
O O9 0.882723 0.369035 0.663879
O O10 0.120703 0.159183 0.140244
O O11 0.365867 0.051843 0.751545
O O12 0.337502 0.153489 0.322998
O O13 0.380681 0.821321 0.666660
O O14 0.575192 0.792455 0.880342
O O15 0.733057 0.815511 0.095588
O O16 0.779574 0.238678 0.478400
O O17 0.827436 0.439713 0.253068
#
# Coordination Sequence:
#
# PCOD9017228 Si02
#       8
#     2   2   2   2   2   2   2   2
#     4  12  27  45  69 104 146 186 232 291 357 423
#     4  11  24  42  67 104 139 180 238 285 346 419
#     4  10  22  45  73  93 132 187 232 288 344 413
#     4  11  25  42  65  99 143 176 239 286 347 430
#     4  11  26  45  69 102 136 187 237 286 354 416
#     4  10  21  42  72  92 127 186 230 277 349 405
#     4  11  22  45  66  99 136 177 232 287 347 413
#     4  10  24  45  67  96 136 194 223 290 353 415
#
# _framework density 24.676364
#
# number of rings (size 3 to 8) (size 9 to 14) (size 15 to 20)
#    0.000    1.250    3.750    1.125    7.000    4.500 
#    0.000    0.000    0.000    0.000    0.000    0.000 
#    0.000    0.000    0.000    0.000    0.000    0.000 
#
# Total GULP energy -89547.769154 kJ/mol
# GULP energy per Si atom -5596.735572 kJ/mol
# Density = 2.462020 g / cm^3
# Si number density = 24.676364 Si / 1000 Ang^3
#
#
#
# Elastic Constant Matrix: (Units=GPa)
#
#
# Indices 1 2 3 4 5 6 
#
# 1 96.7303 22.6607 29.4126 -4.6433 16.3864 7.5362
# 2 22.6607 62.4541 14.9093 2.8984 0.8115 0.0338
# 3 29.4126 14.9093 77.0448 -10.1208 -13.0483 3.8386
# 4 -4.6433 2.8984 -10.1208 29.6081 2.8498 -0.2887
# 5 16.3864 0.8115 -13.0483 2.8498 38.0782 7.8129
# 6 7.5362 0.0338 3.8386 -0.2887 7.8129 44.4250
#
#
#
# Elastic Compliance Matrix: (Units=1/GPa)
#
#
# Indices 1 2 3 4 5 6 
#
# 1 0.014559 -0.003805 -0.006012 0.001390 -0.008248 -0.000488
# 2 -0.003805 0.018115 -0.002429 -0.003242 0.000512 0.000730
# 3 -0.006012 -0.002429 0.017948 0.004556 0.008871 -0.002060
# 4 0.001390 -0.003242 0.004556 0.036024 -0.001643 -0.000104
# 5 -0.008248 0.000512 0.008871 -0.001643 0.034065 -0.005369
# 6 -0.000488 0.000730 -0.002060 -0.000104 -0.005369 0.023714
#
#
# Mechanical properties :
#
#
# Convention : Reuss Voigt Hill
#
# Bulk Modulus (GPa) = 38.26707 41.13270 39.69988
# Shear Modulus (GPa) = 28.14883 33.70537 30.92710
#
# Velocity S-wave (km/s) = 3.38112 3.69981 3.54405
# Velocity P-wave (km/s) = 5.54832 5.91241 5.73325
#
# Compressibility (1/GPa) = 0.02613213
#
# Stress axis : x y z
#
# Youngs Moduli (GPa) = 68.68410 55.20156 55.71607
#
# Poissons Ratio (x) = 0.21002 0.33497
# Poissons Ratio (y) = 0.26131 0.13533
# Poissons Ratio (z) = 0.41293 0.13408
#
# Static dielectric constant tensor:
#      x y z
#    x 1.945240 -0.027360 -0.030840 
#    y -0.027360 2.087600 0.028740 
#    z -0.030840 0.028740 1.925900 
# 
# From -- ./inp_files/306530.got.cif
#   From: 2010.05.17/outbox.cif.g08.bks.cpg/sg2_154_cif.got.tgz:306530.got - 2010.06.03 11:33:40.
