data_PCOD9017857
_publ_section_title
;
Structure prediction by ZEFSAII (Michael W. Deem and Ramdas Pophale) SiO2 
 PCOD9017857
Probable space group: P -1
;
_chemical_formula_sum "Si O2"
_cell_formula_units_Z 16
_cell_length_a 23.322104
_cell_length_b 8.359020
_cell_length_c 8.196780
_cell_angle_alpha 52.630729
_cell_angle_beta 33.409686
_cell_angle_gamma 55.990113
_cell_volume 694.184404
_symmetry_space_group_name_H-M "P -1"
_symmetry_group_IT_number 2
_symmetry_cell_setting 'triclinic'
loop_
_space_group_symop_operation_xyz
x,y,z
-x,-y,-z
loop_
_atom_site_type_symbol
_atom_site_label
_atom_site_fract_x
_atom_site_fract_y
_atom_site_fract_z
Si Si1 0.721862 0.146354 0.426644
Si Si2 0.483030 0.559263 0.310600
Si Si3 0.100309 0.892683 0.732730
Si Si4 0.402424 0.150884 0.707373
Si Si5 0.187168 0.048637 0.115322
Si Si6 0.832048 0.364344 0.774974
Si Si7 0.325392 0.256881 0.193992
Si Si8 0.050349 0.444119 0.090343
O O1 0.604992 0.255540 0.629514
O O2 0.787286 0.083691 0.470967
O O3 0.714042 0.927849 0.500807
O O4 0.790219 0.305438 0.084519
O O5 0.500000 0.500000 0.500000
O O6 0.439721 0.369990 0.446684
O O7 0.593731 0.631665 0.960889
O O8 0.105027 0.001717 0.480960
O O9 0.094435 0.653112 0.895817
O O10 0.000000 0.000000 0.000000
O O11 0.500000 0.000000 0.500000
O O12 0.380546 0.163986 0.949898
O O13 0.296473 0.101982 0.899695
O O14 0.196903 0.830876 0.136634
O O15 0.133550 0.244490 0.023795
O O16 0.766891 0.571710 0.742641
O O17 0.952812 0.395062 0.462621
O O18 0.000000 0.500000 0.000000
#
# Coordination Sequence:
#
# PCOD9017857 Si02
#       8
#     2   2   2   2   2   2   2   2
#     4  12  24  43  76 104 140 189 240 290 359 426
#     4  10  21  43  67 100 142 183 234 290 345 423
#     4  12  27  46  74 107 145 190 241 296 364 428
#     4  11  23  45  73 103 146 188 235 299 356 421
#     4  12  27  48  72 107 149 190 236 302 359 425
#     4  12  26  45  76 102 145 189 240 299 353 434
#     4  11  24  45  72 105 143 188 245 289 360 430
#     4  12  28  47  72 107 146 187 241 293 363 428
#
# _framework density 23.048631
#
# number of rings (size 3 to 8) (size 9 to 14) (size 15 to 20)
#    0.000    0.500    5.000    3.750    5.250    1.000 
#    0.000    0.625    0.000    0.000    0.000    0.000 
#    0.000    0.000    0.000    0.000    0.000    0.000 
#
# Total GULP energy -89367.561873 kJ/mol
# GULP energy per Si atom -5585.472617 kJ/mol
# Density = 2.299617 g / cm^3
# Si number density = 23.048631 Si / 1000 Ang^3
#
#
#
# Elastic Constant Matrix: (Units=GPa)
#
#
# Indices 1 2 3 4 5 6 
#
# 1 36.7584 25.5198 -4.3978 18.0051 -32.1787 -14.1904
# 2 25.5198 190.5500 42.6517 -3.2672 -13.7363 -21.1930
# 3 -4.3978 42.6517 68.3223 -2.4284 -44.6338 -11.1936
# 4 18.0051 -3.2672 -2.4284 44.5554 17.8274 -3.5389
# 5 -32.1787 -13.7363 -44.6338 17.8274 21.6876 -16.5119
# 6 -14.1904 -21.1930 -11.1936 -3.5389 -16.5119 35.9627
#
#
#
# Elastic Compliance Matrix: (Units=1/GPa)
#
#
# Indices 1 2 3 4 5 6 
#
# 1 0.008865 -0.000778 -0.010534 0.001587 -0.015969 -0.007415
# 2 -0.000778 0.006368 -0.001673 -0.000013 0.002573 0.004105
# 3 -0.010534 -0.001673 0.009108 0.007452 -0.008101 -0.005294
# 4 0.001587 -0.000013 0.007452 0.019678 0.008021 0.008557
# 5 -0.015969 0.002573 -0.008101 0.008021 -0.006430 -0.009470
# 6 -0.007415 0.004105 -0.005294 0.008557 -0.009470 0.022146
#
#
# Mechanical properties :
#
#
# Convention : Reuss Voigt Hill
#
# Bulk Modulus (GPa) = -613.95794 47.01980 -283.46907
# Shear Modulus (GPa) = 58.71053 35.89828 47.30441
#
# Velocity S-wave (km/s) = 5.05250 3.95080 4.53523
# Velocity P-wave (km/s) = 15.26159 6.42311 9.78928
#
# Compressibility (1/GPa) = -0.00162878
#
# Stress axis : x y z
#
# Youngs Moduli (GPa) = 112.79990 157.02452 109.79405
#
# Poissons Ratio (x) = 0.12217 1.15661
# Poissons Ratio (y) = 0.08776 0.18367
# Poissons Ratio (z) = 1.18827 0.26268
#
# Static dielectric constant tensor:
#      x y z
#    x 1.846680 0.050260 0.109190 
#    y 0.050260 1.835020 0.002900 
#    z 0.109190 0.002900 1.856610 
# 
# From -- ./inp_files/352011.got.cif
#   From: 2010.05.17/outbox.cif.g08.bks.cpg/sg2_177_cif.got.tgz:352011.got - 2010.06.03 11:33:40.
