data_PCOD9017424
_publ_section_title
;
Structure prediction by ZEFSAII (Michael W. Deem and Ramdas Pophale) SiO2 
 PCOD9017424
Probable space group: P -1
;
_chemical_formula_sum "Si O2"
_cell_formula_units_Z 16
_cell_length_a 5.156764
_cell_length_b 19.792487
_cell_length_c 11.605379
_cell_angle_alpha 136.487179
_cell_angle_beta 62.169885
_cell_angle_gamma 120.625661
_cell_volume 692.244646
_symmetry_space_group_name_H-M "P -1"
_symmetry_group_IT_number 2
_symmetry_cell_setting 'triclinic'
loop_
_space_group_symop_operation_xyz
x,y,z
-x,-y,-z
loop_
_atom_site_type_symbol
_atom_site_label
_atom_site_fract_x
_atom_site_fract_y
_atom_site_fract_z
Si Si1 0.947573 0.052799 0.460526
Si Si2 0.765152 0.411112 0.588636
Si Si3 0.802851 0.071547 0.181570
Si Si4 0.805119 0.302001 0.073062
Si Si5 0.651300 0.812983 0.635779
Si Si6 0.739899 0.609435 0.718961
Si Si7 0.521159 0.914114 0.233495
Si Si8 0.856115 0.516577 0.929967
O O1 0.670426 0.094202 0.617392
O O2 0.197436 0.144591 0.465522
O O3 0.860258 0.959727 0.271465
O O4 0.000000 0.000000 0.500000
O O5 0.516218 0.305090 0.487537
O O6 0.648605 0.506139 0.685887
O O7 0.870947 0.435163 0.727334
O O8 0.055870 0.409570 0.450487
O O9 0.601630 0.125239 0.210340
O O10 0.065879 0.158782 0.299690
O O11 0.560758 0.003730 0.240286
O O12 0.000000 0.000000 0.000000
O O13 0.545681 0.357057 0.226787
O O14 0.041316 0.308947 0.137440
O O15 0.986191 0.371299 0.016869
O O16 0.619482 0.190447 0.931894
O O17 0.500000 0.500000 0.000000
O O18 0.000000 0.500000 0.000000
#
# Coordination Sequence:
#
# PCOD9017424 Si02
#       8
#     2   2   2   2   2   2   2   2
#     4  10  21  43  62  94 131 175 228 269 327 390
#     4  10  25  46  71  98 137 174 226 279 331 404
#     4  11  25  43  63 101 136 168 221 276 321 393
#     4  11  25  43  70  99 131 182 220 270 346 390
#     4  11  25  41  70  96 128 183 216 266 342 384
#     4  10  25  45  69 100 132 174 228 278 327 403
#     4  10  24  40  66  93 133 175 220 276 323 399
#     4  11  25  44  65 100 135 168 218 275 330 394
#
# _framework density 23.113218
#
# number of rings (size 3 to 8) (size 9 to 14) (size 15 to 20)
#    0.000    1.500    1.250    1.875    7.000    9.500 
#    0.000    0.000    0.000    0.000    0.000    0.000 
#    0.000    0.000    0.000    0.000    0.000    0.000 
#
# Total GULP energy -89368.870923 kJ/mol
# GULP energy per Si atom -5585.554433 kJ/mol
# Density = 2.306061 g / cm^3
# Si number density = 23.113218 Si / 1000 Ang^3
#
#
#
# Elastic Constant Matrix: (Units=GPa)
#
#
# Indices 1 2 3 4 5 6 
#
# 1 81.3779 26.3250 4.9645 1.7636 8.4722 19.1545
# 2 26.3250 87.6803 45.1070 13.4783 12.9217 27.2032
# 3 4.9645 45.1070 87.3812 13.1847 22.2195 15.0153
# 4 1.7636 13.4783 13.1847 47.3543 6.4224 10.6855
# 5 8.4722 12.9217 22.2195 6.4224 27.6693 -6.2724
# 6 19.1545 27.2032 15.0153 10.6855 -6.2724 21.8173
#
#
#
# Elastic Compliance Matrix: (Units=1/GPa)
#
#
# Indices 1 2 3 4 5 6 
#
# 1 0.025687 0.006643 0.011810 0.010954 -0.035346 -0.054489
# 2 0.006643 0.030043 0.000561 0.008049 -0.031212 -0.056593
# 3 0.011810 0.000561 0.025881 0.006624 -0.035815 -0.042421
# 4 0.010954 0.008049 0.006624 0.031721 -0.030814 -0.048607
# 5 -0.035346 -0.031212 -0.035815 -0.030814 0.130847 0.147308
# 6 -0.054489 -0.056593 -0.042421 -0.048607 0.147308 0.259591
#
#
# Mechanical properties :
#
#
# Convention : Reuss Voigt Hill
#
# Bulk Modulus (GPa) = 8.35852 45.47025 26.91439
# Shear Modulus (GPa) = 9.88884 31.37103 20.62993
#
# Velocity S-wave (km/s) = 2.07068 3.68812 2.99082
# Velocity P-wave (km/s) = 3.05633 6.15239 4.85762
#
# Compressibility (1/GPa) = 0.11963840
#
# Stress axis : x y z
#
# Youngs Moduli (GPa) = 38.93030 33.28597 38.63898
#
# Poissons Ratio (x) = -0.22112 -0.45631
# Poissons Ratio (y) = -0.25862 -0.02169
# Poissons Ratio (z) = -0.45976 -0.01868
#
# Static dielectric constant tensor:
#      x y z
#    x 2.110300 0.246680 -0.332390 
#    y 0.246680 2.238660 -0.430090 
#    z -0.332390 -0.430090 2.428000 
# 
# From -- ./inp_files/370437.got.cif
#   From: 2010.05.17/outbox.cif.g08.bks.cpg/sg2_186_cif.got.tgz:370437.got - 2010.06.03 11:33:40.
