data_PCOD9017481
_publ_section_title
;
Structure prediction by ZEFSAII (Michael W. Deem and Ramdas Pophale) SiO2 
 PCOD9017481
Probable space group: P -1
;
_chemical_formula_sum "Si O2"
_cell_formula_units_Z 15
_cell_length_a 16.945267
_cell_length_b 7.822827
_cell_length_c 11.671821
_cell_angle_alpha 100.348383
_cell_angle_beta 135.332870
_cell_angle_gamma 46.474532
_cell_volume 625.831008
_symmetry_space_group_name_H-M "P -1"
_symmetry_group_IT_number 2
_symmetry_cell_setting 'triclinic'
loop_
_space_group_symop_operation_xyz
x,y,z
-x,-y,-z
loop_
_atom_site_type_symbol
_atom_site_label
_atom_site_fract_x
_atom_site_fract_y
_atom_site_fract_z
Si Si1 0.000000 0.000000 0.000000
Si Si2 0.751729 0.975576 0.729625
Si Si3 0.844973 0.181987 0.102203
Si Si4 0.603876 0.797555 0.197107
Si Si5 0.004679 0.182039 0.465431
Si Si6 0.852363 0.650247 0.012108
Si Si7 0.713800 0.038262 0.112585
Si Si8 0.436802 0.264450 0.264779
O O1 0.823580 0.081014 0.801894
O O2 0.984675 0.962272 0.116117
O O3 0.746524 0.916457 0.848773
O O4 0.561338 0.175893 0.486483
O O5 0.923576 0.640437 0.814971
O O6 0.946608 0.210925 0.279794
O O7 0.791856 0.096796 0.123613
O O8 0.642944 0.495512 0.877064
O O9 0.829149 0.508492 0.377821
O O10 0.547881 0.978824 0.272342
O O11 0.511604 0.719228 0.098248
O O12 0.500000 0.000000 0.000000
O O13 0.000000 0.000000 0.500000
O O14 0.200297 0.034586 0.682108
O O15 0.764824 0.569720 0.881687
O O16 0.805353 0.758266 0.106790
#
# Coordination Sequence:
#
# PCOD9017481 Si02
#       8
#     1   2   2   2   2   2   2   2
#     4  12  24  44  64  96 134 174 228 264 336 400
#     4  11  23  40  66  90 131 179 217 278 332 389
#     4  11  23  45  61 100 138 171 229 277 326 415
#     4  11  23  43  68 103 131 170 232 279 332 413
#     4  10  23  44  68  98 135 178 220 274 343 400
#     4  10  21  43  63  95 131 168 229 272 327 407
#     4  10  23  43  70  94 137 178 216 282 344 392
#     4  11  23  42  66  98 131 171 223 277 341 390
#
# _framework density 23.968132000000001
#
# number of rings (size 3 to 8) (size 9 to 14) (size 15 to 20)
#    0.000    1.333    4.000    1.200    0.000    4.267 
#    4.800    0.000    0.000    0.000    0.000    0.000 
#    0.000    0.000    0.000    0.000    0.000    0.000 
#
# Total GULP energy -83626.587916 kJ/mol
# GULP energy per Si atom -5575.105861 kJ/mol
# Density = 2.391358 g / cm^3
# Si number density = 23.968132 Si / 1000 Ang^3
#
#
#
# Elastic Constant Matrix: (Units=GPa)
#
#
# Indices 1 2 3 4 5 6 
#
# 1 75.0776 -6.1174 7.0240 8.2715 1.8494 12.2349
# 2 -6.1174 33.9382 23.4137 4.5169 -4.1649 -7.0133
# 3 7.0240 23.4137 138.4195 21.0361 -3.0548 5.3431
# 4 8.2715 4.5169 21.0361 33.0757 3.8000 -0.5354
# 5 1.8494 -4.1649 -3.0548 3.8000 28.3826 4.1998
# 6 12.2349 -7.0133 5.3431 -0.5354 4.1998 41.4528
#
#
#
# Elastic Compliance Matrix: (Units=1/GPa)
#
#
# Indices 1 2 3 4 5 6 
#
# 1 0.014632 0.002719 -0.000454 -0.003861 0.000491 -0.003900
# 2 0.002719 0.036057 -0.006048 -0.002115 0.003910 0.005654
# 3 -0.000454 -0.006048 0.009149 -0.005046 0.001135 -0.002249
# 4 -0.003861 -0.002115 -0.005046 0.035393 -0.005706 0.002467
# 5 0.000491 0.003910 0.001135 -0.005706 0.037174 -0.003470
# 6 -0.003900 0.005654 -0.002249 0.002467 -0.003470 0.026905
#
#
# Mechanical properties :
#
#
# Convention : Reuss Voigt Hill
#
# Bulk Modulus (GPa) = 19.13016 32.89732 26.01374
# Shear Modulus (GPa) = 27.12958 35.45654 31.29306
#
# Velocity S-wave (km/s) = 3.36803 3.85037 3.61724
# Velocity P-wave (km/s) = 4.80870 5.78985 5.32193
#
# Compressibility (1/GPa) = 0.05227348
#
# Stress axis : x y z
#
# Youngs Moduli (GPa) = 68.34131 27.73360 109.29967
#
# Poissons Ratio (x) = -0.07541 0.04966
# Poissons Ratio (y) = -0.18583 0.66100
# Poissons Ratio (z) = 0.03105 0.16772
#
# Static dielectric constant tensor:
#      x y z
#    x 1.975180 -0.002900 0.028460 
#    y -0.002900 2.041580 0.062180 
#    z 0.028460 0.062180 1.879500 
# 
# From -- ./inp_files/39806.got.cif
#   From: 2010.05.17/outbox.cif.g08.bks.cpg/sg2_20_cif.got.tgz:39806.got - 2010.06.03 11:33:40.
