data_PCOD9017161
_publ_section_title
;
Structure prediction by ZEFSAII (Michael W. Deem and Ramdas Pophale) SiO2 
 PCOD9017161
Probable space group: P -1
;
_chemical_formula_sum "Si O2"
_cell_formula_units_Z 16
_cell_length_a 11.619653
_cell_length_b 9.200574
_cell_length_c 18.036713
_cell_angle_alpha 139.400356
_cell_angle_beta 143.874257
_cell_angle_gamma 37.863026
_cell_volume 657.182995
_symmetry_space_group_name_H-M "P -1"
_symmetry_group_IT_number 2
_symmetry_cell_setting 'triclinic'
loop_
_space_group_symop_operation_xyz
x,y,z
-x,-y,-z
loop_
_atom_site_type_symbol
_atom_site_label
_atom_site_fract_x
_atom_site_fract_y
_atom_site_fract_z
Si Si1 0.033146 0.722642 0.022556
Si Si2 0.712705 0.827895 0.092162
Si Si3 0.240014 0.737218 0.633039
Si Si4 0.174631 0.129620 0.463943
Si Si5 0.926630 0.459951 0.177268
Si Si6 0.126653 0.790234 0.798555
Si Si7 0.747366 0.295408 0.541785
Si Si8 0.504437 0.638129 0.273849
O O1 0.259628 0.740919 0.158289
O O2 0.864284 0.955748 0.072921
O O3 0.110839 0.422043 0.956713
O O4 0.967653 0.751493 0.913364
O O5 0.708092 0.676101 0.106308
O O6 0.786087 0.028160 0.239760
O O7 0.500000 0.000000 0.000000
O O8 0.228274 0.808544 0.569495
O O9 0.463192 0.498663 0.682299
O O10 0.045773 0.667168 0.528571
O O11 0.083021 0.126545 0.333433
O O12 0.384114 0.179090 0.593477
O O13 0.220989 0.895761 0.450067
O O14 0.892228 0.347719 0.191100
O O15 0.089190 0.582013 0.320128
O O16 0.337435 0.587801 0.785805
O O17 0.500000 0.500000 0.500000
#
# Coordination Sequence:
#
# PCOD9017161 Si02
#       8
#     2   2   2   2   2   2   2   2
#     4  10  24  43  70  97 142 183 226 283 344 405
#     4  10  21  42  71  98 129 188 229 270 350 404
#     4  11  21  46  69  90 142 176 224 288 344 396
#     4  11  24  42  68 102 132 182 229 285 344 407
#     4  10  23  47  67  97 144 176 226 289 339 403
#     4  11  24  44  70 102 140 182 229 285 347 404
#     4  12  27  42  68 104 134 178 235 283 347 412
#     4  11  24  42  70 104 134 181 235 274 349 418
#
# _framework density 24.346339
#
# number of rings (size 3 to 8) (size 9 to 14) (size 15 to 20)
#    0.750    0.500    2.500    3.750    5.250    1.000 
#    2.250    5.625    0.000    0.000    0.000    0.000 
#    0.000    0.000    0.000    0.000    0.000    0.000 
#
# Total GULP energy -89363.421059 kJ/mol
# GULP energy per Si atom -5585.213816 kJ/mol
# Density = 2.429093 g / cm^3
# Si number density = 24.346339 Si / 1000 Ang^3
#
#
#
# Elastic Constant Matrix: (Units=GPa)
#
#
# Indices 1 2 3 4 5 6 
#
# 1 89.9090 57.3366 50.6547 4.8760 -22.2164 21.6077
# 2 57.3366 101.2798 44.0906 -8.4952 -12.8333 35.1047
# 3 50.6547 44.0906 132.3310 1.9685 -20.8673 4.8230
# 4 4.8760 -8.4952 1.9685 41.9499 1.9653 -2.0953
# 5 -22.2164 -12.8333 -20.8673 1.9653 35.6698 3.4349
# 6 21.6077 35.1047 4.8230 -2.0953 3.4349 52.5740
#
#
#
# Elastic Compliance Matrix: (Units=1/GPa)
#
#
# Indices 1 2 3 4 5 6 
#
# 1 0.022470 -0.008981 -0.003975 -0.004851 0.009058 -0.003658
# 2 -0.008981 0.019805 -0.002819 0.004708 0.000501 -0.009119
# 3 -0.003975 -0.002819 0.010308 -0.000583 0.002342 0.002394
# 4 -0.004851 0.004708 -0.000583 0.025533 -0.003087 0.000123
# 5 0.009058 0.000501 0.002342 -0.003087 0.036047 -0.006750
# 6 -0.003658 -0.009119 0.002394 0.000123 -0.006750 0.026840
#
#
# Mechanical properties :
#
#
# Convention : Reuss Voigt Hill
#
# Bulk Modulus (GPa) = 47.54704 69.74264 58.64484
# Shear Modulus (GPa) = 27.84508 37.46794 32.65651
#
# Velocity S-wave (km/s) = 3.38554 3.92721 3.66639
# Velocity P-wave (km/s) = 5.90376 7.01942 6.48562
#
# Compressibility (1/GPa) = 0.02103181
#
# Stress axis : x y z
#
# Youngs Moduli (GPa) = 44.50390 50.49309 97.00785
#
# Poissons Ratio (x) = 0.45350 0.38560
# Poissons Ratio (y) = 0.39971 0.27350
# Poissons Ratio (z) = 0.17690 0.14236
#
# Static dielectric constant tensor:
#      x y z
#    x 1.975590 -0.009290 -0.026020 
#    y -0.009290 2.030380 0.002190 
#    z -0.026020 0.002190 1.969950 
# 
# From -- ./inp_files/567064.got.cif
#   From: 2010.05.17/outbox.cif.g08.bks.cpg/sg2_284_cif.got.tgz:567064.got - 2010.06.03 11:33:40.
