data_PCOD9017979
_publ_section_title
;
Structure prediction by ZEFSAII (Michael W. Deem and Ramdas Pophale) SiO2 
 PCOD9017979
Probable space group: P -1
;
_chemical_formula_sum "Si O2"
_cell_formula_units_Z 14
_cell_length_a 11.498878
_cell_length_b 20.649100
_cell_length_c 9.541804
_cell_angle_alpha 43.152760
_cell_angle_beta 47.615280
_cell_angle_gamma 25.045142
_cell_volume 655.300543
_symmetry_space_group_name_H-M "P -1"
_symmetry_group_IT_number 2
_symmetry_cell_setting 'triclinic'
loop_
_space_group_symop_operation_xyz
x,y,z
-x,-y,-z
loop_
_atom_site_type_symbol
_atom_site_label
_atom_site_fract_x
_atom_site_fract_y
_atom_site_fract_z
Si Si1 0.664866 0.840590 0.202363
Si Si2 0.354704 0.478477 0.824946
Si Si3 0.286588 0.860675 0.074632
Si Si4 0.822237 0.397152 0.511755
Si Si5 0.543380 0.695332 0.412099
Si Si6 0.300808 0.509594 0.141931
Si Si7 0.372949 0.035912 0.693607
O O1 0.600885 0.772664 0.291182
O O2 0.554619 0.918672 0.323894
O O3 0.996865 0.684112 0.170753
O O4 0.500000 0.000000 0.000000
O O5 0.522397 0.306735 0.900283
O O6 0.541350 0.481555 0.651108
O O7 0.129404 0.609661 0.681882
O O8 0.268564 0.501504 0.016638
O O9 0.305726 0.815889 0.293749
O O10 0.406786 0.908603 0.903449
O O11 0.000000 0.000000 0.000000
O O12 0.793062 0.515102 0.417799
O O13 0.047867 0.212827 0.667779
O O14 0.540701 0.642895 0.646542
O O15 0.500000 0.500000 0.000000
O O16 0.500000 0.000000 0.500000
#
# Coordination Sequence:
#
# PCOD9017979 Si02
#       7
#     2   2   2   2   2   2   2
#     4  12  27  49  68  99 151 183 225 297 357 410
#     4  10  22  40  69 101 131 176 231 284 340 407
#     4  11  24  45  70  98 142 185 229 290 353 409
#     4  10  21  43  67  96 137 174 226 286 340 406
#     4  11  24  45  71  99 139 190 223 288 361 408
#     4  12  25  44  75 104 136 185 244 286 340 422
#     4  12  26  43  67  99 137 181 231 279 350 416
#
# _framework density 21.364242999999998
#
# number of rings (size 3 to 8) (size 9 to 14) (size 15 to 20)
#    0.000    0.857    5.714    0.429    4.000    0.000 
#    0.000    4.286    0.000    0.000    0.000    0.000 
#    0.000    0.000    0.000    0.000    0.000    0.000 
#
# Total GULP energy -77984.438429 kJ/mol
# GULP energy per Si atom -5570.317031 kJ/mol
# Density = 2.131562 g / cm^3
# Si number density = 21.364243 Si / 1000 Ang^3
#
#
#
# Elastic Constant Matrix: (Units=GPa)
#
#
# Indices 1 2 3 4 5 6 
#
# 1 103.2865 46.2850 55.3571 2.7535 4.8344 36.6635
# 2 46.2850 49.6901 39.1639 -6.5866 0.4537 25.6672
# 3 55.3571 39.1639 151.0514 -11.7748 19.1155 18.8102
# 4 2.7535 -6.5866 -11.7748 39.4475 19.0629 8.3325
# 5 4.8344 0.4537 19.1155 19.0629 50.6735 -1.6839
# 6 36.6635 25.6672 18.8102 8.3325 -1.6839 41.0035
#
#
#
# Elastic Compliance Matrix: (Units=1/GPa)
#
#
# Indices 1 2 3 4 5 6 
#
# 1 0.019792 -0.011973 -0.003408 -0.002847 0.000308 -0.008048
# 2 -0.011973 0.045769 -0.003648 0.013083 -0.003447 -0.019072
# 3 -0.003408 -0.003648 0.009993 0.005365 -0.005449 -0.000568
# 4 -0.002847 0.013083 0.005365 0.041774 -0.018160 -0.017341
# 5 0.000308 -0.003447 -0.005449 -0.018160 0.028931 0.009261
# 6 -0.008048 -0.019072 -0.000568 -0.017341 0.009261 0.047688
#
#
# Mechanical properties :
#
#
# Convention : Reuss Voigt Hill
#
# Bulk Modulus (GPa) = 26.66825 65.07110 45.86967
# Shear Modulus (GPa) = 20.44971 37.10636 28.77804
#
# Velocity S-wave (km/s) = 3.09721 4.17207 3.67416
# Velocity P-wave (km/s) = 5.02991 7.33023 6.28619
#
# Compressibility (1/GPa) = 0.03749778
#
# Stress axis : x y z
#
# Youngs Moduli (GPa) = 50.52664 21.84870 100.06505
#
# Poissons Ratio (x) = 0.26158 0.34099
# Poissons Ratio (y) = 0.60493 0.36505
# Poissons Ratio (z) = 0.17218 0.07971
#
# Static dielectric constant tensor:
#      x y z
#    x 2.227040 0.049610 -0.100590 
#    y 0.049610 1.752710 -0.027140 
#    z -0.100590 -0.027140 1.891290 
# 
# From -- ./inp_files/155531.got.cif
#   From: 2010.05.17/outbox.cif.g08.bks.cpg/sg2_78_cif.got.tgz:155531.got - 2010.06.03 11:33:40.
