data_PCOD9017264
_publ_section_title
;
Structure prediction by ZEFSAII (Michael W. Deem and Ramdas Pophale) SiO2 
 PCOD9017264
Probable space group: P -1
;
_chemical_formula_sum "Si O2"
_cell_formula_units_Z 16
_cell_length_a 14.674256
_cell_length_b 12.991281
_cell_length_c 9.849311
_cell_angle_alpha 134.748403
_cell_angle_beta 68.379559
_cell_angle_gamma 140.926724
_cell_volume 771.158886
_symmetry_space_group_name_H-M "P -1"
_symmetry_group_IT_number 2
_symmetry_cell_setting 'triclinic'
loop_
_space_group_symop_operation_xyz
x,y,z
-x,-y,-z
loop_
_atom_site_type_symbol
_atom_site_label
_atom_site_fract_x
_atom_site_fract_y
_atom_site_fract_z
Si Si1 0.577080 0.180156 0.785848
Si Si2 0.940631 0.613822 0.404460
Si Si3 0.068290 0.241410 0.173085
Si Si4 0.560014 0.290726 0.620607
Si Si5 0.421069 0.294794 0.453474
Si Si6 0.414703 0.753736 0.849362
Si Si7 0.071609 0.922919 0.382210
Si Si8 0.057607 0.427685 0.103080
O O1 0.516313 0.217587 0.735635
O O2 0.752609 0.333666 0.784675
O O3 0.474766 0.913891 0.604835
O O4 0.589639 0.271097 0.008964
O O5 0.961943 0.690255 0.617697
O O6 0.763392 0.452491 0.303318
O O7 0.064686 0.849496 0.467628
O O8 0.974342 0.484084 0.233067
O O9 0.257084 0.456430 0.253787
O O10 0.009666 0.256849 0.085991
O O11 0.000000 0.000000 0.000000
O O12 0.477120 0.313363 0.591484
O O13 0.500000 0.500000 0.500000
O O14 0.465310 0.208566 0.260620
O O15 0.242187 0.131062 0.417516
O O16 0.500000 0.000000 0.000000
O O17 0.000000 0.000000 0.500000
O O18 0.984231 0.699263 0.132682
#
# Coordination Sequence:
#
# PCOD9017264 Si02
#       8
#     2   2   2   2   2   2   2   2
#     4  10  21  42  72  99 138 182 235 291 342 416
#     4  12  23  42  70 104 139 179 244 289 344 421
#     4  11  24  44  69  99 146 188 229 290 356 427
#     4  10  22  43  69  98 139 185 228 288 349 411
#     4  12  26  43  68 100 140 182 229 286 346 424
#     4  12  22  41  70 101 137 177 233 286 349 404
#     4  12  26  44  69 101 144 186 230 290 356 418
#     4  11  24  40  72 104 137 185 238 290 353 412
#
# _framework density 20.747993999999998
#
# number of rings (size 3 to 8) (size 9 to 14) (size 15 to 20)
#    0.000    0.750    3.750    3.750    1.750    0.000 
#    0.000    4.375    0.000    0.000    0.000    0.000 
#    0.000    0.000    0.000    0.000    0.000    0.000 
#
# Total GULP energy -89276.775804 kJ/mol
# GULP energy per Si atom -5579.798488 kJ/mol
# Density = 2.070077 g / cm^3
# Si number density = 20.747994 Si / 1000 Ang^3
#
#
#
# Elastic Constant Matrix: (Units=GPa)
#
#
# Indices 1 2 3 4 5 6 
#
# 1 98.8673 40.2685 28.7302 -4.4712 -22.6423 -4.2823
# 2 40.2685 121.2089 14.7805 7.2182 -2.9004 -2.2705
# 3 28.7302 14.7805 47.4833 -13.5236 -3.6893 7.1334
# 4 -4.4712 7.2182 -13.5236 49.3608 -8.5064 0.5815
# 5 -22.6423 -2.9004 -3.6893 -8.5064 37.4200 -6.6180
# 6 -4.2823 -2.2705 7.1334 0.5815 -6.6180 41.9331
#
#
#
# Elastic Compliance Matrix: (Units=1/GPa)
#
#
# Indices 1 2 3 4 5 6 
#
# 1 0.016922 -0.004377 -0.008297 0.001612 0.010244 0.004497
# 2 -0.004377 0.009975 -0.001424 -0.002699 -0.002637 -0.000043
# 3 -0.008297 -0.001424 0.029417 0.007300 -0.001684 -0.006296
# 4 0.001612 -0.002699 0.007300 0.023987 0.006855 -0.000474
# 5 0.010244 -0.002637 -0.001684 0.006855 0.035288 0.006664
# 6 0.004497 -0.000043 -0.006296 -0.000474 0.006664 0.026434
#
#
# Mechanical properties :
#
#
# Convention : Reuss Voigt Hill
#
# Bulk Modulus (GPa) = 35.56293 48.34645 41.95469
# Shear Modulus (GPa) = 27.84106 37.99480 32.91793
#
# Velocity S-wave (km/s) = 3.66713 4.28396 3.98749
# Velocity P-wave (km/s) = 5.92520 6.91535 6.43933
#
# Compressibility (1/GPa) = 0.02811917
#
# Stress axis : x y z
#
# Youngs Moduli (GPa) = 59.09503 100.25333 33.99339
#
# Poissons Ratio (x) = 0.43878 0.28204
# Poissons Ratio (y) = 0.25864 0.04840
# Poissons Ratio (z) = 0.49031 0.14274
#
# Static dielectric constant tensor:
#      x y z
#    x 1.809740 0.049620 0.001420 
#    y 0.049620 1.754190 -0.049710 
#    z 0.001420 -0.049710 1.782940 
# 
# From -- ./inp_files/188575.got.cif
#   From: 2010.05.17/outbox.cif.g08.bks.cpg/sg2_95_cif.got.tgz:188575.got - 2010.06.03 11:33:40.
