data_PCOD9017348
_publ_section_title
;
Structure prediction by ZEFSAII (Michael W. Deem and Ramdas Pophale) SiO2 
 PCOD9017348
Probable space group: P -1
;
_chemical_formula_sum "Si O2"
_cell_formula_units_Z 14
_cell_length_a 18.258154
_cell_length_b 7.606337
_cell_length_c 5.223611
_cell_angle_alpha 62.535433
_cell_angle_beta 107.359262
_cell_angle_gamma 128.877305
_cell_volume 501.060296
_symmetry_space_group_name_H-M "P -1"
_symmetry_group_IT_number 2
_symmetry_cell_setting 'triclinic'
loop_
_space_group_symop_operation_xyz
x,y,z
-x,-y,-z
loop_
_atom_site_type_symbol
_atom_site_label
_atom_site_fract_x
_atom_site_fract_y
_atom_site_fract_z
Si Si1 0.008371 0.752436 0.350364
Si Si2 0.323334 0.046644 0.521531
Si Si3 0.880566 0.076701 0.146773
Si Si4 0.340277 0.753497 0.093861
Si Si5 0.827498 0.401101 0.642149
Si Si6 0.520760 0.338343 0.451664
Si Si7 0.687301 0.616281 0.049998
O O1 0.082111 0.915599 0.539119
O O2 0.000000 0.500000 0.500000
O O3 0.905491 0.649850 0.420161
O O4 0.044932 0.872345 0.031471
O O5 0.225861 0.815793 0.472973
O O6 0.415656 0.116498 0.410332
O O7 0.344855 0.990931 0.859835
O O8 0.316249 0.266081 0.299675
O O9 0.778335 0.834481 0.142338
O O10 0.871661 0.304494 0.949143
O O11 0.253040 0.600695 0.294667
O O12 0.431219 0.773842 0.274794
O O13 0.311705 0.605614 0.897251
O O14 0.500000 0.500000 0.500000
O O15 0.592267 0.498054 0.193212
#
# Coordination Sequence:
#
# PCOD9017348 Si02
#       7
#     2   2   2   2   2   2   2
#     4  10  21  42  74 115 147 203 254 311 374 466
#     4  11  26  46  74 104 144 197 250 304 385 445
#     4  10  24  42  79 107 154 203 254 306 389 447
#     4  12  27  45  74 109 152 190 254 315 377 452
#     4  10  24  40  72 107 150 189 252 311 373 455
#     4  12  27  48  75 103 149 198 252 313 382 457
#     4  11  27  48  73 107 153 194 252 317 377 455
#
# _framework density 27.940745
#
# number of rings (size 3 to 8) (size 9 to 14) (size 15 to 20)
#    0.000    1.143    1.429    3.429   14.000    2.286 
#    0.000    1.429    0.000    0.000    0.000    0.000 
#    0.000    0.000    0.000    0.000    0.000    0.000 
#
# Total GULP energy -78546.312127 kJ/mol
# GULP energy per Si atom -5610.450866 kJ/mol
# Density = 2.787715 g / cm^3
# Si number density = 27.940745 Si / 1000 Ang^3
#
#
#
# Elastic Constant Matrix: (Units=GPa)
#
#
# Indices 1 2 3 4 5 6 
#
# 1 143.4948 17.8478 32.1311 -8.4629 -29.7318 17.9380
# 2 17.8478 103.6425 28.8811 -4.7973 -9.3481 27.8821
# 3 32.1311 28.8811 143.2367 -13.2630 -3.8177 -0.6999
# 4 -8.4629 -4.7973 -13.2630 49.7549 2.8536 -1.1156
# 5 -29.7318 -9.3481 -3.8177 2.8536 58.9571 -8.2564
# 6 17.9380 27.8821 -0.6999 -1.1156 -8.2564 50.7110
#
#
#
# Elastic Compliance Matrix: (Units=1/GPa)
#
#
# Indices 1 2 3 4 5 6 
#
# 1 0.008489 0.000056 -0.001761 0.000708 0.003802 -0.002423
# 2 0.000056 0.012193 -0.002449 0.000335 0.000861 -0.006610
# 3 -0.001761 -0.002449 0.008021 0.001680 -0.000554 0.002027
# 4 0.000708 0.000335 0.001680 0.020726 -0.000489 -0.000035
# 5 0.003802 0.000861 -0.000554 -0.000489 0.019183 0.001286
# 6 -0.002423 -0.006610 0.002027 -0.000035 0.001286 0.024448
#
#
# Mechanical properties :
#
#
# Convention : Reuss Voigt Hill
#
# Bulk Modulus (GPa) = 49.03119 60.89933 54.96526
# Shear Modulus (GPa) = 46.22555 52.65219 49.43887
#
# Velocity S-wave (km/s) = 4.07186 4.34570 4.21101
# Velocity P-wave (km/s) = 6.30025 6.85736 6.58470
#
# Compressibility (1/GPa) = 0.02039518
#
# Stress axis : x y z
#
# Youngs Moduli (GPa) = 117.80585 82.01531 124.67372
#
# Poissons Ratio (x) = -0.00463 0.21949
# Poissons Ratio (y) = -0.00665 0.30539
# Poissons Ratio (z) = 0.20740 0.20090
#
# Static dielectric constant tensor:
#      x y z
#    x 2.188840 0.012120 0.038030 
#    y 0.012120 2.121910 -0.010980 
#    z 0.038030 -0.010980 2.170750 
# 
# From -- ./inp_files/106365.got.cif
#   From: 2010.05.17/outbox.cif.g08.bks.cpg/sg2_54_cif.got.tgz:106365.got - 2010.06.03 11:33:40.
