data_PCOD9017988
_publ_section_title
;
Structure prediction by ZEFSAII (Michael W. Deem and Ramdas Pophale) SiO2 
 PCOD9017988
Probable space group: P -1
;
_chemical_formula_sum "Si O2"
_cell_formula_units_Z 16
_cell_length_a 9.180696
_cell_length_b 7.940235
_cell_length_c 11.655065
_cell_angle_alpha 71.595000
_cell_angle_beta 81.543722
_cell_angle_gamma 58.337134
_cell_volume 685.979587
_symmetry_space_group_name_H-M "P -1"
_symmetry_group_IT_number 2
_symmetry_cell_setting 'triclinic'
loop_
_space_group_symop_operation_xyz
x,y,z
-x,-y,-z
loop_
_atom_site_type_symbol
_atom_site_label
_atom_site_fract_x
_atom_site_fract_y
_atom_site_fract_z
Si Si1 0.467609 0.489743 0.328840
Si Si2 0.370745 0.213378 0.524642
Si Si3 0.498074 0.686908 0.888471
Si Si4 0.948531 0.735706 0.581766
Si Si5 0.881472 0.116797 0.659418
Si Si6 0.119987 0.906689 0.893879
Si Si7 0.737241 0.626695 0.265965
Si Si8 0.806908 0.557170 0.023708
O O1 0.444576 0.362543 0.459724
O O2 0.474836 0.376744 0.233714
O O3 0.302438 0.717665 0.304428
O O4 0.637927 0.500185 0.312370
O O5 0.194012 0.288887 0.462460
O O6 0.346304 0.200691 0.664831
O O7 0.500000 0.000000 0.500000
O O8 0.307669 0.880004 0.889586
O O9 0.500000 0.500000 0.000000
O O10 0.666140 0.684373 0.915718
O O11 0.057334 0.776708 0.464737
O O12 0.070113 0.530660 0.682691
O O13 0.876969 0.930683 0.634172
O O14 0.017106 0.030878 0.766437
O O15 0.167285 0.671023 0.920672
O O16 0.000000 0.000000 0.000000
O O17 0.733911 0.680424 0.123537
O O18 0.000000 0.500000 0.000000
#
# Coordination Sequence:
#
# PCOD9017988 Si02
#       8
#     2   2   2   2   2   2   2   2
#     4  12  24  43  74  96 136 184 225 281 345 414
#     4  12  29  43  67 102 140 176 232 283 348 404
#     4  10  21  43  67  97 131 176 228 276 332 407
#     4  11  25  44  65 101 139 174 226 284 335 413
#     4  11  23  40  74  98 135 180 230 273 346 407
#     4  11  23  43  71 101 132 176 235 281 335 412
#     4  12  24  48  70  96 140 181 230 280 347 413
#     4  11  25  45  70 100 139 182 226 285 348 403
#
# _framework density 23.324307999999998
#
# number of rings (size 3 to 8) (size 9 to 14) (size 15 to 20)
#    0.000    0.750    5.000    3.000    7.000    1.000 
#    0.000    0.625    0.000    0.000    0.000    0.000 
#    0.000    0.000    0.000    0.000    0.000    0.000 
#
# Total GULP energy -89597.345141 kJ/mol
# GULP energy per Si atom -5599.834071 kJ/mol
# Density = 2.327122 g / cm^3
# Si number density = 23.324308 Si / 1000 Ang^3
#
#
#
# Elastic Constant Matrix: (Units=GPa)
#
#
# Indices 1 2 3 4 5 6 
#
# 1 118.7359 13.2949 16.0897 11.5722 17.4482 -20.4214
# 2 13.2949 107.9420 28.4823 37.4959 7.7473 -14.3486
# 3 16.0897 28.4823 107.5154 37.2316 20.6727 -8.7488
# 4 11.5722 37.4959 37.2316 45.7929 0.2507 -3.7355
# 5 17.4482 7.7473 20.6727 0.2507 36.5998 -4.6228
# 6 -20.4214 -14.3486 -8.7488 -3.7355 -4.6228 33.2036
#
#
#
# Elastic Compliance Matrix: (Units=1/GPa)
#
#
# Indices 1 2 3 4 5 6 
#
# 1 0.010257 0.000834 0.000831 -0.003448 -0.004775 0.005835
# 2 0.000834 0.014038 0.001609 -0.012579 -0.003548 0.005094
# 3 0.000831 0.001609 0.015506 -0.013884 -0.009089 0.002465
# 4 -0.003448 -0.012579 -0.013884 0.043851 0.011253 -0.004715
# 5 -0.004775 -0.003548 -0.009089 0.011253 0.035321 -0.000682
# 6 0.005835 0.005094 0.002465 -0.004715 -0.000682 0.035932
#
#
# Mechanical properties :
#
#
# Convention : Reuss Voigt Hill
#
# Bulk Modulus (GPa) = 21.57507 49.99191 35.78349
# Shear Modulus (GPa) = 30.52364 41.54101 36.03232
#
# Velocity S-wave (km/s) = 3.62147 4.22479 3.93471
# Velocity P-wave (km/s) = 5.17270 6.72892 6.00147
#
# Compressibility (1/GPa) = 0.04634978
#
# Stress axis : x y z
#
# Youngs Moduli (GPa) = 97.48974 71.23394 64.48913
#
# Poissons Ratio (x) = -0.05938 -0.05361
# Poissons Ratio (y) = -0.08126 -0.10376
# Poissons Ratio (z) = -0.08105 -0.11461
#
# Static dielectric constant tensor:
#      x y z
#    x 1.771810 0.016580 -0.038310 
#    y 0.016580 1.873380 0.001630 
#    z -0.038310 0.001630 1.835410 
# 
# From -- ./inp_files/307489.got.cif
#   From: 2010.05.17/outbox.cif.g08.bks.cpg/sg2_154_cif.got.tgz:307489.got - 2010.06.03 11:33:40.
