data_PCOD9017452
_publ_section_title
;
Structure prediction by ZEFSAII (Michael W. Deem and Ramdas Pophale) SiO2 
 PCOD9017452
Probable space group: P -1
;
_chemical_formula_sum "Si O2"
_cell_formula_units_Z 14
_cell_length_a 12.164615
_cell_length_b 11.249165
_cell_length_c 10.843443
_cell_angle_alpha 38.368780
_cell_angle_beta 47.139855
_cell_angle_gamma 40.275481
_cell_volume 582.847084
_symmetry_space_group_name_H-M "P -1"
_symmetry_group_IT_number 2
_symmetry_cell_setting 'triclinic'
loop_
_space_group_symop_operation_xyz
x,y,z
-x,-y,-z
loop_
_atom_site_type_symbol
_atom_site_label
_atom_site_fract_x
_atom_site_fract_y
_atom_site_fract_z
Si Si1 0.262950 0.393812 0.166715
Si Si2 0.084588 0.243030 0.603913
Si Si3 0.419015 0.843311 0.712667
Si Si4 0.136568 0.665113 0.670447
Si Si5 0.420584 0.535084 0.746010
Si Si6 0.810387 0.182604 0.730977
Si Si7 0.076831 0.284317 0.960786
O O1 0.191030 0.240334 0.400396
O O2 0.422469 0.349751 0.170792
O O3 0.354662 0.371641 0.983526
O O4 0.082104 0.623911 0.091118
O O5 0.000000 0.500000 0.500000
O O6 0.924945 0.210184 0.723807
O O7 0.226087 0.036193 0.745020
O O8 0.386782 0.721524 0.721931
O O9 0.500000 0.000000 0.500000
O O10 0.308690 0.634905 0.628631
O O11 0.088683 0.839053 0.456025
O O12 0.006232 0.703550 0.850734
O O13 0.156188 0.444151 0.770098
O O14 0.624162 0.396735 0.685376
O O15 0.791584 0.972804 0.945789
#
# Coordination Sequence:
#
# PCOD9017452 Si02
#       7
#     2   2   2   2   2   2   2
#     4  10  21  43  63  90 134 168 213 267 325 388
#     4  11  23  41  68  98 130 170 221 271 323 392
#     4  10  22  42  65  93 130 174 211 266 337 383
#     4  10  22  44  64  93 140 168 221 271 326 389
#     4  11  24  42  64  96 133 173 218 267 332 393
#     4  12  23  41  67 100 132 171 224 270 324 386
#     4  10  22  41  70  98 126 178 220 269 325 384
#
# _framework density 24.020022000000001
#
# number of rings (size 3 to 8) (size 9 to 14) (size 15 to 20)
#    0.000    1.429    1.429    4.714    0.000    1.714 
#   10.286    2.857    0.000    0.000    0.000    0.000 
#    0.000    0.000    0.000    0.000    0.000    0.000 
#
# Total GULP energy -78030.819796 kJ/mol
# GULP energy per Si atom -5573.629985 kJ/mol
# Density = 2.396535 g / cm^3
# Si number density = 24.020022 Si / 1000 Ang^3
#
#
#
# Elastic Constant Matrix: (Units=GPa)
#
#
# Indices 1 2 3 4 5 6 
#
# 1 132.7623 39.7848 8.8168 -28.6380 -1.3078 -10.4714
# 2 39.7848 86.5621 9.1080 -19.6918 -0.1190 -6.3351
# 3 8.8168 9.1080 91.8294 -12.2380 -2.3320 18.8358
# 4 -28.6380 -19.6918 -12.2380 39.7488 0.7020 -5.6475
# 5 -1.3078 -0.1190 -2.3320 0.7020 32.4745 2.0091
# 6 -10.4714 -6.3351 18.8358 -5.6475 2.0091 25.1001
#
#
#
# Elastic Compliance Matrix: (Units=1/GPa)
#
#
# Indices 1 2 3 4 5 6 
#
# 1 0.010297 -0.002686 -0.001059 0.006605 -0.000180 0.005913
# 2 -0.002686 0.014565 -0.001481 0.005540 -0.000588 0.004960
# 3 -0.001059 -0.001481 0.013554 0.001105 0.001574 -0.010865
# 4 0.006605 0.005540 0.001105 0.034612 -0.001075 0.011198
# 5 -0.000180 -0.000588 0.001574 -0.001075 0.031176 -0.004142
# 6 0.005913 0.004960 -0.010865 0.011198 -0.004142 0.054564
#
#
# Mechanical properties :
#
#
# Convention : Reuss Voigt Hill
#
# Bulk Modulus (GPa) = 35.76082 47.39699 41.57890
# Shear Modulus (GPa) = 28.00466 36.36095 32.18281
#
# Velocity S-wave (km/s) = 3.41821 3.89495 3.66434
# Velocity P-wave (km/s) = 5.52260 6.32476 5.93725
#
# Compressibility (1/GPa) = 0.02796356
#
# Stress axis : x y z
#
# Youngs Moduli (GPa) = 97.11593 68.65701 73.77867
#
# Poissons Ratio (x) = 0.18441 0.07817
# Poissons Ratio (y) = 0.26085 0.10926
# Poissons Ratio (z) = 0.10289 0.10167
#
# Static dielectric constant tensor:
#      x y z
#    x 1.898850 0.016750 0.065740 
#    y 0.016750 1.993940 0.010850 
#    z 0.065740 0.010850 1.957140 
# 
# From -- ./inp_files/424888.got.cif
#   From: 2010.05.17/outbox.cif.g08.bks.cpg/sg2_213_cif.got.tgz:424888.got - 2010.06.03 11:33:40.
