data_PCOD9017383
_publ_section_title
;
Structure prediction by ZEFSAII (Michael W. Deem and Ramdas Pophale) SiO2 
 PCOD9017383
Probable space group: P -1
;
_chemical_formula_sum "Si O2"
_cell_formula_units_Z 16
_cell_length_a 5.134264
_cell_length_b 17.653698
_cell_length_c 14.129896
_cell_angle_alpha 150.917447
_cell_angle_beta 86.183844
_cell_angle_gamma 103.911501
_cell_volume 575.608127
_symmetry_space_group_name_H-M "P -1"
_symmetry_group_IT_number 2
_symmetry_cell_setting 'triclinic'
loop_
_space_group_symop_operation_xyz
x,y,z
-x,-y,-z
loop_
_atom_site_type_symbol
_atom_site_label
_atom_site_fract_x
_atom_site_fract_y
_atom_site_fract_z
Si Si1 0.105742 0.844414 0.259783
Si Si2 0.124510 0.268612 0.260655
Si Si3 0.781835 0.054761 0.289963
Si Si4 0.700831 0.919441 0.801214
Si Si5 0.472576 0.805587 0.380699
Si Si6 0.618454 0.284718 0.041901
Si Si7 0.890504 0.496639 0.629865
Si Si8 0.389806 0.481175 0.141155
O O1 0.294208 0.797228 0.281468
O O2 0.216160 0.048677 0.483622
O O3 0.225274 0.820522 0.128693
O O4 0.803237 0.692991 0.096534
O O5 0.336286 0.214724 0.260884
O O6 0.951281 0.345699 0.417068
O O7 0.256247 0.410992 0.333733
O O8 0.905653 0.096798 0.033045
O O9 0.570884 0.067051 0.225977
O O10 0.701570 0.134949 0.471401
O O11 0.106664 0.126940 0.331970
O O12 0.690288 0.854148 0.089153
O O13 0.478138 0.633200 0.232332
O O14 0.794435 0.363231 0.214323
O O15 0.628521 0.433834 0.134717
O O16 0.760513 0.473364 0.713009
#
# Coordination Sequence:
#
# PCOD9017383 Si02
#       8
#     2   2   2   2   2   2   2   2
#     4   9  22  45  64  98 146 169 236 289 350 413
#     4  10  22  40  66  89 132 177 237 285 352 417
#     4  11  24  44  68  97 143 183 235 291 359 420
#     4  11  24  44  65  98 134 186 232 298 353 418
#     4  10  22  43  69 103 132 186 233 284 348 432
#     4  10  22  39  65  94 136 182 223 289 357 413
#     4  10  21  43  58  96 132 178 226 295 345 417
#     4  11  22  41  70  96 137 185 227 288 357 422
#
# _framework density 27.796692
#
# number of rings (size 3 to 8) (size 9 to 14) (size 15 to 20)
#    0.000    1.750    1.250    1.875    5.250    2.500 
#    6.750    3.750    0.000    0.000    0.000    0.000 
#    0.000    0.000    0.000    0.000    0.000    0.000 
#
# Total GULP energy -89723.108687 kJ/mol
# GULP energy per Si atom -5607.694293 kJ/mol
# Density = 2.773343 g / cm^3
# Si number density = 27.796692 Si / 1000 Ang^3
#
#
#
# Elastic Constant Matrix: (Units=GPa)
#
#
# Indices 1 2 3 4 5 6 
#
# 1 82.2666 56.2974 24.0374 4.6892 5.5422 -19.8935
# 2 56.2974 188.8415 58.4678 37.6521 6.8737 -17.3023
# 3 24.0374 58.4678 121.1516 1.3979 -9.2179 3.5162
# 4 4.6892 37.6521 1.3979 54.8193 2.7920 -8.2590
# 5 5.5422 6.8737 -9.2179 2.7920 24.1331 1.5594
# 6 -19.8935 -17.3023 3.5162 -8.2590 1.5594 50.1980
#
#
#
# Elastic Compliance Matrix: (Units=1/GPa)
#
#
# Indices 1 2 3 4 5 6 
#
# 1 0.017302 -0.004442 -0.001808 0.002734 -0.004105 0.006030
# 2 -0.004442 0.008971 -0.003584 -0.005458 -0.002322 0.000757
# 3 -0.001808 -0.003584 0.010821 0.001665 0.005545 -0.002608
# 4 0.002734 -0.005458 0.001665 0.022193 -0.001184 0.002774
# 5 -0.004105 -0.002322 0.005545 -0.001184 0.045582 -0.004426
# 6 0.006030 0.000757 -0.002608 0.002774 -0.004426 0.023348
#
#
# Mechanical properties :
#
#
# Convention : Reuss Voigt Hill
#
# Bulk Modulus (GPa) = 57.38248 74.42943 65.90595
# Shear Modulus (GPa) = 32.53212 42.72722 37.62967
#
# Velocity S-wave (km/s) = 3.42476 3.92488 3.68332
# Velocity P-wave (km/s) = 6.02720 6.88288 6.46920
#
# Compressibility (1/GPa) = 0.01742692
#
# Stress axis : x y z
#
# Youngs Moduli (GPa) = 57.79574 111.46541 92.41334
#
# Poissons Ratio (x) = 0.49508 0.16711
# Poissons Ratio (y) = 0.25670 0.33121
# Poissons Ratio (z) = 0.10451 0.39949
#
# Static dielectric constant tensor:
#      x y z
#    x 2.129070 0.080550 0.004030 
#    y 0.080550 2.158840 0.011220 
#    z 0.004030 0.011220 2.162880 
# 
# From -- ./inp_files/485334.got.cif
#   From: 2010.05.17/outbox.cif.g08.bks.cpg/sg2_243_cif.got.tgz:485334.got - 2010.06.03 11:33:40.
