data_PCOD9017128
_publ_section_title
;
Structure prediction by ZEFSAII (Michael W. Deem and Ramdas Pophale) SiO2 
 PCOD9017128
Probable space group: P -1
;
_chemical_formula_sum "Si O2"
_cell_formula_units_Z 14
_cell_length_a 4.950630
_cell_length_b 9.281166
_cell_length_c 12.642953
_cell_angle_alpha 67.793665
_cell_angle_beta 65.956666
_cell_angle_gamma 71.222310
_cell_volume 481.380198
_symmetry_space_group_name_H-M "P -1"
_symmetry_group_IT_number 2
_symmetry_cell_setting 'triclinic'
loop_
_space_group_symop_operation_xyz
x,y,z
-x,-y,-z
loop_
_atom_site_type_symbol
_atom_site_label
_atom_site_fract_x
_atom_site_fract_y
_atom_site_fract_z
Si Si1 0.096808 0.643750 0.009340
Si Si2 0.742883 0.428280 0.764432
Si Si3 0.541350 0.139502 0.775826
Si Si4 0.284312 0.707037 0.673900
Si Si5 0.333120 0.199717 0.129042
Si Si6 0.722416 0.657756 0.442994
Si Si7 0.116711 0.045512 0.581669
O O1 0.566912 0.319299 0.058409
O O2 0.070045 0.608397 0.147734
O O3 0.000000 0.500000 0.000000
O O4 0.868456 0.787208 0.949227
O O5 0.595897 0.274487 0.809598
O O6 0.475983 0.580836 0.756860
O O7 0.972301 0.445277 0.626601
O O8 0.398088 0.229943 0.669091
O O9 0.874893 0.055641 0.709569
O O10 0.441212 0.974367 0.859849
O O11 0.928177 0.740808 0.753824
O O12 0.421182 0.629338 0.560553
O O13 0.352390 0.886548 0.620095
O O14 0.837268 0.776813 0.472551
O O15 0.000000 0.000000 0.500000
#
# Coordination Sequence:
#
# PCOD9017128 Si02
#       7
#     2   2   2   2   2   2   2
#     4  12  31  58  85 123 164 215 288 358 418 498
#     4  11  29  50  79 123 172 224 274 350 425 499
#     4  10  25  48  77 123 166 222 274 340 422 501
#     4  11  25  47  82 122 166 221 275 342 416 496
#     4  11  30  51  89 123 158 221 289 348 416 490
#     4  11  24  48  77 119 177 219 275 336 422 508
#     4  10  21  42  71 111 163 224 279 335 390 498
#
# _framework density 29.083044000000001
#
# number of rings (size 3 to 8) (size 9 to 14) (size 15 to 20)
#    0.000    1.143    1.429    1.286   12.000    2.857 
#    2.571    0.000    0.000    0.857    0.000    0.000 
#    0.000    0.000    0.000    0.000    0.000    0.000 
#
# Total GULP energy -78255.382953 kJ/mol
# GULP energy per Si atom -5589.670211 kJ/mol
# Density = 2.901685 g / cm^3
# Si number density = 29.083044 Si / 1000 Ang^3
#
#
#
# Elastic Constant Matrix: (Units=GPa)
#
#
# Indices 1 2 3 4 5 6 
#
# 1 168.0193 56.5726 53.7170 6.5179 4.0008 10.7690
# 2 56.5726 146.1863 46.1541 -9.6935 4.8495 -12.0355
# 3 53.7170 46.1541 140.9818 22.9638 0.0784 9.0757
# 4 6.5179 -9.6935 22.9638 47.3230 -7.0602 -3.9811
# 5 4.0008 4.8495 0.0784 -7.0602 62.0816 4.6606
# 6 10.7690 -12.0355 9.0757 -3.9811 4.6606 48.1734
#
#
#
# Elastic Compliance Matrix: (Units=1/GPa)
#
#
# Indices 1 2 3 4 5 6 
#
# 1 0.007558 -0.002599 -0.001744 -0.000936 -0.000233 -0.002065
# 2 -0.002599 0.009382 -0.002979 0.003990 -0.000397 0.003854
# 3 -0.001744 -0.002979 0.009773 -0.005345 -0.000078 -0.002630
# 4 -0.000936 0.003990 -0.005345 0.025363 0.002333 0.004083
# 5 -0.000233 -0.000397 -0.000078 0.002333 0.016527 -0.001439
# 6 -0.002065 0.003854 -0.002630 0.004083 -0.001439 0.023155
#
#
# Mechanical properties :
#
#
# Convention : Reuss Voigt Hill
#
# Bulk Modulus (GPa) = 82.84987 85.34164 84.09576
# Shear Modulus (GPa) = 45.27958 51.43185 48.35572
#
# Velocity S-wave (km/s) = 3.95005 4.20985 4.08202
# Velocity P-wave (km/s) = 7.02517 7.28274 7.15511
#
# Compressibility (1/GPa) = 0.01207002
#
# Stress axis : x y z
#
# Youngs Moduli (GPa) = 132.30289 106.58720 102.32556
#
# Poissons Ratio (x) = 0.27701 0.17841
# Poissons Ratio (y) = 0.34384 0.30484
# Poissons Ratio (z) = 0.23068 0.31753
#
# Static dielectric constant tensor:
#      x y z
#    x 2.780860 0.035780 -0.546250 
#    y 0.035780 2.499370 -0.100250 
#    z -0.546250 -0.100250 2.815320 
# 
# From -- ./inp_files/480270.got.cif
#   From: 2010.05.17/outbox.cif.g08.bks.cpg/sg2_241_cif.got.tgz:480270.got - 2010.06.03 11:33:40.
