data_PCOD9017880
_publ_section_title
;
Structure prediction by ZEFSAII (Michael W. Deem and Ramdas Pophale) SiO2 
 PCOD9017880
Probable space group: P -1
;
_chemical_formula_sum "Si O2"
_cell_formula_units_Z 14
_cell_length_a 12.065368
_cell_length_b 11.804233
_cell_length_c 5.239889
_cell_angle_alpha 116.203232
_cell_angle_beta 80.113136
_cell_angle_gamma 114.852566
_cell_volume 607.488249
_symmetry_space_group_name_H-M "P -1"
_symmetry_group_IT_number 2
_symmetry_cell_setting 'triclinic'
loop_
_space_group_symop_operation_xyz
x,y,z
-x,-y,-z
loop_
_atom_site_type_symbol
_atom_site_label
_atom_site_fract_x
_atom_site_fract_y
_atom_site_fract_z
Si Si1 0.136266 0.709967 0.733433
Si Si2 0.747955 0.849467 0.514219
Si Si3 0.310443 0.631945 0.861559
Si Si4 0.533505 0.662413 0.103298
Si Si5 0.278118 0.374349 0.360245
Si Si6 0.110412 0.452076 0.132018
Si Si7 0.129332 0.988867 0.883313
O O1 0.266815 0.737292 0.839397
O O2 0.116452 0.583695 0.425760
O O3 0.121925 0.834647 0.718128
O O4 0.028270 0.654044 0.930911
O O5 0.607771 0.765373 0.398155
O O6 0.783181 0.724770 0.477839
O O7 0.817977 0.930240 0.318223
O O8 0.785204 0.950357 0.841254
O O9 0.349919 0.532983 0.566280
O O10 0.414130 0.685256 0.085300
O O11 0.186685 0.519719 0.920180
O O12 0.500000 0.500000 0.000000
O O13 0.630745 0.686245 0.860817
O O14 0.181854 0.378342 0.194563
O O15 0.000000 0.000000 0.000000
#
# Coordination Sequence:
#
# PCOD9017880 Si02
#       7
#     2   2   2   2   2   2   2
#     4  10  25  42  68  98 141 183 239 285 357 414
#     4  12  26  45  69 107 141 181 237 288 351 417
#     4  11  23  39  71 103 141 184 227 300 356 411
#     4  12  23  41  71 107 144 180 237 293 350 416
#     4  11  21  39  70 105 144 174 233 293 359 401
#     4  10  21  43  67 105 137 178 232 301 350 417
#     4  12  28  49  73 100 142 193 236 289 349 430
#
# _framework density 23.045712000000002
#
# number of rings (size 3 to 8) (size 9 to 14) (size 15 to 20)
#    0.000    0.857    4.286    2.143    4.000    0.000 
#    0.000    1.429    0.000    0.000    0.000    0.000 
#    0.000    0.000    0.000    0.000    0.000    0.000 
#
# Total GULP energy -78235.120204 kJ/mol
# GULP energy per Si atom -5588.222872 kJ/mol
# Density = 2.299326 g / cm^3
# Si number density = 23.045712 Si / 1000 Ang^3
#
#
#
# Elastic Constant Matrix: (Units=GPa)
#
#
# Indices 1 2 3 4 5 6 
#
# 1 72.9209 47.8167 -1.7201 -2.7800 14.2116 -23.4023
# 2 47.8167 125.2279 16.5684 -15.7838 -5.3551 -22.1033
# 3 -1.7201 16.5684 57.8058 -16.6029 10.9672 3.6101
# 4 -2.7800 -15.7838 -16.6029 24.5312 -1.8123 5.9202
# 5 14.2116 -5.3551 10.9672 -1.8123 33.0839 0.2994
# 6 -23.4023 -22.1033 3.6101 5.9202 0.2994 35.3273
#
#
#
# Elastic Compliance Matrix: (Units=1/GPa)
#
#
# Indices 1 2 3 4 5 6 
#
# 1 0.026984 -0.009966 0.004527 -0.004304 -0.015050 0.012026
# 2 -0.009966 0.013605 -0.004450 0.004862 0.008211 0.001481
# 3 0.004527 -0.004450 0.025305 0.015190 -0.010178 -0.004830
# 4 -0.004304 0.004862 0.015190 0.056353 0.000785 -0.010812
# 5 -0.015050 0.008211 -0.010178 0.000785 0.041476 -0.004275
# 6 0.012026 0.001481 -0.004830 -0.010812 -0.004275 0.039541
#
#
# Mechanical properties :
#
#
# Convention : Reuss Voigt Hill
#
# Bulk Modulus (GPa) = 21.68415 42.36497 32.02456
# Shear Modulus (GPa) = 20.97207 31.47445 26.22326
#
# Velocity S-wave (km/s) = 3.01993 3.69960 3.37691
# Velocity P-wave (km/s) = 4.64646 6.05577 5.39731
#
# Compressibility (1/GPa) = 0.04611664
#
# Stress axis : x y z
#
# Youngs Moduli (GPa) = 37.05961 73.50376 39.51783
#
# Poissons Ratio (x) = 0.73252 -0.17891
# Poissons Ratio (y) = 0.36933 0.17585
# Poissons Ratio (z) = -0.16778 0.32708
#
# Static dielectric constant tensor:
#      x y z
#    x 1.879170 0.035370 -0.008880 
#    y 0.035370 1.897420 -0.030240 
#    z -0.008880 -0.030240 1.989630 
# 
# From -- ./inp_files/72234.got.cif
#   From: 2010.05.17/outbox.cif.g08.bks.cpg/sg2_37_cif.got.tgz:72234.got - 2010.06.03 11:33:40.
