data_PCOD9017401
_publ_section_title
;
Structure prediction by ZEFSAII (Michael W. Deem and Ramdas Pophale) SiO2 
 PCOD9017401
Probable space group: P -1
;
_chemical_formula_sum "Si O2"
_cell_formula_units_Z 16
_cell_length_a 6.292338
_cell_length_b 14.446553
_cell_length_c 13.787010
_cell_angle_alpha 140.191622
_cell_angle_beta 117.728979
_cell_angle_gamma 66.514945
_cell_volume 708.359897
_symmetry_space_group_name_H-M "P -1"
_symmetry_group_IT_number 2
_symmetry_cell_setting 'triclinic'
loop_
_space_group_symop_operation_xyz
x,y,z
-x,-y,-z
loop_
_atom_site_type_symbol
_atom_site_label
_atom_site_fract_x
_atom_site_fract_y
_atom_site_fract_z
Si Si1 0.037939 0.659526 0.742810
Si Si2 0.459455 0.845233 0.980193
Si Si3 0.903838 0.351972 0.480224
Si Si4 0.648673 0.422605 0.881757
Si Si5 0.365039 0.192702 0.533075
Si Si6 0.257230 0.061711 0.613458
Si Si7 0.518660 0.828989 0.755134
Si Si8 0.145079 0.300600 0.942003
O O1 0.977224 0.508874 0.659467
O O2 0.786491 0.754479 0.756121
O O3 0.248469 0.753071 0.905310
O O4 0.127733 0.624186 0.622959
O O5 0.418393 0.855480 0.864556
O O6 0.718037 0.759182 0.982191
O O7 0.468683 0.008825 0.151890
O O8 0.666297 0.283094 0.416752
O O9 0.128954 0.237726 0.457602
O O10 0.496689 0.334909 0.704078
O O11 0.857483 0.314505 0.887003
O O12 0.500000 0.500000 0.000000
O O13 0.770413 0.543538 0.942583
O O14 0.301948 0.129162 0.572800
O O15 0.547367 0.069408 0.427796
O O16 0.244475 0.188426 0.790904
O O17 0.000000 0.000000 0.500000
#
# Coordination Sequence:
#
# PCOD9017401 Si02
#       8
#     2   2   2   2   2   2   2   2
#     4  10  21  43  61  92 124 159 206 257 305 375
#     4  10  23  39  63  92 122 159 209 250 313 368
#     4  10  23  38  64  92 122 161 209 250 311 370
#     4  11  23  44  62  93 128 163 213 257 305 376
#     4  11  24  41  64  92 129 168 209 258 313 367
#     4  11  24  42  60  93 129 164 214 260 301 375
#     4  10  22  42  60  93 124 157 205 261 303 374
#     4  11  24  41  66  92 126 169 208 258 313 371
#
# _framework density 22.587389000000002
#
# number of rings (size 3 to 8) (size 9 to 14) (size 15 to 20)
#    0.000    1.500    2.500    1.500    3.500    2.000 
#    0.000    0.000    0.000    0.000    0.000    0.000 
#    0.000    0.000    0.000    0.000    0.000    0.000 
#
# Total GULP energy -89406.292478 kJ/mol
# GULP energy per Si atom -5587.893280 kJ/mol
# Density = 2.253598 g / cm^3
# Si number density = 22.587389 Si / 1000 Ang^3
#
#
#
# Elastic Constant Matrix: (Units=GPa)
#
#
# Indices 1 2 3 4 5 6 
#
# 1 51.2701 0.1797 28.7980 5.5023 9.3065 -16.8156
# 2 0.1797 85.2175 19.1626 11.6295 5.7232 -24.9044
# 3 28.7980 19.1626 84.1405 14.7634 18.4619 14.9101
# 4 5.5023 11.6295 14.7634 33.2516 -2.2042 -0.2004
# 5 9.3065 5.7232 18.4619 -2.2042 36.9664 2.8663
# 6 -16.8156 -24.9044 14.9101 -0.2004 2.8663 37.2309
#
#
#
# Elastic Compliance Matrix: (Units=1/GPa)
#
#
# Indices 1 2 3 4 5 6 
#
# 1 0.059317 0.025494 -0.034367 -0.003550 -0.006432 0.058084
# 2 0.025494 0.028697 -0.020401 -0.005228 -0.004020 0.039162
# 3 -0.034367 -0.020401 0.037723 -0.004449 -0.003883 -0.044001
# 4 -0.003550 -0.005228 -0.004449 0.034860 0.006284 -0.003614
# 5 -0.006432 -0.004020 -0.003883 0.006284 0.032110 -0.006478
# 6 0.058084 0.039162 -0.044001 -0.003614 -0.006478 0.097390
#
#
# Mechanical properties :
#
#
# Convention : Reuss Voigt Hill
#
# Bulk Modulus (GPa) = 14.88329 35.21207 25.04768
# Shear Modulus (GPa) = 13.47556 32.98896 23.23226
#
# Velocity S-wave (km/s) = 2.44518 3.82580 3.21058
# Velocity P-wave (km/s) = 3.81777 5.92780 4.98569
#
# Compressibility (1/GPa) = 0.06718946
#
# Stress axis : x y z
#
# Youngs Moduli (GPa) = 16.85847 34.84695 26.50871
#
# Poissons Ratio (x) = -0.88839 0.91101
# Poissons Ratio (y) = -0.42979 0.54082
# Poissons Ratio (z) = 0.57937 0.71093
#
# Static dielectric constant tensor:
#      x y z
#    x 1.775590 0.018300 -0.035070 
#    y 0.018300 1.823990 0.002470 
#    z -0.035070 0.002470 1.842560 
# 
# From -- ./inp_files/78398.got.cif
#   From: 2010.05.17/outbox.cif.g08.bks.cpg/sg2_40_cif.got.tgz:78398.got - 2010.06.03 11:33:40.
