data_PCOD9017646
_publ_section_title
;
Structure prediction by ZEFSAII (Michael W. Deem and Ramdas Pophale) SiO2 
 PCOD9017646
Probable space group: P -1
;
_chemical_formula_sum "Si O2"
_cell_formula_units_Z 16
_cell_length_a 17.822756
_cell_length_b 6.349388
_cell_length_c 21.493919
_cell_angle_alpha 77.390664
_cell_angle_beta 152.456245
_cell_angle_gamma 82.612033
_cell_volume 768.664179
_symmetry_space_group_name_H-M "P -1"
_symmetry_group_IT_number 2
_symmetry_cell_setting 'triclinic'
loop_
_space_group_symop_operation_xyz
x,y,z
-x,-y,-z
loop_
_atom_site_type_symbol
_atom_site_label
_atom_site_fract_x
_atom_site_fract_y
_atom_site_fract_z
Si Si1 0.080662 0.847069 0.377822
Si Si2 0.158472 0.184907 0.098163
Si Si3 0.723035 0.137563 0.603195
Si Si4 0.405777 0.461468 0.991911
Si Si5 0.237006 0.183619 0.916175
Si Si6 0.461420 0.515819 0.784615
Si Si7 0.738126 0.337375 0.725841
Si Si8 0.186270 0.454371 0.994830
O O1 0.216778 0.836358 0.422635
O O2 0.244408 0.686595 0.568866
O O3 0.982382 0.714359 0.286679
O O4 0.846599 0.201726 0.197848
O O5 0.283834 0.207461 0.136494
O O6 0.985098 0.196407 0.932110
O O7 0.000000 0.500000 0.000000
O O8 0.288447 0.883975 0.254274
O O9 0.734945 0.318998 0.650706
O O10 0.455355 0.330476 0.404547
O O11 0.921691 0.779871 0.791230
O O12 0.360178 0.252139 0.962047
O O13 0.500000 0.500000 0.000000
O O14 0.572473 0.338550 0.182347
O O15 0.180767 0.344941 0.930889
O O16 0.416205 0.824473 0.087014
O O17 0.652607 0.487640 0.894115
#
# Coordination Sequence:
#
# PCOD9017646 Si02
#       8
#     2   2   2   2   2   2   2   2
#     4  11  23  41  67  96 130 170 216 262 314 384
#     4  11  23  39  59  84 119 167 215 269 329 371
#     4  11  21  43  59  85 128 165 213 269 319 370
#     4  10  23  46  70  99 134 165 204 259 316 382
#     4  10  21  43  65  94 125 175 201 260 316 379
#     4  10  24  41  64 101 129 168 214 261 314 379
#     4  10  25  40  57  88 124 164 216 275 319 378
#     4  11  22  41  63  87 130 167 219 270 315 383
#
# _framework density 20.815332999999999
#
# number of rings (size 3 to 8) (size 9 to 14) (size 15 to 20)
#    0.000    1.500    5.000    0.750    3.500    5.000 
#    2.250    1.250    0.000    0.000    0.000    0.000 
#    0.000    0.000    0.000    0.000    0.000    0.000 
#
# Total GULP energy -89271.336672 kJ/mol
# GULP energy per Si atom -5579.458542 kJ/mol
# Density = 2.076796 g / cm^3
# Si number density = 20.815333 Si / 1000 Ang^3
#
#
#
# Elastic Constant Matrix: (Units=GPa)
#
#
# Indices 1 2 3 4 5 6 
#
# 1 93.8985 12.8044 4.5927 4.3997 -11.0323 10.1133
# 2 12.8044 72.1216 23.8322 3.5875 -6.2696 20.4842
# 3 4.5927 23.8322 83.7910 19.3491 -26.6926 -8.7921
# 4 4.3997 3.5875 19.3491 22.2372 -6.3378 -3.5857
# 5 -11.0323 -6.2696 -26.6926 -6.3378 22.3483 -0.1064
# 6 10.1133 20.4842 -8.7921 -3.5857 -0.1064 26.3547
#
#
#
# Elastic Compliance Matrix: (Units=1/GPa)
#
#
# Indices 1 2 3 4 5 6 
#
# 1 0.012077 -0.001239 0.002431 -0.002606 0.007764 -0.003184
# 2 -0.001239 0.023165 -0.011328 0.000798 -0.007517 -0.021231
# 3 0.002431 -0.011328 0.028909 -0.013002 0.028939 0.015863
# 4 -0.002606 0.000798 -0.013002 0.057184 -0.000357 0.003821
# 5 0.007764 -0.007517 0.028939 -0.000357 0.080995 0.012796
# 6 -0.003184 -0.021231 0.015863 0.003821 0.012796 0.061531
#
#
# Mechanical properties :
#
#
# Convention : Reuss Voigt Hill
#
# Bulk Modulus (GPa) = 22.78869 36.91885 29.85377
# Shear Modulus (GPa) = 16.73595 28.09349 22.41472
#
# Velocity S-wave (km/s) = 2.83860 3.67775 3.28508
# Velocity P-wave (km/s) = 4.65997 5.98409 5.36305
#
# Compressibility (1/GPa) = 0.04388141
#
# Stress axis : x y z
#
# Youngs Moduli (GPa) = 82.80193 43.16792 34.59137
#
# Poissons Ratio (x) = 0.05348 -0.08411
# Poissons Ratio (y) = 0.10258 0.39184
# Poissons Ratio (z) = -0.20133 0.48899
#
# Static dielectric constant tensor:
#      x y z
#    x 1.766070 0.003620 -0.011030 
#    y 0.003620 1.779790 0.004770 
#    z -0.011030 0.004770 1.800980 
# 
# From -- ./inp_files/52967.got.cif
#   From: 2010.05.17/outbox.cif.g08.bks.cpg/sg2_27_cif.got.tgz:52967.got - 2010.06.03 11:33:40.
