data_PCOD9017947
_publ_section_title
;
Structure prediction by ZEFSAII (Michael W. Deem and Ramdas Pophale) SiO2 
 PCOD9017947
Probable space group: P -1
;
_chemical_formula_sum "Si O2"
_cell_formula_units_Z 16
_cell_length_a 8.632738
_cell_length_b 20.795899
_cell_length_c 23.873411
_cell_angle_alpha 159.395900
_cell_angle_beta 141.478284
_cell_angle_gamma 28.856175
_cell_volume 709.990176
_symmetry_space_group_name_H-M "P -1"
_symmetry_group_IT_number 2
_symmetry_cell_setting 'triclinic'
loop_
_space_group_symop_operation_xyz
x,y,z
-x,-y,-z
loop_
_atom_site_type_symbol
_atom_site_label
_atom_site_fract_x
_atom_site_fract_y
_atom_site_fract_z
Si Si1 0.310340 0.523711 0.075394
Si Si2 0.789549 0.799882 0.737308
Si Si3 0.653899 0.668543 0.956475
Si Si4 0.634231 0.740310 0.307718
Si Si5 0.579317 0.729075 0.502673
Si Si6 0.640786 0.297616 0.420423
Si Si7 0.278473 0.564700 0.330335
Si Si8 0.634277 0.062140 0.720117
O O1 0.304611 0.506412 0.126839
O O2 0.440205 0.659200 0.206383
O O3 0.563315 0.244900 0.897394
O O4 0.955471 0.656039 0.053375
O O5 0.715371 0.768329 0.627598
O O6 0.534161 0.814201 0.716497
O O7 0.148673 0.562701 0.665601
O O8 0.689076 0.057573 0.915127
O O9 0.654689 0.596195 0.834586
O O10 0.632177 0.753023 0.250572
O O11 0.009367 0.574257 0.295476
O O12 0.500000 0.000000 0.500000
O O13 0.244248 0.780855 0.465197
O O14 0.577295 0.884207 0.581153
O O15 0.500000 0.500000 0.500000
O O16 0.539827 0.442413 0.569132
O O17 0.022000 0.089480 0.340400
#
# Coordination Sequence:
#
# PCOD9017947 Si02
#       8
#     2   2   2   2   2   2   2   2
#     4  11  26  43  68 104 136 182 224 275 354 406
#     4  10  21  43  67  95 134 180 228 274 336 404
#     4  11  24  44  69  99 139 180 227 283 338 405
#     4  12  26  43  66 102 143 177 221 283 343 407
#     4  10  23  41  68  98 130 179 234 271 330 408
#     4  11  23  42  70  99 135 180 232 274 341 407
#     4  11  26  41  66 103 134 177 231 280 336 399
#     4  12  22  43  71  99 136 178 225 280 342 402
#
# _framework density 22.535523000000001
#
# number of rings (size 3 to 8) (size 9 to 14) (size 15 to 20)
#    0.000    1.000    5.000    1.125    5.250    1.000 
#    0.000    0.625    0.000    0.000    0.000    0.000 
#    0.000    0.000    0.000    0.000    0.000    0.000 
#
# Total GULP energy -89082.311476 kJ/mol
# GULP energy per Si atom -5567.644467 kJ/mol
# Density = 2.248423 g / cm^3
# Si number density = 22.535523 Si / 1000 Ang^3
#
#
#
# Elastic Constant Matrix: (Units=GPa)
#
#
# Indices 1 2 3 4 5 6 
#
# 1 107.3652 18.2618 21.7004 -4.1631 31.9810 4.5383
# 2 18.2618 34.9002 16.6459 8.0867 8.4816 -3.0987
# 3 21.7004 16.6459 79.6972 5.6026 1.8689 5.7712
# 4 -4.1631 8.0867 5.6026 25.7726 3.0056 -1.2524
# 5 31.9810 8.4816 1.8689 3.0056 54.3379 -5.8580
# 6 4.5383 -3.0987 5.7712 -1.2524 -5.8580 33.6582
#
#
#
# Elastic Compliance Matrix: (Units=1/GPa)
#
#
# Indices 1 2 3 4 5 6 
#
# 1 0.013287 -0.005408 -0.002456 0.005106 -0.007496 -0.002983
# 2 -0.005408 0.037587 -0.005902 -0.011002 -0.001382 0.004552
# 3 -0.002456 -0.005902 0.014737 -0.002069 0.001702 -0.002520
# 4 0.005106 -0.011002 -0.002069 0.043940 -0.003685 -0.000353
# 5 -0.007496 -0.001382 0.001702 -0.003685 0.023669 0.004574
# 6 -0.002983 0.004552 -0.002520 -0.000353 0.004574 0.031747
#
#
# Mechanical properties :
#
#
# Convention : Reuss Voigt Hill
#
# Bulk Modulus (GPa) = 26.26019 37.24209 31.75114
# Shear Modulus (GPa) = 24.36763 33.77737 29.07250
#
# Velocity S-wave (km/s) = 3.29188 3.87570 3.59566
# Velocity P-wave (km/s) = 5.11143 6.04896 5.59985
#
# Compressibility (1/GPa) = 0.03808046
#
# Stress axis : x y z
#
# Youngs Moduli (GPa) = 75.26223 26.60501 67.85723
#
# Poissons Ratio (x) = 0.14387 0.16663
# Poissons Ratio (y) = 0.40699 0.40049
# Poissons Ratio (z) = 0.18481 0.15702
#
# Static dielectric constant tensor:
#      x y z
#    x 1.937010 -0.137490 -0.096860 
#    y -0.137490 2.088790 0.013110 
#    z -0.096860 0.013110 1.950680 
# 
# From -- ./inp_files/282900.got.cif
#   From: 2010.05.17/outbox.cif.g08.bks.cpg/sg2_142_cif.got.tgz:282900.got - 2010.06.03 11:33:40.
