data_PCOD9017003
_publ_section_title
;
Structure prediction by ZEFSAII (Michael W. Deem and Ramdas Pophale) SiO2 
 PCOD9017003
Probable space group: P -1
;
_chemical_formula_sum "Si O2"
_cell_formula_units_Z 16
_cell_length_a 9.046996
_cell_length_b 19.797245
_cell_length_c 14.333646
_cell_angle_alpha 161.181398
_cell_angle_beta 69.617740
_cell_angle_gamma 120.377236
_cell_volume 631.175985
_symmetry_space_group_name_H-M "P -1"
_symmetry_group_IT_number 2
_symmetry_cell_setting 'triclinic'
loop_
_space_group_symop_operation_xyz
x,y,z
-x,-y,-z
loop_
_atom_site_type_symbol
_atom_site_label
_atom_site_fract_x
_atom_site_fract_y
_atom_site_fract_z
Si Si1 0.088467 0.154120 0.085685
Si Si2 0.391921 0.087708 0.868375
Si Si3 0.208387 0.226916 0.711068
Si Si4 0.074713 0.557207 0.207062
Si Si5 0.017895 0.536847 0.683652
Si Si6 0.578791 0.189250 0.318429
Si Si7 0.780996 0.878554 0.634331
Si Si8 0.653879 0.106814 0.688212
O O1 0.081977 0.396757 0.421706
O O2 0.301146 0.232701 0.116058
O O3 0.935286 0.960866 0.788736
O O4 0.000000 0.000000 0.000000
O O5 0.577031 0.202579 0.912197
O O6 0.215750 0.854530 0.539920
O O7 0.418035 0.962755 0.791113
O O8 0.208680 0.246577 0.625052
O O9 0.339034 0.130036 0.585963
O O10 0.220844 0.470212 0.065607
O O11 0.000000 0.000000 0.500000
O O12 0.000588 0.543953 0.310666
O O13 0.873900 0.343797 0.921280
O O14 0.797791 0.430150 0.568782
O O15 0.158982 0.840893 0.044172
O O16 0.435604 0.270934 0.475573
O O17 0.500000 0.000000 0.000000
O O18 0.500000 0.000000 0.500000
#
# Coordination Sequence:
#
# PCOD9017003 Si02
#       8
#     2   2   2   2   2   2   2   2
#     4  12  24  42  67 101 136 175 217 273 332 389
#     4  11  24  44  65  92 138 173 210 274 337 377
#     4  10  21  42  70  95 128 171 222 266 324 394
#     4  10  22  44  69  91 132 176 216 268 329 395
#     4  11  22  43  71  94 134 177 221 265 328 399
#     4  11  21  40  68  95 131 168 222 273 316 390
#     4  12  23  44  71  95 133 178 220 271 327 393
#     4  11  24  43  66  97 134 165 221 282 318 391
#
# _framework density 25.349508
#
# number of rings (size 3 to 8) (size 9 to 14) (size 15 to 20)
#    0.000    1.000    7.500    0.375    3.500    1.000 
#    0.000    5.000    0.000    0.000    0.000    0.000 
#    0.000    0.000    0.000    0.000    0.000    0.000 
#
# Total GULP energy -89563.144319 kJ/mol
# GULP energy per Si atom -5597.696520 kJ/mol
# Density = 2.529181 g / cm^3
# Si number density = 25.349508 Si / 1000 Ang^3
#
#
#
# Elastic Constant Matrix: (Units=GPa)
#
#
# Indices 1 2 3 4 5 6 
#
# 1 134.2231 42.9249 30.2908 -22.6744 0.3546 24.6006
# 2 42.9249 116.9614 14.0330 -33.6628 -2.4895 20.4213
# 3 30.2908 14.0330 69.1844 -12.6657 5.1813 19.2447
# 4 -22.6744 -33.6628 -12.6657 43.5353 5.2457 6.5025
# 5 0.3546 -2.4895 5.1813 5.2457 50.4708 -13.6358
# 6 24.6006 20.4213 19.2447 6.5025 -13.6358 54.8963
#
#
#
# Elastic Compliance Matrix: (Units=1/GPa)
#
#
# Indices 1 2 3 4 5 6 
#
# 1 0.009819 -0.001510 -0.002024 0.004124 -0.001438 -0.003974
# 2 -0.001510 0.013353 0.002256 0.011582 -0.002690 -0.007121
# 3 -0.002024 0.002256 0.019261 0.008245 -0.005122 -0.008933
# 4 0.004124 0.011582 0.008245 0.039910 -0.008762 -0.015951
# 5 -0.001438 -0.002690 -0.005122 -0.008762 0.023944 0.010426
# 6 -0.003974 -0.007121 -0.008933 -0.015951 0.010426 0.030257
#
#
# Mechanical properties :
#
#
# Convention : Reuss Voigt Hill
#
# Bulk Modulus (GPa) = 25.07878 54.98515 40.03197
# Shear Modulus (GPa) = 32.80954 45.32184 39.06569
#
# Velocity S-wave (km/s) = 3.60152 4.23292 3.92992
# Velocity P-wave (km/s) = 5.21625 6.75485 6.03479
#
# Compressibility (1/GPa) = 0.03987435
#
# Stress axis : x y z
#
# Youngs Moduli (GPa) = 101.84224 74.88838 51.91902
#
# Poissons Ratio (x) = 0.11312 0.10511
# Poissons Ratio (y) = 0.15383 -0.11711
# Poissons Ratio (z) = 0.20618 -0.16892
#
# Static dielectric constant tensor:
#      x y z
#    x 2.090150 0.005620 -0.008090 
#    y 0.005620 1.999070 0.012950 
#    z -0.008090 0.012950 1.997390 
# 
# From -- ./inp_files/508189.got.cif
#   From: 2010.05.17/outbox.cif.g08.bks.cpg/sg2_255_cif.got.tgz:508189.got - 2010.06.03 11:33:40.
