data_PCOD9017370
_publ_section_title
;
Structure prediction by ZEFSAII (Michael W. Deem and Ramdas Pophale) SiO2 
 PCOD9017370
Probable space group: P -1
;
_chemical_formula_sum "Si O2"
_cell_formula_units_Z 16
_cell_length_a 13.597410
_cell_length_b 9.100542
_cell_length_c 14.268507
_cell_angle_alpha 39.977732
_cell_angle_beta 32.649544
_cell_angle_gamma 57.619767
_cell_volume 580.567742
_symmetry_space_group_name_H-M "P -1"
_symmetry_group_IT_number 2
_symmetry_cell_setting 'triclinic'
loop_
_space_group_symop_operation_xyz
x,y,z
-x,-y,-z
loop_
_atom_site_type_symbol
_atom_site_label
_atom_site_fract_x
_atom_site_fract_y
_atom_site_fract_z
Si Si1 0.430334 0.218693 0.979727
Si Si2 0.828706 0.577706 0.006659
Si Si3 0.147711 0.811800 0.502176
Si Si4 0.720671 0.525510 0.316467
Si Si5 0.974681 0.949062 0.159298
Si Si6 0.333496 0.878173 0.768948
Si Si7 0.641822 0.695398 0.689265
Si Si8 0.084843 0.487429 0.334254
O O1 0.334343 0.296396 0.929329
O O2 0.273732 0.083183 0.249267
O O3 0.569630 0.463613 0.790760
O O4 0.500000 0.000000 0.000000
O O5 0.009428 0.779647 0.718588
O O6 0.202639 0.552542 0.804805
O O7 0.783535 0.377002 0.059499
O O8 0.260972 0.632775 0.532467
O O9 0.047262 0.706756 0.536171
O O10 0.500000 0.500000 0.500000
O O11 0.867544 0.794975 0.073214
O O12 0.081377 0.743719 0.168204
O O13 0.818208 0.968564 0.195808
O O14 0.474095 0.824120 0.763474
O O15 0.500000 0.000000 0.500000
O O16 0.722094 0.581021 0.768237
O O17 0.831133 0.875731 0.399772
O O18 0.000000 0.500000 0.500000
#
# Coordination Sequence:
#
# PCOD9017370 Si02
#       8
#     2   2   2   2   2   2   2   2
#     4  11  23  43  77 108 153 195 260 317 375 460
#     4  11  25  48  72 106 155 199 256 312 390 460
#     4  12  26  47  74 114 153 203 255 319 391 452
#     4  12  28  46  75 111 151 202 262 319 390 459
#     4  10  21  42  76 106 150 199 253 312 381 448
#     4   9  19  42  70 103 145 199 244 311 374 450
#     4   9  21  41  73 110 147 199 254 307 379 456
#     4  10  23  43  73 110 151 198 255 307 383 449
#
# _framework density 27.559231
#
# number of rings (size 3 to 8) (size 9 to 14) (size 15 to 20)
#    0.000    1.500    1.250    3.000    7.000    3.500 
#    2.250    2.500    0.000    0.000    0.000    0.000 
#    0.000    0.000    0.000    0.000    0.000    0.000 
#
# Total GULP energy -89493.474561 kJ/mol
# GULP energy per Si atom -5593.342160 kJ/mol
# Density = 2.749651 g / cm^3
# Si number density = 27.559231 Si / 1000 Ang^3
#
#
#
# Elastic Constant Matrix: (Units=GPa)
#
#
# Indices 1 2 3 4 5 6 
#
# 1 142.2951 57.8245 41.8597 8.5834 13.8398 -28.8548
# 2 57.8245 201.4439 25.4413 21.5295 -22.3133 -48.4355
# 3 41.8597 25.4413 150.3055 1.2632 3.5074 -17.3103
# 4 8.5834 21.5295 1.2632 50.4013 -12.6440 -0.6148
# 5 13.8398 -22.3133 3.5074 -12.6440 43.8742 -5.2320
# 6 -28.8548 -48.4355 -17.3103 -0.6148 -5.2320 64.4811
#
#
#
# Elastic Compliance Matrix: (Units=1/GPa)
#
#
# Indices 1 2 3 4 5 6 
#
# 1 0.009388 -0.002392 -0.001920 -0.001589 -0.004301 0.001524
# 2 -0.002392 0.007546 -0.000141 -0.001563 0.004741 0.004930
# 3 -0.001920 -0.000141 0.007323 0.000252 0.000142 0.001015
# 4 -0.001589 -0.001563 0.000252 0.022256 0.005966 -0.001121
# 5 -0.004301 0.004741 0.000142 0.005966 0.028753 0.004065
# 6 0.001524 0.004930 0.001015 -0.001121 0.004065 0.020485
#
#
# Mechanical properties :
#
#
# Convention : Reuss Voigt Hill
#
# Bulk Modulus (GPa) = 65.14429 82.69949 73.92189
# Shear Modulus (GPa) = 45.54764 56.34593 50.94678
#
# Velocity S-wave (km/s) = 4.06977 4.52656 4.30423
# Velocity P-wave (km/s) = 6.76560 7.57580 7.18213
#
# Compressibility (1/GPa) = 0.01535054
#
# Stress axis : x y z
#
# Youngs Moduli (GPa) = 106.51911 132.51708 136.55252
#
# Poissons Ratio (x) = 0.31702 0.26223
# Poissons Ratio (y) = 0.25483 0.01923
# Poissons Ratio (z) = 0.20455 0.01866
#
# Static dielectric constant tensor:
#      x y z
#    x 2.225330 0.045560 0.009720 
#    y 0.045560 2.342330 0.113510 
#    z 0.009720 0.113510 2.282060 
# 
# From -- ./inp_files/620803.got.cif
#   From: 2010.05.17/outbox.cif.g08.bks.cpg/sg2_311_cif.got.tgz:620803.got - 2010.06.03 11:33:40.
