data_PCOD9017087
_publ_section_title
;
Structure prediction by ZEFSAII (Michael W. Deem and Ramdas Pophale) SiO2 
 PCOD9017087
Probable space group: P -1
;
_chemical_formula_sum "Si O2"
_cell_formula_units_Z 14
_cell_length_a 18.490061
_cell_length_b 9.590958
_cell_length_c 5.021431
_cell_angle_alpha 121.899771
_cell_angle_beta 114.190295
_cell_angle_gamma 46.494727
_cell_volume 546.804544
_symmetry_space_group_name_H-M "P -1"
_symmetry_group_IT_number 2
_symmetry_cell_setting 'triclinic'
loop_
_space_group_symop_operation_xyz
x,y,z
-x,-y,-z
loop_
_atom_site_type_symbol
_atom_site_label
_atom_site_fract_x
_atom_site_fract_y
_atom_site_fract_z
Si Si1 0.011581 0.141632 0.464270
Si Si2 0.274438 0.913692 0.109306
Si Si3 0.824732 0.810571 0.244548
Si Si4 0.407462 0.222521 0.686426
Si Si5 0.549249 0.470862 0.740477
Si Si6 0.835053 0.247831 0.048209
Si Si7 0.726312 0.615462 0.872145
O O1 0.900428 0.304987 0.346405
O O2 0.072963 0.226021 0.724244
O O3 0.000000 0.000000 0.500000
O O4 0.084277 0.976010 0.182642
O O5 0.210025 0.093315 0.415701
O O6 0.382523 0.745375 0.230010
O O7 0.260557 0.020511 0.919022
O O8 0.227525 0.790378 0.893827
O O9 0.819635 0.622221 0.021386
O O10 0.437425 0.545257 0.579462
O O11 0.500000 0.000000 0.500000
O O12 0.442460 0.360847 0.960769
O O13 0.356402 0.214647 0.868580
O O14 0.675049 0.665904 0.559837
O O15 0.765783 0.403248 0.866579
#
# Coordination Sequence:
#
# PCOD9017087 Si02
#       7
#     2   2   2   2   2   2   2
#     4  10  21  42  71 101 141 184 237 301 351 415
#     4  11  23  44  68  97 140 183 238 287 350 419
#     4  11  25  42  70 103 141 187 231 290 350 421
#     4  12  29  50  73 104 151 192 234 299 371 421
#     4  12  27  44  74 105 134 183 246 300 347 426
#     4  10  23  42  71 101 138 188 237 289 358 426
#     4  12  27  47  72 106 146 194 235 289 365 439
#
# _framework density 25.603297000000001
#
# number of rings (size 3 to 8) (size 9 to 14) (size 15 to 20)
#    0.000    0.857    2.857    3.000   12.000    0.571 
#    0.000    0.714    0.000    0.000    0.000    0.000 
#    0.000    0.000    0.000    0.000    0.000    0.000 
#
# Total GULP energy -78241.277722 kJ/mol
# GULP energy per Si atom -5588.662694 kJ/mol
# Density = 2.554502 g / cm^3
# Si number density = 25.603297 Si / 1000 Ang^3
#
#
#
# Elastic Constant Matrix: (Units=GPa)
#
#
# Indices 1 2 3 4 5 6 
#
# 1 94.2368 1.1012 39.2483 -3.8832 11.8920 6.7220
# 2 1.1012 48.3647 9.7706 -12.6059 7.4532 -11.8139
# 3 39.2483 9.7706 126.7511 -10.1271 11.7127 -4.6582
# 4 -3.8832 -12.6059 -10.1271 35.8816 0.6764 5.1103
# 5 11.8920 7.4532 11.7127 0.6764 36.8993 -4.3369
# 6 6.7220 -11.8139 -4.6582 5.1103 -4.3369 34.9651
#
#
#
# Elastic Compliance Matrix: (Units=1/GPa)
#
#
# Indices 1 2 3 4 5 6 
#
# 1 0.012892 0.000437 -0.003747 0.001043 -0.003474 -0.003413
# 2 0.000437 0.025146 -0.000808 0.007791 -0.004327 0.006629
# 3 -0.003747 -0.000808 0.009444 0.001826 -0.001513 0.001251
# 4 0.001043 0.007791 0.001826 0.031635 -0.003347 -0.002363
# 5 -0.003474 -0.004327 -0.001513 -0.003347 0.030014 0.003216
# 6 -0.003413 0.006629 0.001251 -0.002363 0.003216 0.032407
#
#
# Mechanical properties :
#
#
# Convention : Reuss Voigt Hill
#
# Bulk Modulus (GPa) = 25.47991 41.06585 33.27288
# Shear Modulus (GPa) = 30.70218 36.16471 33.43345
#
# Velocity S-wave (km/s) = 3.46663 3.76240 3.61754
# Velocity P-wave (km/s) = 5.09870 5.91171 5.52020
#
# Compressibility (1/GPa) = 0.03924660
#
# Stress axis : x y z
#
# Youngs Moduli (GPa) = 77.56901 39.76725 105.89131
#
# Poissons Ratio (x) = -0.01737 0.39674
# Poissons Ratio (y) = -0.03388 0.08553
# Poissons Ratio (z) = 0.29063 0.03212
#
# Static dielectric constant tensor:
#      x y z
#    x 2.129230 -0.039580 0.030970 
#    y -0.039580 1.952690 0.018710 
#    z 0.030970 0.018710 2.031780 
# 
# From -- ./inp_files/105846.got.cif
#   From: 2010.05.17/outbox.cif.g08.bks.cpg/sg2_53_cif.got.tgz:105846.got - 2010.06.03 11:33:40.
