data_PCOD9017165
_publ_section_title
;
Structure prediction by ZEFSAII (Michael W. Deem and Ramdas Pophale) SiO2 
 PCOD9017165
Probable space group: P -1
;
_chemical_formula_sum "Si O2"
_cell_formula_units_Z 16
_cell_length_a 14.906275
_cell_length_b 11.124389
_cell_length_c 9.802542
_cell_angle_alpha 76.170568
_cell_angle_beta 152.052411
_cell_angle_gamma 97.624021
_cell_volume 728.640179
_symmetry_space_group_name_H-M "P -1"
_symmetry_group_IT_number 2
_symmetry_cell_setting 'triclinic'
loop_
_space_group_symop_operation_xyz
x,y,z
-x,-y,-z
loop_
_atom_site_type_symbol
_atom_site_label
_atom_site_fract_x
_atom_site_fract_y
_atom_site_fract_z
Si Si1 0.634300 0.891024 0.294039
Si Si2 0.022673 0.502096 0.192773
Si Si3 0.857865 0.266485 0.595469
Si Si4 0.328465 0.803644 0.384722
Si Si5 0.608759 0.555959 0.754583
Si Si6 0.812895 0.939245 0.811243
Si Si7 0.665376 0.296467 0.040065
Si Si8 0.029328 0.766654 0.770590
O O1 0.690417 0.913670 0.520938
O O2 0.842002 0.872795 0.500069
O O3 0.521061 0.771952 0.179753
O O4 0.500000 0.000000 0.000000
O O5 0.161214 0.594656 0.403628
O O6 0.062874 0.359088 0.333397
O O7 0.821410 0.555190 0.982768
O O8 0.000000 0.500000 0.000000
O O9 0.706912 0.204135 0.499457
O O10 0.794733 0.271753 0.354741
O O11 0.073851 0.186128 0.930211
O O12 0.506561 0.696486 0.614160
O O13 0.312002 0.951711 0.293658
O O14 0.144495 0.764324 0.068941
O O15 0.500000 0.500000 0.500000
O O16 0.613542 0.446871 0.904019
O O17 0.000000 0.000000 0.000000
O O18 0.803880 0.237162 0.117070
#
# Coordination Sequence:
#
# PCOD9017165 Si02
#       8
#     2   2   2   2   2   2   2   2
#     4  12  25  47  75 101 139 192 237 287 355 427
#     4  11  21  41  73  99 131 192 231 277 364 414
#     4  11  23  44  70  98 142 184 233 290 350 422
#     4  11  21  42  70  99 141 184 231 289 348 416
#     4  11  23  41  69 106 143 176 237 297 337 425
#     4  10  21  42  71  98 136 186 236 281 350 420
#     4  11  28  46  69 110 141 179 239 298 351 413
#     4  11  24  43  72  99 140 184 232 291 350 418
#
# _framework density 21.958712999999999
#
# number of rings (size 3 to 8) (size 9 to 14) (size 15 to 20)
#    0.000    1.000    6.250    1.500    5.250    3.000 
#    6.750    1.250    0.000    0.000    0.000    0.000 
#    0.000    0.000    0.000    0.000    0.000    0.000 
#
# Total GULP energy -89318.982725 kJ/mol
# GULP energy per Si atom -5582.436420 kJ/mol
# Density = 2.190873 g / cm^3
# Si number density = 21.958713 Si / 1000 Ang^3
#
#
#
# Elastic Constant Matrix: (Units=GPa)
#
#
# Indices 1 2 3 4 5 6 
#
# 1 66.3272 18.4311 31.4597 -13.5644 3.7761 -6.8776
# 2 18.4311 90.8490 39.0895 0.5070 0.6151 -17.3785
# 3 31.4597 39.0895 125.0273 -17.0965 -10.3526 -12.8885
# 4 -13.5644 0.5070 -17.0965 36.1655 -10.4101 17.6889
# 5 3.7761 0.6151 -10.3526 -10.4101 40.8741 0.1414
# 6 -6.8776 -17.3785 -12.8885 17.6889 0.1414 36.7085
#
#
#
# Elastic Compliance Matrix: (Units=1/GPa)
#
#
# Indices 1 2 3 4 5 6 
#
# 1 0.018477 -0.002757 -0.003224 0.006120 -0.000917 -0.001921
# 2 -0.002757 0.015513 -0.004718 -0.009212 -0.003553 0.009624
# 3 -0.003224 -0.004718 0.011397 0.006691 0.004967 -0.002080
# 4 0.006120 -0.009212 0.006691 0.049316 0.013913 -0.024683
# 5 -0.000917 -0.003553 0.004967 0.013913 0.029429 -0.006928
# 6 -0.001921 0.009624 -0.002080 -0.024683 -0.006928 0.042628
#
#
# Mechanical properties :
#
#
# Convention : Reuss Voigt Hill
#
# Bulk Modulus (GPa) = 41.68769 51.12932 46.40851
# Shear Modulus (GPa) = 25.49025 35.63118 30.56072
#
# Velocity S-wave (km/s) = 3.41079 4.03258 3.73464
# Velocity P-wave (km/s) = 5.87683 6.70948 6.30691
#
# Compressibility (1/GPa) = 0.02398790
#
# Stress axis : x y z
#
# Youngs Moduli (GPa) = 54.12222 64.46206 87.74562
#
# Poissons Ratio (x) = 0.17769 0.28293
# Poissons Ratio (y) = 0.14919 0.41401
# Poissons Ratio (z) = 0.17451 0.30415
#
# Static dielectric constant tensor:
#      x y z
#    x 1.840970 -0.020700 0.035310 
#    y -0.020700 1.861670 -0.063350 
#    z 0.035310 -0.063350 1.783720 
# 
# From -- ./inp_files/307444.got.cif
#   From: 2010.05.17/outbox.cif.g08.bks.cpg/sg2_154_cif.got.tgz:307444.got - 2010.06.03 11:33:40.
