data_PCOD9017619
_publ_section_title
;
Structure prediction by ZEFSAII (Michael W. Deem and Ramdas Pophale) SiO2 
 PCOD9017619
Probable space group: P -1
;
_chemical_formula_sum "Si O2"
_cell_formula_units_Z 16
_cell_length_a 15.815785
_cell_length_b 7.709175
_cell_length_c 7.679064
_cell_angle_alpha 113.478352
_cell_angle_beta 87.616801
_cell_angle_gamma 126.642187
_cell_volume 664.121826
_symmetry_space_group_name_H-M "P -1"
_symmetry_group_IT_number 2
_symmetry_cell_setting 'triclinic'
loop_
_space_group_symop_operation_xyz
x,y,z
-x,-y,-z
loop_
_atom_site_type_symbol
_atom_site_label
_atom_site_fract_x
_atom_site_fract_y
_atom_site_fract_z
Si Si1 0.042850 0.391606 0.068659
Si Si2 0.943557 0.151271 0.348062
Si Si3 0.112345 0.114123 0.291272
Si Si4 0.542360 0.180803 0.904647
Si Si5 0.241432 0.315423 0.013687
Si Si6 0.424190 0.342155 0.167915
Si Si7 0.202956 0.878273 0.383516
Si Si8 0.556816 0.854728 0.545854
O O1 0.165692 0.641462 0.183023
O O2 0.979632 0.279481 0.210021
O O3 0.000000 0.500000 0.000000
O O4 0.996218 0.146049 0.872194
O O5 0.889736 0.230352 0.506039
O O6 0.053422 0.203591 0.432931
O O7 0.839634 0.869302 0.202629
O O8 0.186403 0.059168 0.357896
O O9 0.174561 0.278965 0.179845
O O10 0.517276 0.005769 0.674023
O O11 0.669552 0.414510 0.962977
O O12 0.488381 0.305870 0.007734
O O13 0.500000 0.000000 0.000000
O O14 0.309570 0.232355 0.047539
O O15 0.475268 0.613207 0.340759
O O16 0.421679 0.219727 0.298636
O O17 0.323174 0.001104 0.490868
#
# Coordination Sequence:
#
# PCOD9017619 Si02
#       8
#     2   2   2   2   2   2   2   2
#     4   9  20  37  60  87 128 163 207 263 314 376
#     4  11  23  38  64  96 126 171 217 255 323 392
#     4  10  22  40  63  92 124 175 214 256 322 391
#     4  10  23  40  64  95 125 166 219 267 326 389
#     4  11  21  40  67  90 128 171 211 264 332 386
#     4  10  21  43  65  90 131 165 213 277 323 392
#     4  11  21  39  61  93 130 167 211 269 321 379
#     4  10  22  39  67  93 126 168 216 265 335 383
#
# _framework density 24.091967
#
# number of rings (size 3 to 8) (size 9 to 14) (size 15 to 20)
#    0.000    1.750    1.250    3.375    3.500    0.500 
#    0.000    0.000    2.750    0.000    0.000    0.000 
#    0.000    0.000    0.000    0.000    0.000    0.000 
#
# Total GULP energy -89181.203001 kJ/mol
# GULP energy per Si atom -5573.825188 kJ/mol
# Density = 2.403713 g / cm^3
# Si number density = 24.091967 Si / 1000 Ang^3
#
#
#
# Elastic Constant Matrix: (Units=GPa)
#
#
# Indices 1 2 3 4 5 6 
#
# 1 127.5496 16.0266 33.2273 -6.7167 -34.1895 19.1002
# 2 16.0266 73.8410 14.6267 2.3699 -8.4607 -13.4224
# 3 33.2273 14.6267 62.7398 -4.5874 -19.3040 6.3016
# 4 -6.7167 2.3699 -4.5874 33.0404 2.0974 1.8026
# 5 -34.1895 -8.4607 -19.3040 2.0974 37.2158 -5.5636
# 6 19.1002 -13.4224 6.3016 1.8026 -5.5636 42.7339
#
#
#
# Elastic Compliance Matrix: (Units=1/GPa)
#
#
# Indices 1 2 3 4 5 6 
#
# 1 0.011744 -0.001961 -0.002654 0.001884 0.008190 -0.004487
# 2 -0.001961 0.016030 -0.003129 -0.002431 0.001351 0.006651
# 3 -0.002654 -0.003129 0.020629 0.002206 0.007127 -0.002003
# 4 0.001884 -0.002431 0.002206 0.031302 0.000074 -0.003242
# 5 0.008190 0.001351 0.007127 0.000074 0.038502 0.000723
# 6 -0.004487 0.006651 -0.002003 -0.003242 0.000723 0.028021
#
#
# Mechanical properties :
#
#
# Convention : Reuss Voigt Hill
#
# Bulk Modulus (GPa) = 30.38074 43.54350 36.96212
# Shear Modulus (GPa) = 28.95387 35.94801 32.45094
#
# Velocity S-wave (km/s) = 3.47047 3.86698 3.67408
# Velocity P-wave (km/s) = 5.35692 6.16856 5.77701
#
# Compressibility (1/GPa) = 0.03291559
#
# Stress axis : x y z
#
# Youngs Moduli (GPa) = 85.14732 62.38371 48.47467
#
# Poissons Ratio (x) = 0.12233 0.12867
# Poissons Ratio (y) = 0.16697 0.15166
# Poissons Ratio (z) = 0.22602 0.19517
#
# Static dielectric constant tensor:
#      x y z
#    x 1.969870 -0.053890 -0.045880 
#    y -0.053890 1.980100 0.007040 
#    z -0.045880 0.007040 1.972100 
# 
# From -- ./inp_files/329430.got.cif
#   From: 2010.05.17/outbox.cif.g08.bks.cpg/sg2_165_cif.got.tgz:329430.got - 2010.06.03 11:33:40.
