data_PCOD9017800
_publ_section_title
;
Structure prediction by ZEFSAII (Michael W. Deem and Ramdas Pophale) SiO2 
 PCOD9017800
Probable space group: P -1
;
_chemical_formula_sum "Si O2"
_cell_formula_units_Z 14
_cell_length_a 8.874507
_cell_length_b 15.537764
_cell_length_c 18.788340
_cell_angle_alpha 30.601926
_cell_angle_beta 150.615649
_cell_angle_gamma 143.711190
_cell_volume 630.615460
_symmetry_space_group_name_H-M "P -1"
_symmetry_group_IT_number 2
_symmetry_cell_setting 'triclinic'
loop_
_space_group_symop_operation_xyz
x,y,z
-x,-y,-z
loop_
_atom_site_type_symbol
_atom_site_label
_atom_site_fract_x
_atom_site_fract_y
_atom_site_fract_z
Si Si1 0.131538 0.443676 0.297542
Si Si2 0.537998 0.313609 0.943524
Si Si3 0.817090 0.700127 0.730221
Si Si4 0.821462 0.605250 0.493681
Si Si5 0.058631 0.306983 0.867320
Si Si6 0.659246 0.091522 0.571244
Si Si7 0.775348 0.989888 0.064144
O O1 0.080793 0.341232 0.277393
O O2 0.473321 0.577323 0.339670
O O3 0.160451 0.335133 0.458376
O O4 0.892184 0.562311 0.137643
O O5 0.620507 0.516475 0.812019
O O6 0.367441 0.283982 0.970780
O O7 0.316398 0.196132 0.879031
O O8 0.868045 0.253645 0.125814
O O9 0.610337 0.843117 0.543267
O O10 0.897855 0.415603 0.667190
O O11 0.084322 0.735745 0.467370
O O12 0.823920 0.133357 0.919961
O O13 0.877468 0.981337 0.778383
O O14 0.500000 0.000000 0.500000
O O15 0.500000 0.000000 0.000000
#
# Coordination Sequence:
#
# PCOD9017800 Si02
#       7
#     2   2   2   2   2   2   2
#     4   9  20  37  71  91 124 165 221 259 311 380
#     4  11  24  41  68  92 135 168 217 259 320 382
#     4  11  23  42  63 100 126 173 213 267 314 380
#     4   9  20  41  66  93 126 168 213 257 316 385
#     4  10  21  43  66  95 127 172 211 260 319 384
#     4  12  26  43  65  94 132 168 212 270 321 376
#     4  12  26  43  68  97 130 167 215 268 322 379
#
# _framework density 22.200533
#
# number of rings (size 3 to 8) (size 9 to 14) (size 15 to 20)
#    0.857    0.571    1.429    3.857    2.000    4.000 
#    0.000    1.429    0.000    0.000    0.000    0.000 
#    0.000    0.000    0.000    0.000    0.000    0.000 
#
# Total GULP energy -78134.446529 kJ/mol
# GULP energy per Si atom -5581.031895 kJ/mol
# Density = 2.215000 g / cm^3
# Si number density = 22.200533 Si / 1000 Ang^3
#
#
#
# Elastic Constant Matrix: (Units=GPa)
#
#
# Indices 1 2 3 4 5 6 
#
# 1 103.9970 18.2333 13.9342 -2.5117 19.2166 -13.2517
# 2 18.2333 42.3734 25.2655 8.8125 2.8418 -13.3780
# 3 13.9342 25.2655 69.0817 6.8972 13.3627 -0.3086
# 4 -2.5117 8.8125 6.8972 31.5410 0.4886 -11.0248
# 5 19.2166 2.8418 13.3627 0.4886 33.7965 -4.9686
# 6 -13.2517 -13.3780 -0.3086 -11.0248 -4.9686 27.2348
#
#
#
# Elastic Compliance Matrix: (Units=1/GPa)
#
#
# Indices 1 2 3 4 5 6 
#
# 1 0.012086 -0.004154 -0.000132 0.003738 -0.005896 0.004277
# 2 -0.004154 0.039871 -0.014925 -0.002051 0.007579 0.017947
# 3 -0.000132 -0.014925 0.022046 -0.004178 -0.008863 -0.010454
# 4 0.003738 -0.002051 -0.004178 0.039412 0.001631 0.017016
# 5 -0.005896 0.007579 -0.008863 0.001631 0.036984 0.008161
# 6 0.004277 0.017947 -0.010454 0.017016 0.008161 0.055873
#
#
# Mechanical properties :
#
#
# Convention : Reuss Voigt Hill
#
# Bulk Modulus (GPa) = 28.10541 36.70203 32.40372
# Shear Modulus (GPa) = 19.48902 29.04906 24.26904
#
# Velocity S-wave (km/s) = 2.96609 3.62122 3.30990
# Velocity P-wave (km/s) = 4.94141 5.83543 5.40693
#
# Compressibility (1/GPa) = 0.03558034
#
# Stress axis : x y z
#
# Youngs Moduli (GPa) = 82.73824 25.08098 45.36005
#
# Poissons Ratio (x) = 0.10418 0.00601
# Poissons Ratio (y) = 0.34366 0.67701
# Poissons Ratio (z) = 0.01096 0.37434
#
# Static dielectric constant tensor:
#      x y z
#    x 1.839380 -0.001630 0.005240 
#    y -0.001630 1.792220 -0.028360 
#    z 0.005240 -0.028360 1.871650 
# 
# From -- ./inp_files/561371.got.cif
#   From: 2010.05.17/outbox.cif.g08.bks.cpg/sg2_281_cif.got.tgz:561371.got - 2010.06.03 11:33:40.
