data_PCOD9017856
_publ_section_title
;
Structure prediction by ZEFSAII (Michael W. Deem and Ramdas Pophale) SiO2 
 PCOD9017856
Probable space group: P -1
;
_chemical_formula_sum "Si O2"
_cell_formula_units_Z 15
_cell_length_a 22.259219
_cell_length_b 13.614360
_cell_length_c 6.617954
_cell_angle_alpha 112.783616
_cell_angle_beta 60.806286
_cell_angle_gamma 159.167361
_cell_volume 607.247801
_symmetry_space_group_name_H-M "P -1"
_symmetry_group_IT_number 2
_symmetry_cell_setting 'triclinic'
loop_
_space_group_symop_operation_xyz
x,y,z
-x,-y,-z
loop_
_atom_site_type_symbol
_atom_site_label
_atom_site_fract_x
_atom_site_fract_y
_atom_site_fract_z
Si Si1 0.156789 0.311704 0.265442
Si Si2 0.206757 0.714472 0.221520
Si Si3 0.710381 0.821096 0.376353
Si Si4 0.988539 0.287589 0.593035
Si Si5 0.386976 0.113841 0.580854
Si Si6 0.459916 0.053516 0.725683
Si Si7 0.200510 0.284234 0.754437
Si Si8 0.000000 0.500000 0.000000
O O1 0.363539 0.620419 0.254837
O O2 0.066877 0.283528 0.497877
O O3 0.194448 0.363511 0.002078
O O4 0.984345 0.981136 0.286234
O O5 0.110321 0.501553 0.372592
O O6 0.317839 0.958536 0.367625
O O7 0.062535 0.564034 0.190015
O O8 0.353580 0.871317 0.957534
O O9 0.500000 0.500000 0.500000
O O10 0.707748 0.906662 0.274321
O O11 0.797130 0.828510 0.225090
O O12 0.790835 0.987743 0.580691
O O13 0.997905 0.370776 0.841110
O O14 0.333713 0.957305 0.726632
O O15 0.607089 0.436296 0.456044
O O16 0.500000 0.000000 0.500000
#
# Coordination Sequence:
#
# PCOD9017856 Si02
#       8
#     2   2   2   2   2   2   2   1
#     4  10  21  43  67 100 136 180 227 277 336 407
#     4  12  25  41  66  99 140 178 220 283 345 404
#     4   9  20  42  70  97 129 177 229 279 344 396
#     4  11  24  42  71  99 139 178 219 286 346 403
#     4  11  22  42  70  95 136 183 219 287 344 395
#     4  12  27  42  66 104 140 180 234 272 335 421
#     4   9  20  41  74  93 132 182 229 282 338 400
#     4  12  24  42  66 102 134 174 230 276 342 420
#
# _framework density 24.701612999999998
#
# number of rings (size 3 to 8) (size 9 to 14) (size 15 to 20)
#    0.000    1.333    2.667    2.800    3.733    1.600 
#    0.000    0.667   14.667    0.000    0.000    0.000 
#    0.000    0.000    0.000    0.000    0.000    0.000 
#
# Total GULP energy -83514.584109 kJ/mol
# GULP energy per Si atom -5567.638941 kJ/mol
# Density = 2.464539 g / cm^3
# Si number density = 24.701613 Si / 1000 Ang^3
#
#
#
# Elastic Constant Matrix: (Units=GPa)
#
#
# Indices 1 2 3 4 5 6 
#
# 1 63.0813 7.3480 40.5885 2.4606 7.0959 -11.3244
# 2 7.3480 157.4647 37.4052 18.2880 20.0665 7.3137
# 3 40.5885 37.4052 138.2008 11.5621 -12.6685 -12.6818
# 4 2.4606 18.2880 11.5621 34.1798 -2.4868 6.6319
# 5 7.0959 20.0665 -12.6685 -2.4868 34.3349 7.0423
# 6 -11.3244 7.3137 -12.6818 6.6319 7.0423 28.8080
#
#
#
# Elastic Compliance Matrix: (Units=1/GPa)
#
#
# Indices 1 2 3 4 5 6 
#
# 1 0.023135 0.001896 -0.007261 -0.002658 -0.010525 0.008602
# 2 0.001896 0.008317 -0.003101 -0.003984 -0.006647 -0.000190
# 3 -0.007261 -0.003101 0.011092 -0.001332 0.007021 0.001406
# 4 -0.002658 -0.003984 -0.001332 0.034535 0.006996 -0.010280
# 5 -0.010525 -0.006647 0.007021 0.006996 0.040512 -0.010873
# 6 0.008602 -0.000190 0.001406 -0.010280 -0.010873 0.043786
#
#
# Mechanical properties :
#
#
# Convention : Reuss Voigt Hill
#
# Bulk Modulus (GPa) = 39.04461 58.82558 48.93510
# Shear Modulus (GPa) = 26.75986 37.69156 32.22571
#
# Velocity S-wave (km/s) = 3.29496 3.91048 3.61584
# Velocity P-wave (km/s) = 5.50604 6.65247 6.10622
#
# Compressibility (1/GPa) = 0.02561173
#
# Stress axis : x y z
#
# Youngs Moduli (GPa) = 43.22377 120.22900 90.15718
#
# Poissons Ratio (x) = -0.22791 0.65462
# Poissons Ratio (y) = -0.08194 0.27960
# Poissons Ratio (z) = 0.31384 0.37286
#
# Static dielectric constant tensor:
#      x y z
#    x 2.036920 -0.048740 0.030740 
#    y -0.048740 2.172970 0.077220 
#    z 0.030740 0.077220 1.841220 
# 
# From -- ./inp_files/94132.got.cif
#   From: 2010.05.17/outbox.cif.g08.bks.cpg/sg2_48_cif.got.tgz:94132.got - 2010.06.03 11:33:40.
