data_PCOD9017192
_publ_section_title
;
Structure prediction by ZEFSAII (Michael W. Deem and Ramdas Pophale) SiO2 
 PCOD9017192
Probable space group: P -1
;
_chemical_formula_sum "Si O2"
_cell_formula_units_Z 13
_cell_length_a 9.255560
_cell_length_b 8.042805
_cell_length_c 11.681077
_cell_angle_alpha 69.868601
_cell_angle_beta 118.953573
_cell_angle_gamma 136.062287
_cell_volume 527.931500
_symmetry_space_group_name_H-M "P -1"
_symmetry_group_IT_number 2
_symmetry_cell_setting 'triclinic'
loop_
_space_group_symop_operation_xyz
x,y,z
-x,-y,-z
loop_
_atom_site_type_symbol
_atom_site_label
_atom_site_fract_x
_atom_site_fract_y
_atom_site_fract_z
Si Si1 0.069770 0.811312 0.648002
Si Si2 0.503730 0.224946 0.323699
Si Si3 0.674754 0.783118 0.513163
Si Si4 0.752186 0.110109 0.072781
Si Si5 0.672266 0.636405 0.138917
Si Si6 0.924958 0.146542 0.898635
Si Si7 0.000000 0.500000 0.500000
O O1 0.938628 0.607422 0.548609
O O2 0.907552 0.854716 0.612544
O O3 0.284319 0.065873 0.616813
O O4 0.129748 0.745029 0.799570
O O5 0.390592 0.144250 0.422250
O O6 0.559418 0.463224 0.244841
O O7 0.742052 0.306119 0.400633
O O8 0.319331 0.023461 0.211416
O O9 0.500000 0.500000 0.500000
O O10 0.727250 0.878802 0.125199
O O11 0.500000 0.000000 0.000000
O O12 0.898922 0.239503 0.983008
O O13 0.892007 0.686734 0.169552
O O14 0.500000 0.500000 0.000000
O O15 0.000000 0.000000 0.000000
#
# Coordination Sequence:
#
# PCOD9017192 Si02
#       7
#     2   2   2   2   2   2   1
#     4  11  26  45  70 103 144 182 244 288 354 433
#     4  12  24  45  71 103 144 182 245 285 356 430
#     4  11  23  46  72 101 134 193 233 289 356 424
#     4  11  23  45  69 104 143 177 226 303 358 411
#     4  11  23  43  75 104 135 185 241 285 356 441
#     4  10  21  42  72 102 136 184 226 291 357 415
#     4  12  28  46  68 106 146 194 236 300 350 418
#
# _framework density 24.624406
#
# number of rings (size 3 to 8) (size 9 to 14) (size 15 to 20)
#    0.000    0.923    4.615    3.692    4.308    0.615 
#    2.769    0.769    0.000    0.000    0.000    0.000 
#    0.000    0.000    0.000    0.000    0.000    0.000 
#
# Total GULP energy -72524.311937 kJ/mol
# GULP energy per Si atom -5578.793226 kJ/mol
# Density = 2.456836 g / cm^3
# Si number density = 24.624406 Si / 1000 Ang^3
#
#
#
# Elastic Constant Matrix: (Units=GPa)
#
#
# Indices 1 2 3 4 5 6 
#
# 1 114.3137 14.1380 36.1074 -0.2089 6.8245 17.0909
# 2 14.1380 81.3027 37.5936 4.5977 -8.6524 -0.6243
# 3 36.1074 37.5936 106.6964 16.6163 -5.9933 14.6380
# 4 -0.2089 4.5977 16.6163 41.1620 15.7491 -6.9498
# 5 6.8245 -8.6524 -5.9933 15.7491 38.7488 7.0710
# 6 17.0909 -0.6243 14.6380 -6.9498 7.0710 41.0058
#
#
#
# Elastic Compliance Matrix: (Units=1/GPa)
#
#
# Indices 1 2 3 4 5 6 
#
# 1 0.010468 -0.000657 -0.003564 0.002395 -0.003121 -0.002157
# 2 -0.000657 0.015098 -0.005193 -0.000195 0.002415 0.001908
# 3 -0.003564 -0.005193 0.015173 -0.009323 0.006839 -0.006770
# 4 0.002395 -0.000195 -0.009323 0.037527 -0.019354 0.012024
# 5 -0.003121 0.002415 0.006839 -0.019354 0.037810 -0.010904
# 6 -0.002157 0.001908 -0.006770 0.012024 -0.010904 0.031650
#
#
# Mechanical properties :
#
#
# Convention : Reuss Voigt Hill
#
# Bulk Modulus (GPa) = 45.63727 53.11011 49.37369
# Shear Modulus (GPa) = 28.75949 38.48157 33.62053
#
# Velocity S-wave (km/s) = 3.42120 3.95744 3.69905
# Velocity P-wave (km/s) = 5.84634 6.51895 6.19179
#
# Compressibility (1/GPa) = 0.02191191
#
# Stress axis : x y z
#
# Youngs Moduli (GPa) = 95.53089 66.23470 65.90720
#
# Poissons Ratio (x) = 0.04350 0.23486
# Poissons Ratio (y) = 0.06274 0.34226
# Poissons Ratio (z) = 0.34042 0.34396
#
# Static dielectric constant tensor:
#      x y z
#    x 1.966770 -0.005670 -0.037030 
#    y -0.005670 1.948540 -0.027330 
#    z -0.037030 -0.027330 1.992840 
# 
# From -- ./inp_files/378843.got.cif
#   From: 2010.05.17/outbox.cif.g08.bks.cpg/sg2_190_cif.got.tgz:378843.got - 2010.06.03 11:33:40.
