data_PCOD9017194
_publ_section_title
;
Structure prediction by ZEFSAII (Michael W. Deem and Ramdas Pophale) SiO2 
 PCOD9017194
Probable space group: P -1
;
_chemical_formula_sum "Si O2"
_cell_formula_units_Z 14
_cell_length_a 11.107876
_cell_length_b 10.069068
_cell_length_c 11.162669
_cell_angle_alpha 94.783392
_cell_angle_beta 142.393235
_cell_angle_gamma 108.282887
_cell_volume 592.972412
_symmetry_space_group_name_H-M "P -1"
_symmetry_group_IT_number 2
_symmetry_cell_setting 'triclinic'
loop_
_space_group_symop_operation_xyz
x,y,z
-x,-y,-z
loop_
_atom_site_type_symbol
_atom_site_label
_atom_site_fract_x
_atom_site_fract_y
_atom_site_fract_z
Si Si1 0.053708 0.514637 0.887308
Si Si2 0.222473 0.007875 0.359437
Si Si3 0.523610 0.898394 0.908299
Si Si4 0.970297 0.607283 0.393359
Si Si5 0.145065 0.160963 0.716862
Si Si6 0.429103 0.609943 0.393303
Si Si7 0.751903 0.110866 0.876341
O O1 0.119230 0.492935 0.807591
O O2 0.753074 0.375590 0.664408
O O3 0.238660 0.515828 0.123756
O O4 0.107939 0.693653 0.963592
O O5 0.324787 0.202043 0.435323
O O6 0.474311 0.039860 0.607963
O O7 0.139416 0.917079 0.157176
O O8 0.020058 0.900164 0.296080
O O9 0.258192 0.778270 0.624931
O O10 0.721743 0.015269 0.967900
O O11 0.599140 0.798123 0.032274
O O12 0.500000 0.000000 0.000000
O O13 0.000000 0.500000 0.500000
O O14 0.822392 0.681671 0.307032
O O15 0.000000 0.000000 0.500000
O O16 0.500000 0.500000 0.500000
#
# Coordination Sequence:
#
# PCOD9017194 Si02
#       7
#     2   2   2   2   2   2   2
#     4  10  24  42  66 103 145 183 229 292 358 422
#     4  10  22  42  71 103 139 185 235 290 348 430
#     4  12  24  46  75 102 141 192 238 293 357 427
#     4  12  27  47  72 103 144 186 237 302 365 419
#     4  12  27  46  75 104 137 186 249 293 355 437
#     4  10  23  41  68 104 146 182 228 288 358 421
#     4  10  21  42  72 102 143 184 233 286 354 422
#
# _framework density 23.609867999999999
#
# number of rings (size 3 to 8) (size 9 to 14) (size 15 to 20)
#    0.000    1.143    2.857    1.714    8.000    4.571 
#    0.000    0.000    0.000    0.000    0.000    0.000 
#    0.000    0.000    0.000    0.000    0.000    0.000 
#
# Total GULP energy -78313.804738 kJ/mol
# GULP energy per Si atom -5593.843196 kJ/mol
# Density = 2.355613 g / cm^3
# Si number density = 23.609868 Si / 1000 Ang^3
#
#
#
# Elastic Constant Matrix: (Units=GPa)
#
#
# Indices 1 2 3 4 5 6 
#
# 1 88.5900 23.8131 16.2379 1.2798 -28.8114 -4.1640
# 2 23.8131 173.2269 41.9772 -32.6356 -18.6022 -0.9707
# 3 16.2379 41.9772 64.4653 -16.0029 -12.9402 -13.0335
# 4 1.2798 -32.6356 -16.0029 47.7364 -1.2242 3.0458
# 5 -28.8114 -18.6022 -12.9402 -1.2242 47.5925 1.3087
# 6 -4.1640 -0.9707 -13.0335 3.0458 1.3087 30.4235
#
#
#
# Elastic Compliance Matrix: (Units=1/GPa)
#
#
# Indices 1 2 3 4 5 6 
#
# 1 0.014485 -0.001049 -0.001531 -0.001487 0.007874 0.001103
# 2 -0.001049 0.007806 -0.003874 0.004236 0.001528 -0.002044
# 3 -0.001531 -0.003874 0.021871 0.004271 0.003383 0.008463
# 4 -0.001487 0.004236 0.004271 0.025440 0.002596 -0.000897
# 5 0.007874 0.001528 0.003383 0.002596 0.027331 0.001140
# 6 0.001103 -0.002044 0.008463 -0.000897 0.001140 0.036622
#
#
# Mechanical properties :
#
#
# Convention : Reuss Voigt Hill
#
# Bulk Modulus (GPa) = 31.99565 54.48205 43.23885
# Shear Modulus (GPa) = 31.87157 41.43411 36.65284
#
# Velocity S-wave (km/s) = 3.67812 4.19376 3.94437
# Velocity P-wave (km/s) = 5.62311 6.82467 6.25282
#
# Compressibility (1/GPa) = 0.03125425
#
# Stress axis : x y z
#
# Youngs Moduli (GPa) = 69.03909 128.10016 45.72294
#
# Poissons Ratio (x) = 0.13431 0.07001
# Poissons Ratio (y) = 0.07239 0.17713
# Poissons Ratio (z) = 0.10572 0.49626
#
# Static dielectric constant tensor:
#      x y z
#    x 1.990660 0.048190 0.034640 
#    y 0.048190 1.984140 0.003170 
#    z 0.034640 0.003170 1.861000 
# 
# From -- ./inp_files/203418.got.cif
#   From: 2010.05.17/outbox.cif.g08.bks.cpg/sg2_102_cif.got.tgz:203418.got - 2010.06.03 11:33:40.
