data_PCOD9017174
_publ_section_title
;
Structure prediction by ZEFSAII (Michael W. Deem and Ramdas Pophale) SiO2 
 PCOD9017174
Probable space group: P -1
;
_chemical_formula_sum "Si O2"
_cell_formula_units_Z 14
_cell_length_a 13.082336
_cell_length_b 7.645902
_cell_length_c 13.353017
_cell_angle_alpha 132.526579
_cell_angle_beta 141.660349
_cell_angle_gamma 46.020125
_cell_volume 569.833440
_symmetry_space_group_name_H-M "P -1"
_symmetry_group_IT_number 2
_symmetry_cell_setting 'triclinic'
loop_
_space_group_symop_operation_xyz
x,y,z
-x,-y,-z
loop_
_atom_site_type_symbol
_atom_site_label
_atom_site_fract_x
_atom_site_fract_y
_atom_site_fract_z
Si Si1 0.763842 0.523426 0.722529
Si Si2 0.480928 0.979892 0.093880
Si Si3 0.507941 0.042275 0.642638
Si Si4 0.808512 0.486897 0.353579
Si Si5 0.320041 0.583744 0.981032
Si Si6 0.164274 0.469553 0.020031
Si Si7 0.203593 0.821650 0.577487
O O1 0.761066 0.399932 0.782489
O O2 0.784551 0.347034 0.575569
O O3 0.597193 0.772646 0.662171
O O4 0.953661 0.558809 0.890296
O O5 0.281052 0.178234 0.031909
O O6 0.648174 0.056359 0.282107
O O7 0.523612 0.684312 0.032454
O O8 0.500000 0.000000 0.000000
O O9 0.319957 0.223813 0.609996
O O10 0.500000 0.000000 0.500000
O O11 0.624404 0.203872 0.837714
O O12 0.764671 0.335329 0.354560
O O13 0.000000 0.500000 0.500000
O O14 0.208646 0.637511 0.814593
O O15 0.217881 0.505700 0.963211
O O16 0.000000 0.000000 0.500000
#
# Coordination Sequence:
#
# PCOD9017174 Si02
#       7
#     2   2   2   2   2   2   2
#     4  11  25  45  69 104 147 192 235 299 367 427
#     4  10  21  42  71  99 137 184 241 290 350 423
#     4  12  27  49  74 104 155 191 239 303 370 433
#     4  12  25  47  77 111 144 191 247 296 366 435
#     4  11  25  46  74 105 144 190 245 296 360 437
#     4  10  23  45  70 106 142 188 244 294 363 428
#     4  12  25  45  72 104 145 190 245 302 353 436
#
# _framework density 24.568584999999999
#
# number of rings (size 3 to 8) (size 9 to 14) (size 15 to 20)
#    0.000    0.857    1.429    6.429    0.000    5.714 
#    5.143    0.000    0.000    0.000    0.000    0.000 
#    0.000    0.000    0.000    0.000    0.000    0.000 
#
# Total GULP energy -78135.586586 kJ/mol
# GULP energy per Si atom -5581.113328 kJ/mol
# Density = 2.451267 g / cm^3
# Si number density = 24.568585 Si / 1000 Ang^3
#
#
#
# Elastic Constant Matrix: (Units=GPa)
#
#
# Indices 1 2 3 4 5 6 
#
# 1 141.6004 57.7009 92.4049 -3.4797 -36.0531 -7.9239
# 2 57.7009 126.8944 57.1825 -6.2688 4.7425 -23.2696
# 3 92.4049 57.1825 180.2880 -6.9465 -36.3312 2.0921
# 4 -3.4797 -6.2688 -6.9465 32.6263 -3.6971 1.4956
# 5 -36.0531 4.7425 -36.3312 -3.6971 68.7673 -15.7205
# 6 -7.9239 -23.2696 2.0921 1.4956 -15.7205 45.2399
#
#
#
# Elastic Compliance Matrix: (Units=1/GPa)
#
#
# Indices 1 2 3 4 5 6 
#
# 1 0.012898 -0.003609 -0.004430 0.000221 0.005235 0.002419
# 2 -0.003609 0.011570 -0.002431 0.000788 -0.002929 0.004388
# 3 -0.004430 -0.002431 0.009136 0.001350 0.002362 -0.001673
# 4 0.000221 0.000788 0.001350 0.031387 0.002512 0.000217
# 5 0.005235 -0.002929 0.002362 0.002512 0.020306 0.006274
# 6 0.002419 0.004388 -0.001673 0.000217 0.006274 0.027035
#
#
# Mechanical properties :
#
#
# Convention : Reuss Voigt Hill
#
# Bulk Modulus (GPa) = 78.97152 95.92882 87.45017
# Shear Modulus (GPa) = 36.36535 45.42634 40.89585
#
# Velocity S-wave (km/s) = 3.85145 4.30462 4.08433
# Velocity P-wave (km/s) = 7.21050 7.98977 7.61012
#
# Compressibility (1/GPa) = 0.01266279
#
# Stress axis : x y z
#
# Youngs Moduli (GPa) = 77.53182 86.42977 109.46084
#
# Poissons Ratio (x) = 0.31197 0.48496
# Poissons Ratio (y) = 0.27985 0.26605
# Poissons Ratio (z) = 0.34350 0.21007
#
# Static dielectric constant tensor:
#      x y z
#    x 2.087490 -0.004090 -0.014170 
#    y -0.004090 2.094060 0.052810 
#    z -0.014170 0.052810 1.944350 
# 
# From -- ./inp_files/530274.got.cif
#   From: 2010.05.17/outbox.cif.g08.bks.cpg/sg2_266_cif.got.tgz:530274.got - 2010.06.03 11:33:40.
