data_PCOD9017318
_publ_section_title
;
Structure prediction by ZEFSAII (Michael W. Deem and Ramdas Pophale) SiO2 
 PCOD9017318
Probable space group: P -1
;
_chemical_formula_sum "Si O2"
_cell_formula_units_Z 16
_cell_length_a 21.771552
_cell_length_b 5.489102
_cell_length_c 5.822415
_cell_angle_alpha 99.799388
_cell_angle_beta 70.165895
_cell_angle_gamma 83.354430
_cell_volume 633.593191
_symmetry_space_group_name_H-M "P -1"
_symmetry_group_IT_number 2
_symmetry_cell_setting 'triclinic'
loop_
_space_group_symop_operation_xyz
x,y,z
-x,-y,-z
loop_
_atom_site_type_symbol
_atom_site_label
_atom_site_fract_x
_atom_site_fract_y
_atom_site_fract_z
Si Si1 0.531070 0.711041 0.851655
Si Si2 0.175623 0.182257 0.956631
Si Si3 0.345350 0.687337 0.298043
Si Si4 0.692661 0.973649 0.968724
Si Si5 0.072307 0.570886 0.389746
Si Si6 0.610782 0.847997 0.419308
Si Si7 0.740753 0.587132 0.436321
Si Si8 0.073174 0.835678 0.921408
O O1 0.607349 0.580957 0.782197
O O2 0.544834 0.746730 0.562283
O O3 0.500000 0.500000 0.000000
O O4 0.500000 0.000000 0.000000
O O5 0.131945 0.336553 0.236193
O O6 0.245878 0.038478 0.941136
O O7 0.194731 0.376821 0.775165
O O8 0.129231 0.005026 0.887399
O O9 0.332735 0.756121 0.063419
O O10 0.272546 0.671075 0.483174
O O11 0.379653 0.899624 0.409977
O O12 0.724154 0.789982 0.694153
O O13 0.624565 0.918770 0.155715
O O14 0.085346 0.686319 0.639362
O O15 0.000000 0.500000 0.500000
O O16 0.070844 0.716497 0.165408
O O17 0.679327 0.653087 0.347414
O O18 0.000000 0.000000 0.000000
#
# Coordination Sequence:
#
# PCOD9017318 Si02
#       8
#     2   2   2   2   2   2   2   2
#     4  11  21  40  73 106 149 203 258 320 392 480
#     4  11  27  46  72 108 152 193 269 318 411 490
#     4  10  21  42  73  97 148 192 255 315 402 448
#     4  10  23  43  68 102 143 193 254 324 393 472
#     4  12  28  48  79 112 151 207 260 330 413 497
#     4   9  20  41  65  99 138 195 241 318 383 461
#     4   9  22  41  65  97 143 189 248 316 387 465
#     4  12  28  49  79 107 155 206 260 330 414 491
#
# _framework density 25.252797999999999
#
# number of rings (size 3 to 8) (size 9 to 14) (size 15 to 20)
#    0.000    1.500    2.500    0.750    3.500    7.000 
#    0.000    1.250    0.000    0.000    0.000    0.000 
#    0.000    0.000    0.000    0.000    0.000    0.000 
#
# Total GULP energy -89174.027883 kJ/mol
# GULP energy per Si atom -5573.376743 kJ/mol
# Density = 2.519532 g / cm^3
# Si number density = 25.252798 Si / 1000 Ang^3
#
#
#
# Elastic Constant Matrix: (Units=GPa)
#
#
# Indices 1 2 3 4 5 6 
#
# 1 66.3939 31.7436 52.8411 -4.1193 -3.7500 14.3677
# 2 31.7436 101.0758 71.4736 -21.0139 0.7073 13.9876
# 3 52.8411 71.4736 198.3504 -6.2299 -17.1914 28.9570
# 4 -4.1193 -21.0139 -6.2299 60.0970 18.6612 -6.0438
# 5 -3.7500 0.7073 -17.1914 18.6612 53.2409 -10.0250
# 6 14.3677 13.9876 28.9570 -6.0438 -10.0250 53.5893
#
#
#
# Elastic Compliance Matrix: (Units=1/GPa)
#
#
# Indices 1 2 3 4 5 6 
#
# 1 0.020243 -0.003390 -0.003821 -0.000420 -0.000095 -0.002543
# 2 -0.003390 0.015776 -0.004859 0.006034 -0.004264 -0.000700
# 3 -0.003821 -0.004859 0.008266 -0.002187 0.002877 -0.001882
# 4 -0.000420 0.006034 -0.002187 0.021065 -0.008089 0.000582
# 5 -0.000095 -0.004264 0.002877 -0.008089 0.023163 0.003005
# 6 -0.002543 -0.000700 -0.001882 0.000582 0.003005 0.021170
#
#
# Mechanical properties :
#
#
# Convention : Reuss Voigt Hill
#
# Bulk Modulus (GPa) = 49.64554 75.32630 62.48592
# Shear Modulus (GPa) = 35.57802 47.36956 41.47379
#
# Velocity S-wave (km/s) = 3.75757 4.33577 4.05698
# Velocity P-wave (km/s) = 6.20708 7.41342 6.83691
#
# Compressibility (1/GPa) = 0.02014280
#
# Stress axis : x y z
#
# Youngs Moduli (GPa) = 49.40100 63.38921 120.97754
#
# Poissons Ratio (x) = 0.21489 0.46229
# Poissons Ratio (y) = 0.16747 0.58786
# Poissons Ratio (z) = 0.18878 0.30803
#
# Static dielectric constant tensor:
#      x y z
#    x 2.068890 -0.027680 0.064110 
#    y -0.027680 2.150920 -0.121050 
#    z 0.064110 -0.121050 2.197220 
# 
# From -- ./inp_files/121719.got.cif
#   From: 2010.05.17/outbox.cif.g08.bks.cpg/sg2_61_cif.got.tgz:121719.got - 2010.06.03 11:33:40.
