data_PCOD9017654
_publ_section_title
;
Structure prediction by ZEFSAII (Michael W. Deem and Ramdas Pophale) SiO2 
 PCOD9017654
Probable space group: P -1
;
_chemical_formula_sum "Si O2"
_cell_formula_units_Z 14
_cell_length_a 19.500246
_cell_length_b 17.880153
_cell_length_c 8.525168
_cell_angle_alpha 130.605952
_cell_angle_beta 141.379668
_cell_angle_gamma 19.594732
_cell_volume 568.321159
_symmetry_space_group_name_H-M "P -1"
_symmetry_group_IT_number 2
_symmetry_cell_setting 'triclinic'
loop_
_space_group_symop_operation_xyz
x,y,z
-x,-y,-z
loop_
_atom_site_type_symbol
_atom_site_label
_atom_site_fract_x
_atom_site_fract_y
_atom_site_fract_z
Si Si1 0.815332 0.261734 0.706595
Si Si2 0.482422 0.839039 0.501419
Si Si3 0.959600 0.913956 0.802687
Si Si4 0.563961 0.718935 0.145986
Si Si5 0.962916 0.647887 0.307159
Si Si6 0.594927 0.867460 0.177988
Si Si7 0.960520 0.922108 0.464712
O O1 0.500000 0.500000 0.500000
O O2 0.864617 0.264291 0.622801
O O3 0.983530 0.021283 0.660048
O O4 0.901028 0.236622 0.992145
O O5 0.400415 0.872378 0.224283
O O6 0.405304 0.016395 0.624133
O O7 0.809659 0.565292 0.703952
O O8 0.345785 0.877045 0.431356
O O9 0.042444 0.817433 0.641095
O O10 0.000000 0.000000 0.000000
O O11 0.852799 0.447228 0.363115
O O12 0.636770 0.762111 0.252851
O O13 0.357749 0.834020 0.817876
O O14 0.822703 0.672664 0.184950
O O15 0.703109 0.910392 0.121763
#
# Coordination Sequence:
#
# PCOD9017654 Si02
#       7
#     2   2   2   2   2   2   2
#     4  10  21  43  65  95 125 167 221 270 323 397
#     4  10  22  42  63  90 132 169 220 274 319 392
#     4  10  22  43  67  92 128 172 213 268 333 386
#     4  10  22  42  62  95 133 171 215 272 329 385
#     4   9  23  38  63  91 136 163 225 270 320 390
#     4  11  21  41  62  95 129 174 220 266 328 395
#     4  10  22  42  65  88 136 166 209 282 324 378
#
# _framework density 24.633959000000001
#
# number of rings (size 3 to 8) (size 9 to 14) (size 15 to 20)
#    0.857    1.143    1.429    1.286    4.000    1.714 
#    5.143    0.000    0.000    0.000    0.000    0.000 
#    0.000    0.000    0.000    0.000    0.000    0.000 
#
# Total GULP energy -78014.302980 kJ/mol
# GULP energy per Si atom -5572.450213 kJ/mol
# Density = 2.457789 g / cm^3
# Si number density = 24.633959 Si / 1000 Ang^3
#
#
#
# Elastic Constant Matrix: (Units=GPa)
#
#
# Indices 1 2 3 4 5 6 
#
# 1 157.1639 57.3051 45.5253 2.7040 -18.9625 -29.8508
# 2 57.3051 73.5144 52.5936 -5.5911 -5.4659 -32.2403
# 3 45.5253 52.5936 141.9451 8.3831 -22.9065 -11.4331
# 4 2.7040 -5.5911 8.3831 42.1826 0.0618 4.5714
# 5 -18.9625 -5.4659 -22.9065 0.0618 57.9066 6.1556
# 6 -29.8508 -32.2403 -11.4331 4.5714 6.1556 45.9930
#
#
#
# Elastic Compliance Matrix: (Units=1/GPa)
#
#
# Indices 1 2 3 4 5 6 
#
# 1 0.009343 -0.006772 0.000081 -0.001645 0.002328 0.001189
# 2 -0.006772 0.033254 -0.009876 0.005013 -0.004755 0.016599
# 3 0.000081 -0.009876 0.011151 -0.003068 0.003969 -0.004324
# 4 -0.001645 0.005013 -0.003068 0.025158 -0.001237 -0.000652
# 5 0.002328 -0.004755 0.003969 -0.001237 0.019507 -0.003324
# 6 0.001189 0.016599 -0.004324 -0.000652 -0.003324 0.033584
#
#
# Mechanical properties :
#
#
# Convention : Reuss Voigt Hill
#
# Bulk Modulus (GPa) = 48.50659 75.94126 62.22392
# Shear Modulus (GPa) = 29.06920 43.69640 36.38280
#
# Velocity S-wave (km/s) = 3.43891 4.21625 3.84726
# Velocity P-wave (km/s) = 5.95834 7.38899 6.71189
#
# Compressibility (1/GPa) = 0.02061576
#
# Stress axis : x y z
#
# Youngs Moduli (GPa) = 107.02642 30.07183 89.67414
#
# Poissons Ratio (x) = 0.20363 -0.00726
# Poissons Ratio (y) = 0.72474 0.88560
# Poissons Ratio (z) = -0.00866 0.29698
#
# Static dielectric constant tensor:
#      x y z
#    x 1.965370 -0.034390 -0.010160 
#    y -0.034390 1.969630 0.004170 
#    z -0.010160 0.004170 2.029300 
# 
# From -- ./inp_files/349284.got.cif
#   From: 2010.05.17/outbox.cif.g08.bks.cpg/sg2_175_cif.got.tgz:349284.got - 2010.06.03 11:33:40.
