data_PCOD9017669
_publ_section_title
;
Structure prediction by ZEFSAII (Michael W. Deem and Ramdas Pophale) SiO2 
 PCOD9017669
Probable space group: P -1
;
_chemical_formula_sum "Si O2"
_cell_formula_units_Z 14
_cell_length_a 9.330197
_cell_length_b 11.429102
_cell_length_c 20.617040
_cell_angle_alpha 31.202592
_cell_angle_beta 145.480903
_cell_angle_gamma 125.203551
_cell_volume 580.575366
_symmetry_space_group_name_H-M "P -1"
_symmetry_group_IT_number 2
_symmetry_cell_setting 'triclinic'
loop_
_space_group_symop_operation_xyz
x,y,z
-x,-y,-z
loop_
_atom_site_type_symbol
_atom_site_label
_atom_site_fract_x
_atom_site_fract_y
_atom_site_fract_z
Si Si1 0.631549 0.942029 0.950370
Si Si2 0.511963 0.801861 0.359485
Si Si3 0.973270 0.155618 0.046840
Si Si4 0.486234 0.372365 0.420601
Si Si5 0.147853 0.640298 0.707577
Si Si6 0.954480 0.958944 0.265993
Si Si7 0.822420 0.963837 0.550164
O O1 0.343430 0.044805 0.834260
O O2 0.587250 0.124632 0.786185
O O3 0.705581 0.658180 0.092213
O O4 0.884916 0.943043 0.086639
O O5 0.506839 0.614488 0.504546
O O6 0.840389 0.733328 0.515485
O O7 0.292075 0.064308 0.186844
O O8 0.932874 0.155449 0.108375
O O9 0.758587 0.399898 0.814553
O O10 0.406945 0.143855 0.482068
O O11 0.793227 0.300709 0.541151
O O12 0.069632 0.771874 0.686179
O O13 0.295304 0.767265 0.657037
O O14 0.050959 0.024011 0.339289
#
# Coordination Sequence:
#
# PCOD9017669 Si02
#       7
#     2   2   2   2   2   2   2
#     4  12  25  43  68 102 130 173 225 267 325 391
#     4  10  21  43  65  97 126 171 220 261 331 374
#     4  11  26  44  66  99 136 173 222 263 327 398
#     4  10  24  45  66  96 136 173 213 277 322 392
#     4  10  23  42  69  99 134 164 217 285 321 382
#     4  11  25  44  65 101 132 178 217 262 339 383
#     4  10  21  46  66  96 133 170 221 269 330 389
#
# _framework density 24.114011000000001
#
# number of rings (size 3 to 8) (size 9 to 14) (size 15 to 20)
#    0.000    1.429    1.429    3.000    2.000    5.143 
#   10.286    0.000    0.000    0.000    0.000    0.000 
#    0.000    0.000    0.000    0.000    0.000    0.000 
#
# Total GULP energy -78248.824498 kJ/mol
# GULP energy per Si atom -5589.201750 kJ/mol
# Density = 2.405913 g / cm^3
# Si number density = 24.114011 Si / 1000 Ang^3
#
#
#
# Elastic Constant Matrix: (Units=GPa)
#
#
# Indices 1 2 3 4 5 6 
#
# 1 82.9433 49.7590 48.1284 7.4614 -15.9742 -22.7685
# 2 49.7590 -40.2172 -3.5147 -5.8625 -33.5830 30.8392
# 3 48.1284 -3.5147 157.5970 -7.0540 -23.6242 15.7405
# 4 7.4614 -5.8625 -7.0540 41.4577 2.1480 -9.9461
# 5 -15.9742 -33.5830 -23.6242 2.1480 37.3876 20.9307
# 6 -22.7685 30.8392 15.7405 -9.9461 20.9307 20.9511
#
#
#
# Elastic Compliance Matrix: (Units=1/GPa)
#
#
# Indices 1 2 3 4 5 6 
#
# 1 0.011771 0.004274 -0.001815 -0.003171 0.009859 -0.003491
# 2 0.004274 0.001237 -0.004245 0.003249 -0.009444 0.016992
# 3 -0.001815 -0.004245 0.007021 0.000614 0.000472 -0.001178
# 4 -0.003171 0.003249 0.000614 0.027758 -0.004891 0.009374
# 5 0.009859 -0.009444 0.000472 -0.004891 0.024444 -0.002481
# 6 -0.003491 0.016992 -0.001178 0.009374 -0.002481 0.026738
#
#
# Mechanical properties :
#
#
# Convention : Reuss Voigt Hill
#
# Bulk Modulus (GPa) = 60.76329 43.22983 51.99656
# Shear Modulus (GPa) = 46.28579 27.02264 36.65421
#
# Velocity S-wave (km/s) = 4.38591 3.35120 3.90300
# Velocity P-wave (km/s) = 7.13452 5.73936 6.47463
#
# Compressibility (1/GPa) = 0.01645730
#
# Stress axis : x y z
#
# Youngs Moduli (GPa) = 84.95708 808.54168 142.43775
#
# Poissons Ratio (x) = -3.45610 0.25848
# Poissons Ratio (y) = -0.36315 0.60467
# Poissons Ratio (z) = 0.15417 3.43240
#
# Static dielectric constant tensor:
#      x y z
#    x 1.913390 0.011360 -0.010920 
#    y 0.011360 1.976010 -0.067740 
#    z -0.010920 -0.067740 1.900870 
# 
# From -- ./inp_files/141716.got.cif
#   From: 2010.05.17/outbox.cif.g08.bks.cpg/sg2_71_cif.got.tgz:141716.got - 2010.06.03 11:33:40.
