data_PCOD9017585
_publ_section_title
;
Structure prediction by ZEFSAII (Michael W. Deem and Ramdas Pophale) SiO2 
 PCOD9017585
Probable space group: P -1
;
_chemical_formula_sum "Si O2"
_cell_formula_units_Z 14
_cell_length_a 10.803407
_cell_length_b 12.900067
_cell_length_c 10.800153
_cell_angle_alpha 92.225088
_cell_angle_beta 146.446564
_cell_angle_gamma 112.141045
_cell_volume 558.234262
_symmetry_space_group_name_H-M "P -1"
_symmetry_group_IT_number 2
_symmetry_cell_setting 'triclinic'
loop_
_space_group_symop_operation_xyz
x,y,z
-x,-y,-z
loop_
_atom_site_type_symbol
_atom_site_label
_atom_site_fract_x
_atom_site_fract_y
_atom_site_fract_z
Si Si1 0.535061 0.603516 0.934203
Si Si2 0.697718 0.820666 0.722939
Si Si3 0.466259 0.448427 0.321483
Si Si4 0.570087 0.892410 0.274905
Si Si5 0.635094 0.872156 0.061796
Si Si6 0.312803 0.619077 0.175436
Si Si7 0.685179 0.149420 0.454957
O O1 0.505200 0.709708 0.967205
O O2 0.925709 0.733797 0.229678
O O3 0.500000 0.500000 0.000000
O O4 0.327242 0.522442 0.627826
O O5 0.724592 0.724822 0.818376
O O6 0.634608 0.762195 0.529845
O O7 0.391960 0.790476 0.504472
O O8 0.000000 0.000000 0.000000
O O9 0.500000 0.500000 0.500000
O O10 0.364072 0.520320 0.172649
O O11 0.535259 0.903273 0.100760
O O12 0.303284 0.712433 0.080399
O O13 0.528788 0.980434 0.328906
O O14 0.960832 0.991108 0.610714
O O15 0.471539 0.857493 0.800515
O O16 0.000000 0.500000 0.000000
#
# Coordination Sequence:
#
# PCOD9017585 Si02
#       7
#     2   2   2   2   2   2   2
#     4  11  23  42  70  98 139 184 229 291 351 417
#     4  11  24  42  71  97 135 184 232 285 344 422
#     4  10  23  45  64  96 141 181 226 288 351 412
#     4  10  23  41  68  96 138 180 224 294 344 416
#     4  10  21  43  65 100 134 175 236 284 348 414
#     4  11  24  42  62  98 138 178 229 284 349 412
#     4  11  23  41  69 102 132 178 239 281 348 424
#
# _framework density 25.079077999999999
#
# number of rings (size 3 to 8) (size 9 to 14) (size 15 to 20)
#    0.000    1.429    1.429    3.000    4.000    1.143 
#    7.714    0.000    0.000    0.000    0.000    0.000 
#    0.000    0.000    0.000    0.000    0.000    0.000 
#
# Total GULP energy -78024.273348 kJ/mol
# GULP energy per Si atom -5573.162382 kJ/mol
# Density = 2.502200 g / cm^3
# Si number density = 25.079078 Si / 1000 Ang^3
#
#
#
# Elastic Constant Matrix: (Units=GPa)
#
#
# Indices 1 2 3 4 5 6 
#
# 1 66.6917 41.2312 7.0814 19.6889 -16.8647 -1.6032
# 2 41.2312 196.6408 16.7065 31.1450 0.0930 -5.6612
# 3 7.0814 16.7065 65.2951 7.4814 -16.8439 1.1334
# 4 19.6889 31.1450 7.4814 30.0125 1.3041 -11.6824
# 5 -16.8647 0.0930 -16.8439 1.3041 31.4273 -4.9909
# 6 -1.6032 -5.6612 1.1334 -11.6824 -4.9909 50.6070
#
#
#
# Elastic Compliance Matrix: (Units=1/GPa)
#
#
# Indices 1 2 3 4 5 6 
#
# 1 0.025153 -0.003216 0.004043 -0.015512 0.016056 -0.001651
# 2 -0.003216 0.006576 -0.001434 -0.004489 -0.002424 -0.000609
# 3 0.004043 -0.001434 0.019312 -0.006837 0.012682 -0.000793
# 4 -0.015512 -0.004489 -0.006837 0.054491 -0.012569 0.010499
# 5 0.016056 -0.002424 0.012682 -0.012569 0.048046 0.001790
# 6 -0.001651 -0.000609 -0.000793 0.010499 0.001790 0.022258
#
#
# Mechanical properties :
#
#
# Convention : Reuss Voigt Hill
#
# Bulk Modulus (GPa) = 20.06956 50.96287 35.51621
# Shear Modulus (GPa) = 25.81846 39.98325 32.90085
#
# Velocity S-wave (km/s) = 3.21203 3.99718 3.62592
# Velocity P-wave (km/s) = 4.66649 6.45510 5.63225
#
# Compressibility (1/GPa) = 0.04982671
#
# Stress axis : x y z
#
# Youngs Moduli (GPa) = 39.75653 152.06493 51.78033
#
# Poissons Ratio (x) = 0.48901 -0.20933
# Poissons Ratio (y) = 0.12785 0.07427
# Poissons Ratio (z) = -0.16072 0.21811
#
# Static dielectric constant tensor:
#      x y z
#    x 2.310060 0.379990 -0.765970 
#    y 0.379990 2.493960 -1.061170 
#    z -0.765970 -1.061170 4.209960 
# 
# From -- ./inp_files/428296.got.cif
#   From: 2010.05.17/outbox.cif.g08.bks.cpg/sg2_215_cif.got.tgz:428296.got - 2010.06.03 11:33:40.
