data_PCOD9017722
_publ_section_title
;
Structure prediction by ZEFSAII (Michael W. Deem and Ramdas Pophale) SiO2 
 PCOD9017722
Probable space group: P -1
;
_chemical_formula_sum "Si O2"
_cell_formula_units_Z 16
_cell_length_a 13.599611
_cell_length_b 9.213633
_cell_length_c 12.288768
_cell_angle_alpha 35.502258
_cell_angle_beta 107.776583
_cell_angle_gamma 124.211008
_cell_volume 701.267142
_symmetry_space_group_name_H-M "P -1"
_symmetry_group_IT_number 2
_symmetry_cell_setting 'triclinic'
loop_
_space_group_symop_operation_xyz
x,y,z
-x,-y,-z
loop_
_atom_site_type_symbol
_atom_site_label
_atom_site_fract_x
_atom_site_fract_y
_atom_site_fract_z
Si Si1 0.368557 0.298042 0.817752
Si Si2 0.389854 0.032698 0.684285
Si Si3 0.961666 0.696108 0.108552
Si Si4 0.186913 0.417336 0.083941
Si Si5 0.821571 0.405942 0.791046
Si Si6 0.699781 0.277157 0.376069
Si Si7 0.591793 0.670568 0.823160
Si Si8 0.647515 0.491627 0.555096
O O1 0.301954 0.432221 0.778467
O O2 0.504227 0.475919 0.810397
O O3 0.359363 0.389048 0.637409
O O4 0.296546 0.940283 0.018671
O O5 0.518331 0.158301 0.715079
O O6 0.369790 0.299417 0.497933
O O7 0.388207 0.895454 0.652045
O O8 0.271155 0.774991 0.867646
O O9 0.839683 0.411869 0.300559
O O10 0.066245 0.625766 0.181034
O O11 0.923806 0.724242 0.955378
O O12 0.000000 0.000000 0.000000
O O13 0.151549 0.395946 0.211591
O O14 0.283645 0.328886 0.139892
O O15 0.772267 0.516474 0.610824
O O16 0.645997 0.025796 0.606038
O O17 0.500000 0.500000 0.000000
#
# Coordination Sequence:
#
# PCOD9017722 Si02
#       8
#     2   2   2   2   2   2   2   2
#     4  12  25  43  71 108 152 178 236 301 362 439
#     4  10  21  43  66 102 149 183 223 302 367 419
#     4  11  25  51  72 100 143 196 250 305 349 417
#     4  11  25  45  73 103 145 190 242 299 360 426
#     4  12  26  46  72 109 143 199 241 291 362 428
#     4  11  24  45  70 102 146 190 239 300 357 428
#     4  12  26  43  75 113 144 189 237 296 379 439
#     4  11  24  41  71 106 148 183 236 293 362 444
#
# _framework density 22.815843000000001
#
# number of rings (size 3 to 8) (size 9 to 14) (size 15 to 20)
#    0.000    0.750    3.750    3.750    5.250    1.000 
#    2.250    4.375    0.000    0.000    0.000    0.000 
#    0.000    0.000    0.000    0.000    0.000    0.000 
#
# Total GULP energy -89451.583447 kJ/mol
# GULP energy per Si atom -5590.723965 kJ/mol
# Density = 2.276391 g / cm^3
# Si number density = 22.815843 Si / 1000 Ang^3
#
#
#
# Elastic Constant Matrix: (Units=GPa)
#
#
# Indices 1 2 3 4 5 6 
#
# 1 133.9114 33.4085 9.4791 20.8459 23.9567 17.3200
# 2 33.4085 91.1946 19.8465 8.7069 13.9518 0.6158
# 3 9.4791 19.8465 61.3159 14.3153 0.8845 5.6439
# 4 20.8459 8.7069 14.3153 30.7033 5.8040 4.3973
# 5 23.9567 13.9518 0.8845 5.8040 29.7232 6.2715
# 6 17.3200 0.6158 5.6439 4.3973 6.2715 42.6365
#
#
#
# Elastic Compliance Matrix: (Units=1/GPa)
#
#
# Indices 1 2 3 4 5 6 
#
# 1 0.010193 -0.002569 0.000796 -0.005125 -0.005425 -0.002882
# 2 -0.002569 0.013472 -0.004193 0.000465 -0.004650 0.002040
# 3 0.000796 -0.004193 0.019773 -0.008785 0.002962 -0.002410
# 4 -0.005125 0.000465 -0.008785 0.040773 -0.003699 -0.000423
# 5 -0.005425 -0.004650 0.002962 -0.003699 0.041648 -0.003866
# 6 -0.002882 0.002040 -0.002410 -0.000423 -0.003866 0.025527
#
#
# Mechanical properties :
#
#
# Convention : Reuss Voigt Hill
#
# Bulk Modulus (GPa) = 31.73897 45.76559 38.75228
# Shear Modulus (GPa) = 28.76519 35.52514 32.14516
#
# Velocity S-wave (km/s) = 3.55456 3.95021 3.75760
# Velocity P-wave (km/s) = 5.54867 6.39592 5.98730
#
# Compressibility (1/GPa) = 0.03150701
#
# Stress axis : x y z
#
# Youngs Moduli (GPa) = 98.10428 74.22665 50.57339
#
# Poissons Ratio (x) = 0.19067 -0.04024
# Poissons Ratio (y) = 0.25200 0.21205
# Poissons Ratio (z) = -0.07806 0.31122
#
# Static dielectric constant tensor:
#      x y z
#    x 1.878420 -0.040650 -0.006630 
#    y -0.040650 1.875280 0.006340 
#    z -0.006630 0.006340 1.900240 
# 
# From -- ./inp_files/446670.got.cif
#   From: 2010.05.17/outbox.cif.g08.bks.cpg/sg2_224_cif.got.tgz:446670.got - 2010.06.03 11:33:40.
