data_PCOD9017499
_publ_section_title
;
Structure prediction by ZEFSAII (Michael W. Deem and Ramdas Pophale) SiO2 
 PCOD9017499
Probable space group: P -1
;
_chemical_formula_sum "Si O2"
_cell_formula_units_Z 16
_cell_length_a 18.200454
_cell_length_b 5.609296
_cell_length_c 10.373509
_cell_angle_alpha 59.222697
_cell_angle_beta 133.922287
_cell_angle_gamma 128.657225
_cell_volume 589.865768
_symmetry_space_group_name_H-M "P -1"
_symmetry_group_IT_number 2
_symmetry_cell_setting 'triclinic'
loop_
_space_group_symop_operation_xyz
x,y,z
-x,-y,-z
loop_
_atom_site_type_symbol
_atom_site_label
_atom_site_fract_x
_atom_site_fract_y
_atom_site_fract_z
Si Si1 0.052467 0.571740 0.185107
Si Si2 0.180577 0.204955 0.772624
Si Si3 0.438728 0.596864 0.560009
Si Si4 0.585823 0.296575 0.787313
Si Si5 0.182262 0.613027 0.020814
Si Si6 0.417085 0.652940 0.817627
Si Si7 0.062559 0.943506 0.444756
Si Si8 0.216156 0.117633 0.352433
O O1 0.067608 0.284370 0.337061
O O2 0.166129 0.881137 0.241878
O O3 0.000000 0.500000 0.000000
O O4 0.946629 0.595165 0.121875
O O5 0.298104 0.484376 0.794545
O O6 0.129873 0.981951 0.647544
O O7 0.072376 0.271722 0.656645
O O8 0.196410 0.962253 0.955480
O O9 0.558309 0.580961 0.708406
O O10 0.435182 0.778243 0.374040
O O11 0.397973 0.624828 0.646013
O O12 0.347090 0.251346 0.502466
O O13 0.714689 0.363562 0.950579
O O14 0.498144 0.010837 0.839152
O O15 0.197962 0.420569 0.213741
O O16 0.500000 0.500000 0.000000
O O17 0.139305 0.922957 0.429416
#
# Coordination Sequence:
#
# PCOD9017499 Si02
#       8
#     2   2   2   2   2   2   2   2
#     4  11  23  40  69 101 127 166 221 273 334 387
#     4  10  22  42  64  95 136 172 216 267 325 403
#     4  10  24  44  67  99 131 167 233 267 323 397
#     4  10  23  45  66  96 130 175 220 280 320 377
#     4  10  21  43  63  97 136 165 218 269 326 391
#     4  12  23  43  69  94 135 179 216 268 333 384
#     4  10  22  43  66  92 136 170 218 269 328 392
#     4  11  22  41  72  95 128 177 215 279 328 380
#
# _framework density 27.124817
#
# number of rings (size 3 to 8) (size 9 to 14) (size 15 to 20)
#    0.000    1.500    3.750    0.750    1.750    0.500 
#    9.000    6.875    0.000    0.000    0.000    0.000 
#    0.000    0.000    0.000    0.000    0.000    0.000 
#
# Total GULP energy -89447.906983 kJ/mol
# GULP energy per Si atom -5590.494186 kJ/mol
# Density = 2.706308 g / cm^3
# Si number density = 27.124817 Si / 1000 Ang^3
#
#
#
# Elastic Constant Matrix: (Units=GPa)
#
#
# Indices 1 2 3 4 5 6 
#
# 1 97.9369 34.3240 20.6603 7.6160 -16.3476 38.3064
# 2 34.3240 101.5570 30.8317 -2.2655 -2.1009 47.0300
# 3 20.6603 30.8317 88.9596 -5.3012 0.7026 8.2440
# 4 7.6160 -2.2655 -5.3012 41.1623 6.3367 4.8160
# 5 -16.3476 -2.1009 0.7026 6.3367 59.9514 8.4716
# 6 38.3064 47.0300 8.2440 4.8160 8.4716 50.9698
#
#
#
# Elastic Compliance Matrix: (Units=1/GPa)
#
#
# Indices 1 2 3 4 5 6 
#
# 1 0.018012 0.002837 -0.003870 -0.002926 0.007702 -0.016533
# 2 0.002837 0.020469 -0.005746 0.001646 0.004347 -0.020967
# 3 -0.003870 -0.005746 0.013681 0.001815 -0.002490 0.006240
# 4 -0.002926 0.001646 0.001815 0.025841 -0.003280 -0.001509
# 5 0.007702 0.004347 -0.002490 -0.003280 0.021088 -0.012592
# 6 -0.016533 -0.020967 0.006240 -0.001509 -0.012592 0.052618
#
#
# Mechanical properties :
#
#
# Convention : Reuss Voigt Hill
#
# Bulk Modulus (GPa) = 25.90362 51.12061 38.51211
# Shear Modulus (GPa) = 28.06875 43.92587 35.99731
#
# Velocity S-wave (km/s) = 3.22032 4.02854 3.64689
# Velocity P-wave (km/s) = 4.83713 6.36602 5.65349
#
# Compressibility (1/GPa) = 0.03860464
#
# Stress axis : x y z
#
# Youngs Moduli (GPa) = 55.51763 48.85506 73.09490
#
# Poissons Ratio (x) = -0.13861 0.28285
# Poissons Ratio (y) = -0.15752 0.42002
# Poissons Ratio (z) = 0.21483 0.28073
#
# Static dielectric constant tensor:
#      x y z
#    x 2.219580 -0.023830 -0.047800 
#    y -0.023830 2.114710 0.008840 
#    z -0.047800 0.008840 2.111070 
# 
# From -- ./inp_files/459445.got.cif
#   From: 2010.05.17/outbox.cif.g08.bks.cpg/sg2_230_cif.got.tgz:459445.got - 2010.06.03 11:33:40.
