data_PCOD9017938
_publ_section_title
;
Structure prediction by ZEFSAII (Michael W. Deem and Ramdas Pophale) SiO2 
 PCOD9017938
Probable space group: P -1
;
_chemical_formula_sum "Si O2"
_cell_formula_units_Z 14
_cell_length_a 9.571957
_cell_length_b 17.812131
_cell_length_c 7.819393
_cell_angle_alpha 104.256560
_cell_angle_beta 79.822811
_cell_angle_gamma 150.727081
_cell_volume 629.762640
_symmetry_space_group_name_H-M "P -1"
_symmetry_group_IT_number 2
_symmetry_cell_setting 'triclinic'
loop_
_space_group_symop_operation_xyz
x,y,z
-x,-y,-z
loop_
_atom_site_type_symbol
_atom_site_label
_atom_site_fract_x
_atom_site_fract_y
_atom_site_fract_z
Si Si1 0.712379 0.754879 0.940155
Si Si2 0.753931 0.081817 0.598685
Si Si3 0.648441 0.282705 0.997000
Si Si4 0.763268 0.429194 0.406470
Si Si5 0.881014 0.597643 0.222638
Si Si6 0.312883 0.987779 0.067341
Si Si7 0.127180 0.124458 0.409157
O O1 0.451975 0.570919 0.853855
O O2 0.832737 0.856758 0.798974
O O3 0.544109 0.743659 0.072293
O O4 0.973905 0.834479 0.016261
O O5 0.640315 0.976459 0.721604
O O6 0.957893 0.244571 0.729029
O O7 0.944056 0.115015 0.465292
O O8 0.500000 0.000000 0.500000
O O9 0.921448 0.371772 0.901567
O O10 0.728954 0.362475 0.202561
O O11 0.446451 0.116120 0.992533
O O12 0.871296 0.564693 0.402200
O O13 0.458219 0.290280 0.484122
O O14 0.000000 0.500000 0.500000
O O15 0.500000 0.000000 0.000000
O O16 0.000000 0.000000 0.500000
#
# Coordination Sequence:
#
# PCOD9017938 Si02
#       7
#     2   2   2   2   2   2   2
#     4  10  23  43  68  96 129 170 223 272 319 389
#     4  12  26  42  66  97 135 174 215 273 330 393
#     4  10  21  43  67  95 128 167 221 268 319 389
#     4  10  23  40  66  98 129 172 214 268 322 387
#     4  10  23  43  66  96 132 170 217 269 333 377
#     4  12  24  42  64  99 127 171 222 269 328 384
#     4  10  23  43  65  96 131 173 220 260 327 389
#
# _framework density 22.230595999999998
#
# number of rings (size 3 to 8) (size 9 to 14) (size 15 to 20)
#    0.000    1.714    1.429    4.714    4.000    5.143 
#    2.571    0.000    0.000    0.000    0.000    0.000 
#    0.000    0.000    0.000    0.000    0.000    0.000 
#
# Total GULP energy -78021.813839 kJ/mol
# GULP energy per Si atom -5572.986703 kJ/mol
# Density = 2.218000 g / cm^3
# Si number density = 22.230596 Si / 1000 Ang^3
#
#
#
# Elastic Constant Matrix: (Units=GPa)
#
#
# Indices 1 2 3 4 5 6 
#
# 1 149.2297 59.6729 30.1155 8.7377 5.7096 38.9155
# 2 59.6729 123.4728 24.5081 -11.6914 12.9491 25.0128
# 3 30.1155 24.5081 48.3008 -13.4072 2.6830 20.9568
# 4 8.7377 -11.6914 -13.4072 28.0124 7.8228 -1.4143
# 5 5.7096 12.9491 2.6830 7.8228 44.2238 7.2443
# 6 38.9155 25.0128 20.9568 -1.4143 7.2443 46.9662
#
#
#
# Elastic Compliance Matrix: (Units=1/GPa)
#
#
# Indices 1 2 3 4 5 6 
#
# 1 0.011347 -0.004494 -0.005033 -0.008826 0.002607 -0.005431
# 2 -0.004494 0.011727 -0.000250 0.007169 -0.003844 -0.001601
# 3 -0.005033 -0.000250 0.033157 0.017651 -0.002851 -0.009520
# 4 -0.008826 0.007169 0.017651 0.052974 -0.011228 -0.001054
# 5 0.002607 -0.003844 -0.002851 -0.011228 0.026085 -0.003202
# 6 -0.005431 -0.001601 -0.009520 -0.001054 -0.003202 0.031355
#
#
# Mechanical properties :
#
#
# Convention : Reuss Voigt Hill
#
# Bulk Modulus (GPa) = 27.26508 61.06626 44.16567
# Shear Modulus (GPa) = 25.19856 37.62095 31.40976
#
# Velocity S-wave (km/s) = 3.37041 4.11823 3.76294
# Velocity P-wave (km/s) = 5.23809 7.08111 6.22815
#
# Compressibility (1/GPa) = 0.03667695
#
# Stress axis : x y z
#
# Youngs Moduli (GPa) = 88.12902 85.27501 30.15954
#
# Poissons Ratio (x) = 0.38321 0.15179
# Poissons Ratio (y) = 0.39604 0.00754
# Poissons Ratio (z) = 0.44356 0.02132
#
# Static dielectric constant tensor:
#      x y z
#    x 1.839930 -0.034470 -0.017770 
#    y -0.034470 1.891730 -0.002320 
#    z -0.017770 -0.002320 1.888470 
# 
# From -- ./inp_files/215280.got.cif
#   From: 2010.05.17/outbox.cif.g08.bks.cpg/sg2_108_cif.got.tgz:215280.got - 2010.06.03 11:33:40.
