data_PCOD9017298
_publ_section_title
;
Structure prediction by ZEFSAII (Michael W. Deem and Ramdas Pophale) SiO2 
 PCOD9017298
Probable space group: P -1
;
_chemical_formula_sum "Si O2"
_cell_formula_units_Z 12
_cell_length_a 9.828635
_cell_length_b 13.691022
_cell_length_c 5.434127
_cell_angle_alpha 85.202057
_cell_angle_beta 135.665920
_cell_angle_gamma 109.188427
_cell_volume 469.749976
_symmetry_space_group_name_H-M "P -1"
_symmetry_group_IT_number 2
_symmetry_cell_setting 'triclinic'
loop_
_space_group_symop_operation_xyz
x,y,z
-x,-y,-z
loop_
_atom_site_type_symbol
_atom_site_label
_atom_site_fract_x
_atom_site_fract_y
_atom_site_fract_z
Si Si1 0.841483 0.915665 0.130943
Si Si2 0.025299 0.399514 0.783548
Si Si3 0.839154 0.681242 0.515959
Si Si4 0.589678 0.252894 0.390505
Si Si5 0.873023 0.120561 0.897385
Si Si6 0.424055 0.587556 0.255347
O O1 0.974223 0.869582 0.137908
O O2 0.634425 0.824066 0.989478
O O3 0.000000 0.000000 0.500000
O O4 0.772170 0.996212 0.856813
O O5 0.103775 0.349635 0.668077
O O6 0.772088 0.348136 0.463668
O O7 0.082386 0.367597 0.135235
O O8 0.171909 0.523629 0.919782
O O9 0.586395 0.630758 0.231263
O O10 0.971879 0.805655 0.708201
O O11 0.705142 0.172748 0.619595
O O12 0.539588 0.311074 0.548174
O O13 0.500000 0.500000 0.500000
#
# Coordination Sequence:
#
# PCOD9017298 Si02
#       6
#     2   2   2   2   2   2
#     4  11  25  46  74 101 143 189 242 305 371 435
#     4  10  23  42  69 106 145 188 242 294 358 433
#     4  10  21  43  71 101 149 187 237 298 358 435
#     4  11  23  46  72 107 148 189 244 304 361 435
#     4  10  24  45  70 105 142 186 245 299 368 435
#     4  10  21  42  73 106 147 196 240 294 362 434
#
# _framework density 25.545506
#
# number of rings (size 3 to 8) (size 9 to 14) (size 15 to 20)
#    0.000    1.667    1.667    1.500    4.667    0.667 
#   12.000   20.000    0.000    0.000    0.000    0.000 
#    0.000    0.000    0.000    0.000    0.000    0.000 
#
# Total GULP energy -67157.900178 kJ/mol
# GULP energy per Si atom -5596.491681 kJ/mol
# Density = 2.548736 g / cm^3
# Si number density = 25.545506 Si / 1000 Ang^3
#
#
#
# Elastic Constant Matrix: (Units=GPa)
#
#
# Indices 1 2 3 4 5 6 
#
# 1 133.5070 27.1064 58.0786 7.5270 11.2079 -7.7545
# 2 27.1064 119.2204 39.2456 -0.8468 5.6678 3.0544
# 3 58.0786 39.2456 152.4719 26.6982 32.5901 0.0503
# 4 7.5270 -0.8468 26.6982 50.3450 4.4654 6.5440
# 5 11.2079 5.6678 32.5901 4.4654 57.3436 17.4015
# 6 -7.7545 3.0544 0.0503 6.5440 17.4015 67.1710
#
#
#
# Elastic Compliance Matrix: (Units=1/GPa)
#
#
# Indices 1 2 3 4 5 6 
#
# 1 0.009174 -0.001047 -0.003208 0.000183 -0.000230 0.001151
# 2 -0.001047 0.009448 -0.002511 0.001693 0.000849 -0.000934
# 3 -0.003208 -0.002511 0.010357 -0.004801 -0.005100 0.001525
# 4 0.000183 0.001693 -0.004801 0.022617 0.001572 -0.002663
# 5 -0.000230 0.000849 -0.005100 0.001572 0.021968 -0.005906
# 6 0.001151 -0.000934 0.001525 -0.002663 -0.005906 0.016851
#
#
# Mechanical properties :
#
#
# Convention : Reuss Voigt Hill
#
# Bulk Modulus (GPa) = 64.73657 72.67338 68.70498
# Shear Modulus (GPa) = 45.83107 53.68983 49.76045
#
# Velocity S-wave (km/s) = 4.24027 4.58944 4.41831
# Velocity P-wave (km/s) = 7.02637 7.52292 7.27888
#
# Compressibility (1/GPa) = 0.01544722
#
# Stress axis : x y z
#
# Youngs Moduli (GPa) = 108.99901 105.84339 96.55098
#
# Poissons Ratio (x) = 0.11082 0.30978
# Poissons Ratio (y) = 0.11412 0.24241
# Poissons Ratio (z) = 0.34972 0.26574
#
# Static dielectric constant tensor:
#      x y z
#    x 1.930360 0.059100 -0.002310 
#    y 0.059100 2.156690 -0.148090 
#    z -0.002310 -0.148090 2.157610 
# 
# From -- ./inp_files/35998.got.cif
#   From: 2010.05.17/outbox.cif.g08.bks.cpg/sg2_18_cif.got.tgz:35998.got - 2010.06.03 11:33:40.
