data_PCOD9017940
_publ_section_title
;
Structure prediction by ZEFSAII (Michael W. Deem and Ramdas Pophale) SiO2 
 PCOD9017940
Probable space group: P -1
;
_chemical_formula_sum "Si O2"
_cell_formula_units_Z 16
_cell_length_a 14.022527
_cell_length_b 9.144990
_cell_length_c 7.983010
_cell_angle_alpha 47.385568
_cell_angle_beta 73.634799
_cell_angle_gamma 91.632616
_cell_volume 687.119477
_symmetry_space_group_name_H-M "P -1"
_symmetry_group_IT_number 2
_symmetry_cell_setting 'triclinic'
loop_
_space_group_symop_operation_xyz
x,y,z
-x,-y,-z
loop_
_atom_site_type_symbol
_atom_site_label
_atom_site_fract_x
_atom_site_fract_y
_atom_site_fract_z
Si Si1 0.405155 0.583650 0.429779
Si Si2 0.033334 0.102998 0.679642
Si Si3 0.909643 0.720487 0.842979
Si Si4 0.716073 0.795227 0.022040
Si Si5 0.409904 0.996479 0.292239
Si Si6 0.239174 0.691864 0.841212
Si Si7 0.839728 0.062103 0.034764
Si Si8 0.419446 0.619985 0.003943
O O1 0.500000 0.500000 0.500000
O O2 0.426657 0.816111 0.307516
O O3 0.386960 0.567701 0.253116
O O4 0.311033 0.428440 0.701766
O O5 0.049552 0.234934 0.400469
O O6 0.136599 0.117060 0.722962
O O7 0.992551 0.858908 0.826369
O O8 0.946272 0.146001 0.808762
O O9 0.815867 0.821269 0.835820
O O10 0.855926 0.473489 0.080861
O O11 0.623914 0.836813 0.932183
O O12 0.749098 0.963425 0.023545
O O13 0.312144 0.880447 0.548626
O O14 0.514840 0.133313 0.225014
O O15 0.192044 0.779419 0.953695
O O16 0.320062 0.578672 0.964264
O O17 0.500000 0.500000 0.000000
#
# Coordination Sequence:
#
# PCOD9017940 Si02
#       8
#     2   2   2   2   2   2   2   2
#     4  12  25  43  68  94 133 185 226 271 331 396
#     4   9  21  44  68  89 133 175 208 280 347 393
#     4  10  21  43  67  95 129 176 219 266 339 405
#     4  11  23  43  68  97 133 178 227 267 330 399
#     4  12  25  46  66  96 142 181 223 269 330 395
#     4  12  25  40  67 103 132 173 228 274 321 399
#     4  10  23  40  65  99 127 170 217 279 337 389
#     4  12  27  44  67  99 139 182 221 279 331 381
#
# _framework density 23.285615
#
# number of rings (size 3 to 8) (size 9 to 14) (size 15 to 20)
#    0.000    1.000    2.500    3.750    5.250    1.000 
#    0.000    0.000    0.000    0.000    0.000    0.000 
#    0.000    0.000    0.000    0.000    0.000    0.000 
#
# Total GULP energy -89518.495544 kJ/mol
# GULP energy per Si atom -5594.905972 kJ/mol
# Density = 2.323262 g / cm^3
# Si number density = 23.285615 Si / 1000 Ang^3
#
#
#
# Elastic Constant Matrix: (Units=GPa)
#
#
# Indices 1 2 3 4 5 6 
#
# 1 50.8666 2.7736 8.8071 3.2810 1.8630 9.0346
# 2 2.7736 116.2323 29.3743 11.7474 -7.5989 -12.2355
# 3 8.8071 29.3743 109.8535 19.0351 -6.3376 2.3307
# 4 3.2810 11.7474 19.0351 38.5158 2.2780 -3.4804
# 5 1.8630 -7.5989 -6.3376 2.2780 26.2087 -2.9658
# 6 9.0346 -12.2355 2.3307 -3.4804 -2.9658 37.7679
#
#
#
# Elastic Compliance Matrix: (Units=1/GPa)
#
#
# Indices 1 2 3 4 5 6 
#
# 1 0.021085 -0.000801 -0.001287 -0.001265 -0.002559 -0.005541
# 2 -0.000801 0.009926 -0.002198 -0.001722 0.002962 0.003617
# 3 -0.001287 -0.002198 0.010790 -0.004811 0.002331 -0.001330
# 4 -0.001265 -0.001722 -0.004811 0.029423 -0.003853 0.002451
# 5 -0.002559 0.002962 0.002331 -0.003853 0.040577 0.004259
# 6 -0.005541 0.003617 -0.001330 0.002451 0.004259 0.029617
#
#
# Mechanical properties :
#
#
# Convention : Reuss Voigt Hill
#
# Bulk Modulus (GPa) = 30.09231 39.87359 34.98295
# Shear Modulus (GPa) = 31.04300 36.23164 33.63732
#
# Velocity S-wave (km/s) = 3.65518 3.94885 3.80485
# Velocity P-wave (km/s) = 5.54662 6.16053 5.86162
#
# Compressibility (1/GPa) = 0.03323109
#
# Stress axis : x y z
#
# Youngs Moduli (GPa) = 47.42622 100.74188 92.67696
#
# Poissons Ratio (x) = 0.08066 0.11930
# Poissons Ratio (y) = 0.03797 0.20366
# Poissons Ratio (z) = 0.06105 0.22139
#
# Static dielectric constant tensor:
#      x y z
#    x 1.856910 -0.006010 -0.029710 
#    y -0.006010 1.852720 -0.013430 
#    z -0.029710 -0.013430 1.904750 
# 
# From -- ./inp_files/297248.got.cif
#   From: 2010.05.17/outbox.cif.g08.bks.cpg/sg2_149_cif.got.tgz:297248.got - 2010.06.03 11:33:40.
