data_PCOD9017188
_publ_section_title
;
Structure prediction by ZEFSAII (Michael W. Deem and Ramdas Pophale) SiO2 
 PCOD9017188
Probable space group: P -1
;
_chemical_formula_sum "Si O2"
_cell_formula_units_Z 15
_cell_length_a 6.248479
_cell_length_b 15.435641
_cell_length_c 18.251287
_cell_angle_alpha 158.241931
_cell_angle_beta 120.331107
_cell_angle_gamma 62.783279
_cell_volume 562.839485
_symmetry_space_group_name_H-M "P -1"
_symmetry_group_IT_number 2
_symmetry_cell_setting 'triclinic'
loop_
_space_group_symop_operation_xyz
x,y,z
-x,-y,-z
loop_
_atom_site_type_symbol
_atom_site_label
_atom_site_fract_x
_atom_site_fract_y
_atom_site_fract_z
Si Si1 0.580861 0.245625 0.998320
Si Si2 0.776947 0.479386 0.080289
Si Si3 0.398656 0.600885 0.637234
Si Si4 0.088060 0.159176 0.302307
Si Si5 0.815469 0.272472 0.780924
Si Si6 0.890527 0.092955 0.375270
Si Si7 0.722344 0.572020 0.791085
Si Si8 0.000000 0.000000 0.500000
O O1 0.349771 0.063807 0.808749
O O2 0.596053 0.425397 0.074620
O O3 0.519316 0.397217 0.176508
O O4 0.810828 0.075972 0.901407
O O5 0.040560 0.378963 0.076265
O O6 0.681560 0.314169 0.867069
O O7 0.835304 0.748318 0.283308
O O8 0.500000 0.500000 0.500000
O O9 0.185182 0.778516 0.722420
O O10 0.626836 0.704859 0.806477
O O11 0.265956 0.377852 0.480577
O O12 0.063750 0.130805 0.364130
O O13 0.742239 0.178784 0.615522
O O14 0.989262 0.042025 0.640961
O O15 0.000000 0.500000 0.000000
O O16 0.804014 0.334256 0.581152
#
# Coordination Sequence:
#
# PCOD9017188 Si02
#       8
#     2   2   2   2   2   2   2   1
#     4  12  25  43  69 107 133 187 239 284 348 423
#     4  11  24  43  71  99 142 181 231 291 351 410
#     4  11  24  43  71 104 141 182 240 290 352 413
#     4  11  23  44  72  98 142 191 225 298 348 405
#     4  10  21  42  72 101 137 182 226 287 346 416
#     4  12  23  46  71  98 147 185 233 286 349 420
#     4  12  25  41  73 102 134 186 238 284 352 420
#     4  10  22  40  72 102 134 182 226 280 356 414
#
# _framework density 26.650583999999998
#
# number of rings (size 3 to 8) (size 9 to 14) (size 15 to 20)
#    0.000    0.800    6.667    0.000    1.867    1.600 
#    0.000    8.000    2.933    0.000    0.000    0.000 
#    0.000    0.000    0.000    0.000    0.000    0.000 
#
# Total GULP energy -83627.756321 kJ/mol
# GULP energy per Si atom -5575.183755 kJ/mol
# Density = 2.658993 g / cm^3
# Si number density = 26.650584 Si / 1000 Ang^3
#
#
#
# Elastic Constant Matrix: (Units=GPa)
#
#
# Indices 1 2 3 4 5 6 
#
# 1 134.7439 42.9261 70.2934 -11.7614 -17.3217 24.4733
# 2 42.9261 121.5376 28.6865 -4.6619 3.3213 -5.3945
# 3 70.2934 28.6865 175.0166 2.2052 -33.5541 14.5494
# 4 -11.7614 -4.6619 2.2052 30.8790 9.8027 -6.0784
# 5 -17.3217 3.3213 -33.5541 9.8027 56.0871 -6.7246
# 6 24.4733 -5.3945 14.5494 -6.0784 -6.7246 57.3329
#
#
#
# Elastic Compliance Matrix: (Units=1/GPa)
#
#
# Indices 1 2 3 4 5 6 
#
# 1 0.011409 -0.003221 -0.003682 0.003210 0.000490 -0.003841
# 2 -0.003221 0.009810 -0.000939 0.001469 -0.002101 0.002446
# 3 -0.003682 -0.000939 0.008286 -0.003645 0.004455 -0.000484
# 4 0.003210 0.001469 -0.003645 0.036982 -0.007411 0.002744
# 5 0.000490 -0.002101 0.004455 -0.007411 0.022098 0.000269
# 6 -0.003841 0.002446 -0.000484 0.002744 0.000269 0.019757
#
#
# Mechanical properties :
#
#
# Convention : Reuss Voigt Hill
#
# Bulk Modulus (GPa) = 72.34763 79.45666 75.90215
# Shear Modulus (GPa) = 38.87029 48.15262 43.51146
#
# Velocity S-wave (km/s) = 3.82319 4.25527 4.04501
# Velocity P-wave (km/s) = 6.83336 7.34997 7.09637
#
# Compressibility (1/GPa) = 0.01382215
#
# Stress axis : x y z
#
# Youngs Moduli (GPa) = 87.64816 101.94140 120.67850
#
# Poissons Ratio (x) = 0.32840 0.44428
# Poissons Ratio (y) = 0.28235 0.11327
# Poissons Ratio (z) = 0.32268 0.09568
#
# Static dielectric constant tensor:
#      x y z
#    x 2.722770 0.456760 -0.527170 
#    y 0.456760 2.994550 -0.704390 
#    z -0.527170 -0.704390 2.729770 
# 
# From -- ./inp_files/584098.got.cif
#   From: 2010.05.17/outbox.cif.g08.bks.cpg/sg2_293_cif.got.tgz:584098.got - 2010.06.03 11:33:40.
