data_PCOD9017978
_publ_section_title
;
Structure prediction by ZEFSAII (Michael W. Deem and Ramdas Pophale) SiO2 
 PCOD9017978
Probable space group: P -1
;
_chemical_formula_sum "Si O2"
_cell_formula_units_Z 16
_cell_length_a 23.826543
_cell_length_b 8.857526
_cell_length_c 20.644242
_cell_angle_alpha 137.662950
_cell_angle_beta 20.853567
_cell_angle_gamma 149.190424
_cell_volume 744.779403
_symmetry_space_group_name_H-M "P -1"
_symmetry_group_IT_number 2
_symmetry_cell_setting 'triclinic'
loop_
_space_group_symop_operation_xyz
x,y,z
-x,-y,-z
loop_
_atom_site_type_symbol
_atom_site_label
_atom_site_fract_x
_atom_site_fract_y
_atom_site_fract_z
Si Si1 0.328307 0.017673 0.667655
Si Si2 0.973692 0.741532 0.616938
Si Si3 0.482158 0.349593 0.268877
Si Si4 0.439662 0.679388 0.971267
Si Si5 0.916337 0.580876 0.060640
Si Si6 0.520623 0.972007 0.719806
Si Si7 0.269866 0.137364 0.629032
Si Si8 0.671437 0.607890 0.793094
O O1 0.419533 0.344527 0.700344
O O2 0.279015 0.995191 0.637958
O O3 0.500000 0.000000 0.500000
O O4 0.093717 0.738415 0.863339
O O5 0.889365 0.773339 0.651527
O O6 0.000000 0.500000 0.500000
O O7 0.785812 0.579540 0.824829
O O8 0.215632 0.085934 0.476017
O O9 0.565602 0.425396 0.129046
O O10 0.546022 0.188602 0.188800
O O11 0.639524 0.763282 0.822490
O O12 0.500000 0.000000 0.000000
O O13 0.681933 0.265950 0.186011
O O14 0.901742 0.828860 0.175174
O O15 0.000000 0.500000 0.000000
O O16 0.718282 0.011823 0.492480
O O17 0.594713 0.298563 0.746600
O O18 0.500000 0.500000 0.500000
O O19 0.500000 0.500000 0.000000
#
# Coordination Sequence:
#
# PCOD9017978 Si02
#       8
#     2   2   2   2   2   2   2   2
#     4  12  26  44  66 103 144 179 241 292 343 435
#     4  11  22  47  71 102 141 185 226 292 356 411
#     4  12  25  43  72 101 144 182 234 285 358 412
#     4  11  24  44  72 102 141 183 234 290 347 424
#     4  11  25  44  71  99 140 186 235 289 359 416
#     4  11  23  45  71  99 138 186 232 290 358 414
#     4  10  21  43  67  96 136 180 228 287 346 415
#     4  10  23  44  71 100 141 179 234 288 348 426
#
# _framework density 21.482872
#
# number of rings (size 3 to 8) (size 9 to 14) (size 15 to 20)
#    0.000    1.000    5.000    2.625    3.500    3.500 
#    0.000    0.000    0.000    0.000    0.000    0.000 
#    0.000    0.000    0.000    0.000    0.000    0.000 
#
# Total GULP energy -89394.313410 kJ/mol
# GULP energy per Si atom -5587.144588 kJ/mol
# Density = 2.143398 g / cm^3
# Si number density = 21.482872 Si / 1000 Ang^3
#
#
#
# Elastic Constant Matrix: (Units=GPa)
#
#
# Indices 1 2 3 4 5 6 
#
# 1 164.3056 23.9216 45.2746 8.7721 -8.7310 -19.4982
# 2 23.9216 59.6743 8.7838 7.4309 -3.3316 -0.4478
# 3 45.2746 8.7838 95.4309 7.7821 6.2592 -2.7674
# 4 8.7721 7.4309 7.7821 37.5557 -4.8652 -6.6945
# 5 -8.7310 -3.3316 6.2592 -4.8652 49.5859 3.6116
# 6 -19.4982 -0.4478 -2.7674 -6.6945 3.6116 39.3287
#
#
#
# Elastic Compliance Matrix: (Units=1/GPa)
#
#
# Indices 1 2 3 4 5 6 
#
# 1 0.007920 -0.002575 -0.003528 0.000209 0.001429 0.003553
# 2 -0.002575 0.018249 -0.000289 -0.003169 0.000621 -0.001686
# 3 -0.003528 -0.000289 0.012483 -0.002194 -0.002357 -0.001031
# 4 0.000209 -0.003169 -0.002194 0.028812 0.002594 0.004579
# 5 0.001429 0.000621 -0.002357 0.002594 0.021081 -0.000945
# 6 0.003553 -0.001686 -0.001031 0.004579 -0.000945 0.027963
#
#
# Mechanical properties :
#
#
# Convention : Reuss Voigt Hill
#
# Bulk Modulus (GPa) = 38.65912 52.81898 45.73905
# Shear Modulus (GPa) = 36.25425 41.38945 38.82185
#
# Velocity S-wave (km/s) = 4.11248 4.39410 4.25562
# Velocity P-wave (km/s) = 6.37059 7.09817 6.74420
#
# Compressibility (1/GPa) = 0.02586712
#
# Stress axis : x y z
#
# Youngs Moduli (GPa) = 126.26792 54.79700 80.11049
#
# Poissons Ratio (x) = 0.14111 0.28263
# Poissons Ratio (y) = 0.32515 0.02317
# Poissons Ratio (z) = 0.44547 0.01585
#
# Static dielectric constant tensor:
#      x y z
#    x 1.722670 0.044320 0.039780 
#    y 0.044320 1.703360 -0.048260 
#    z 0.039780 -0.048260 1.731690 
# 
# From -- ./inp_files/601946.got.cif
#   From: 2010.05.17/outbox.cif.g08.bks.cpg/sg2_301_cif.got.tgz:601946.got - 2010.06.03 11:33:40.
