data_PCOD9017016
_publ_section_title
;
Structure prediction by ZEFSAII (Michael W. Deem and Ramdas Pophale) SiO2 
 PCOD9017016
Probable space group: P -1
;
_chemical_formula_sum "Si O2"
_cell_formula_units_Z 14
_cell_length_a 4.895526
_cell_length_b 21.042365
_cell_length_c 9.733002
_cell_angle_alpha 49.231544
_cell_angle_beta 112.345721
_cell_angle_gamma 120.720126
_cell_volume 651.114687
_symmetry_space_group_name_H-M "P -1"
_symmetry_group_IT_number 2
_symmetry_cell_setting 'triclinic'
loop_
_space_group_symop_operation_xyz
x,y,z
-x,-y,-z
loop_
_atom_site_type_symbol
_atom_site_label
_atom_site_fract_x
_atom_site_fract_y
_atom_site_fract_z
Si Si1 0.440033 0.975248 0.680995
Si Si2 0.449368 0.698249 0.892216
Si Si3 0.764934 0.598242 0.898076
Si Si4 0.402039 0.185818 0.984229
Si Si5 0.985747 0.255108 0.453182
Si Si6 0.478164 0.812722 0.295496
Si Si7 0.096021 0.000186 0.827692
O O1 0.500000 0.000000 0.500000
O O2 0.783004 0.024323 0.750120
O O3 0.387881 0.870366 0.840247
O O4 0.188237 0.000178 0.684965
O O5 0.669092 0.665609 0.883300
O O6 0.305220 0.761942 0.686655
O O7 0.126044 0.611432 0.985506
O O8 0.603014 0.746613 0.993182
O O9 0.806861 0.640033 0.693103
O O10 0.500000 0.500000 0.000000
O O11 0.232130 0.206335 0.548916
O O12 0.540370 0.225100 0.808182
O O13 0.826587 0.231577 0.604785
O O14 0.612715 0.922246 0.154714
O O15 0.947237 0.894335 0.989516
#
# Coordination Sequence:
#
# PCOD9017016 Si02
#       7
#     2   2   2   2   2   2   2
#     4  10  23  36  54  81 113 159 214 262 290 330
#     4  10  22  39  65  94 118 153 201 248 302 350
#     4  10  21  42  70  96 116 148 199 247 304 378
#     4  10  27  37  61  86 130 161 210 249 305 338
#     4  10  23  38  64  90 118 156 206 247 306 355
#     4  12  23  39  58  89 126 167 206 249 293 355
#     4  10  24  36  56  78 118 172 211 236 294 335
#
# _framework density 21.501586
#
# number of rings (size 3 to 8) (size 9 to 14) (size 15 to 20)
#    1.714    0.000    1.429    2.143    8.000    0.571 
#    0.000    0.000    0.000    5.143    0.000    0.000 
#    0.000    0.000    0.000    0.000    0.000    0.000 
#
# Total GULP energy -78011.823456 kJ/mol
# GULP energy per Si atom -5572.273104 kJ/mol
# Density = 2.145265 g / cm^3
# Si number density = 21.501586 Si / 1000 Ang^3
#
#
#
# Elastic Constant Matrix: (Units=GPa)
#
#
# Indices 1 2 3 4 5 6 
#
# 1 90.7605 12.3452 29.6144 4.3002 -33.2077 -12.0003
# 2 12.3452 64.5496 50.8278 12.9729 -17.2706 -2.8829
# 3 29.6144 50.8278 108.2762 7.0416 -42.1394 4.8314
# 4 4.3002 12.9729 7.0416 31.3973 -5.1679 -11.9179
# 5 -33.2077 -17.2706 -42.1394 -5.1679 37.8729 1.3701
# 6 -12.0003 -2.8829 4.8314 -11.9179 1.3701 29.3925
#
#
#
# Elastic Compliance Matrix: (Units=1/GPa)
#
#
# Indices 1 2 3 4 5 6 
#
# 1 0.017682 -0.000144 0.001360 0.002946 0.017087 0.007379
# 2 -0.000144 0.026992 -0.013936 -0.008054 -0.004488 0.001823
# 3 0.001360 -0.013936 0.024110 0.001890 0.022104 -0.005038
# 4 0.002946 -0.008054 0.001890 0.041704 0.006099 0.016728
# 5 0.017087 -0.004488 0.022104 0.006099 0.064680 0.002361
# 6 0.007379 0.001823 -0.005038 0.016728 0.002361 0.044715
#
#
# Mechanical properties :
#
#
# Convention : Reuss Voigt Hill
#
# Bulk Modulus (GPa) = 23.07042 49.90680 36.48861
# Shear Modulus (GPa) = 19.24795 31.11914 25.18355
#
# Velocity S-wave (km/s) = 2.99521 3.80846 3.42605
# Velocity P-wave (km/s) = 4.76599 6.52689 5.71467
#
# Compressibility (1/GPa) = 0.04334555
#
# Stress axis : x y z
#
# Youngs Moduli (GPa) = 56.55628 37.04792 41.47722
#
# Poissons Ratio (x) = 0.00532 -0.05643
# Poissons Ratio (y) = 0.00813 0.57801
# Poissons Ratio (z) = -0.07694 0.51628
#
# Static dielectric constant tensor:
#      x y z
#    x 1.834550 0.019180 0.047080 
#    y 0.019180 1.777140 -0.016970 
#    z 0.047080 -0.016970 1.838650 
# 
# From -- ./inp_files/136579.got.cif
#   From: 2010.05.17/outbox.cif.g08.bks.cpg/sg2_69_cif.got.tgz:136579.got - 2010.06.03 11:33:40.
