data_PCOD9017751
_publ_section_title
;
Structure prediction by ZEFSAII (Michael W. Deem and Ramdas Pophale) SiO2 
 PCOD9017751
Probable space group: P -1
;
_chemical_formula_sum "Si O2"
_cell_formula_units_Z 16
_cell_length_a 11.403975
_cell_length_b 9.235906
_cell_length_c 11.720954
_cell_angle_alpha 88.340815
_cell_angle_beta 128.854004
_cell_angle_gamma 60.580711
_cell_volume 726.681217
_symmetry_space_group_name_H-M "P -1"
_symmetry_group_IT_number 2
_symmetry_cell_setting 'triclinic'
loop_
_space_group_symop_operation_xyz
x,y,z
-x,-y,-z
loop_
_atom_site_type_symbol
_atom_site_label
_atom_site_fract_x
_atom_site_fract_y
_atom_site_fract_z
Si Si1 0.135020 0.363643 0.864186
Si Si2 0.782337 0.707773 0.337023
Si Si3 0.971699 0.189435 0.488207
Si Si4 0.276018 0.759775 0.841872
Si Si5 0.621561 0.532911 0.904030
Si Si6 0.724120 0.545019 0.497030
Si Si7 0.692918 0.277017 0.757985
Si Si8 0.118081 0.056012 0.927930
O O1 0.256835 0.287812 0.820020
O O2 0.178096 0.186585 0.959831
O O3 0.901439 0.501042 0.682062
O O4 0.203042 0.462821 0.969808
O O5 0.656912 0.699820 0.352066
O O6 0.000000 0.500000 0.500000
O O7 0.826333 0.846801 0.385105
O O8 0.858791 0.280880 0.297012
O O9 0.829173 0.345040 0.496563
O O10 0.000000 0.000000 0.500000
O O11 0.420054 0.724098 0.830182
O O12 0.168283 0.957889 0.836713
O O13 0.372156 0.614251 0.009127
O O14 0.636566 0.456773 0.790482
O O15 0.515973 0.638970 0.426704
O O16 0.880100 0.192328 0.794736
O O17 0.780129 0.101843 0.905333
#
# Coordination Sequence:
#
# PCOD9017751 Si02
#       8
#     2   2   2   2   2   2   2   2
#     4  10  20  35  56  90 112 145 185 251 276 329
#     4   8  17  30  53  81 116 144 174 228 292 328
#     4  10  17  30  52  83 118 138 175 237 286 318
#     4  10  18  33  56  84 108 147 188 230 272 348
#     4  10  20  33  61  82 109 143 197 228 283 337
#     4  10  19  37  60  82 114 151 190 223 288 345
#     4  10  22  42  58  79 112 166 187 223 286 354
#     4  10  23  38  57  81 121 149 191 235 285 331
#
# _framework density 22.017909
#
# number of rings (size 3 to 8) (size 9 to 14) (size 15 to 20)
#    0.000    2.500    1.250    3.750    3.500    1.500 
#    2.250    0.000    0.000   12.000    0.000    0.000 
#    0.000    0.000    0.000    0.000    0.000    0.000 
#
# Total GULP energy -89168.643947 kJ/mol
# GULP energy per Si atom -5573.040247 kJ/mol
# Density = 2.196780 g / cm^3
# Si number density = 22.017909 Si / 1000 Ang^3
#
#
#
# Elastic Constant Matrix: (Units=GPa)
#
#
# Indices 1 2 3 4 5 6 
#
# 1 83.3728 43.7956 19.7820 -13.9781 11.1380 4.6640
# 2 43.7956 82.9907 29.1871 -8.0329 18.1087 10.4693
# 3 19.7820 29.1871 53.6342 6.3725 17.3915 -1.6137
# 4 -13.9781 -8.0329 6.3725 26.1447 3.9440 3.5959
# 5 11.1380 18.1087 17.3915 3.9440 34.1874 -6.5996
# 6 4.6640 10.4693 -1.6137 3.5959 -6.5996 34.9927
#
#
#
# Elastic Compliance Matrix: (Units=1/GPa)
#
#
# Indices 1 2 3 4 5 6 
#
# 1 0.018342 -0.006912 -0.003512 0.009082 -0.001930 -0.001836
# 2 -0.006912 0.021938 -0.007996 0.007290 -0.007728 -0.008218
# 3 -0.003512 -0.007996 0.027885 -0.010647 -0.006814 0.003956
# 4 0.009082 0.007290 -0.010647 0.050848 -0.009369 -0.010875
# 5 -0.001930 -0.007728 -0.006814 -0.009369 0.040620 0.010879
# 6 -0.001836 -0.008218 0.003956 -0.010875 0.010879 0.034632
#
#
# Mechanical properties :
#
#
# Convention : Reuss Voigt Hill
#
# Bulk Modulus (GPa) = 31.92497 45.05857 38.49177
# Shear Modulus (GPa) = 20.69976 27.54716 24.12346
#
# Velocity S-wave (km/s) = 3.06949 3.54096 3.31362
# Velocity P-wave (km/s) = 5.20513 6.10138 5.67099
#
# Compressibility (1/GPa) = 0.03132344
#
# Stress axis : x y z
#
# Youngs Moduli (GPa) = 54.51997 45.58279 35.86126
#
# Poissons Ratio (x) = 0.31509 0.12594
# Poissons Ratio (y) = 0.37687 0.28676
# Poissons Ratio (z) = 0.19147 0.36450
#
# Static dielectric constant tensor:
#      x y z
#    x 1.867920 0.023380 -0.016470 
#    y 0.023380 1.847170 -0.097600 
#    z -0.016470 -0.097600 1.985940 
# 
# From -- ./inp_files/513269.got.cif
#   From: 2010.05.17/outbox.cif.g08.bks.cpg/sg2_257_cif.got.tgz:513269.got - 2010.06.03 11:33:40.
