data_PCOD9017873
_publ_section_title
;
Structure prediction by ZEFSAII (Michael W. Deem and Ramdas Pophale) SiO2 
 PCOD9017873
Probable space group: P -1
;
_chemical_formula_sum "Si O2"
_cell_formula_units_Z 16
_cell_length_a 15.997346
_cell_length_b 13.410046
_cell_length_c 13.782559
_cell_angle_alpha 120.904002
_cell_angle_beta 39.889817
_cell_angle_gamma 153.164686
_cell_volume 690.608307
_symmetry_space_group_name_H-M "P -1"
_symmetry_group_IT_number 2
_symmetry_cell_setting 'triclinic'
loop_
_space_group_symop_operation_xyz
x,y,z
-x,-y,-z
loop_
_atom_site_type_symbol
_atom_site_label
_atom_site_fract_x
_atom_site_fract_y
_atom_site_fract_z
Si Si1 0.224997 0.022924 0.559145
Si Si2 0.648135 0.305766 0.995090
Si Si3 0.545341 0.461226 0.844358
Si Si4 0.524420 0.613558 0.342639
Si Si5 0.739788 0.197965 0.610764
Si Si6 0.358352 0.093070 0.943995
Si Si7 0.661857 0.494975 0.253245
Si Si8 0.069312 0.701010 0.290635
O O1 0.206197 0.095942 0.701813
O O2 0.494258 0.285581 0.380612
O O3 0.275790 0.931496 0.502035
O O4 0.907925 0.769343 0.657066
O O5 0.695128 0.442738 0.101304
O O6 0.332010 0.983167 0.141220
O O7 0.575897 0.291364 0.943046
O O8 0.911063 0.418072 0.820128
O O9 0.396354 0.363852 0.824678
O O10 0.456520 0.260375 0.856221
O O11 0.500000 0.500000 0.000000
O O12 0.468882 0.453810 0.376030
O O13 0.243873 0.479237 0.526013
O O14 0.431141 0.021931 0.807512
O O15 0.822264 0.220491 0.655781
O O16 0.000000 0.500000 0.500000
O O17 0.998052 0.808825 0.143809
#
# Coordination Sequence:
#
# PCOD9017873 Si02
#       8
#     2   2   2   2   2   2   2   2
#     4  12  26  45  73 103 141 185 233 290 353 413
#     4  10  22  42  69 100 142 182 231 291 345 405
#     4  12  26  48  70  98 142 191 231 287 354 419
#     4  12  26  44  70 105 144 180 238 287 349 422
#     4  11  21  46  71  99 140 187 233 286 350 415
#     4  11  25  43  70 104 140 180 238 287 341 418
#     4  12  26  44  71 109 140 187 232 286 351 418
#     4  10  21  43  67 103 141 180 233 287 345 415
#
# _framework density 23.167981999999999
#
# number of rings (size 3 to 8) (size 9 to 14) (size 15 to 20)
#    0.000    0.750    3.750    2.625    1.750    6.500 
#    0.000    1.250    0.000    0.000    0.000    0.000 
#    0.000    0.000    0.000    0.000    0.000    0.000 
#
# Total GULP energy -89476.023328 kJ/mol
# GULP energy per Si atom -5592.251458 kJ/mol
# Density = 2.311525 g / cm^3
# Si number density = 23.167982 Si / 1000 Ang^3
#
#
#
# Elastic Constant Matrix: (Units=GPa)
#
#
# Indices 1 2 3 4 5 6 
#
# 1 81.9597 28.0781 15.8473 -2.5654 0.5696 -13.3016
# 2 28.0781 103.0311 24.3106 21.0271 -2.3531 1.3133
# 3 15.8473 24.3106 67.6300 5.4931 -4.7728 -1.6911
# 4 -2.5654 21.0271 5.4931 51.9376 -2.4739 4.5328
# 5 0.5696 -2.3531 -4.7728 -2.4739 35.2371 7.3240
# 6 -13.3016 1.3133 -1.6911 4.5328 7.3240 31.4926
#
#
#
# Elastic Compliance Matrix: (Units=1/GPa)
#
#
# Indices 1 2 3 4 5 6 
#
# 1 0.015215 -0.004164 -0.002209 0.001989 -0.002071 0.006677
# 2 -0.004164 0.012602 -0.003175 -0.004781 0.000536 -0.001891
# 3 -0.002209 -0.003175 0.016623 -0.000452 0.002113 -0.000335
# 4 0.001989 -0.004781 -0.000452 0.021629 0.001620 -0.002474
# 5 -0.002071 0.000536 0.002113 0.001620 0.030536 -0.008119
# 6 0.006677 -0.001891 -0.000335 -0.002474 -0.008119 0.036879
#
#
# Mechanical properties :
#
#
# Convention : Reuss Voigt Hill
#
# Bulk Modulus (GPa) = 39.45851 43.23253 41.34552
# Shear Modulus (GPa) = 31.05064 36.02577 33.53821
#
# Velocity S-wave (km/s) = 3.66490 3.94760 3.80887
# Velocity P-wave (km/s) = 5.91414 6.28324 6.10148
#
# Compressibility (1/GPa) = 0.02534307
#
# Stress axis : x y z
#
# Youngs Moduli (GPa) = 65.72491 79.35373 60.15778
#
# Poissons Ratio (x) = 0.33039 0.13291
# Poissons Ratio (y) = 0.27365 0.19103
# Poissons Ratio (z) = 0.14521 0.25198
#
# Static dielectric constant tensor:
#      x y z
#    x 1.847410 0.006020 -0.012450 
#    y 0.006020 1.873490 0.044360 
#    z -0.012450 0.044360 1.939320 
# 
# From -- ./inp_files/532603.got.cif
#   From: 2010.05.17/outbox.cif.g08.bks.cpg/sg2_267_cif.got.tgz:532603.got - 2010.06.03 11:33:40.
