data_PCOD9017488
_publ_section_title
;
Structure prediction by ZEFSAII (Michael W. Deem and Ramdas Pophale) SiO2 
 PCOD9017488
Probable space group: P -1
;
_chemical_formula_sum "Si O2"
_cell_formula_units_Z 16
_cell_length_a 10.771346
_cell_length_b 15.859631
_cell_length_c 7.466559
_cell_angle_alpha 62.937818
_cell_angle_beta 106.304737
_cell_angle_gamma 142.879182
_cell_volume 677.457229
_symmetry_space_group_name_H-M "P -1"
_symmetry_group_IT_number 2
_symmetry_cell_setting 'triclinic'
loop_
_space_group_symop_operation_xyz
x,y,z
-x,-y,-z
loop_
_atom_site_type_symbol
_atom_site_label
_atom_site_fract_x
_atom_site_fract_y
_atom_site_fract_z
Si Si1 0.018655 0.612014 0.804735
Si Si2 0.814056 0.321652 0.567392
Si Si3 0.447845 0.600393 0.171488
Si Si4 0.750912 0.686548 0.818638
Si Si5 0.634168 0.896143 0.352623
Si Si6 0.873352 0.197278 0.000344
Si Si7 0.840786 0.827314 0.354698
Si Si8 0.705496 0.870842 0.780907
O O1 0.785947 0.511920 0.747705
O O2 0.172684 0.696865 0.617697
O O3 0.098911 0.724497 0.886246
O O4 0.000000 0.500000 0.000000
O O5 0.609872 0.259834 0.608404
O O6 0.000000 0.500000 0.500000
O O7 0.839646 0.243095 0.772634
O O8 0.411456 0.489621 0.129959
O O9 0.638028 0.681161 0.300633
O O10 0.533148 0.748779 0.977495
O O11 0.862238 0.771677 0.589132
O O12 0.700474 0.763825 0.787261
O O13 0.909923 0.735845 0.980351
O O14 0.777093 0.893635 0.341734
O O15 0.663806 0.919656 0.556434
O O16 0.692523 0.020282 0.141154
O O17 0.063910 0.968909 0.213355
#
# Coordination Sequence:
#
# PCOD9017488 Si02
#       8
#     2   2   2   2   2   2   2   2
#     4  11  24  46  66  97 137 172 223 283 327 389
#     4  12  25  44  71  98 128 176 228 273 335 395
#     4  11  24  39  65 100 131 174 224 275 327 396
#     4  10  21  43  63  96 133 175 214 275 333 392
#     4  11  23  44  67  97 130 177 217 270 341 395
#     4  11  23  45  70  94 137 172 224 276 330 401
#     4  11  21  42  66  95 138 169 218 275 332 399
#     4  11  21  42  69  94 135 178 214 266 343 401
#
# _framework density 23.617726999999999
#
# number of rings (size 3 to 8) (size 9 to 14) (size 15 to 20)
#    0.000    1.000    3.750    3.750    1.750    0.500 
#    9.000    0.000    0.000    0.000    0.000    0.000 
#    0.000    0.000    0.000    0.000    0.000    0.000 
#
# Total GULP energy -89394.218389 kJ/mol
# GULP energy per Si atom -5587.138649 kJ/mol
# Density = 2.356397 g / cm^3
# Si number density = 23.617727 Si / 1000 Ang^3
#
#
#
# Elastic Constant Matrix: (Units=GPa)
#
#
# Indices 1 2 3 4 5 6 
#
# 1 39.6568 2.8925 7.9597 -9.6300 0.9545 1.0375
# 2 2.8925 91.2180 -0.7542 -18.8280 -3.7408 14.9848
# 3 7.9597 -0.7542 109.4660 -3.3990 11.4744 -1.6545
# 4 -9.6300 -18.8280 -3.3990 38.2702 2.1141 -1.4697
# 5 0.9545 -3.7408 11.4744 2.1141 29.2480 0.7789
# 6 1.0375 14.9848 -1.6545 -1.4697 0.7789 27.2861
#
#
#
# Elastic Compliance Matrix: (Units=1/GPa)
#
#
# Indices 1 2 3 4 5 6 
#
# 1 0.027266 0.000744 -0.001712 0.007064 -0.000603 -0.001151
# 2 0.000744 0.013508 -0.000018 0.006478 0.001432 -0.007139
# 3 -0.001712 -0.000018 0.009693 0.000663 -0.003818 0.000807
# 4 0.007064 0.006478 0.000663 0.031177 -0.001861 -0.002053
# 5 -0.000603 0.001432 -0.003818 -0.001861 0.036082 -0.002125
# 6 -0.001151 -0.007139 0.000807 -0.002053 -0.002125 0.040612
#
#
# Mechanical properties :
#
#
# Convention : Reuss Voigt Hill
#
# Bulk Modulus (GPa) = 20.62155 28.94853 24.78504
# Shear Modulus (GPa) = 28.33257 34.31039 31.32148
#
# Velocity S-wave (km/s) = 3.46733 3.81562 3.64563
# Velocity P-wave (km/s) = 4.97797 5.62989 5.31393
#
# Compressibility (1/GPa) = 0.04849297
#
# Stress axis : x y z
#
# Youngs Moduli (GPa) = 36.67596 74.03246 103.17054
#
# Poissons Ratio (x) = -0.05506 0.17666
# Poissons Ratio (y) = -0.02728 0.00185
# Poissons Ratio (z) = 0.06280 0.00133
#
# Static dielectric constant tensor:
#      x y z
#    x 1.994080 -0.007130 -0.046410 
#    y -0.007130 1.896580 0.045940 
#    z -0.046410 0.045940 1.903630 
# 
# From -- ./inp_files/279103.got.cif
#   From: 2010.05.17/outbox.cif.g08.bks.cpg/sg2_140_cif.got.tgz:279103.got - 2010.06.03 11:33:40.
