data_PCOD9017535
_publ_section_title
;
Structure prediction by ZEFSAII (Michael W. Deem and Ramdas Pophale) SiO2 
 PCOD9017535
Probable space group: P -1
;
_chemical_formula_sum "Si O2"
_cell_formula_units_Z 16
_cell_length_a 9.500641
_cell_length_b 14.176227
_cell_length_c 7.558104
_cell_angle_alpha 89.586741
_cell_angle_beta 75.399116
_cell_angle_gamma 47.315738
_cell_volume 704.697920
_symmetry_space_group_name_H-M "P -1"
_symmetry_group_IT_number 2
_symmetry_cell_setting 'triclinic'
loop_
_space_group_symop_operation_xyz
x,y,z
-x,-y,-z
loop_
_atom_site_type_symbol
_atom_site_label
_atom_site_fract_x
_atom_site_fract_y
_atom_site_fract_z
Si Si1 0.731143 0.913062 0.371163
Si Si2 0.576757 0.271505 0.773971
Si Si3 0.074721 0.665631 0.481828
Si Si4 0.728492 0.274055 0.345004
Si Si5 0.981217 0.985643 0.296419
Si Si6 0.606818 0.560724 0.846242
Si Si7 0.222212 0.286836 0.863497
Si Si8 0.941420 0.555901 0.740379
O O1 0.811856 0.982255 0.313497
O O2 0.767675 0.825064 0.198740
O O3 0.875895 0.810736 0.483991
O O4 0.500000 0.000000 0.500000
O O5 0.615752 0.284666 0.558528
O O6 0.441181 0.238020 0.812297
O O7 0.790795 0.154644 0.807412
O O8 0.456875 0.402787 0.929553
O O9 0.177361 0.673037 0.610684
O O10 0.228306 0.590642 0.267617
O O11 0.022363 0.584779 0.560792
O O12 0.577778 0.359972 0.231515
O O13 0.900199 0.119851 0.239524
O O14 0.000000 0.000000 0.500000
O O15 0.724237 0.606362 0.776759
O O16 0.100164 0.405096 0.757164
O O17 0.097934 0.358094 0.080805
#
# Coordination Sequence:
#
# PCOD9017535 Si02
#       8
#     2   2   2   2   2   2   2   2
#     4  12  24  39  69  96 125 175 218 265 329 388
#     4  10  22  42  66  95 130 174 214 266 323 392
#     4  12  24  41  63 101 131 165 222 268 324 393
#     4  11  24  43  66  93 134 175 215 270 324 382
#     4  10  21  43  64  92 130 175 221 261 320 389
#     4  11  24  41  66  99 128 172 220 267 332 382
#     4  10  22  42  66  96 128 171 215 264 339 380
#     4  10  23  42  66  95 133 166 212 277 322 393
#
# _framework density 22.704764999999998
#
# number of rings (size 3 to 8) (size 9 to 14) (size 15 to 20)
#    0.000    1.250    3.750    3.000    3.500    2.000 
#    0.000    0.625    0.000    0.000    0.000    0.000 
#    0.000    0.000    0.000    0.000    0.000    0.000 
#
# Total GULP energy -89466.504566 kJ/mol
# GULP energy per Si atom -5591.656535 kJ/mol
# Density = 2.265309 g / cm^3
# Si number density = 22.704765 Si / 1000 Ang^3
#
#
#
# Elastic Constant Matrix: (Units=GPa)
#
#
# Indices 1 2 3 4 5 6 
#
# 1 146.7019 17.9143 18.5678 13.3790 13.4854 1.2784
# 2 17.9143 44.4270 2.7975 17.6036 9.0139 -12.1312
# 3 18.5678 2.7975 70.2674 6.3396 10.1912 1.2163
# 4 13.3790 17.6036 6.3396 27.0074 4.8792 1.3194
# 5 13.4854 9.0139 10.1912 4.8792 35.8563 -1.1044
# 6 1.2784 -12.1312 1.2163 1.3194 -1.1044 40.5756
#
#
#
# Elastic Compliance Matrix: (Units=1/GPa)
#
#
# Indices 1 2 3 4 5 6 
#
# 1 0.007587 -0.002217 -0.001514 -0.001615 -0.001672 -0.000850
# 2 -0.002217 0.036540 0.001765 -0.022720 -0.005407 0.011533
# 3 -0.001514 0.001765 0.015411 -0.003338 -0.003797 0.000119
# 4 -0.001615 -0.022720 -0.003338 0.053888 -0.000324 -0.008403
# 5 -0.001672 -0.005407 -0.003797 -0.000324 0.030982 -0.000596
# 6 -0.000850 0.011533 0.000119 -0.008403 -0.000596 0.028374
#
#
# Mechanical properties :
#
#
# Convention : Reuss Voigt Hill
#
# Bulk Modulus (GPa) = 17.98301 37.77284 27.87793
# Shear Modulus (GPa) = 25.60829 35.49564 30.55197
#
# Velocity S-wave (km/s) = 3.36204 3.95822 3.67225
# Velocity P-wave (km/s) = 4.79673 6.12884 5.50324
#
# Compressibility (1/GPa) = 0.05560803
#
# Stress axis : x y z
#
# Youngs Moduli (GPa) = 131.80016 27.36700 64.88937
#
# Poissons Ratio (x) = 0.06067 0.09822
# Poissons Ratio (y) = 0.29220 -0.11456
# Poissons Ratio (z) = 0.19951 -0.04832
#
# Static dielectric constant tensor:
#      x y z
#    x 1.879610 0.025690 0.008600 
#    y 0.025690 1.845300 0.041650 
#    z 0.008600 0.041650 1.875090 
# 
# From -- ./inp_files/207742.got.cif
#   From: 2010.05.17/outbox.cif.g08.bks.cpg/sg2_104_cif.got.tgz:207742.got - 2010.06.03 11:33:40.
