data_PCOD9017306
_publ_section_title
;
Structure prediction by ZEFSAII (Michael W. Deem and Ramdas Pophale) SiO2 
 PCOD9017306
Probable space group: P -1
;
_chemical_formula_sum "Si O2"
_cell_formula_units_Z 10
_cell_length_a 5.049180
_cell_length_b 8.891535
_cell_length_c 8.891532
_cell_angle_alpha 97.312165
_cell_angle_beta 72.161915
_cell_angle_gamma 72.161827
_cell_volume 350.792519
_symmetry_space_group_name_H-M "P -1"
_symmetry_group_IT_number 2
_symmetry_cell_setting 'triclinic'
loop_
_space_group_symop_operation_xyz
x,y,z
-x,-y,-z
loop_
_atom_site_type_symbol
_atom_site_label
_atom_site_fract_x
_atom_site_fract_y
_atom_site_fract_z
Si Si1 0.571527 0.613579 0.128451
Si Si2 0.750000 0.574827 0.425172
Si Si3 0.616004 0.099364 0.195133
Si Si4 0.116004 0.195132 0.099365
Si Si5 0.071527 0.128451 0.613579
O O1 0.250000 0.740355 0.259645
O O2 0.768472 0.545339 0.236638
O O3 0.500000 0.500000 0.000000
O O4 0.753613 0.706816 0.021494
O O5 0.500000 0.500000 0.500000
O O6 0.731528 0.763362 0.454661
O O7 0.000000 0.500000 0.500000
O O8 0.267973 0.182455 0.232686
O O9 0.767974 0.232685 0.182456
O O10 0.746386 0.978505 0.293185
O O11 0.750000 0.988597 0.011403
O O12 0.000000 0.000000 0.500000
#
# Coordination Sequence:
#
# PCOD9017306 Si02
#       5
#     2   2   2   2   2
#     4  12  28  52  85 120 167 218 281 341 420 500
#     4  12  28  56  80 120 174 230 274 340 428 508
#     4  10  21  42  73 113 153 192 257 338 401 463
#     4  10  21  42  73 113 153 192 257 338 401 463
#     4  12  28  52  85 120 167 218 281 341 420 500
#
# _framework density 28.506879000000001
#
# number of rings (size 3 to 8) (size 9 to 14) (size 15 to 20)
#    0.000    0.800    4.000    3.600    0.000    4.800 
#    0.000    0.000    0.000    0.000    0.000    0.000 
#    0.000    0.000    0.000    0.000    0.000    0.000 
#
# Total GULP energy -55994.697080 kJ/mol
# GULP energy per Si atom -5599.469708 kJ/mol
# Density = 2.844200 g / cm^3
# Si number density = 28.506879 Si / 1000 Ang^3
#
#
#
# Elastic Constant Matrix: (Units=GPa)
#
#
# Indices 1 2 3 4 5 6 
#
# 1 217.9648 83.3276 81.1370 -8.0440 49.6537 41.3854
# 2 83.3276 170.7588 82.9844 -5.1218 10.8040 55.7878
# 3 81.1370 82.9844 158.7689 15.9966 49.1876 -0.4935
# 4 -8.0440 -5.1218 15.9966 88.0662 -13.5429 -3.6409
# 5 49.6537 10.8040 49.1876 -13.5429 69.4216 -1.1450
# 6 41.3854 55.7878 -0.4935 -3.6409 -1.1450 67.3259
#
#
#
# Elastic Compliance Matrix: (Units=1/GPa)
#
#
# Indices 1 2 3 4 5 6 
#
# 1 0.007307 -0.001159 -0.002052 0.000271 -0.003598 -0.003593
# 2 -0.001159 0.013673 -0.008380 0.002542 0.004962 -0.010457
# 3 -0.002052 -0.008380 0.014799 -0.004331 -0.008428 0.007936
# 4 0.000271 0.002542 -0.004331 0.013020 0.004994 -0.001516
# 5 -0.003598 0.004962 -0.008428 0.004994 0.023130 -0.001298
# 6 -0.003593 -0.010457 0.007936 -0.001516 -0.001298 0.025681
#
#
# Mechanical properties :
#
#
# Convention : Reuss Voigt Hill
#
# Bulk Modulus (GPa) = 79.38512 115.82117 97.60315
# Shear Modulus (GPa) = 40.00297 64.96563 52.48430
#
# Velocity S-wave (km/s) = 3.75009 4.77901 4.29547
# Velocity P-wave (km/s) = 6.83075 8.43619 7.67556
#
# Compressibility (1/GPa) = 0.01259682
#
# Stress axis : x y z
#
# Youngs Moduli (GPa) = 136.86259 73.13739 67.57046
#
# Poissons Ratio (x) = 0.08474 0.13866
# Poissons Ratio (y) = 0.15857 0.56626
# Poissons Ratio (z) = 0.28085 0.61291
#
# Static dielectric constant tensor:
#      x y z
#    x 3.120290 -0.411060 -0.560320 
#    y -0.411060 2.409420 0.331350 
#    z -0.560320 0.331350 2.590220 
# 
# From -- ./inp_files/129122.got.cif
#   From: 2010.05.17/outbox.cif.g08.bks.cpg/sg2_65_cif.got.tgz:129122.got - 2010.06.03 11:33:40.
