data_PCOD9017676
_publ_section_title
;
Structure prediction by ZEFSAII (Michael W. Deem and Ramdas Pophale) SiO2 
 PCOD9017676
Probable space group: P -1
;
_chemical_formula_sum "Si O2"
_cell_formula_units_Z 14
_cell_length_a 21.919541
_cell_length_b 9.603510
_cell_length_c 11.454625
_cell_angle_alpha 144.227595
_cell_angle_beta 39.667995
_cell_angle_gamma 154.179490
_cell_volume 606.528528
_symmetry_space_group_name_H-M "P -1"
_symmetry_group_IT_number 2
_symmetry_cell_setting 'triclinic'
loop_
_space_group_symop_operation_xyz
x,y,z
-x,-y,-z
loop_
_atom_site_type_symbol
_atom_site_label
_atom_site_fract_x
_atom_site_fract_y
_atom_site_fract_z
Si Si1 0.926895 0.387058 0.906656
Si Si2 0.341535 0.462188 0.255585
Si Si3 0.113762 0.500937 0.353353
Si Si4 0.239963 0.586815 0.982609
Si Si5 0.897594 0.653104 0.495103
Si Si6 0.352697 0.275160 0.627864
Si Si7 0.511595 0.426772 0.122743
O O1 0.860617 0.505819 0.035535
O O2 0.044547 0.504008 0.722958
O O3 0.789342 0.962790 0.828683
O O4 0.000000 0.500000 0.000000
O O5 0.262437 0.569320 0.453938
O O6 0.451207 0.570733 0.264918
O O7 0.413379 0.556714 0.088174
O O8 0.157188 0.464151 0.142971
O O9 0.073468 0.245759 0.342542
O O10 0.000000 0.500000 0.500000
O O11 0.249133 0.877652 0.468745
O O12 0.378690 0.013893 0.073217
O O13 0.288150 0.407122 0.772469
O O14 0.000000 0.000000 0.500000
O O15 0.500000 0.500000 0.500000
O O16 0.385336 0.354640 0.771209
#
# Coordination Sequence:
#
# PCOD9017676 Si02
#       7
#     2   2   2   2   2   2   2
#     4  10  22  40  63  97 133 176 227 282 347 412
#     4   9  21  38  68  90 129 184 221 282 348 398
#     4  12  26  46  73 103 140 184 235 285 354 411
#     4  11  24  46  68  97 145 178 229 297 341 408
#     4  10  22  42  67  95 133 180 225 281 342 410
#     4  12  27  41  72 103 137 185 233 279 350 420
#     4  10  21  43  65  97 137 179 231 284 345 408
#
# _framework density 23.082179
#
# number of rings (size 3 to 8) (size 9 to 14) (size 15 to 20)
#    0.000    1.429    2.857    1.286    4.000    4.000 
#    0.000    0.714    0.000    0.000    0.000    0.000 
#    0.000    0.000    0.000    0.000    0.000    0.000 
#
# Total GULP energy -78318.267534 kJ/mol
# GULP energy per Si atom -5594.161967 kJ/mol
# Density = 2.302964 g / cm^3
# Si number density = 23.082179 Si / 1000 Ang^3
#
#
#
# Elastic Constant Matrix: (Units=GPa)
#
#
# Indices 1 2 3 4 5 6 
#
# 1 170.2926 35.5343 44.6202 -1.0158 -18.6492 -1.4172
# 2 35.5343 73.7269 24.8767 -16.1964 4.5703 -3.5024
# 3 44.6202 24.8767 76.0030 -21.1801 -27.4525 -3.5916
# 4 -1.0158 -16.1964 -21.1801 42.8202 8.7188 8.3508
# 5 -18.6492 4.5703 -27.4525 8.7188 46.3193 -4.6755
# 6 -1.4172 -3.5024 -3.5916 8.3508 -4.6755 40.7413
#
#
#
# Elastic Compliance Matrix: (Units=1/GPa)
#
#
# Indices 1 2 3 4 5 6 
#
# 1 0.007725 -0.003333 -0.003651 -0.003399 0.001974 0.000584
# 2 -0.003333 0.018705 -0.005231 0.006162 -0.007558 -0.001099
# 3 -0.003651 -0.005231 0.023168 0.006745 0.011651 0.001420
# 4 -0.003399 0.006162 0.006745 0.030976 -0.004400 -0.005848
# 5 0.001974 -0.007558 0.011651 -0.004400 0.031363 0.004947
# 6 0.000584 -0.001099 0.001420 -0.005848 0.004947 0.026363
#
#
# Mechanical properties :
#
#
# Convention : Reuss Voigt Hill
#
# Bulk Modulus (GPa) = 39.73093 58.89832 49.31462
# Shear Modulus (GPa) = 29.21962 40.30890 34.76426
#
# Velocity S-wave (km/s) = 3.56180 4.18343 3.88507
# Velocity P-wave (km/s) = 5.84512 6.99336 6.44486
#
# Compressibility (1/GPa) = 0.02516931
#
# Stress axis : x y z
#
# Youngs Moduli (GPa) = 129.44868 53.46254 43.16264
#
# Poissons Ratio (x) = 0.17817 0.15759
# Poissons Ratio (y) = 0.43141 0.22576
# Poissons Ratio (z) = 0.47263 0.27964
#
# Static dielectric constant tensor:
#      x y z
#    x 1.880460 -0.049170 -0.025400 
#    y -0.049170 1.915640 0.027350 
#    z -0.025400 0.027350 1.897660 
# 
# From -- ./inp_files/469651.got.cif
#   From: 2010.05.17/outbox.cif.g08.bks.cpg/sg2_235_cif.got.tgz:469651.got - 2010.06.03 11:33:40.
