data_PCOD9017892
_publ_section_title
;
Structure prediction by ZEFSAII (Michael W. Deem and Ramdas Pophale) SiO2 
 PCOD9017892
Probable space group: P -1
;
_chemical_formula_sum "Si O2"
_cell_formula_units_Z 16
_cell_length_a 10.607089
_cell_length_b 12.024730
_cell_length_c 7.650586
_cell_angle_alpha 80.354705
_cell_angle_beta 121.203697
_cell_angle_gamma 62.969764
_cell_volume 630.956147
_symmetry_space_group_name_H-M "P -1"
_symmetry_group_IT_number 2
_symmetry_cell_setting 'triclinic'
loop_
_space_group_symop_operation_xyz
x,y,z
-x,-y,-z
loop_
_atom_site_type_symbol
_atom_site_label
_atom_site_fract_x
_atom_site_fract_y
_atom_site_fract_z
Si Si1 0.872146 0.963404 0.344955
Si Si2 0.483948 0.081621 0.142418
Si Si3 0.109661 0.672696 0.746286
Si Si4 0.140096 0.326054 0.146906
Si Si5 0.221675 0.711797 0.145133
Si Si6 0.391653 0.378849 0.452731
Si Si7 0.179566 0.093843 0.044201
Si Si8 0.229999 0.405373 0.713237
O O1 0.006783 0.786110 0.485405
O O2 0.695399 0.028345 0.332517
O O3 0.805882 0.995022 0.088933
O O4 0.000000 0.000000 0.500000
O O5 0.401045 0.031009 0.235946
O O6 0.346511 0.250104 0.933689
O O7 0.500000 0.000000 0.000000
O O8 0.242490 0.509126 0.816467
O O9 0.936077 0.708678 0.733147
O O10 0.223989 0.705546 0.938219
O O11 0.339664 0.294734 0.321202
O O12 0.109620 0.260699 0.976369
O O13 0.000000 0.500000 0.000000
O O14 0.287528 0.548181 0.277832
O O15 0.382623 0.707122 0.354021
O O16 0.006780 0.859566 0.998519
O O17 0.317397 0.385007 0.591212
O O18 0.000000 0.500000 0.500000
#
# Coordination Sequence:
#
# PCOD9017892 Si02
#       8
#     2   2   2   2   2   2   2   2
#     4  11  26  47  69  95 141 182 224 288 348 401
#     4  10  23  42  67  98 135 178 224 272 336 409
#     4  11  23  41  69 100 134 173 235 279 336 407
#     4  11  20  38  65 100 134 174 218 283 336 399
#     4  10  23  41  59 100 142 174 217 286 338 412
#     4  11  22  36  63  97 141 172 218 277 352 386
#     4  10  21  43  67  88 130 178 226 266 330 409
#     4  12  22  38  72 104 128 175 231 284 332 393
#
# _framework density 25.358339000000001
#
# number of rings (size 3 to 8) (size 9 to 14) (size 15 to 20)
#    0.000    1.250    3.750    3.750    1.750    1.500 
#    2.250    5.000    0.000    0.000    0.000    0.000 
#    0.000    0.000    0.000    0.000    0.000    0.000 
#
# Total GULP energy -89124.064384 kJ/mol
# GULP energy per Si atom -5570.254024 kJ/mol
# Density = 2.530062 g / cm^3
# Si number density = 25.358339 Si / 1000 Ang^3
#
#
#
# Elastic Constant Matrix: (Units=GPa)
#
#
# Indices 1 2 3 4 5 6 
#
# 1 61.9021 9.3840 28.3866 1.8586 23.3093 1.9180
# 2 9.3840 110.7716 29.4834 5.2252 11.7366 12.6173
# 3 28.3866 29.4834 74.5783 7.7787 19.2900 16.9003
# 4 1.8586 5.2252 7.7787 45.1864 18.6319 4.3420
# 5 23.3093 11.7366 19.2900 18.6319 49.5116 5.7160
# 6 1.9180 12.6173 16.9003 4.3420 5.7160 36.3045
#
#
#
# Elastic Compliance Matrix: (Units=1/GPa)
#
#
# Indices 1 2 3 4 5 6 
#
# 1 0.023069 0.000561 -0.007579 0.004086 -0.009947 0.003192
# 2 0.000561 0.010250 -0.003586 0.000034 -0.001107 -0.001752
# 3 -0.007579 -0.003586 0.020009 -0.001156 -0.002112 -0.007197
# 4 0.004086 0.000034 -0.001156 0.027014 -0.011519 -0.001107
# 5 -0.009947 -0.001107 -0.002112 -0.011519 0.030476 -0.001528
# 6 0.003192 -0.001752 -0.007197 -0.001107 -0.001528 0.031708
#
#
# Mechanical properties :
#
#
# Convention : Reuss Voigt Hill
#
# Bulk Modulus (GPa) = 31.13389 42.41777 36.77583
# Shear Modulus (GPa) = 28.66313 38.20037 33.43175
#
# Velocity S-wave (km/s) = 3.36568 3.88548 3.63488
# Velocity P-wave (km/s) = 5.23526 6.07395 5.67013
#
# Compressibility (1/GPa) = 0.03211934
#
# Stress axis : x y z
#
# Youngs Moduli (GPa) = 43.34832 97.56339 49.97822
#
# Poissons Ratio (x) = -0.05469 0.37879
# Poissons Ratio (y) = -0.02430 0.17920
# Poissons Ratio (z) = 0.32854 0.34982
#
# Static dielectric constant tensor:
#      x y z
#    x 2.067720 -0.438400 -0.674050 
#    y -0.438400 0.838660 -1.997360 
#    z -0.674050 -1.997360 -1.211820 
# 
# From -- ./inp_files/262609.got.cif
#   From: 2010.05.17/outbox.cif.g08.bks.cpg/sg2_132_cif.got.tgz:262609.got - 2010.06.03 11:33:40.
