data_PCOD9017324
_publ_section_title
;
Structure prediction by ZEFSAII (Michael W. Deem and Ramdas Pophale) SiO2 
 PCOD9017324
Probable space group: P -1
;
_chemical_formula_sum "Si O2"
_cell_formula_units_Z 14
_cell_length_a 13.276575
_cell_length_b 12.587723
_cell_length_c 9.669347
_cell_angle_alpha 135.212090
_cell_angle_beta 36.623835
_cell_angle_gamma 143.940173
_cell_volume 558.843030
_symmetry_space_group_name_H-M "P -1"
_symmetry_group_IT_number 2
_symmetry_cell_setting 'triclinic'
loop_
_space_group_symop_operation_xyz
x,y,z
-x,-y,-z
loop_
_atom_site_type_symbol
_atom_site_label
_atom_site_fract_x
_atom_site_fract_y
_atom_site_fract_z
Si Si1 0.269214 0.324601 0.830992
Si Si2 0.319300 0.815680 0.098071
Si Si3 0.539433 0.729041 0.002297
Si Si4 0.629980 0.353782 0.364924
Si Si5 0.625934 0.907798 0.366268
Si Si6 0.970096 0.310915 0.317899
Si Si7 0.096484 0.265996 0.426759
O O1 0.428123 0.510197 0.913228
O O2 0.417916 0.343096 0.560050
O O3 0.218792 0.139087 0.785490
O O4 0.065023 0.319184 0.070276
O O5 0.408113 0.771126 0.089210
O O6 0.270120 0.665269 0.897746
O O7 0.135898 0.833474 0.358060
O O8 0.500000 0.000000 0.000000
O O9 0.770495 0.816723 0.773322
O O10 0.548629 0.795024 0.206607
O O11 0.549521 0.187069 0.409990
O O12 0.786358 0.540192 0.444270
O O13 0.747694 0.121140 0.397525
O O14 0.000000 0.500000 0.500000
O O15 0.093690 0.294193 0.291840
#
# Coordination Sequence:
#
# PCOD9017324 Si02
#       7
#     2   2   2   2   2   2   2
#     4   9  20  40  70  97 134 180 233 283 345 407
#     4  12  27  44  66 105 143 181 235 287 345 423
#     4  11  23  45  75  99 135 190 231 286 353 410
#     4   9  22  43  70  92 135 183 228 287 342 405
#     4  10  21  42  73  99 138 185 233 285 350 417
#     4  12  23  37  66 111 144 177 229 294 349 412
#     4  11  23  44  70  96 140 182 236 287 343 413
#
# _framework density 25.051759000000001
#
# number of rings (size 3 to 8) (size 9 to 14) (size 15 to 20)
#    0.857    0.571    1.429    3.857    0.000    4.000 
#    0.000    7.143    0.000    0.000    0.000    0.000 
#    0.000    0.000    0.000    0.000    0.000    0.000 
#
# Total GULP energy -78190.440279 kJ/mol
# GULP energy per Si atom -5585.031448 kJ/mol
# Density = 2.499474 g / cm^3
# Si number density = 25.051759 Si / 1000 Ang^3
#
#
#
# Elastic Constant Matrix: (Units=GPa)
#
#
# Indices 1 2 3 4 5 6 
#
# 1 43.6402 11.0397 25.8039 -5.1339 10.0660 1.6263
# 2 11.0397 98.9829 20.8650 0.1651 -8.7155 -10.8783
# 3 25.8039 20.8650 160.5320 -18.0853 -11.3400 -3.3475
# 4 -5.1339 0.1651 -18.0853 43.7755 8.4474 2.6643
# 5 10.0660 -8.7155 -11.3400 8.4474 42.7542 2.3410
# 6 1.6263 -10.8783 -3.3475 2.6643 2.3410 18.9324
#
#
#
# Elastic Compliance Matrix: (Units=1/GPa)
#
#
# Indices 1 2 3 4 5 6 
#
# 1 0.029306 -0.003655 -0.004583 0.003647 -0.009319 -0.004789
# 2 -0.003655 0.011687 -0.000779 -0.001789 0.003019 0.006770
# 3 -0.004583 -0.000779 0.007485 0.002041 0.002465 0.000678
# 4 0.003647 -0.001789 0.002041 0.025417 -0.005492 -0.003878
# 5 -0.009319 0.003019 0.002465 -0.005492 0.027922 0.000292
# 6 -0.004789 0.006770 0.000678 -0.003878 0.000292 0.057751
#
#
# Mechanical properties :
#
#
# Convention : Reuss Voigt Hill
#
# Bulk Modulus (GPa) = 32.84584 46.50802 39.67693
# Shear Modulus (GPa) = 26.63099 37.45551 32.04325
#
# Velocity S-wave (km/s) = 3.26396 3.87088 3.58031
# Velocity P-wave (km/s) = 5.22918 6.21155 5.74141
#
# Compressibility (1/GPa) = 0.03044526
#
# Stress axis : x y z
#
# Youngs Moduli (GPa) = 34.12249 85.56164 133.59449
#
# Poissons Ratio (x) = 0.31277 0.61224
# Poissons Ratio (y) = 0.12473 0.10402
# Poissons Ratio (z) = 0.15638 0.06662
#
# Static dielectric constant tensor:
#      x y z
#    x 2.015020 0.027100 -0.063820 
#    y 0.027100 1.981180 -0.006530 
#    z -0.063820 -0.006530 2.078300 
# 
# From -- ./inp_files/465612.got.cif
#   From: 2010.05.17/outbox.cif.g08.bks.cpg/sg2_233_cif.got.tgz:465612.got - 2010.06.03 11:33:40.
