data_PCOD9017311
_publ_section_title
;
Structure prediction by ZEFSAII (Michael W. Deem and Ramdas Pophale) SiO2 
 PCOD9017311
Probable space group: P -1
;
_chemical_formula_sum "Si O2"
_cell_formula_units_Z 16
_cell_length_a 7.964180
_cell_length_b 12.091451
_cell_length_c 9.552782
_cell_angle_alpha 45.729980
_cell_angle_beta 81.809822
_cell_angle_gamma 82.382948
_cell_volume 651.284832
_symmetry_space_group_name_H-M "P -1"
_symmetry_group_IT_number 2
_symmetry_cell_setting 'triclinic'
loop_
_space_group_symop_operation_xyz
x,y,z
-x,-y,-z
loop_
_atom_site_type_symbol
_atom_site_label
_atom_site_fract_x
_atom_site_fract_y
_atom_site_fract_z
Si Si1 0.038318 0.154154 0.781390
Si Si2 0.330605 0.346226 0.668419
Si Si3 0.763243 0.502091 0.740247
Si Si4 0.555931 0.219338 0.977417
Si Si5 0.074175 0.823825 0.674499
Si Si6 0.291458 0.282492 0.192257
Si Si7 0.142609 0.622591 0.575239
Si Si8 0.292407 0.019722 0.647561
O O1 0.163064 0.248122 0.778483
O O2 0.879571 0.257815 0.655788
O O3 0.137721 0.111174 0.663498
O O4 0.000000 0.000000 0.000000
O O5 0.334132 0.401752 0.457878
O O6 0.291410 0.499118 0.630555
O O7 0.481781 0.244827 0.808861
O O8 0.707935 0.570108 0.837078
O O9 0.962476 0.536647 0.672654
O O10 0.714389 0.327426 0.881029
O O11 0.411684 0.285419 0.043434
O O12 0.590693 0.044536 0.182641
O O13 0.150122 0.722483 0.626821
O O14 0.225001 0.864673 0.723065
O O15 0.903725 0.739875 0.813122
O O16 0.000000 0.000000 0.500000
O O17 0.347135 0.135637 0.416856
#
# Coordination Sequence:
#
# PCOD9017311 Si02
#       8
#     2   2   2   2   2   2   2   2
#     4  11  23  40  71 100 124 167 224 274 326 382
#     4  11  25  45  64  98 135 170 218 268 328 388
#     4  10  21  45  64  91 132 173 215 267 324 381
#     4  12  27  37  64  96 135 178 216 257 319 407
#     4   9  18  39  69  94 121 160 213 270 325 371
#     4  10  21  44  66  92 131 170 219 271 323 380
#     4  10  21  42  73  93 126 168 214 282 323 373
#     4  11  23  43  67  95 134 169 212 277 329 379
#
# _framework density 24.566822999999999
#
# number of rings (size 3 to 8) (size 9 to 14) (size 15 to 20)
#    0.000    1.500    5.000    2.625    5.250    2.500 
#    0.000    2.500    0.000    0.000    0.000    0.000 
#    0.000    0.000    0.000    0.000    0.000    0.000 
#
# Total GULP energy -89493.411018 kJ/mol
# GULP energy per Si atom -5593.338189 kJ/mol
# Density = 2.451091 g / cm^3
# Si number density = 24.566823 Si / 1000 Ang^3
#
#
#
# Elastic Constant Matrix: (Units=GPa)
#
#
# Indices 1 2 3 4 5 6 
#
# 1 38.1324 21.2136 4.6282 6.8392 5.0434 4.0811
# 2 21.2136 111.0660 -7.2174 10.7233 -13.3840 15.8270
# 3 4.6282 -7.2174 97.3823 -6.3125 6.1448 16.3428
# 4 6.8392 10.7233 -6.3125 25.8418 -4.1972 -6.1340
# 5 5.0434 -13.3840 6.1448 -4.1972 37.3484 10.0942
# 6 4.0811 15.8270 16.3428 -6.1340 10.0942 15.3692
#
#
#
# Elastic Compliance Matrix: (Units=1/GPa)
#
#
# Indices 1 2 3 4 5 6 
#
# 1 0.032545 -0.007718 -0.002934 -0.006197 -0.008950 0.005831
# 2 -0.007718 0.020199 0.007118 -0.011859 0.017228 -0.042368
# 3 -0.002934 0.007118 0.015118 -0.004201 0.007971 -0.029539
# 4 -0.006197 -0.011859 -0.004201 0.053600 -0.009037 0.045653
# 5 -0.008950 0.017228 0.007971 -0.009037 0.047719 -0.058788
# 6 0.005831 -0.042368 -0.029539 0.045653 -0.058788 0.195388
#
#
# Mechanical properties :
#
#
# Convention : Reuss Voigt Hill
#
# Bulk Modulus (GPa) = 16.44904 31.53661 23.99283
# Shear Modulus (GPa) = 12.75830 30.90896 21.83363
#
# Velocity S-wave (km/s) = 2.28135 3.55090 2.98442
# Velocity P-wave (km/s) = 3.69454 5.44764 4.65437
#
# Compressibility (1/GPa) = 0.06079383
#
# Stress axis : x y z
#
# Youngs Moduli (GPa) = 30.72640 49.50769 66.14749
#
# Poissons Ratio (x) = 0.38210 0.19410
# Poissons Ratio (y) = 0.23715 -0.47086
# Poissons Ratio (z) = 0.09016 -0.35241
#
# Static dielectric constant tensor:
#      x y z
#    x 2.003980 -0.006250 0.025740 
#    y -0.006250 1.941430 0.021310 
#    z 0.025740 0.021310 2.004220 
# 
# From -- ./inp_files/184238.got.cif
#   From: 2010.05.17/outbox.cif.g08.bks.cpg/sg2_93_cif.got.tgz:184238.got - 2010.06.03 11:33:40.
