data_PCOD9017297
_publ_section_title
;
Structure prediction by ZEFSAII (Michael W. Deem and Ramdas Pophale) SiO2 
 PCOD9017297
Probable space group: P -1
;
_chemical_formula_sum "Si O2"
_cell_formula_units_Z 15
_cell_length_a 11.472425
_cell_length_b 8.496027
_cell_length_c 10.990496
_cell_angle_alpha 112.423469
_cell_angle_beta 123.179266
_cell_angle_gamma 41.997874
_cell_volume 599.301227
_symmetry_space_group_name_H-M "P -1"
_symmetry_group_IT_number 2
_symmetry_cell_setting 'triclinic'
loop_
_space_group_symop_operation_xyz
x,y,z
-x,-y,-z
loop_
_atom_site_type_symbol
_atom_site_label
_atom_site_fract_x
_atom_site_fract_y
_atom_site_fract_z
Si Si1 0.640210 0.489159 0.490668
Si Si2 0.955566 0.887947 0.846798
Si Si3 0.774019 0.819568 0.355543
Si Si4 0.652752 0.217537 0.231217
Si Si5 0.051883 0.826365 0.240771
Si Si6 0.000000 0.500000 0.000000
Si Si7 0.296555 0.364764 0.929739
Si Si8 0.200092 0.300153 0.389607
O O1 0.500000 0.500000 0.500000
O O2 0.621203 0.432301 0.328247
O O3 0.849550 0.272585 0.602635
O O4 0.643887 0.690282 0.553719
O O5 0.827173 0.823639 0.765804
O O6 0.162756 0.624708 0.872480
O O7 0.861169 0.079260 0.743856
O O8 0.000000 0.000000 0.000000
O O9 0.639485 0.805064 0.196787
O O10 0.757689 0.815720 0.489056
O O11 0.991717 0.569849 0.372170
O O12 0.718314 0.047633 0.334290
O O13 0.467305 0.298804 0.085027
O O14 0.828897 0.058072 0.193041
O O15 0.072583 0.633684 0.121836
O O16 0.163203 0.363597 0.943197
#
# Coordination Sequence:
#
# PCOD9017297 Si02
#       8
#     2   2   2   2   2   1   2   2
#     4  12  27  47  70 105 147 189 241 304 362 434
#     4  11  24  44  74 103 143 188 240 294 370 437
#     4  10  21  42  73 106 141 184 243 297 357 426
#     4  12  25  43  71 104 145 189 249 293 362 437
#     4  12  25  44  73 103 140 196 237 297 369 429
#     4  12  22  44  72 102 146 186 238 300 360 424
#     4  11  24  44  67 108 144 190 240 304 354 432
#     4  10  23  45  72 105 140 190 240 301 361 424
#
# _framework density 25.029147999999999
#
# number of rings (size 3 to 8) (size 9 to 14) (size 15 to 20)
#    0.000    0.800    4.000    3.200    5.600    0.533 
#    0.000    4.000    0.000    0.000    0.000    0.000 
#    0.000    0.000    0.000    0.000    0.000    0.000 
#
# Total GULP energy -83606.226930 kJ/mol
# GULP energy per Si atom -5573.748462 kJ/mol
# Density = 2.497218 g / cm^3
# Si number density = 25.029148 Si / 1000 Ang^3
#
#
#
# Elastic Constant Matrix: (Units=GPa)
#
#
# Indices 1 2 3 4 5 6 
#
# 1 72.1781 15.2980 42.1677 11.2475 35.5402 14.5775
# 2 15.2980 60.9329 37.3329 14.7338 22.6088 10.4055
# 3 42.1677 37.3329 145.1638 24.4254 29.3474 11.1805
# 4 11.2475 14.7338 24.4254 49.4039 13.1706 4.8240
# 5 35.5402 22.6088 29.3474 13.1706 33.2099 10.5669
# 6 14.5775 10.4055 11.1805 4.8240 10.5669 37.6716
#
#
#
# Elastic Compliance Matrix: (Units=1/GPa)
#
#
# Indices 1 2 3 4 5 6 
#
# 1 0.033358 0.008152 -0.004398 0.002412 -0.037126 -0.003750
# 2 0.008152 0.025570 -0.004247 -0.001542 -0.020840 -0.002914
# 3 -0.004398 -0.004247 0.009668 -0.002532 -0.000051 0.000344
# 4 0.002412 -0.001542 -0.002532 0.023729 -0.008582 -0.000388
# 5 -0.037126 -0.020840 -0.000051 -0.008582 0.088632 -0.003624
# 6 -0.003750 -0.002914 0.000344 -0.000388 -0.003624 0.029765
#
#
# Mechanical properties :
#
#
# Convention : Reuss Voigt Hill
#
# Bulk Modulus (GPa) = 14.79065 51.98577 33.38821
# Shear Modulus (GPa) = 21.34510 36.28883 28.81697
#
# Velocity S-wave (km/s) = 2.92346 3.81184 3.39682
# Velocity P-wave (km/s) = 4.16145 6.33945 5.36220
#
# Compressibility (1/GPa) = 0.06761026
#
# Stress axis : x y z
#
# Youngs Moduli (GPa) = 29.97768 39.10865 103.42872
#
# Poissons Ratio (x) = -0.31881 0.45487
# Poissons Ratio (y) = -0.24437 0.43926
# Poissons Ratio (z) = 0.13184 0.16609
#
# Static dielectric constant tensor:
#      x y z
#    x 2.053880 0.047020 -0.037790 
#    y 0.047020 1.900860 -0.039050 
#    z -0.037790 -0.039050 2.023060 
# 
# From -- ./inp_files/419791.got.cif
#   From: 2010.05.17/outbox.cif.g08.bks.cpg/sg2_210_cif.got.tgz:419791.got - 2010.06.03 11:33:40.
