data_PCOD9017588
_publ_section_title
;
Structure prediction by ZEFSAII (Michael W. Deem and Ramdas Pophale) SiO2 
 PCOD9017588
Probable space group: P -1
;
_chemical_formula_sum "Si O2"
_cell_formula_units_Z 14
_cell_length_a 13.810463
_cell_length_b 10.825328
_cell_length_c 18.571070
_cell_angle_alpha 145.057635
_cell_angle_beta 21.717155
_cell_angle_gamma 134.340065
_cell_volume 562.134736
_symmetry_space_group_name_H-M "P -1"
_symmetry_group_IT_number 2
_symmetry_cell_setting 'triclinic'
loop_
_space_group_symop_operation_xyz
x,y,z
-x,-y,-z
loop_
_atom_site_type_symbol
_atom_site_label
_atom_site_fract_x
_atom_site_fract_y
_atom_site_fract_z
Si Si1 0.180523 0.410423 0.248689
Si Si2 0.839735 0.827268 0.500941
Si Si3 0.619555 0.746152 0.769495
Si Si4 0.300532 0.518467 0.793968
Si Si5 0.658470 0.024002 0.327307
Si Si6 0.259241 0.941797 0.928188
Si Si7 0.311701 0.418100 0.990231
O O1 0.429197 0.485918 0.145062
O O2 0.886539 0.589984 0.550622
O O3 0.233100 0.407363 0.123680
O O4 0.192249 0.151940 0.131335
O O5 0.721512 0.766684 0.628165
O O6 0.574312 0.923894 0.680281
O O7 0.000000 0.000000 0.500000
O O8 0.057237 0.600807 0.215920
O O9 0.395907 0.616211 0.848061
O O10 0.500000 0.000000 0.000000
O O11 0.513934 0.274102 0.517131
O O12 0.284977 0.699331 0.828624
O O13 0.000000 0.500000 0.000000
O O14 0.500000 0.000000 0.500000
O O15 0.630574 0.822777 0.200707
O O16 0.981750 0.997193 0.100292
#
# Coordination Sequence:
#
# PCOD9017588 Si02
#       7
#     2   2   2   2   2   2   2
#     4  10  21  46  70 100 138 179 240 291 350 413
#     4  10  21  43  65 100 139 174 236 289 343 416
#     4  10  23  40  69 100 133 180 238 291 345 412
#     4  11  24  45  63  99 145 179 231 285 347 427
#     4  12  26  47  69 101 144 185 235 289 359 424
#     4  11  23  45  70  99 140 185 232 290 349 421
#     4  10  24  43  71 100 137 188 231 291 351 419
#
# _framework density 24.905061
#
# number of rings (size 3 to 8) (size 9 to 14) (size 15 to 20)
#    0.000    1.429    4.286    0.000    2.000    2.286 
#    2.571    3.571    0.000    0.000    0.000    0.000 
#    0.000    0.000    0.000    0.000    0.000    0.000 
#
# Total GULP energy -78378.064498 kJ/mol
# GULP energy per Si atom -5598.433178 kJ/mol
# Density = 2.484838 g / cm^3
# Si number density = 24.905061 Si / 1000 Ang^3
#
#
#
# Elastic Constant Matrix: (Units=GPa)
#
#
# Indices 1 2 3 4 5 6 
#
# 1 85.1684 43.1530 84.4016 0.4423 -12.1527 26.9037
# 2 43.1530 147.3859 86.2794 15.6623 -13.3388 37.9025
# 3 84.4016 86.2794 217.4644 36.1213 -40.5076 26.9672
# 4 0.4423 15.6623 36.1213 66.5231 3.2600 1.6478
# 5 -12.1527 -13.3388 -40.5076 3.2600 58.4427 -3.4731
# 6 26.9037 37.9025 26.9672 1.6478 -3.4731 53.5003
#
#
#
# Elastic Compliance Matrix: (Units=1/GPa)
#
#
# Indices 1 2 3 4 5 6 
#
# 1 0.022824 -0.000280 -0.009193 0.005195 -0.002393 -0.006961
# 2 -0.000280 0.010184 -0.003222 -0.000498 -0.000263 -0.005452
# 3 -0.009193 -0.003222 0.011172 -0.005561 0.005514 0.001804
# 4 0.005195 -0.000498 -0.005561 0.018334 -0.003927 -0.000276
# 5 -0.002393 -0.000263 0.005514 -0.003927 0.020598 0.000069
# 6 -0.006961 -0.005452 0.001804 -0.000276 0.000069 0.025158
#
#
# Mechanical properties :
#
#
# Convention : Reuss Voigt Hill
#
# Bulk Modulus (GPa) = 53.21866 97.52073 75.36969
# Shear Modulus (GPa) = 35.73392 51.43885 43.58638
#
# Velocity S-wave (km/s) = 3.79199 4.54959 4.18796
# Velocity P-wave (km/s) = 6.37081 8.17560 7.32897
#
# Compressibility (1/GPa) = 0.01879040
#
# Stress axis : x y z
#
# Youngs Moduli (GPa) = 43.81440 98.19028 89.50996
#
# Poissons Ratio (x) = 0.02746 0.82284
# Poissons Ratio (y) = 0.01225 0.28843
# Poissons Ratio (z) = 0.40278 0.31640
#
# Static dielectric constant tensor:
#      x y z
#    x 2.117170 -0.058240 -0.011970 
#    y -0.058240 1.931930 -0.012750 
#    z -0.011970 -0.012750 1.957330 
# 
# From -- ./inp_files/598011.got.cif
#   From: 2010.05.17/outbox.cif.g08.bks.cpg/sg2_300_cif.got.tgz:598011.got - 2010.06.03 11:33:40.
