data_PCOD9017955
_publ_section_title
;
Structure prediction by ZEFSAII (Michael W. Deem and Ramdas Pophale) SiO2 
 PCOD9017955
Probable space group: P -1
;
_chemical_formula_sum "Si O2"
_cell_formula_units_Z 14
_cell_length_a 14.170801
_cell_length_b 16.440305
_cell_length_c 11.573547
_cell_angle_alpha 160.071290
_cell_angle_beta 40.056266
_cell_angle_gamma 141.031854
_cell_volume 570.449870
_symmetry_space_group_name_H-M "P -1"
_symmetry_group_IT_number 2
_symmetry_cell_setting 'triclinic'
loop_
_space_group_symop_operation_xyz
x,y,z
-x,-y,-z
loop_
_atom_site_type_symbol
_atom_site_label
_atom_site_fract_x
_atom_site_fract_y
_atom_site_fract_z
Si Si1 0.373816 0.601721 0.893723
Si Si2 0.079988 0.485684 0.282297
Si Si3 0.678598 0.793695 0.383346
Si Si4 0.870087 0.141862 0.846211
Si Si5 0.292744 0.202909 0.266876
Si Si6 0.604689 0.918865 0.391020
Si Si7 0.168514 0.039102 0.931165
O O1 0.386404 0.413230 0.733518
O O2 0.276388 0.434656 0.664548
O O3 0.537326 0.733002 0.859104
O O4 0.303843 0.814884 0.288087
O O5 0.000000 0.500000 0.500000
O O6 0.189627 0.762561 0.544567
O O7 0.182851 0.292777 0.921303
O O8 0.966448 0.398749 0.160908
O O9 0.560290 0.785917 0.378268
O O10 0.751877 0.052718 0.729481
O O11 0.760173 0.021281 0.894726
O O12 0.000000 0.000000 0.500000
O O13 0.186985 0.151512 0.188778
O O14 0.712706 0.800974 0.056190
O O15 0.500000 0.000000 0.500000
O O16 0.000000 0.000000 0.000000
#
# Coordination Sequence:
#
# PCOD9017955 Si02
#       7
#     2   2   2   2   2   2   2
#     4  10  22  45  70  96 134 182 223 285 339 410
#     4  11  20  39  66  98 139 176 221 279 346 405
#     4  10  23  43  67 100 133 179 233 276 343 408
#     4   9  20  38  67  98 135 178 220 280 337 415
#     4  10  21  43  67  95 142 174 225 281 341 406
#     4  12  25  45  69  99 139 182 232 286 340 407
#     4  12  25  41  64 104 142 178 227 287 340 406
#
# _framework density 24.542034000000001
#
# number of rings (size 3 to 8) (size 9 to 14) (size 15 to 20)
#    0.000    1.429    4.286    0.857    2.000    1.714 
#    0.000    9.286    0.000    0.000    0.000    0.000 
#    0.000    0.000    0.000    0.000    0.000    0.000 
#
# Total GULP energy -77987.585065 kJ/mol
# GULP energy per Si atom -5570.541790 kJ/mol
# Density = 2.448618 g / cm^3
# Si number density = 24.542034 Si / 1000 Ang^3
#
#
#
# Elastic Constant Matrix: (Units=GPa)
#
#
# Indices 1 2 3 4 5 6 
#
# 1 151.0329 29.1670 40.5836 -3.8632 50.8713 -19.6593
# 2 29.1670 104.2099 9.2249 -15.2260 16.4230 -19.7681
# 3 40.5836 9.2249 70.2679 -6.9749 29.8185 -14.1015
# 4 -3.8632 -15.2260 -6.9749 37.9384 -4.4448 11.0122
# 5 50.8713 16.4230 29.8185 -4.4448 38.1566 -4.0102
# 6 -19.6593 -19.7681 -14.1015 11.0122 -4.0102 38.3111
#
#
#
# Elastic Compliance Matrix: (Units=1/GPa)
#
#
# Indices 1 2 3 4 5 6 
#
# 1 0.013074 -0.000193 0.000927 -0.002326 -0.017738 0.005763
# 2 -0.000193 0.011805 0.002396 0.002903 -0.005787 0.005434
# 3 0.000927 0.002396 0.023397 0.000718 -0.019620 0.008064
# 4 -0.002326 0.002903 0.000718 0.030113 0.003992 -0.007669
# 5 -0.017738 -0.005787 -0.019620 0.003992 0.066728 -0.013472
# 6 0.005763 0.005434 0.008064 -0.007669 -0.013472 0.035625
#
#
# Mechanical properties :
#
#
# Convention : Reuss Voigt Hill
#
# Bulk Modulus (GPa) = 18.33656 53.71796 36.02726
# Shear Modulus (GPa) = 25.95240 39.31690 32.63465
#
# Velocity S-wave (km/s) = 3.25540 4.00687 3.65052
# Velocity P-wave (km/s) = 4.64950 6.58349 5.69913
#
# Compressibility (1/GPa) = 0.05453585
#
# Stress axis : x y z
#
# Youngs Moduli (GPa) = 76.48614 84.71075 42.74113
#
# Poissons Ratio (x) = 0.01633 -0.03961
# Poissons Ratio (y) = 0.01474 -0.10241
# Poissons Ratio (z) = -0.07088 -0.20297
#
# Static dielectric constant tensor:
#      x y z
#    x 13.210500 -6.528490 -11.734280 
#    y -6.528490 5.777020 6.819720 
#    z -11.734280 6.819720 14.177210 
# 
# From -- ./inp_files/456871.got.cif
#   From: 2010.05.17/outbox.cif.g08.bks.cpg/sg2_229_cif.got.tgz:456871.got - 2010.06.03 11:33:40.
