data_PCOD9017772
_publ_section_title
;
Structure prediction by ZEFSAII (Michael W. Deem and Ramdas Pophale) SiO2 
 PCOD9017772
Probable space group: P -1
;
_chemical_formula_sum "Si O2"
_cell_formula_units_Z 16
_cell_length_a 7.751047
_cell_length_b 11.422013
_cell_length_c 8.107008
_cell_angle_alpha 91.905528
_cell_angle_beta 82.555629
_cell_angle_gamma 115.408248
_cell_volume 642.645763
_symmetry_space_group_name_H-M "P -1"
_symmetry_group_IT_number 2
_symmetry_cell_setting 'triclinic'
loop_
_space_group_symop_operation_xyz
x,y,z
-x,-y,-z
loop_
_atom_site_type_symbol
_atom_site_label
_atom_site_fract_x
_atom_site_fract_y
_atom_site_fract_z
Si Si1 0.316763 0.097759 0.684561
Si Si2 0.145670 0.831944 0.775442
Si Si3 0.655151 0.350094 0.795071
Si Si4 0.773305 0.852991 0.674418
Si Si5 0.190579 0.592211 0.875631
Si Si6 0.627603 0.572970 0.642605
Si Si7 0.943173 0.628910 0.351465
Si Si8 0.946070 0.108371 0.846284
O O1 0.504684 0.222217 0.718673
O O2 0.248099 0.111654 0.509931
O O3 0.147174 0.095307 0.827174
O O4 0.327695 0.960961 0.698773
O O5 0.165678 0.698245 0.767020
O O6 0.971587 0.842719 0.696971
O O7 0.106635 0.849784 0.972675
O O8 0.603044 0.470590 0.781743
O O9 0.859995 0.386913 0.682540
O O10 0.670093 0.333576 0.987532
O O11 0.616014 0.704472 0.705964
O O12 0.786084 0.972782 0.790159
O O13 0.207481 0.482336 0.755222
O O14 0.000000 0.500000 0.000000
O O15 0.500000 0.500000 0.500000
O O16 0.838782 0.616355 0.535606
O O17 0.006013 0.771965 0.277561
#
# Coordination Sequence:
#
# PCOD9017772 Si02
#       8
#     2   2   2   2   2   2   2   2
#     4  11  23  41  64  97 133 165 219 269 319 380
#     4  11  22  41  70  94 127 176 217 267 318 382
#     4  11  23  44  65  95 135 169 212 271 321 391
#     4  11  22  40  67  91 133 164 218 264 324 372
#     4  10  21  43  66  93 131 172 217 258 326 383
#     4  12  24  44  67  96 130 167 218 271 319 381
#     4  11  23  43  68  92 131 171 218 260 329 388
#     4  11  21  42  66  96 124 172 218 265 320 383
#
# _framework density 24.897075000000001
#
# number of rings (size 3 to 8) (size 9 to 14) (size 15 to 20)
#    0.000    1.000    5.000    4.875    0.000    0.500 
#    4.500    1.875    0.000    0.000    0.000    0.000 
#    0.000    0.000    0.000    0.000    0.000    0.000 
#
# Total GULP energy -89490.871830 kJ/mol
# GULP energy per Si atom -5593.179489 kJ/mol
# Density = 2.484041 g / cm^3
# Si number density = 24.897075 Si / 1000 Ang^3
#
#
#
# Elastic Constant Matrix: (Units=GPa)
#
#
# Indices 1 2 3 4 5 6 
#
# 1 52.6550 23.6835 32.1937 4.3461 4.7936 -1.7056
# 2 23.6835 194.2402 33.4198 -1.6295 28.6872 -12.5899
# 3 32.1937 33.4198 100.8529 11.6278 16.3273 8.1621
# 4 4.3461 -1.6295 11.6278 55.9424 -5.1736 14.3000
# 5 4.7936 28.6872 16.3273 -5.1736 36.5355 -0.3344
# 6 -1.7056 -12.5899 8.1621 14.3000 -0.3344 35.1951
#
#
#
# Elastic Compliance Matrix: (Units=1/GPa)
#
#
# Indices 1 2 3 4 5 6 
#
# 1 0.024429 -0.001717 -0.007571 -0.000938 0.001418 0.002720
# 2 -0.001717 0.006336 -0.000993 -0.000541 -0.004359 0.002592
# 3 -0.007571 -0.000993 0.013915 -0.001954 -0.004751 -0.003200
# 4 -0.000938 -0.000541 -0.001954 0.020835 0.004297 -0.008210
# 5 0.001418 -0.004359 -0.004751 0.004297 0.033322 -0.001818
# 6 0.002720 0.002592 -0.003200 -0.008210 -0.001818 0.033533
#
#
# Mechanical properties :
#
#
# Convention : Reuss Voigt Hill
#
# Bulk Modulus (GPa) = 41.46324 58.48244 49.97284
# Shear Modulus (GPa) = 31.06161 42.76466 36.91314
#
# Velocity S-wave (km/s) = 3.53597 4.14896 3.85467
# Velocity P-wave (km/s) = 5.77588 6.81854 6.31875
#
# Compressibility (1/GPa) = 0.02411775
#
# Stress axis : x y z
#
# Youngs Moduli (GPa) = 40.93480 157.83677 71.86639
#
# Poissons Ratio (x) = 0.27102 0.54408
# Poissons Ratio (y) = 0.07029 0.07137
# Poissons Ratio (z) = 0.30990 0.15675
#
# Static dielectric constant tensor:
#      x y z
#    x 2.076290 0.024380 -0.033420 
#    y 0.024380 2.059740 -0.005660 
#    z -0.033420 -0.005660 1.954660 
# 
# From -- ./inp_files/179259.got.cif
#   From: 2010.05.17/outbox.cif.g08.bks.cpg/sg2_90_cif.got.tgz:179259.got - 2010.06.03 11:33:40.
