data_PCOD9017336
_publ_section_title
;
Structure prediction by ZEFSAII (Michael W. Deem and Ramdas Pophale) SiO2 
 PCOD9017336
Probable space group: P -1
;
_chemical_formula_sum "Si O2"
_cell_formula_units_Z 12
_cell_length_a 5.154762
_cell_length_b 9.379487
_cell_length_c 12.461890
_cell_angle_alpha 112.673683
_cell_angle_beta 119.150156
_cell_angle_gamma 74.794927
_cell_volume 483.461086
_symmetry_space_group_name_H-M "P -1"
_symmetry_group_IT_number 2
_symmetry_cell_setting 'triclinic'
loop_
_space_group_symop_operation_xyz
x,y,z
-x,-y,-z
loop_
_atom_site_type_symbol
_atom_site_label
_atom_site_fract_x
_atom_site_fract_y
_atom_site_fract_z
Si Si1 0.714447 0.346782 0.501068
Si Si2 0.071251 0.494677 0.787464
Si Si3 0.753641 0.022883 0.364569
Si Si4 0.825041 0.237269 0.271699
Si Si5 0.458754 0.748270 0.125228
Si Si6 0.787205 0.707672 0.951521
O O1 0.500000 0.500000 0.500000
O O2 0.570469 0.183191 0.415952
O O3 0.879836 0.339363 0.418027
O O4 0.913272 0.368240 0.650880
O O5 0.058531 0.658638 0.769344
O O6 0.406325 0.418078 0.848153
O O7 0.903709 0.538245 0.876780
O O8 0.899028 0.069113 0.292548
O O9 0.565693 0.881529 0.261587
O O10 0.000000 0.000000 0.500000
O O11 0.475726 0.232098 0.166774
O O12 0.629866 0.740849 0.043558
O O13 0.106993 0.777226 0.043085
#
# Coordination Sequence:
#
# PCOD9017336 Si02
#       6
#     2   2   2   2   2   2
#     4  10  21  42  74 104 143 190 251 299 366 426
#     4  12  22  45  74 105 148 191 254 297 362 437
#     4  10  23  50  72 109 146 193 246 311 370 428
#     4  10  24  42  70 108 144 190 246 293 371 430
#     4  12  27  46  74 107 152 192 243 303 365 438
#     4  12  26  45  73 109 150 196 242 295 369 443
#
# _framework density 24.821027000000001
#
# number of rings (size 3 to 8) (size 9 to 14) (size 15 to 20)
#    1.000    0.000    5.000    1.500    2.333    1.333 
#    6.000    0.833    0.000    0.000    0.000    0.000 
#    0.000    0.000    0.000    0.000    0.000    0.000 
#
# Total GULP energy -66867.047332 kJ/mol
# GULP energy per Si atom -5572.253944 kJ/mol
# Density = 2.476453 g / cm^3
# Si number density = 24.821027 Si / 1000 Ang^3
#
#
#
# Elastic Constant Matrix: (Units=GPa)
#
#
# Indices 1 2 3 4 5 6 
#
# 1 110.6710 24.2364 46.0216 14.8310 -0.9037 12.2450
# 2 24.2364 82.8648 39.6001 2.0034 4.1137 -4.5405
# 3 46.0216 39.6001 191.5844 31.7122 16.7098 1.7069
# 4 14.8310 2.0034 31.7122 31.7220 3.2755 -2.7089
# 5 -0.9037 4.1137 16.7098 3.2755 29.6101 2.9302
# 6 12.2450 -4.5405 1.7069 -2.7089 2.9302 20.3675
#
#
#
# Elastic Compliance Matrix: (Units=1/GPa)
#
#
# Indices 1 2 3 4 5 6 
#
# 1 0.012111 -0.003307 -0.001603 -0.004946 0.003172 -0.008998
# 2 -0.003307 0.014724 -0.002855 0.004175 -0.001621 0.006298
# 3 -0.001603 -0.002855 0.007521 -0.006325 -0.003128 -0.000694
# 4 -0.004946 0.004175 -0.006325 0.041055 -0.002721 0.010286
# 5 0.003172 -0.001621 -0.003128 -0.002721 0.036920 -0.007679
# 6 -0.008998 0.006298 -0.000694 0.010286 -0.007679 0.058443
#
#
# Mechanical properties :
#
#
# Convention : Reuss Voigt Hill
#
# Bulk Modulus (GPa) = 53.11986 67.20403 60.16195
# Shear Modulus (GPa) = 25.96326 34.69073 30.32700
#
# Velocity S-wave (km/s) = 3.23773 3.74255 3.49926
# Velocity P-wave (km/s) = 5.95187 6.76829 6.37317
#
# Compressibility (1/GPa) = 0.01882535
#
# Stress axis : x y z
#
# Youngs Moduli (GPa) = 82.56873 67.91622 132.96351
#
# Poissons Ratio (x) = 0.22459 0.21320
# Poissons Ratio (y) = 0.27305 0.37961
# Poissons Ratio (z) = 0.13239 0.19390
#
# Static dielectric constant tensor:
#      x y z
#    x 2.010250 0.044800 -0.047490 
#    y 0.044800 2.074100 -0.092100 
#    z -0.047490 -0.092100 1.642570 
# 
# From -- ./inp_files/360935.got.cif
#   From: 2010.05.17/outbox.cif.g08.bks.cpg/sg2_181_cif.got.tgz:360935.got - 2010.06.03 11:33:40.
