data_PCOD9017985
_publ_section_title
;
Structure prediction by ZEFSAII (Michael W. Deem and Ramdas Pophale) SiO2 
 PCOD9017985
Probable space group: P -1
;
_chemical_formula_sum "Si O2"
_cell_formula_units_Z 16
_cell_length_a 13.381335
_cell_length_b 7.641177
_cell_length_c 12.712645
_cell_angle_alpha 97.883956
_cell_angle_beta 70.879405
_cell_angle_gamma 143.091974
_cell_volume 719.494735
_symmetry_space_group_name_H-M "P -1"
_symmetry_group_IT_number 2
_symmetry_cell_setting 'triclinic'
loop_
_space_group_symop_operation_xyz
x,y,z
-x,-y,-z
loop_
_atom_site_type_symbol
_atom_site_label
_atom_site_fract_x
_atom_site_fract_y
_atom_site_fract_z
Si Si1 0.175152 0.731697 0.531139
Si Si2 0.699262 0.324891 0.991293
Si Si3 0.544218 0.458046 0.154997
Si Si4 0.542939 0.401750 0.398308
Si Si5 0.229770 0.947940 0.942181
Si Si6 0.092124 0.224293 0.586846
Si Si7 0.142896 0.927962 0.185697
Si Si8 0.979951 0.331069 0.222549
O O1 0.167503 0.516560 0.548610
O O2 0.000000 0.500000 0.500000
O O3 0.130073 0.820166 0.643642
O O4 0.369722 0.037868 0.440228
O O5 0.675623 0.480260 0.070285
O O6 0.763338 0.245747 0.036955
O O7 0.835594 0.518435 0.860984
O O8 0.500000 0.000000 0.000000
O O9 0.551297 0.468375 0.279229
O O10 0.583532 0.700858 0.108638
O O11 0.344535 0.148510 0.161741
O O12 0.500000 0.500000 0.500000
O O13 0.736861 0.606451 0.390491
O O14 0.141568 0.857116 0.852833
O O15 0.129098 0.923313 0.065181
O O16 0.931863 0.022404 0.710338
O O17 0.000000 0.000000 0.500000
O O18 0.031869 0.606353 0.226990
#
# Coordination Sequence:
#
# PCOD9017985 Si02
#       8
#     2   2   2   2   2   2   2   2
#     4  11  24  46  72 101 137 183 234 286 351 408
#     4  11  23  42  70 102 137 179 224 276 352 409
#     4  12  25  44  70 102 139 180 233 282 341 423
#     4  12  26  47  68 100 141 180 235 292 343 415
#     4  11  24  43  66 101 142 178 221 284 350 408
#     4  11  25  46  71 100 136 184 234 288 348 413
#     4  10  21  43  67  96 142 176 222 287 342 411
#     4  10  22  42  68  97 139 175 220 285 344 411
#
# _framework density 22.237826999999999
#
# number of rings (size 3 to 8) (size 9 to 14) (size 15 to 20)
#    0.000    1.000    2.500    6.000    5.250    0.500 
#    9.000    0.000    0.000    0.000    0.000    0.000 
#    0.000    0.000    0.000    0.000    0.000    0.000 
#
# Total GULP energy -89213.485043 kJ/mol
# GULP energy per Si atom -5575.842815 kJ/mol
# Density = 2.218721 g / cm^3
# Si number density = 22.237827 Si / 1000 Ang^3
#
#
#
# Elastic Constant Matrix: (Units=GPa)
#
#
# Indices 1 2 3 4 5 6 
#
# 1 43.4968 -1.2433 93.1103 32.4030 19.3923 -3.8783
# 2 -1.2433 73.5946 109.0561 43.2952 36.5455 -6.9680
# 3 93.1103 109.0561 -173.5188 -163.8310 -136.1097 27.2560
# 4 32.4030 43.2952 -163.8310 -55.1707 -70.5957 23.1162
# 5 19.3923 36.5455 -136.1097 -70.5957 -15.5797 7.5526
# 6 -3.8783 -6.9680 27.2560 23.1162 7.5526 35.4168
#
#
#
# Elastic Compliance Matrix: (Units=1/GPa)
#
#
# Indices 1 2 3 4 5 6 
#
# 1 0.019685 -0.003472 -0.001698 0.005343 0.006020 -0.001991
# 2 -0.003472 0.010418 0.000219 0.003665 0.001059 -0.001117
# 3 -0.001698 0.000219 0.004484 -0.007826 -0.004150 0.002399
# 4 0.005343 0.003665 -0.007826 0.019817 -0.008063 -0.003886
# 5 0.006020 0.001059 -0.004150 -0.008063 0.020935 0.004859
# 6 -0.001991 -0.001117 0.002399 -0.003886 0.004859 0.027451
#
#
# Mechanical properties :
#
#
# Convention : Reuss Voigt Hill
#
# Bulk Modulus (GPa) = 40.51246 38.37986 39.44616
# Shear Modulus (GPa) = 41.34936 -24.22342 8.56297
#
# Velocity S-wave (km/s) = 4.31677 -3.30402 1.96443
# Velocity P-wave (km/s) = 6.56532 1.65557 4.78771
#
# Compressibility (1/GPa) = 0.02468376
#
# Stress axis : x y z
#
# Youngs Moduli (GPa) = 50.80057 95.98813 223.01968
#
# Poissons Ratio (x) = 0.33325 0.37874
# Poissons Ratio (y) = 0.17637 -0.04874
# Poissons Ratio (z) = 0.08627 -0.02098
#
# Static dielectric constant tensor:
#      x y z
#    x 1.957310 0.021060 0.088110 
#    y 0.021060 1.846900 0.003870 
#    z 0.088110 0.003870 1.930290 
# 
# From -- ./inp_files/399116.got.cif
#   From: 2010.05.17/outbox.cif.g08.bks.cpg/sg2_200_cif.got.tgz:399116.got - 2010.06.03 11:33:40.
