data_PCOD9017154
_publ_section_title
;
Structure prediction by ZEFSAII (Michael W. Deem and Ramdas Pophale) SiO2 
 PCOD9017154
Probable space group: P -1
;
_chemical_formula_sum "Si O2"
_cell_formula_units_Z 16
_cell_length_a 15.457829
_cell_length_b 7.836508
_cell_length_c 16.331154
_cell_angle_alpha 56.390819
_cell_angle_beta 34.054199
_cell_angle_gamma 35.138159
_cell_volume 588.509612
_symmetry_space_group_name_H-M "P -1"
_symmetry_group_IT_number 2
_symmetry_cell_setting 'triclinic'
loop_
_space_group_symop_operation_xyz
x,y,z
-x,-y,-z
loop_
_atom_site_type_symbol
_atom_site_label
_atom_site_fract_x
_atom_site_fract_y
_atom_site_fract_z
Si Si1 0.277878 0.279939 0.851171
Si Si2 0.328504 0.967779 0.049952
Si Si3 0.966839 0.770718 0.187031
Si Si4 0.733021 0.612349 0.425268
Si Si5 0.711208 0.561240 0.643948
Si Si6 0.131380 0.730211 0.238950
Si Si7 0.460954 0.511536 0.664028
Si Si8 0.489891 0.677426 0.157954
O O1 0.316829 0.476415 0.744356
O O2 0.317793 0.167957 0.943517
O O3 0.490959 0.944330 0.726177
O O4 0.000000 0.500000 0.000000
O O5 0.600371 0.606848 0.912136
O O6 0.149447 0.959514 0.172253
O O7 0.349221 0.973921 0.130106
O O8 0.929441 0.569876 0.247636
O O9 0.956947 0.824164 0.279025
O O10 0.744732 0.130040 0.231125
O O11 0.222726 0.592448 0.004646
O O12 0.799586 0.495337 0.498886
O O13 0.648949 0.481413 0.487734
O O14 0.500000 0.000000 0.500000
O O15 0.898112 0.357283 0.627683
O O16 0.584750 0.469583 0.776878
O O17 0.590041 0.255371 0.703614
#
# Coordination Sequence:
#
# PCOD9017154 Si02
#       8
#     2   2   2   2   2   2   2   2
#     4  11  20  30  50  77 103 126 159 202 247 295
#     4   8  15  28  46  74 102 125 155 201 251 280
#     4  10  17  30  52  75  95 126 173 203 233 284
#     4   9  20  35  50  69  98 132 166 201 238 288
#     4   9  18  34  52  74 100 128 159 201 252 284
#     4   8  14  27  50  73  97 124 161 206 237 280
#     4  10  20  32  48  74 103 130 158 202 249 284
#     4   9  17  32  55  74  96 128 166 205 236 283
#
# _framework density 27.187322000000002
#
# number of rings (size 3 to 8) (size 9 to 14) (size 15 to 20)
#    0.000    2.750    0.000    4.125    0.000    3.000 
#    0.000    2.500    0.000    9.750    0.000    0.000 
#    0.000    0.000    0.000    0.000    0.000    0.000 
#
# Total GULP energy -89436.286552 kJ/mol
# GULP energy per Si atom -5589.767909 kJ/mol
# Density = 2.712544 g / cm^3
# Si number density = 27.187322 Si / 1000 Ang^3
#
#
#
# Elastic Constant Matrix: (Units=GPa)
#
#
# Indices 1 2 3 4 5 6 
#
# 1 80.8111 15.8871 35.3253 -23.0623 -3.1456 -15.4674
# 2 15.8871 85.5564 43.0400 -22.1839 -9.3104 -6.9225
# 3 35.3253 43.0400 160.0936 -26.3400 -15.7679 10.3333
# 4 -23.0623 -22.1839 -26.3400 52.4119 15.0539 -5.7236
# 5 -3.1456 -9.3104 -15.7679 15.0539 42.6704 -22.0491
# 6 -15.4674 -6.9225 10.3333 -5.7236 -22.0491 42.5260
#
#
#
# Elastic Compliance Matrix: (Units=1/GPa)
#
#
# Indices 1 2 3 4 5 6 
#
# 1 0.017587 0.001384 -0.003478 0.006783 0.003074 0.009974
# 2 0.001384 0.015522 -0.003717 0.004948 0.003751 0.006544
# 3 -0.003478 -0.003717 0.008363 0.000749 -0.000281 -0.003947
# 4 0.006783 0.004948 0.000749 0.026543 -0.005552 0.003784
# 5 0.003074 0.003751 -0.000281 -0.005552 0.036715 0.020086
# 6 0.009974 0.006544 -0.003947 0.003784 0.020086 0.040090
#
#
# Mechanical properties :
#
#
# Convention : Reuss Voigt Hill
#
# Bulk Modulus (GPa) = 33.50012 57.21843 45.35928
# Shear Modulus (GPa) = 30.04942 43.00222 36.52582
#
# Velocity S-wave (km/s) = 3.32817 3.98138 3.66934
# Velocity P-wave (km/s) = 5.20746 6.49822 5.88831
#
# Compressibility (1/GPa) = 0.02985064
#
# Stress axis : x y z
#
# Youngs Moduli (GPa) = 56.85961 64.42538 119.56822
#
# Poissons Ratio (x) = -0.08917 0.41583
# Poissons Ratio (y) = -0.07870 0.44446
# Poissons Ratio (z) = 0.19774 0.23948
#
# Static dielectric constant tensor:
#      x y z
#    x 2.326750 -0.005270 0.002660 
#    y -0.005270 2.132840 0.036860 
#    z 0.002660 0.036860 2.097890 
# 
# From -- ./inp_files/270650.got.cif
#   From: 2010.05.17/outbox.cif.g08.bks.cpg/sg2_136_cif.got.tgz:270650.got - 2010.06.03 11:33:40.
