data_PCOD9017213
_publ_section_title
;
Structure prediction by ZEFSAII (Michael W. Deem and Ramdas Pophale) SiO2 
 PCOD9017213
Probable space group: P -1
;
_chemical_formula_sum "Si O2"
_cell_formula_units_Z 16
_cell_length_a 23.818107
_cell_length_b 5.401337
_cell_length_c 5.465638
_cell_angle_alpha 95.569913
_cell_angle_beta 110.998207
_cell_angle_gamma 68.558596
_cell_volume 610.558969
_symmetry_space_group_name_H-M "P -1"
_symmetry_group_IT_number 2
_symmetry_cell_setting 'triclinic'
loop_
_space_group_symop_operation_xyz
x,y,z
-x,-y,-z
loop_
_atom_site_type_symbol
_atom_site_label
_atom_site_fract_x
_atom_site_fract_y
_atom_site_fract_z
Si Si1 0.042585 0.445876 0.814438
Si Si2 0.518114 0.259163 0.313958
Si Si3 0.815934 0.399990 0.528967
Si Si4 0.234981 0.020078 0.309142
Si Si5 0.395693 0.175712 0.241785
Si Si6 0.925874 0.118643 0.315127
Si Si7 0.283674 0.606833 0.975194
Si Si8 0.361126 0.806533 0.782421
O O1 0.078970 0.654461 0.867869
O O2 0.000000 0.500000 0.500000
O O3 0.087008 0.135487 0.838410
O O4 0.000000 0.500000 0.000000
O O5 0.500000 0.500000 0.500000
O O6 0.450835 0.220967 0.162633
O O7 0.565527 0.317340 0.202145
O O8 0.564781 0.986103 0.484452
O O9 0.805410 0.670834 0.684034
O O10 0.884493 0.248878 0.498921
O O11 0.793986 0.180489 0.614229
O O12 0.769228 0.495414 0.226694
O O13 0.246097 0.901585 0.042930
O O14 0.307139 0.968030 0.519717
O O15 0.334754 0.436049 0.238103
O O16 0.365281 0.996209 0.026918
O O17 0.000000 0.000000 0.500000
O O18 0.331566 0.602813 0.830651
#
# Coordination Sequence:
#
# PCOD9017213 Si02
#       8
#     2   2   2   2   2   2   2   2
#     4  10  21  42  72 106 152 198 247 300 376 451
#     4  11  25  41  63  99 134 178 231 288 365 435
#     4  11  25  48  72 107 145 191 244 303 364 439
#     4  11  25  44  74 101 145 188 246 298 364 432
#     4  11  23  41  66  93 134 175 234 286 362 425
#     4  10  22  45  73 106 151 189 246 303 376 448
#     4  11  26  45  70  99 136 186 242 296 362 434
#     4  11  23  42  67  92 138 179 231 294 362 421
#
# _framework density 26.205496
#
# number of rings (size 3 to 8) (size 9 to 14) (size 15 to 20)
#    0.000    1.250    1.250    3.750    3.500    4.000 
#   13.500    0.000    0.000    0.000    0.000    0.000 
#    0.000    0.000    0.000    0.000    0.000    0.000 
#
# Total GULP energy -89592.700995 kJ/mol
# GULP energy per Si atom -5599.543812 kJ/mol
# Density = 2.614585 g / cm^3
# Si number density = 26.205496 Si / 1000 Ang^3
#
#
#
# Elastic Constant Matrix: (Units=GPa)
#
#
# Indices 1 2 3 4 5 6 
#
# 1 141.8641 63.1623 20.5974 -2.7552 -24.3603 -14.3547
# 2 63.1623 183.2096 36.5926 18.8430 -2.4893 -7.3314
# 3 20.5974 36.5926 80.1982 6.9425 -8.2981 -10.3334
# 4 -2.7552 18.8430 6.9425 41.3771 -9.8523 -3.4373
# 5 -24.3603 -2.4893 -8.2981 -9.8523 41.3562 -3.3258
# 6 -14.3547 -7.3314 -10.3334 -3.4373 -3.3258 53.9286
#
#
#
# Elastic Compliance Matrix: (Units=1/GPa)
#
#
# Indices 1 2 3 4 5 6 
#
# 1 0.010357 -0.003766 -0.000209 0.004375 0.007110 0.002922
# 2 -0.003766 0.007624 -0.002619 -0.004159 -0.003351 -0.000939
# 3 -0.000209 -0.002619 0.014350 -0.000378 0.002708 0.002481
# 4 0.004375 -0.004159 -0.000378 0.028893 0.009371 0.002946
# 5 0.007110 -0.003351 0.002708 0.009371 0.031303 0.004484
# 6 0.002922 -0.000939 0.002481 0.002946 0.004484 0.020133
#
#
# Mechanical properties :
#
#
# Convention : Reuss Voigt Hill
#
# Bulk Modulus (GPa) = 52.23261 71.77517 62.00389
# Shear Modulus (GPa) = 37.81319 46.32703 42.07011
#
# Velocity S-wave (km/s) = 3.80274 4.20913 4.01108
# Velocity P-wave (km/s) = 6.26548 7.14641 6.72040
#
# Compressibility (1/GPa) = 0.01914513
#
# Stress axis : x y z
#
# Youngs Moduli (GPa) = 96.55025 131.16077 69.68417
#
# Poissons Ratio (x) = 0.49389 0.01453
# Poissons Ratio (y) = 0.36356 0.18253
# Poissons Ratio (z) = 0.02013 0.34356
#
# Static dielectric constant tensor:
#      x y z
#    x 1.926590 0.042070 -0.217720 
#    y 0.042070 2.114220 -0.104150 
#    z -0.217720 -0.104150 1.788870 
# 
# From -- ./inp_files/14814.got.cif
#   From: 2010.05.17/outbox.cif.g08.bks.cpg/sg2_8_cif.got.tgz:14814.got - 2010.06.03 11:33:40.
