data_PCOD9017792
_publ_section_title
;
Structure prediction by ZEFSAII (Michael W. Deem and Ramdas Pophale) SiO2 
 PCOD9017792
Probable space group: P -1
;
_chemical_formula_sum "Si O2"
_cell_formula_units_Z 12
_cell_length_a 12.151182
_cell_length_b 13.252481
_cell_length_c 6.446885
_cell_angle_alpha 106.919262
_cell_angle_beta 116.537966
_cell_angle_gamma 33.252458
_cell_volume 502.004263
_symmetry_space_group_name_H-M "P -1"
_symmetry_group_IT_number 2
_symmetry_cell_setting 'triclinic'
loop_
_space_group_symop_operation_xyz
x,y,z
-x,-y,-z
loop_
_atom_site_type_symbol
_atom_site_label
_atom_site_fract_x
_atom_site_fract_y
_atom_site_fract_z
Si Si1 0.199188 0.556313 0.922474
Si Si2 0.551734 0.817974 0.245417
Si Si3 0.515376 0.362775 0.416930
Si Si4 0.183358 0.795521 0.124027
Si Si5 0.768975 0.875822 0.517159
Si Si6 0.173430 0.016786 0.745015
O O1 0.310627 0.385761 0.781958
O O2 0.945028 0.729733 0.758424
O O3 0.298257 0.472279 0.189689
O O4 0.254432 0.640307 0.968724
O O5 0.701287 0.813385 0.320838
O O6 0.444114 0.920899 0.437999
O O7 0.352899 0.948461 0.995131
O O8 0.500000 0.500000 0.500000
O O9 0.614933 0.275350 0.677346
O O10 0.706834 0.178323 0.324783
O O11 0.046226 0.845297 0.232445
O O12 0.000000 0.000000 0.000000
O O13 0.862525 0.890781 0.437136
#
# Coordination Sequence:
#
# PCOD9017792 Si02
#       6
#     2   2   2   2   2   2
#     4  10  21  43  66  94 133 167 216 262 323 387
#     4  10  23  43  67  96 131 166 216 267 321 386
#     4   9  21  39  60  95 128 163 217 261 312 383
#     4  11  22  42  66  94 131 175 215 264 322 377
#     4  11  22  43  69  95 130 170 211 268 328 377
#     4  11  22  42  65  95 130 168 216 265 320 383
#
# _framework density 23.90418
#
# number of rings (size 3 to 8) (size 9 to 14) (size 15 to 20)
#    0.000    1.667    1.667    2.500    0.000    0.000 
#   12.000    5.833    0.000    0.000    0.000    0.000 
#    0.000    0.000    0.000    0.000    0.000    0.000 
#
# Total GULP energy -66959.101882 kJ/mol
# GULP energy per Si atom -5579.925157 kJ/mol
# Density = 2.384977 g / cm^3
# Si number density = 23.904180 Si / 1000 Ang^3
#
#
#
# Elastic Constant Matrix: (Units=GPa)
#
#
# Indices 1 2 3 4 5 6 
#
# 1 88.4793 45.1328 33.8020 6.5145 7.0682 9.2999
# 2 45.1328 178.5457 46.2909 17.1459 6.1677 21.8535
# 3 33.8020 46.2909 89.6246 -2.6964 37.6528 13.7891
# 4 6.5145 17.1459 -2.6964 47.1592 1.9122 11.0790
# 5 7.0682 6.1677 37.6528 1.9122 43.9993 3.8635
# 6 9.2999 21.8535 13.7891 11.0790 3.8635 26.7693
#
#
#
# Elastic Compliance Matrix: (Units=1/GPa)
#
#
# Indices 1 2 3 4 5 6 
#
# 1 0.014416 -0.002131 -0.005541 -0.001611 0.002808 -0.000153
# 2 -0.002131 0.007655 -0.004057 -0.002147 0.003096 -0.002977
# 3 -0.005541 -0.004057 0.024793 0.006155 -0.019386 -0.007284
# 4 -0.001611 -0.002147 0.006155 0.025249 -0.004874 -0.010605
# 5 0.002808 0.003096 -0.019386 -0.004874 0.038384 0.002960
# 6 -0.000153 -0.002977 -0.007284 -0.010605 0.002960 0.047553
#
#
# Mechanical properties :
#
#
# Convention : Reuss Voigt Hill
#
# Bulk Modulus (GPa) = 42.72491 67.45566 55.09029
# Shear Modulus (GPa) = 26.41134 39.01380 32.71257
#
# Velocity S-wave (km/s) = 3.32759 4.04430 3.70332
# Velocity P-wave (km/s) = 5.71629 7.07735 6.43292
#
# Compressibility (1/GPa) = 0.02340555
#
# Stress axis : x y z
#
# Youngs Moduli (GPa) = 69.36520 130.63249 40.33334
#
# Poissons Ratio (x) = 0.27839 0.22350
# Poissons Ratio (y) = 0.14782 0.16365
# Poissons Ratio (z) = 0.38437 0.53002
#
# Static dielectric constant tensor:
#      x y z
#    x 1.926200 0.040470 -0.046240 
#    y 0.040470 1.926520 -0.017620 
#    z -0.046240 -0.017620 2.047640 
# 
# From -- ./inp_files/94707.got.cif
#   From: 2010.05.17/outbox.cif.g08.bks.cpg/sg2_48_cif.got.tgz:94707.got - 2010.06.03 11:33:40.
