data_PCOD9017006
_publ_section_title
;
Structure prediction by ZEFSAII (Michael W. Deem and Ramdas Pophale) SiO2 
 PCOD9017006
Probable space group: P -1
;
_chemical_formula_sum "Si O2"
_cell_formula_units_Z 10
_cell_length_a 7.458695
_cell_length_b 7.512215
_cell_length_c 13.137293
_cell_angle_alpha 46.215439
_cell_angle_beta 132.138514
_cell_angle_gamma 125.437558
_cell_volume 384.772750
_symmetry_space_group_name_H-M "P -1"
_symmetry_group_IT_number 2
_symmetry_cell_setting 'triclinic'
loop_
_space_group_symop_operation_xyz
x,y,z
-x,-y,-z
loop_
_atom_site_type_symbol
_atom_site_label
_atom_site_fract_x
_atom_site_fract_y
_atom_site_fract_z
Si Si1 0.026512 0.716014 0.643225
Si Si2 0.258204 0.335959 0.751700
Si Si3 0.234062 0.556108 0.989327
Si Si4 0.472789 0.353894 0.432687
Si Si5 0.240407 0.061882 0.254614
O O1 0.159384 0.573934 0.666910
O O2 0.744293 0.570692 0.615867
O O3 0.172580 0.694257 0.811689
O O4 0.000000 0.000000 0.500000
O O5 0.509137 0.309676 0.914066
O O6 0.331760 0.414307 0.633199
O O7 0.037837 0.095161 0.774965
O O8 0.261679 0.268112 0.092336
O O9 0.000000 0.500000 0.000000
O O10 0.587505 0.136796 0.612317
O O11 0.335322 0.215862 0.332854
#
# Coordination Sequence:
#
# PCOD9017006 Si02
#       5
#     2   2   2   2   2
#     4  12  24  43  70  97 132 178 215 272 335 386
#     4  11  24  41  70  98 130 175 223 265 330 390
#     4  11  23  45  67  94 137 173 219 273 326 388
#     4  10  22  45  65  98 141 166 216 272 331 389
#     4  10  21  42  70  95 131 179 213 271 328 389
#
# _framework density 25.989367999999999
#
# number of rings (size 3 to 8) (size 9 to 14) (size 15 to 20)
#    0.000    1.200    4.000    4.800    0.000    2.400 
#    0.000    4.000    0.000    0.000    0.000    0.000 
#    0.000    0.000    0.000    0.000    0.000    0.000 
#
# Total GULP energy -56093.925016 kJ/mol
# GULP energy per Si atom -5609.392502 kJ/mol
# Density = 2.593021 g / cm^3
# Si number density = 25.989368 Si / 1000 Ang^3
#
#
#
# Elastic Constant Matrix: (Units=GPa)
#
#
# Indices 1 2 3 4 5 6 
#
# 1 132.2361 18.1398 36.3512 15.6847 15.4325 0.4172
# 2 18.1398 114.5196 40.6566 -7.5657 -0.7526 18.2917
# 3 36.3512 40.6566 210.2386 0.6190 -10.0790 12.8858
# 4 15.6847 -7.5657 0.6190 37.1288 16.4463 10.9359
# 5 15.4325 -0.7526 -10.0790 16.4463 43.0679 12.3141
# 6 0.4172 18.2917 12.8858 10.9359 12.3141 42.3734
#
#
#
# Elastic Compliance Matrix: (Units=1/GPa)
#
#
# Indices 1 2 3 4 5 6 
#
# 1 0.008983 -0.001587 -0.001560 -0.003583 -0.003069 0.002888
# 2 -0.001587 0.010637 -0.001454 0.004301 0.000296 -0.005330
# 3 -0.001560 -0.001454 0.005526 -0.000313 0.002421 -0.001660
# 4 -0.003583 0.004301 -0.000313 0.036252 -0.010240 -0.008107
# 5 -0.003069 0.000296 0.002421 -0.010240 0.030847 -0.007155
# 6 0.002888 -0.005330 -0.001660 -0.008107 -0.007155 0.030549
#
#
# Mechanical properties :
#
#
# Convention : Reuss Voigt Hill
#
# Bulk Modulus (GPa) = 62.72199 71.92107 67.32153
# Shear Modulus (GPa) = 36.41365 48.63712 42.52539
#
# Velocity S-wave (km/s) = 3.74719 4.33069 4.04946
# Velocity P-wave (km/s) = 6.55042 7.26222 6.91548
#
# Compressibility (1/GPa) = 0.01594337
#
# Stress axis : x y z
#
# Youngs Moduli (GPa) = 111.32377 94.00843 180.95648
#
# Poissons Ratio (x) = 0.14922 0.28225
# Poissons Ratio (y) = 0.17670 0.26319
# Poissons Ratio (z) = 0.17364 0.13673
#
# Static dielectric constant tensor:
#      x y z
#    x 2.061100 -0.016180 0.003530 
#    y -0.016180 2.108340 0.045060 
#    z 0.003530 0.045060 2.055340 
# 
# From -- ./inp_files/554082.got.cif
#   From: 2010.05.17/outbox.cif.g08.bks.cpg/sg2_278_cif.got.tgz:554082.got - 2010.06.03 11:33:40.
