data_PCOD9017397
_publ_section_title
;
Structure prediction by ZEFSAII (Michael W. Deem and Ramdas Pophale) SiO2 
 PCOD9017397
Probable space group: P -1
;
_chemical_formula_sum "Si O2"
_cell_formula_units_Z 14
_cell_length_a 11.149368
_cell_length_b 8.484986
_cell_length_c 17.423231
_cell_angle_alpha 138.350686
_cell_angle_beta 34.447333
_cell_angle_gamma 124.469153
_cell_volume 614.050666
_symmetry_space_group_name_H-M "P -1"
_symmetry_group_IT_number 2
_symmetry_cell_setting 'triclinic'
loop_
_space_group_symop_operation_xyz
x,y,z
-x,-y,-z
loop_
_atom_site_type_symbol
_atom_site_label
_atom_site_fract_x
_atom_site_fract_y
_atom_site_fract_z
Si Si1 0.214808 0.371815 0.380106
Si Si2 0.666813 0.512526 0.171524
Si Si3 0.314914 0.324244 0.040182
Si Si4 0.718509 0.896011 0.389904
Si Si5 0.166901 0.027579 0.155814
Si Si6 0.048942 0.717495 0.379379
Si Si7 0.536565 0.150820 0.720434
O O1 0.418263 0.503923 0.316534
O O2 0.263401 0.120228 0.217364
O O3 0.000000 0.500000 0.500000
O O4 0.149368 0.348673 0.493316
O O5 0.770728 0.628220 0.231320
O O6 0.647797 0.693578 0.175671
O O7 0.760348 0.246760 0.002828
O O8 0.243147 0.192001 0.106757
O O9 0.110727 0.530816 0.210336
O O10 0.500000 0.500000 0.000000
O O11 0.412224 0.120023 0.854228
O O12 0.500000 0.000000 0.500000
O O13 0.653704 0.936712 0.528109
O O14 0.913850 0.035073 0.310903
O O15 0.266123 0.699247 0.310259
O O16 0.000000 0.000000 0.500000
#
# Coordination Sequence:
#
# PCOD9017397 Si02
#       7
#     2   2   2   2   2   2   2
#     4  12  20  39  64  96 125 167 216 267 316 380
#     4  11  24  38  68  96 129 165 221 263 315 381
#     4  10  23  39  59  96 132 159 205 269 319 371
#     4  10  22  44  67  92 128 173 217 262 315 386
#     4  12  23  41  69  95 128 170 218 263 321 383
#     4  11  23  36  63  93 132 165 211 260 327 373
#     4  10  21  43  61  89 133 169 206 266 318 373
#
# _framework density 22.799420999999999
#
# number of rings (size 3 to 8) (size 9 to 14) (size 15 to 20)
#    0.000    1.143    4.286    2.571    6.000    0.000 
#    0.000    3.571    0.000    0.000    0.000    0.000 
#    0.000    0.000    0.000    0.000    0.000    0.000 
#
# Total GULP energy -77984.065895 kJ/mol
# GULP energy per Si atom -5570.290421 kJ/mol
# Density = 2.274753 g / cm^3
# Si number density = 22.799421 Si / 1000 Ang^3
#
#
#
# Elastic Constant Matrix: (Units=GPa)
#
#
# Indices 1 2 3 4 5 6 
#
# 1 35.0727 18.0506 31.1362 -7.9202 11.3720 17.4312
# 2 18.0506 69.3306 54.4452 -5.6335 4.7712 13.8055
# 3 31.1362 54.4452 164.9705 -6.1036 28.0102 -4.5062
# 4 -7.9202 -5.6335 -6.1036 56.9509 -0.0916 5.3652
# 5 11.3720 4.7712 28.0102 -0.0916 34.6615 7.2921
# 6 17.4312 13.8055 -4.5062 5.3652 7.2921 29.6075
#
#
#
# Elastic Compliance Matrix: (Units=1/GPa)
#
#
# Indices 1 2 3 4 5 6 
#
# 1 0.062987 0.003974 -0.013762 0.011718 -0.001035 -0.042899
# 2 0.003974 0.025264 -0.010778 0.003637 0.007796 -0.018339
# 3 -0.013762 -0.010778 0.014169 -0.003186 -0.009278 0.018147
# 4 0.011718 0.003637 -0.003186 0.020437 0.001026 -0.013035
# 5 -0.001035 0.007796 -0.009278 0.001026 0.038589 -0.014128
# 6 -0.042899 -0.018339 0.018147 -0.013035 -0.014128 0.076187
#
#
# Mechanical properties :
#
#
# Convention : Reuss Voigt Hill
#
# Bulk Modulus (GPa) = 16.31650 52.95978 34.63814
# Shear Modulus (GPa) = 16.71160 35.29342 26.00251
#
# Velocity S-wave (km/s) = 2.71030 3.93873 3.38078
# Velocity P-wave (km/s) = 4.11903 6.63052 5.51952
#
# Compressibility (1/GPa) = 0.06128767
#
# Stress axis : x y z
#
# Youngs Moduli (GPa) = 15.87634 39.58254 70.57562
#
# Poissons Ratio (x) = -0.15730 0.97127
# Poissons Ratio (y) = -0.06309 0.76066
# Poissons Ratio (z) = 0.21849 0.42662
#
# Static dielectric constant tensor:
#      x y z
#    x 2.000600 -0.135590 0.062240 
#    y -0.135590 2.081410 0.032500 
#    z 0.062240 0.032500 1.992080 
# 
# From -- ./inp_files/180108.got.cif
#   From: 2010.05.17/outbox.cif.g08.bks.cpg/sg2_91_cif.got.tgz:180108.got - 2010.06.03 11:33:40.
