data_PCOD9017056
_publ_section_title
;
Structure prediction by ZEFSAII (Michael W. Deem and Ramdas Pophale) SiO2 
 PCOD9017056
Probable space group: P -1
;
_chemical_formula_sum "Si O2"
_cell_formula_units_Z 14
_cell_length_a 8.714911
_cell_length_b 20.230182
_cell_length_c 8.553651
_cell_angle_alpha 126.488554
_cell_angle_beta 53.293936
_cell_angle_gamma 153.849122
_cell_volume 525.596611
_symmetry_space_group_name_H-M "P -1"
_symmetry_group_IT_number 2
_symmetry_cell_setting 'triclinic'
loop_
_space_group_symop_operation_xyz
x,y,z
-x,-y,-z
loop_
_atom_site_type_symbol
_atom_site_label
_atom_site_fract_x
_atom_site_fract_y
_atom_site_fract_z
Si Si1 0.506227 0.026291 0.854369
Si Si2 0.794462 0.804318 0.787996
Si Si3 0.704727 0.469498 0.491506
Si Si4 0.228323 0.728573 0.135027
Si Si5 0.445739 0.432361 0.100811
Si Si6 0.715379 0.949182 0.419134
Si Si7 0.480097 0.694043 0.309073
O O1 0.696835 0.022146 0.639591
O O2 0.123250 0.900566 0.831611
O O3 0.710915 0.184911 0.920877
O O4 0.500000 0.000000 0.000000
O O5 0.609206 0.657910 0.618931
O O6 0.489725 0.746907 0.975309
O O7 0.958971 0.922143 0.717437
O O8 0.776266 0.585989 0.681355
O O9 0.568896 0.365835 0.576407
O O10 0.068796 0.564769 0.337172
O O11 0.371770 0.824325 0.337876
O O12 0.820346 0.559605 0.139800
O O13 0.500000 0.500000 0.000000
O O14 0.351841 0.308949 0.919542
O O15 0.686478 0.854109 0.397827
#
# Coordination Sequence:
#
# PCOD9017056 Si02
#       7
#     2   2   2   2   2   2   2
#     4  11  25  43  70 104 138 185 243 294 353 427
#     4  11  23  48  72 101 145 194 231 296 360 420
#     4  10  21  43  72  98 147 189 233 292 363 415
#     4  11  23  48  69 101 148 188 238 293 357 426
#     4  10  21  42  70  98 140 190 233 288 351 421
#     4  11  24  44  70 102 142 184 240 293 360 420
#     4  10  23  42  67 108 141 184 239 297 350 428
#
# _framework density 26.636395
#
# number of rings (size 3 to 8) (size 9 to 14) (size 15 to 20)
#    0.000    1.429    1.429    5.143    2.000    1.143 
#   18.000    1.429    0.000    0.000    0.000    0.000 
#    0.000    0.000    0.000    0.000    0.000    0.000 
#
# Total GULP energy -78575.240384 kJ/mol
# GULP energy per Si atom -5612.517170 kJ/mol
# Density = 2.657577 g / cm^3
# Si number density = 26.636395 Si / 1000 Ang^3
#
#
#
# Elastic Constant Matrix: (Units=GPa)
#
#
# Indices 1 2 3 4 5 6 
#
# 1 116.9736 41.7008 28.8454 -7.3450 -5.5677 -18.9878
# 2 41.7008 92.9284 19.3801 -3.6253 7.8937 -8.5466
# 3 28.8454 19.3801 99.2482 -1.6457 -16.3037 -1.5244
# 4 -7.3450 -3.6253 -1.6457 36.8867 1.1175 6.6223
# 5 -5.5677 7.8937 -16.3037 1.1175 41.9194 1.5359
# 6 -18.9878 -8.5466 -1.5244 6.6223 1.5359 62.4498
#
#
#
# Elastic Compliance Matrix: (Units=1/GPa)
#
#
# Indices 1 2 3 4 5 6 
#
# 1 0.011206 -0.004421 -0.002108 0.001196 0.001374 0.002590
# 2 -0.004421 0.013559 -0.001997 0.000390 -0.003946 0.000519
# 3 -0.002108 -0.001997 0.011843 -0.000100 0.004731 -0.000731
# 4 0.001196 0.000390 -0.000100 0.027854 -0.000603 -0.002524
# 5 0.001374 -0.003946 0.004731 -0.000603 0.026659 -0.000599
# 6 0.002590 0.000519 -0.000731 -0.002524 -0.000599 0.017136
#
#
# Mechanical properties :
#
#
# Convention : Reuss Voigt Hill
#
# Bulk Modulus (GPa) = 51.13418 54.33364 52.73391
# Shear Modulus (GPa) = 37.92867 42.86609 40.39738
#
# Velocity S-wave (km/s) = 3.77761 4.01597 3.89861
# Velocity P-wave (km/s) = 6.18594 6.47661 6.33295
#
# Compressibility (1/GPa) = 0.01955639
#
# Stress axis : x y z
#
# Youngs Moduli (GPa) = 89.24022 73.75049 84.43971
#
# Poissons Ratio (x) = 0.32602 0.17802
# Poissons Ratio (y) = 0.39450 0.16860
# Poissons Ratio (z) = 0.18814 0.14726
#
# Static dielectric constant tensor:
#      x y z
#    x 2.101540 -0.028420 0.035520 
#    y -0.028420 2.072100 0.022880 
#    z 0.035520 0.022880 2.019850 
# 
# From -- ./inp_files/224000.got.cif
#   From: 2010.05.17/outbox.cif.g08.bks.cpg/sg2_112_cif.got.tgz:224000.got - 2010.06.03 11:33:40.
