data_PCOD9017414
_publ_section_title
;
Structure prediction by ZEFSAII (Michael W. Deem and Ramdas Pophale) SiO2 
 PCOD9017414
Probable space group: P -1
;
_chemical_formula_sum "Si O2"
_cell_formula_units_Z 15
_cell_length_a 24.644692
_cell_length_b 9.353470
_cell_length_c 6.045179
_cell_angle_alpha 51.071627
_cell_angle_beta 52.321291
_cell_angle_gamma 35.267014
_cell_volume 610.770426
_symmetry_space_group_name_H-M "P -1"
_symmetry_group_IT_number 2
_symmetry_cell_setting 'triclinic'
loop_
_space_group_symop_operation_xyz
x,y,z
-x,-y,-z
loop_
_atom_site_type_symbol
_atom_site_label
_atom_site_fract_x
_atom_site_fract_y
_atom_site_fract_z
Si Si1 0.116450 0.451171 0.617910
Si Si2 0.372053 0.611187 0.767666
Si Si3 0.758308 0.976613 0.660679
Si Si4 0.425514 0.896276 0.388985
Si Si5 0.500000 0.000000 0.500000
Si Si6 0.094544 0.150141 0.256891
Si Si7 0.199030 0.676455 0.162047
Si Si8 0.698899 0.697735 0.086737
O O1 0.177024 0.218733 0.516572
O O2 0.171669 0.531298 0.473330
O O3 0.011577 0.697907 0.539595
O O4 0.094926 0.358088 0.964566
O O5 0.378486 0.795750 0.691257
O O6 0.479811 0.332681 0.769166
O O7 0.333104 0.748948 0.488726
O O8 0.296661 0.604274 0.046303
O O9 0.820759 0.995763 0.633482
O O10 0.729309 0.836388 0.978827
O O11 0.464733 0.941129 0.443227
O O12 0.355215 0.133852 0.168852
O O13 0.616081 0.755523 0.371940
O O14 0.119615 0.966608 0.170326
O O15 0.214972 0.587882 0.950133
#
# Coordination Sequence:
#
# PCOD9017414 Si02
#       8
#     2   2   2   2   1   2   2   2
#     4  10  23  44  67  98 134 167 211 272 332 385
#     4  10  21  43  62  89 132 170 212 268 325 368
#     4  10  22  43  66  94 130 172 216 268 320 393
#     4  10  23  42  62  89 130 174 214 271 318 379
#     4  12  22  36  62  88 118 170 224 258 318 376
#     4  11  23  43  71  96 128 174 214 267 331 392
#     4  11  22  42  66  95 133 168 214 271 320 388
#     4  10  24  41  61  92 132 172 214 269 325 370
#
# _framework density 24.559146999999999
#
# number of rings (size 3 to 8) (size 9 to 14) (size 15 to 20)
#    0.000    1.600    2.667    1.200    1.867    1.067 
#    4.800    2.667    0.000    0.000    0.000    0.000 
#    0.000    0.000    0.000    0.000    0.000    0.000 
#
# Total GULP energy -83540.054067 kJ/mol
# GULP energy per Si atom -5569.336938 kJ/mol
# Density = 2.450325 g / cm^3
# Si number density = 24.559147 Si / 1000 Ang^3
#
#
#
# Elastic Constant Matrix: (Units=GPa)
#
#
# Indices 1 2 3 4 5 6 
#
# 1 40.1847 -10.5425 41.2426 -14.6444 0.0770 -12.3316
# 2 -10.5425 74.7752 10.9718 9.6020 -1.4866 -7.2613
# 3 41.2426 10.9718 45.6618 -8.0032 -33.5616 7.3850
# 4 -14.6444 9.6020 -8.0032 33.3562 -3.3474 -7.8951
# 5 0.0770 -1.4866 -33.5616 -3.3474 30.0405 3.4562
# 6 -12.3316 -7.2613 7.3850 -7.8951 3.4562 34.0349
#
#
#
# Elastic Compliance Matrix: (Units=1/GPa)
#
#
# Indices 1 2 3 4 5 6 
#
# 1 0.000594 -0.004530 0.023429 0.008376 0.027653 -0.006700
# 2 -0.004530 0.012376 0.005614 -0.003966 0.006663 -0.001816
# 3 0.023429 0.005614 -0.013881 0.007513 -0.016306 0.016097
# 4 0.008376 -0.003966 0.007513 0.039805 0.011620 0.008612
# 5 0.027653 0.006663 -0.016306 0.011620 0.014764 0.016175
# 6 -0.006700 -0.001816 0.016097 0.008612 0.016175 0.023429
#
#
# Mechanical properties :
#
#
# Convention : Reuss Voigt Hill
#
# Bulk Modulus (GPa) = 20.78376 27.10728 23.94552
# Shear Modulus (GPa) = 113.37802 27.41632 70.39717
#
# Velocity S-wave (km/s) = 6.80188 3.34479 5.35972
# Velocity P-wave (km/s) = 8.37666 5.09689 6.93350
#
# Compressibility (1/GPa) = 0.04811449
#
# Stress axis : x y z
#
# Youngs Moduli (GPa) = 1682.77726 80.79960 -72.03855
#
# Poissons Ratio (x) = 0.36605 1.68777
# Poissons Ratio (y) = 7.62348 0.40444
# Poissons Ratio (z) = -39.42531 -0.45363
#
# Static dielectric constant tensor:
#      x y z
#    x 1.930040 -0.022130 -0.015650 
#    y -0.022130 1.956940 -0.065540 
#    z -0.015650 -0.065540 1.979270 
# 
# From -- ./inp_files/122365.got.cif
#   From: 2010.05.17/outbox.cif.g08.bks.cpg/sg2_62_cif.got.tgz:122365.got - 2010.06.03 11:33:40.
