data_PCOD9017747
_publ_section_title
;
Structure prediction by ZEFSAII (Michael W. Deem and Ramdas Pophale) SiO2 
 PCOD9017747
Probable space group: P -1
;
_chemical_formula_sum "Si O2"
_cell_formula_units_Z 14
_cell_length_a 25.012374
_cell_length_b 8.169514
_cell_length_c 8.559044
_cell_angle_alpha 78.457110
_cell_angle_beta 139.509602
_cell_angle_gamma 132.770008
_cell_volume 623.606627
_symmetry_space_group_name_H-M "P -1"
_symmetry_group_IT_number 2
_symmetry_cell_setting 'triclinic'
loop_
_space_group_symop_operation_xyz
x,y,z
-x,-y,-z
loop_
_atom_site_type_symbol
_atom_site_label
_atom_site_fract_x
_atom_site_fract_y
_atom_site_fract_z
Si Si1 0.517849 0.559670 0.213222
Si Si2 0.786154 0.812480 0.367797
Si Si3 0.842251 0.715559 0.781219
Si Si4 0.256499 0.589264 0.846175
Si Si5 0.979628 0.270084 0.478687
Si Si6 0.278470 0.352888 0.165716
Si Si7 0.359214 0.885514 0.708626
O O1 0.601716 0.560083 0.498952
O O2 0.603601 0.880390 0.339210
O O3 0.500000 0.500000 0.000000
O O4 0.356135 0.321256 0.971425
O O5 0.762968 0.737672 0.512191
O O6 0.789204 0.633685 0.333066
O O7 0.938941 0.146338 0.588527
O O8 0.820588 0.719937 0.911467
O O9 0.764699 0.416491 0.609914
O O10 0.000000 0.000000 0.000000
O O11 0.320925 0.832733 0.820210
O O12 0.120537 0.434316 0.670448
O O13 0.344615 0.617134 0.158032
O O14 0.000000 0.500000 0.500000
O O15 0.836653 0.956929 0.127678
O O16 0.500000 0.000000 0.000000
#
# Coordination Sequence:
#
# PCOD9017747 Si02
#       7
#     2   2   2   2   2   2   2
#     4  12  24  43  68 104 145 181 233 284 346 414
#     4  10  21  43  66  90 144 185 219 286 347 402
#     4  11  21  40  70 100 132 182 241 282 344 415
#     4  10  22  43  69  95 134 177 232 281 344 409
#     4  11  25  43  67 103 138 179 232 293 353 409
#     4  11  23  42  69 100 138 182 225 287 350 407
#     4  11  22  45  70  98 137 185 228 283 350 413
#
# _framework density 22.450050000000001
#
# number of rings (size 3 to 8) (size 9 to 14) (size 15 to 20)
#    0.000    1.143    4.286    4.286    2.000    4.571 
#    0.000    5.000    0.000    0.000    0.000    0.000 
#    0.000    0.000    0.000    0.000    0.000    0.000 
#
# Total GULP energy -78049.109988 kJ/mol
# GULP energy per Si atom -5574.936428 kJ/mol
# Density = 2.239895 g / cm^3
# Si number density = 22.450050 Si / 1000 Ang^3
#
#
#
# Elastic Constant Matrix: (Units=GPa)
#
#
# Indices 1 2 3 4 5 6 
#
# 1 107.5818 30.8005 30.8625 4.3697 9.4821 11.3654
# 2 30.8005 70.7711 11.0002 -5.1913 2.2617 17.0662
# 3 30.8625 11.0002 86.7339 -7.7118 17.4752 -7.6170
# 4 4.3697 -5.1913 -7.7118 37.7392 0.3334 -4.6814
# 5 9.4821 2.2617 17.4752 0.3334 42.5879 3.0597
# 6 11.3654 17.0662 -7.6170 -4.6814 3.0597 36.2942
#
#
#
# Elastic Compliance Matrix: (Units=1/GPa)
#
#
# Indices 1 2 3 4 5 6 
#
# 1 0.012212 -0.004105 -0.004294 -0.003245 -0.000486 -0.003173
# 2 -0.004105 0.018029 -0.001546 0.001713 0.001108 -0.007389
# 3 -0.004294 -0.001546 0.015345 0.004256 -0.005746 0.006325
# 4 -0.003245 0.001713 0.004256 0.028606 -0.001693 0.004936
# 5 -0.000486 0.001108 -0.005746 -0.001693 0.026189 -0.004001
# 6 -0.003173 -0.007389 0.006325 0.004936 -0.004001 0.034322
#
#
# Mechanical properties :
#
#
# Convention : Reuss Voigt Hill
#
# Bulk Modulus (GPa) = 38.91573 45.60147 42.25860
# Shear Modulus (GPa) = 30.64504 36.15248 33.39876
#
# Velocity S-wave (km/s) = 3.69864 4.01727 3.86125
# Velocity P-wave (km/s) = 5.96757 6.47105 6.22440
#
# Compressibility (1/GPa) = 0.02569655
#
# Stress axis : x y z
#
# Youngs Moduli (GPa) = 81.88534 55.46654 65.16690
#
# Poissons Ratio (x) = 0.22768 0.27984
# Poissons Ratio (y) = 0.33613 0.10073
# Poissons Ratio (z) = 0.35163 0.08574
#
# Static dielectric constant tensor:
#      x y z
#    x 1.836150 0.052790 -0.043520 
#    y 0.052790 1.941340 -0.084320 
#    z -0.043520 -0.084320 1.973560 
# 
# From -- ./inp_files/351755.got.cif
#   From: 2010.05.17/outbox.cif.g08.bks.cpg/sg2_176_cif.got.tgz:351755.got - 2010.06.03 11:33:40.
