data_PCOD9017310
_publ_section_title
;
Structure prediction by ZEFSAII (Michael W. Deem and Ramdas Pophale) SiO2 
 PCOD9017310
Probable space group: P -1
;
_chemical_formula_sum "Si O2"
_cell_formula_units_Z 15
_cell_length_a 7.616423
_cell_length_b 17.279659
_cell_length_c 7.939481
_cell_angle_alpha 100.337524
_cell_angle_beta 73.091330
_cell_angle_gamma 43.740004
_cell_volume 558.618678
_symmetry_space_group_name_H-M "P -1"
_symmetry_group_IT_number 2
_symmetry_cell_setting 'triclinic'
loop_
_space_group_symop_operation_xyz
x,y,z
-x,-y,-z
loop_
_atom_site_type_symbol
_atom_site_label
_atom_site_fract_x
_atom_site_fract_y
_atom_site_fract_z
Si Si1 0.974539 0.393516 0.277071
Si Si2 0.000000 0.500000 0.000000
Si Si3 0.988613 0.977224 0.299769
Si Si4 0.860536 0.866223 0.419775
Si Si5 0.793885 0.951097 0.845406
Si Si6 0.633830 0.538854 0.951594
Si Si7 0.680857 0.330223 0.261725
Si Si8 0.754926 0.726550 0.469079
O O1 0.910659 0.325982 0.210442
O O2 0.618309 0.552434 0.484596
O O3 0.155749 0.327023 0.384346
O O4 0.110577 0.396443 0.087669
O O5 0.623534 0.594661 0.139459
O O6 0.624109 0.128544 0.399026
O O7 0.238003 0.943735 0.114704
O O8 0.034410 0.867531 0.250350
O O9 0.000000 0.000000 0.500000
O O10 0.872065 0.895080 0.614693
O O11 0.914632 0.754398 0.383922
O O12 0.500000 0.000000 0.500000
O O13 0.098250 0.821677 0.822424
O O14 0.500000 0.000000 0.000000
O O15 0.488358 0.614144 0.847687
O O16 0.037450 0.403565 0.768902
O O17 0.500000 0.500000 0.000000
#
# Coordination Sequence:
#
# PCOD9017310 Si02
#       8
#     2   1   2   2   2   2   2   2
#     4  10  22  42  69 102 133 181 228 284 350 421
#     4  12  26  42  66 108 144 166 238 290 344 418
#     4   9  21  40  64  99 127 177 238 274 331 412
#     4   9  19  41  66  90 125 178 230 272 334 405
#     4  11  23  40  65  98 137 180 226 285 347 404
#     4  11  25  43  65 105 142 176 227 291 357 407
#     4  10  22  43  69  92 140 186 223 272 358 424
#     4  10  21  42  73  92 136 189 230 279 356 424
#
# _framework density 26.851949000000001
#
# number of rings (size 3 to 8) (size 9 to 14) (size 15 to 20)
#    0.000    1.867    2.667    0.000    3.733    4.267 
#    2.400    2.667    0.000    0.000    0.000    0.000 
#    0.000    0.000    0.000    0.000    0.000    0.000 
#
# Total GULP energy -83748.455036 kJ/mol
# GULP energy per Si atom -5583.230336 kJ/mol
# Density = 2.679083 g / cm^3
# Si number density = 26.851949 Si / 1000 Ang^3
#
#
#
# Elastic Constant Matrix: (Units=GPa)
#
#
# Indices 1 2 3 4 5 6 
#
# 1 146.2235 53.7864 48.4342 -37.7617 -26.1672 -0.7150
# 2 53.7864 152.2634 76.5293 -54.5018 -11.0102 -14.1416
# 3 48.4342 76.5293 111.0837 -25.0422 -10.8254 9.9953
# 4 -37.7617 -54.5018 -25.0422 48.4725 0.4683 -0.9597
# 5 -26.1672 -11.0102 -10.8254 0.4683 43.4905 -22.6503
# 6 -0.7150 -14.1416 9.9953 -0.9597 -22.6503 63.9049
#
#
#
# Elastic Compliance Matrix: (Units=1/GPa)
#
#
# Indices 1 2 3 4 5 6 
#
# 1 0.011302 0.002522 -0.004077 0.009540 0.008688 0.004545
# 2 0.002522 0.018212 -0.009692 0.017529 0.008054 0.008692
# 3 -0.004077 -0.009692 0.016338 -0.005718 -0.004041 -0.006264
# 4 0.009540 0.017529 -0.005718 0.044892 0.013691 0.010407
# 5 0.008688 0.008054 -0.004041 0.013691 0.037432 0.015984
# 6 0.004545 0.008692 -0.006264 0.010407 0.015984 0.024424
#
#
# Mechanical properties :
#
#
# Convention : Reuss Voigt Hill
#
# Bulk Modulus (GPa) = 42.81170 85.23003 64.02086
# Shear Modulus (GPa) = 27.34023 46.56162 36.95093
#
# Velocity S-wave (km/s) = 3.19436 4.16867 3.71360
# Velocity P-wave (km/s) = 5.43907 7.41485 6.50244
#
# Compressibility (1/GPa) = 0.02335810
#
# Stress axis : x y z
#
# Youngs Moduli (GPa) = 88.47650 54.90789 61.20759
#
# Poissons Ratio (x) = -0.13847 0.24954
# Poissons Ratio (y) = -0.22313 0.59323
# Poissons Ratio (z) = 0.36071 0.53218
#
# Static dielectric constant tensor:
#      x y z
#    x 2.234140 -1.068110 -1.733980 
#    y -1.068110 2.338270 -0.297830 
#    z -1.733980 -0.297830 0.530260 
# 
# From -- ./inp_files/217451.got.cif
#   From: 2010.05.17/outbox.cif.g08.bks.cpg/sg2_109_cif.got.tgz:217451.got - 2010.06.03 11:33:40.
