data_PCOD9017810
_publ_section_title
;
Structure prediction by ZEFSAII (Michael W. Deem and Ramdas Pophale) SiO2 
 PCOD9017810
Probable space group: P -1
;
_chemical_formula_sum "Si O2"
_cell_formula_units_Z 14
_cell_length_a 11.381042
_cell_length_b 5.632305
_cell_length_c 14.256107
_cell_angle_alpha 97.853898
_cell_angle_beta 43.169522
_cell_angle_gamma 108.052221
_cell_volume 588.798397
_symmetry_space_group_name_H-M "P -1"
_symmetry_group_IT_number 2
_symmetry_cell_setting 'triclinic'
loop_
_space_group_symop_operation_xyz
x,y,z
-x,-y,-z
loop_
_atom_site_type_symbol
_atom_site_label
_atom_site_fract_x
_atom_site_fract_y
_atom_site_fract_z
Si Si1 0.157280 0.336286 0.970213
Si Si2 0.621413 0.736989 0.882168
Si Si3 0.510718 0.848201 0.261085
Si Si4 0.203111 0.689440 0.794880
Si Si5 0.583270 0.300948 0.489826
Si Si6 0.757875 0.231622 0.905836
Si Si7 0.823473 0.421356 0.664760
O O1 0.329603 0.244083 0.881908
O O2 0.166721 0.441023 0.864931
O O3 0.161437 0.572778 0.048663
O O4 0.949599 0.173077 0.098256
O O5 0.731905 0.644841 0.734553
O O6 0.762927 0.947548 0.874156
O O7 0.500000 0.500000 0.000000
O O8 0.457030 0.829545 0.948311
O O9 0.433303 0.679554 0.389042
O O10 0.335096 0.811427 0.298764
O O11 0.614873 0.124878 0.254362
O O12 0.226588 0.638406 0.669837
O O13 0.500000 0.500000 0.500000
O O14 0.500000 0.000000 0.500000
O O15 0.829823 0.355604 0.768663
O O16 0.000000 0.500000 0.500000
#
# Coordination Sequence:
#
# PCOD9017810 Si02
#       7
#     2   2   2   2   2   2   2
#     4  11  22  40  66  96 129 164 222 274 335 405
#     4   9  20  40  63  91 122 165 214 266 328 394
#     4  11  23  41  67  89 136 175 214 281 331 404
#     4  10  24  39  64  99 125 170 223 272 338 403
#     4  10  21  43  66  95 134 179 228 276 340 406
#     4  10  22  39  66  91 129 169 214 272 331 396
#     4  11  25  41  62  98 131 171 225 269 334 406
#
# _framework density 23.777238000000001
#
# number of rings (size 3 to 8) (size 9 to 14) (size 15 to 20)
#    0.000    1.714    2.857    0.429    8.000    0.571 
#    0.000    2.857    0.000    0.000    0.000    0.000 
#    0.000    0.000    0.000    0.000    0.000    0.000 
#
# Total GULP energy -78006.941360 kJ/mol
# GULP energy per Si atom -5571.924383 kJ/mol
# Density = 2.372312 g / cm^3
# Si number density = 23.777238 Si / 1000 Ang^3
#
#
#
# Elastic Constant Matrix: (Units=GPa)
#
#
# Indices 1 2 3 4 5 6 
#
# 1 59.4004 0.5905 31.4519 -11.4777 6.7272 11.4328
# 2 0.5905 66.6756 10.9808 3.1471 -1.0388 -1.7771
# 3 31.4519 10.9808 195.1429 2.5183 -0.1304 -9.4745
# 4 -11.4777 3.1471 2.5183 31.7525 -5.7022 3.6649
# 5 6.7272 -1.0388 -0.1304 -5.7022 43.6631 -2.4124
# 6 11.4328 -1.7771 -9.4745 3.6649 -2.4124 26.1368
#
#
#
# Elastic Compliance Matrix: (Units=1/GPa)
#
#
# Indices 1 2 3 4 5 6 
#
# 1 0.024431 -0.000350 -0.004741 0.010298 -0.003225 -0.014171
# 2 -0.000350 0.015234 -0.000722 -0.001669 0.000262 0.001185
# 3 -0.004741 -0.000722 0.006190 -0.002556 0.000657 0.004688
# 4 0.010298 -0.001669 -0.002556 0.037276 0.002652 -0.010527
# 5 -0.003225 0.000262 0.000657 0.002652 0.023948 0.003505
# 6 -0.014171 0.001185 0.004688 -0.010527 0.003505 0.048038
#
#
# Mechanical properties :
#
#
# Convention : Reuss Voigt Hill
#
# Bulk Modulus (GPa) = 29.21306 45.25171 37.23238
# Shear Modulus (GPa) = 28.06585 38.85687 33.46136
#
# Velocity S-wave (km/s) = 3.43937 4.04692 3.75545
# Velocity P-wave (km/s) = 5.29955 6.39606 5.87345
#
# Compressibility (1/GPa) = 0.03423127
#
# Stress axis : x y z
#
# Youngs Moduli (GPa) = 40.93108 65.64109 161.54508
#
# Poissons Ratio (x) = 0.02295 0.76590
# Poissons Ratio (y) = 0.01431 0.11658
# Poissons Ratio (z) = 0.19406 0.04737
#
# Static dielectric constant tensor:
#      x y z
#    x 2.075150 -0.012990 -0.042660 
#    y -0.012990 2.224760 -0.042660 
#    z -0.042660 -0.042660 1.962650 
# 
# From -- ./inp_files/82957.got.cif
#   From: 2010.05.17/outbox.cif.g08.bks.cpg/sg2_42_cif.got.tgz:82957.got - 2010.06.03 11:33:40.
