data_PCOD9017817
_publ_section_title
;
Structure prediction by ZEFSAII (Michael W. Deem and Ramdas Pophale) SiO2 
 PCOD9017817
Probable space group: P -1
;
_chemical_formula_sum "Si O2"
_cell_formula_units_Z 16
_cell_length_a 18.514478
_cell_length_b 8.808023
_cell_length_c 8.856778
_cell_angle_alpha 129.815459
_cell_angle_beta 108.016914
_cell_angle_gamma 45.960745
_cell_volume 773.007354
_symmetry_space_group_name_H-M "P -1"
_symmetry_group_IT_number 2
_symmetry_cell_setting 'triclinic'
loop_
_space_group_symop_operation_xyz
x,y,z
-x,-y,-z
loop_
_atom_site_type_symbol
_atom_site_label
_atom_site_fract_x
_atom_site_fract_y
_atom_site_fract_z
Si Si1 0.609909 0.238733 0.473353
Si Si2 0.526952 0.981178 0.180350
Si Si3 0.223665 0.765654 0.900054
Si Si4 0.909536 0.291023 0.048342
Si Si5 0.898578 0.296527 0.678475
Si Si6 0.596190 0.415960 0.917396
Si Si7 0.304909 0.544097 0.486515
Si Si8 0.038369 0.390992 0.124415
O O1 0.500000 0.500000 0.500000
O O2 0.606803 0.297093 0.684985
O O3 0.689215 0.244598 0.445090
O O4 0.609440 0.008489 0.286907
O O5 0.415996 0.241086 0.343961
O O6 0.571333 0.692654 0.071520
O O7 0.500000 0.000000 0.000000
O O8 0.189157 0.635864 0.891689
O O9 0.283076 0.594840 0.681010
O O10 0.295571 0.785548 0.054431
O O11 0.124718 0.068123 0.976028
O O12 0.943532 0.460460 0.201183
O O13 0.901398 0.289037 0.859362
O O14 0.000000 0.000000 0.000000
O O15 0.790237 0.396281 0.618375
O O16 0.911733 0.487315 0.728510
O O17 0.000000 0.000000 0.500000
O O18 0.500000 0.500000 0.000000
O O19 0.000000 0.500000 0.000000
#
# Coordination Sequence:
#
# PCOD9017817 Si02
#       8
#     2   2   2   2   2   2   2   2
#     4  10  21  43  66  96 127 180 230 271 327 407
#     4  11  24  44  71  96 133 184 230 274 333 402
#     4  11  24  42  64  99 133 174 222 284 345 389
#     4   9  19  40  64  90 130 164 215 282 339 384
#     4  11  22  40  67  98 127 172 226 275 334 414
#     4  12  25  42  68  98 142 171 219 293 336 388
#     4  11  23  40  68  95 132 177 233 274 332 412
#     4   9  20  41  68  91 124 175 219 269 335 402
#
# _framework density 20.698378999999999
#
# number of rings (size 3 to 8) (size 9 to 14) (size 15 to 20)
#    0.000    1.500    2.500    4.500    1.750    2.000 
#    4.500    5.625    0.000    0.000    0.000    0.000 
#    0.000    0.000    0.000    0.000    0.000    0.000 
#
# Total GULP energy -89258.060075 kJ/mol
# GULP energy per Si atom -5578.628755 kJ/mol
# Density = 2.065127 g / cm^3
# Si number density = 20.698379 Si / 1000 Ang^3
#
#
#
# Elastic Constant Matrix: (Units=GPa)
#
#
# Indices 1 2 3 4 5 6 
#
# 1 180.6413 21.9365 57.8697 -15.3485 18.8281 20.6340
# 2 21.9365 72.7441 19.8103 -11.3742 7.2939 2.5380
# 3 57.8697 19.8103 109.8082 -17.9039 -1.0544 12.5966
# 4 -15.3485 -11.3742 -17.9039 43.3229 3.0721 8.1025
# 5 18.8281 7.2939 -1.0544 3.0721 47.7230 -1.5268
# 6 20.6340 2.5380 12.5966 8.1025 -1.5268 40.2574
#
#
#
# Elastic Compliance Matrix: (Units=1/GPa)
#
#
# Indices 1 2 3 4 5 6 
#
# 1 0.007513 -0.000652 -0.003155 0.002038 -0.003172 -0.003353
# 2 -0.000652 0.015217 -0.001783 0.003349 -0.002350 -0.000830
# 3 -0.003155 -0.001783 0.012040 0.003801 0.001451 -0.002748
# 4 0.002038 0.003349 0.003801 0.028024 -0.003299 -0.008211
# 5 -0.003172 -0.002350 0.001451 -0.003299 0.022901 0.002853
# 6 -0.003353 -0.000830 -0.002748 -0.008211 0.002853 0.029232
#
#
# Mechanical properties :
#
#
# Convention : Reuss Voigt Hill
#
# Bulk Modulus (GPa) = 42.39149 62.49184 52.44167
# Shear Modulus (GPa) = 37.32174 43.83246 40.57710
#
# Velocity S-wave (km/s) = 4.25093 4.60681 4.43244
# Velocity P-wave (km/s) = 6.67974 7.65207 7.18238
#
# Compressibility (1/GPa) = 0.02358964
#
# Stress axis : x y z
#
# Youngs Moduli (GPa) = 133.10908 65.71456 83.05670
#
# Poissons Ratio (x) = 0.04288 0.26204
# Poissons Ratio (y) = 0.08685 0.14806
# Poissons Ratio (z) = 0.41995 0.11715
#
# Static dielectric constant tensor:
#      x y z
#    x 1.798500 -0.022170 0.029400 
#    y -0.022170 1.746270 -0.005360 
#    z 0.029400 -0.005360 1.726850 
# 
# From -- ./inp_files/328083.got.cif
#   From: 2010.05.17/outbox.cif.g08.bks.cpg/sg2_165_cif.got.tgz:328083.got - 2010.06.03 11:33:40.
