data_PCOD9017811
_publ_section_title
;
Structure prediction by ZEFSAII (Michael W. Deem and Ramdas Pophale) SiO2 
 PCOD9017811
Probable space group: P -1
;
_chemical_formula_sum "Si O2"
_cell_formula_units_Z 15
_cell_length_a 6.785013
_cell_length_b 9.055223
_cell_length_c 16.206654
_cell_angle_alpha 76.564452
_cell_angle_beta 54.222197
_cell_angle_gamma 93.808270
_cell_volume 759.470546
_symmetry_space_group_name_H-M "P -1"
_symmetry_group_IT_number 2
_symmetry_cell_setting 'triclinic'
loop_
_space_group_symop_operation_xyz
x,y,z
-x,-y,-z
loop_
_atom_site_type_symbol
_atom_site_label
_atom_site_fract_x
_atom_site_fract_y
_atom_site_fract_z
Si Si1 0.321894 0.814966 0.299339
Si Si2 0.000000 0.500000 0.500000
Si Si3 0.263087 0.254059 0.393162
Si Si4 0.189080 0.023080 0.753482
Si Si5 0.265017 0.573237 0.033642
Si Si6 0.077630 0.987374 0.598604
Si Si7 0.765914 0.304957 0.158255
Si Si8 0.693627 0.142378 0.889191
O O1 0.168686 0.945805 0.337026
O O2 0.399747 0.827846 0.183151
O O3 0.138875 0.648660 0.387419
O O4 0.559372 0.852351 0.296352
O O5 0.797657 0.599457 0.566345
O O6 0.520124 0.297023 0.274306
O O7 0.255071 0.113439 0.478636
O O8 0.027399 0.178175 0.399655
O O9 0.174249 0.863935 0.827939
O O10 0.191009 0.982833 0.661335
O O11 0.952388 0.092159 0.819873
O O12 0.265510 0.702849 0.085794
O O13 0.006372 0.436993 0.114214
O O14 0.500000 0.500000 0.000000
O O15 0.286408 0.654451 0.928034
O O16 0.500000 0.000000 0.000000
#
# Coordination Sequence:
#
# PCOD9017811 Si02
#       8
#     2   1   2   2   2   2   2   2
#     4  10  22  43  63  97 131 172 217 271 332 392
#     4  10  24  40  66  92 136 176 206 276 332 382
#     4  10  21  43  66  95 135 173 215 273 324 399
#     4  11  23  42  70  98 128 173 223 274 326 396
#     4  11  27  45  63 100 136 176 221 275 328 397
#     4   9  21  42  64  97 128 167 223 263 327 389
#     4  11  25  42  69  98 131 176 228 266 331 398
#     4  11  25  42  68  96 132 174 221 278 334 386
#
# _framework density 19.750603000000002
#
# number of rings (size 3 to 8) (size 9 to 14) (size 15 to 20)
#    0.000    1.600    1.333    1.600    7.467    3.733 
#    2.400    2.000    0.000    0.000    0.000    0.000 
#    0.000    0.000    0.000    0.000    0.000    0.000 
#
# Total GULP energy -83595.914589 kJ/mol
# GULP energy per Si atom -5573.060973 kJ/mol
# Density = 1.970565 g / cm^3
# Si number density = 19.750603 Si / 1000 Ang^3
#
#
#
# Elastic Constant Matrix: (Units=GPa)
#
#
# Indices 1 2 3 4 5 6 
#
# 1 91.0824 14.8079 36.3143 8.6782 13.4049 -1.7942
# 2 14.8079 64.4667 15.1153 4.9486 4.1809 -10.2859
# 3 36.3143 15.1153 105.9561 1.2412 4.4796 8.9748
# 4 8.6782 4.9486 1.2412 19.9458 -7.5149 -1.1839
# 5 13.4049 4.1809 4.4796 -7.5149 24.3493 5.1702
# 6 -1.7942 -10.2859 8.9748 -1.1839 5.1702 20.7641
#
#
#
# Elastic Compliance Matrix: (Units=1/GPa)
#
#
# Indices 1 2 3 4 5 6 
#
# 1 0.016186 0.000279 -0.005461 -0.011205 -0.012780 0.006441
# 2 0.000279 0.019299 -0.003516 -0.006805 -0.007598 0.012608
# 3 -0.005461 -0.003516 0.012300 0.003580 0.004232 -0.008379
# 4 -0.011205 -0.006805 0.003580 0.066974 0.029338 -0.009373
# 5 -0.012780 -0.007598 0.004232 0.029338 0.062032 -0.020470
# 6 0.006441 0.012608 -0.008379 -0.009373 -0.020470 0.063146
#
#
# Mechanical properties :
#
#
# Convention : Reuss Voigt Hill
#
# Bulk Modulus (GPa) = 32.90625 43.77556 38.34090
# Shear Modulus (GPa) = 18.69417 26.02970 22.36193
#
# Velocity S-wave (km/s) = 3.07988 3.63425 3.36849
# Velocity P-wave (km/s) = 5.41707 6.31052 5.88079
#
# Compressibility (1/GPa) = 0.03038936
#
# Stress axis : x y z
#
# Youngs Moduli (GPa) = 61.78013 51.81666 81.30009
#
# Poissons Ratio (x) = -0.01446 0.44401
# Poissons Ratio (y) = -0.01724 0.28583
# Poissons Ratio (z) = 0.33740 0.18217
#
# Static dielectric constant tensor:
#      x y z
#    x 1.694260 0.013000 0.006980 
#    y 0.013000 1.681850 0.010190 
#    z 0.006980 0.010190 1.683970 
# 
# From -- ./inp_files/93047.got.cif
#   From: 2010.05.17/outbox.cif.g08.bks.cpg/sg2_47_cif.got.tgz:93047.got - 2010.06.03 11:33:40.
