data_PCOD9017769
_publ_section_title
;
Structure prediction by ZEFSAII (Michael W. Deem and Ramdas Pophale) SiO2 
 PCOD9017769
Probable space group: P -1
;
_chemical_formula_sum "Si O2"
_cell_formula_units_Z 14
_cell_length_a 28.153068
_cell_length_b 16.491710
_cell_length_c 5.648819
_cell_angle_alpha 48.712139
_cell_angle_beta 48.841659
_cell_angle_gamma 17.658911
_cell_volume 592.823364
_symmetry_space_group_name_H-M "P -1"
_symmetry_group_IT_number 2
_symmetry_cell_setting 'triclinic'
loop_
_space_group_symop_operation_xyz
x,y,z
-x,-y,-z
loop_
_atom_site_type_symbol
_atom_site_label
_atom_site_fract_x
_atom_site_fract_y
_atom_site_fract_z
Si Si1 0.404864 0.793450 0.067379
Si Si2 0.890493 0.279686 0.329497
Si Si3 0.722285 0.204787 0.236128
Si Si4 0.198756 0.276281 0.081679
Si Si5 0.593235 0.846695 0.239039
Si Si6 0.007828 0.116930 0.759917
Si Si7 0.148101 0.156472 0.834357
O O1 0.591924 0.489822 0.010304
O O2 0.363136 0.770668 0.448683
O O3 0.322703 0.032995 0.955593
O O4 0.304117 0.910327 0.953514
O O5 0.701440 0.569224 0.417614
O O6 0.940717 0.254888 0.461547
O O7 0.910699 0.298693 0.964297
O O8 0.000000 0.000000 0.500000
O O9 0.845069 0.962805 0.113426
O O10 0.818287 0.111145 0.312328
O O11 0.168704 0.231230 0.463858
O O12 0.019893 0.573718 0.999520
O O13 0.282779 0.247750 0.974290
O O14 0.500000 0.000000 0.500000
O O15 0.500000 0.000000 0.000000
O O16 0.000000 0.000000 0.000000
#
# Coordination Sequence:
#
# PCOD9017769 Si02
#       7
#     2   2   2   2   2   2   2
#     4  10  22  40  63  94 129 172 216 291 341 398
#     4  10  23  45  70  96 133 183 233 273 333 409
#     4  10  22  37  63  98 128 167 227 277 347 397
#     4  10  24  41  65  96 129 178 227 275 342 415
#     4  12  28  47  70 106 145 185 227 289 356 422
#     4  10  22  41  66 103 133 177 223 281 337 416
#     4  10  21  43  66  93 128 175 232 281 335 406
#
# _framework density 23.615804000000001
#
# number of rings (size 3 to 8) (size 9 to 14) (size 15 to 20)
#    0.000    1.714    0.000    2.571    6.000    4.571 
#    0.000    0.000    0.000    0.000    0.000    0.000 
#    0.000    0.000    0.000    0.000    0.000    0.000 
#
# Total GULP energy -78063.087468 kJ/mol
# GULP energy per Si atom -5575.934819 kJ/mol
# Density = 2.356205 g / cm^3
# Si number density = 23.615804 Si / 1000 Ang^3
#
#
#
# Elastic Constant Matrix: (Units=GPa)
#
#
# Indices 1 2 3 4 5 6 
#
# 1 140.4351 50.3169 32.9439 -9.4742 14.2311 -9.0287
# 2 50.3169 152.1336 38.7149 -17.3035 11.0712 -0.8953
# 3 32.9439 38.7149 81.4594 4.5884 22.7451 3.8834
# 4 -9.4742 -17.3035 4.5884 30.4906 -4.6392 10.9587
# 5 14.2311 11.0712 22.7451 -4.6392 43.5022 -2.6615
# 6 -9.0287 -0.8953 3.8834 10.9587 -2.6615 32.7148
#
#
#
# Elastic Compliance Matrix: (Units=1/GPa)
#
#
# Indices 1 2 3 4 5 6 
#
# 1 0.008740 -0.002074 -0.002493 0.000983 -0.000785 0.002258
# 2 -0.002074 0.008807 -0.003853 0.005691 0.000954 -0.001703
# 3 -0.002493 -0.003853 0.017867 -0.006394 -0.008316 -0.001449
# 4 0.000983 0.005691 -0.006394 0.042661 0.005348 -0.012670
# 5 -0.000785 0.000954 -0.008316 0.005348 0.027998 0.001283
# 6 0.002258 -0.001703 -0.001449 -0.012670 0.001283 0.035664
#
#
# Mechanical properties :
#
#
# Convention : Reuss Voigt Hill
#
# Bulk Modulus (GPa) = 53.83723 68.66438 61.25081
# Shear Modulus (GPa) = 30.34573 38.14500 34.24537
#
# Velocity S-wave (km/s) = 3.58854 4.02335 3.81215
# Velocity P-wave (km/s) = 6.32588 7.12193 6.73568
#
# Compressibility (1/GPa) = 0.01857451
#
# Stress axis : x y z
#
# Youngs Moduli (GPa) = 114.42198 113.54061 55.97066
#
# Poissons Ratio (x) = 0.23549 0.13951
# Poissons Ratio (y) = 0.23732 0.21565
# Poissons Ratio (z) = 0.28520 0.43746
#
# Static dielectric constant tensor:
#      x y z
#    x 1.891520 0.036400 -0.009350 
#    y 0.036400 1.873700 0.049980 
#    z -0.009350 0.049980 1.912540 
# 
# From -- ./inp_files/124119.got.cif
#   From: 2010.05.17/outbox.cif.g08.bks.cpg/sg2_63_cif.got.tgz:124119.got - 2010.06.03 11:33:40.
