data_PCOD9017513
_publ_section_title
;
Structure prediction by ZEFSAII (Michael W. Deem and Ramdas Pophale) SiO2 
 PCOD9017513
Probable space group: P -1
;
_chemical_formula_sum "Si O2"
_cell_formula_units_Z 12
_cell_length_a 8.101688
_cell_length_b 13.684309
_cell_length_c 10.064086
_cell_angle_alpha 146.366329
_cell_angle_beta 120.068213
_cell_angle_gamma 57.749325
_cell_volume 518.808710
_symmetry_space_group_name_H-M "P -1"
_symmetry_group_IT_number 2
_symmetry_cell_setting 'triclinic'
loop_
_space_group_symop_operation_xyz
x,y,z
-x,-y,-z
loop_
_atom_site_type_symbol
_atom_site_label
_atom_site_fract_x
_atom_site_fract_y
_atom_site_fract_z
Si Si1 0.579629 0.000808 0.744303
Si Si2 0.031287 0.202613 0.243011
Si Si3 0.404034 0.373567 0.225386
Si Si4 0.200185 0.009532 0.461095
Si Si5 0.039712 0.622222 0.304478
Si Si6 0.993511 0.707231 0.955473
O O1 0.365004 0.967412 0.593018
O O2 0.730661 0.840697 0.700874
O O3 0.682117 0.006248 0.648882
O O4 0.550440 0.199864 0.023390
O O5 0.941232 0.294376 0.446826
O O6 0.950967 0.304967 0.191518
O O7 0.000000 0.000000 0.000000
O O8 0.500000 0.500000 0.500000
O O9 0.238653 0.286394 0.129561
O O10 0.257078 0.513943 0.226212
O O11 0.076132 0.217612 0.652002
O O12 0.055906 0.877708 0.236641
O O13 0.921304 0.471632 0.124785
#
# Coordination Sequence:
#
# PCOD9017513 Si02
#       6
#     2   2   2   2   2   2
#     4  10  22  38  63  91 120 159 202 254 291 354
#     4  11  18  37  66  86 118 160 203 246 295 356
#     4  10  23  38  58  96 126 147 207 255 298 351
#     4  10  21  43  64  82 123 167 202 239 298 367
#     4   9  21  37  60  88 118 160 198 243 303 353
#     4  10  22  37  66  86 120 163 199 244 307 357
#
# _framework density 23.129912000000001
#
# number of rings (size 3 to 8) (size 9 to 14) (size 15 to 20)
#    1.000    1.000    3.333    1.500    0.000    2.000 
#    0.000    9.167    0.000    0.000    0.000    0.000 
#    0.000    0.000    0.000    0.000    0.000    0.000 
#
# Total GULP energy -66947.758522 kJ/mol
# GULP energy per Si atom -5578.979877 kJ/mol
# Density = 2.307727 g / cm^3
# Si number density = 23.129912 Si / 1000 Ang^3
#
#
#
# Elastic Constant Matrix: (Units=GPa)
#
#
# Indices 1 2 3 4 5 6 
#
# 1 61.6028 11.2395 20.2594 -5.9496 12.0534 -5.0353
# 2 11.2395 83.5749 25.0730 -8.3656 15.1811 -10.8823
# 3 20.2594 25.0730 130.4759 -3.8185 13.4704 -1.5381
# 4 -5.9496 -8.3656 -3.8185 34.0939 -4.7957 -0.9517
# 5 12.0534 15.1811 13.4704 -4.7957 50.7066 2.8962
# 6 -5.0353 -10.8823 -1.5381 -0.9517 2.8962 30.6691
#
#
#
# Elastic Compliance Matrix: (Units=1/GPa)
#
#
# Indices 1 2 3 4 5 6 
#
# 1 0.018247 -0.000484 -0.002268 0.002400 -0.003541 0.003119
# 2 -0.000484 0.014313 -0.002155 0.002823 -0.003635 0.005322
# 3 -0.002268 -0.002155 0.008529 -0.000135 -0.001059 -0.000613
# 4 0.002400 0.002823 -0.000135 0.030685 0.001396 0.002209
# 5 -0.003541 -0.003635 -0.001059 0.001396 0.022292 -0.003986
# 6 0.003119 0.005322 -0.000613 0.002209 -0.003986 0.035421
#
#
# Mechanical properties :
#
#
# Convention : Reuss Voigt Hill
#
# Bulk Modulus (GPa) = 31.97382 43.19971 37.58677
# Shear Modulus (GPa) = 33.39478 37.69936 35.54707
#
# Velocity S-wave (km/s) = 3.80385 4.04158 3.92451
# Velocity P-wave (km/s) = 5.75725 6.36370 6.06806
#
# Compressibility (1/GPa) = 0.03127559
#
# Stress axis : x y z
#
# Youngs Moduli (GPa) = 54.80422 69.86852 117.25293
#
# Poissons Ratio (x) = 0.03381 0.26588
# Poissons Ratio (y) = 0.02652 0.25264
# Poissons Ratio (z) = 0.12427 0.15054
#
# Static dielectric constant tensor:
#      x y z
#    x 1.907090 -0.048590 -0.001210 
#    y -0.048590 1.889420 -0.029970 
#    z -0.001210 -0.029970 1.914860 
# 
# From -- ./inp_files/401578.got.cif
#   From: 2010.05.17/outbox.cif.g08.bks.cpg/sg2_201_cif.got.tgz:401578.got - 2010.06.03 11:33:40.
