data_PCOD9017361
_publ_section_title
;
Structure prediction by ZEFSAII (Michael W. Deem and Ramdas Pophale) SiO2 
 PCOD9017361
Probable space group: P -1
;
_chemical_formula_sum "Si O2"
_cell_formula_units_Z 12
_cell_length_a 12.127430
_cell_length_b 11.109055
_cell_length_c 5.861713
_cell_angle_alpha 110.877693
_cell_angle_beta 100.994354
_cell_angle_gamma 41.324255
_cell_volume 483.425317
_symmetry_space_group_name_H-M "P -1"
_symmetry_group_IT_number 2
_symmetry_cell_setting 'triclinic'
loop_
_space_group_symop_operation_xyz
x,y,z
-x,-y,-z
loop_
_atom_site_type_symbol
_atom_site_label
_atom_site_fract_x
_atom_site_fract_y
_atom_site_fract_z
Si Si1 0.481761 0.079951 0.295850
Si Si2 0.624270 0.580534 0.065029
Si Si3 0.339218 0.713029 0.356095
Si Si4 0.138414 0.495876 0.566785
Si Si5 0.945541 0.913085 0.797580
Si Si6 0.323947 0.897559 0.845675
O O1 0.301466 0.304555 0.369105
O O2 0.634404 0.050322 0.317124
O O3 0.500000 0.000000 0.500000
O O4 0.500000 0.000000 0.000000
O O5 0.518543 0.607640 0.252356
O O6 0.773515 0.544980 0.181781
O O7 0.686599 0.409763 0.820571
O O8 0.476829 0.775258 0.999980
O O9 0.327568 0.750301 0.645005
O O10 0.186099 0.923911 0.329037
O O11 0.000000 0.500000 0.500000
O O12 0.068611 0.697308 0.606466
O O13 0.842379 0.928329 0.967349
O O14 0.000000 0.000000 0.000000
#
# Coordination Sequence:
#
# PCOD9017361 Si02
#       6
#     2   2   2   2   2   2
#     4  12  28  53  80 112 156 222 281 331 399 502
#     4  10  21  43  71 111 149 204 272 322 392 488
#     4  10  21  42  75 105 151 208 262 321 399 482
#     4  12  26  47  77 114 159 208 263 341 410 477
#     4  11  25  48  73 119 167 198 263 336 417 479
#     4  11  24  44  77 108 150 214 270 331 395 487
#
# _framework density 24.822861
#
# number of rings (size 3 to 8) (size 9 to 14) (size 15 to 20)
#    0.000    1.000    3.333    2.500    4.667    2.000 
#    6.000    4.167    0.000    0.000    0.000    0.000 
#    0.000    0.000    0.000    0.000    0.000    0.000 
#
# Total GULP energy -67013.173485 kJ/mol
# GULP energy per Si atom -5584.431124 kJ/mol
# Density = 2.476636 g / cm^3
# Si number density = 24.822861 Si / 1000 Ang^3
#
#
#
# Elastic Constant Matrix: (Units=GPa)
#
#
# Indices 1 2 3 4 5 6 
#
# 1 118.6201 56.8120 53.1861 -5.0316 22.8696 -4.5568
# 2 56.8120 131.2261 52.9116 20.5498 0.8542 2.5262
# 3 53.1861 52.9116 140.6646 14.3645 25.1493 1.1038
# 4 -5.0316 20.5498 14.3645 47.8050 -6.4575 9.6719
# 5 22.8696 0.8542 25.1493 -6.4575 62.2428 -10.5049
# 6 -4.5568 2.5262 1.1038 9.6719 -10.5049 36.3902
#
#
#
# Elastic Compliance Matrix: (Units=1/GPa)
#
#
# Indices 1 2 3 4 5 6 
#
# 1 0.012873 -0.005032 -0.002823 0.003926 -0.003094 0.000110
# 2 -0.005032 0.011428 -0.002339 -0.004537 0.002251 0.000503
# 3 -0.002823 -0.002339 0.009921 -0.002567 -0.003336 -0.000773
# 4 0.003926 -0.004537 -0.002567 0.025342 0.001365 -0.005457
# 5 -0.003094 0.002251 -0.003336 0.001365 0.019475 0.004816
# 6 0.000110 0.000503 -0.000773 -0.005457 0.004816 0.030323
#
#
# Mechanical properties :
#
#
# Convention : Reuss Voigt Hill
#
# Bulk Modulus (GPa) = 72.28626 79.59225 75.93925
# Shear Modulus (GPa) = 37.21280 44.46100 40.83690
#
# Velocity S-wave (km/s) = 3.87607 4.23677 4.06042
# Velocity P-wave (km/s) = 7.01541 7.48781 7.25545
#
# Compressibility (1/GPa) = 0.01383389
#
# Stress axis : x y z
#
# Youngs Moduli (GPa) = 77.67937 87.50251 100.79345
#
# Poissons Ratio (x) = 0.44029 0.28458
# Poissons Ratio (y) = 0.39086 0.23580
# Poissons Ratio (z) = 0.21932 0.20471
#
# Static dielectric constant tensor:
#      x y z
#    x 2.318440 0.136110 0.288830 
#    y 0.136110 2.014710 0.101190 
#    z 0.288830 0.101190 2.270730 
# 
# From -- ./inp_files/64956.got.cif
#   From: 2010.05.17/outbox.cif.g08.bks.cpg/sg2_33_cif.got.tgz:64956.got - 2010.06.03 11:33:40.
