data_PCOD9017263
_publ_section_title
;
Structure prediction by ZEFSAII (Michael W. Deem and Ramdas Pophale) SiO2 
 PCOD9017263
Probable space group: P -1
;
_chemical_formula_sum "Si O2"
_cell_formula_units_Z 10
_cell_length_a 6.845073
_cell_length_b 12.251378
_cell_length_c 11.947022
_cell_angle_alpha 146.324852
_cell_angle_beta 127.030278
_cell_angle_gamma 50.797725
_cell_volume 423.663943
_symmetry_space_group_name_H-M "P -1"
_symmetry_group_IT_number 2
_symmetry_cell_setting 'triclinic'
loop_
_space_group_symop_operation_xyz
x,y,z
-x,-y,-z
loop_
_atom_site_type_symbol
_atom_site_label
_atom_site_fract_x
_atom_site_fract_y
_atom_site_fract_z
Si Si1 0.302420 0.432114 0.530783
Si Si2 0.242053 0.700757 0.080951
Si Si3 0.020343 0.716722 0.242589
Si Si4 0.514968 0.986281 0.628004
Si Si5 0.263422 0.431875 0.257438
O O1 0.341680 0.383098 0.370565
O O2 0.469673 0.594985 0.742883
O O3 0.000000 0.500000 0.500000
O O4 0.391676 0.236019 0.474431
O O5 0.192439 0.772630 0.254626
O O6 0.293335 0.874182 0.168254
O O7 0.500000 0.500000 0.000000
O O8 0.972776 0.663260 0.921990
O O9 0.125590 0.664324 0.360150
O O10 0.750662 0.884152 0.297989
O O11 0.000000 0.500000 0.000000
O O12 0.500000 0.000000 0.500000
#
# Coordination Sequence:
#
# PCOD9017263 Si02
#       5
#     2   2   2   2   2
#     4  11  26  43  66 100 149 187 223 288 350 417
#     4  11  23  43  74 104 136 181 234 292 347 410
#     4  10  21  42  72  99 137 177 233 288 343 408
#     4  12  25  43  74 109 137 182 239 286 349 415
#     4  10  23  43  68  97 140 185 229 281 356 407
#
# _framework density 23.603611999999998
#
# number of rings (size 3 to 8) (size 9 to 14) (size 15 to 20)
#    0.000    1.200    4.000    2.400    2.800    7.200 
#    0.000    5.000    0.000    0.000    0.000    0.000 
#    0.000    0.000    0.000    0.000    0.000    0.000 
#
# Total GULP energy -55689.972229 kJ/mol
# GULP energy per Si atom -5568.997223 kJ/mol
# Density = 2.354989 g / cm^3
# Si number density = 23.603612 Si / 1000 Ang^3
#
#
#
# Elastic Constant Matrix: (Units=GPa)
#
#
# Indices 1 2 3 4 5 6 
#
# 1 231.4507 84.4987 59.6985 8.7428 25.2527 -3.7744
# 2 84.4987 144.8863 47.0542 -15.8465 2.6776 5.4403
# 3 59.6985 47.0542 69.8823 -5.0038 11.3827 -4.7196
# 4 8.7428 -15.8465 -5.0038 29.0109 -9.3990 -3.7853
# 5 25.2527 2.6776 11.3827 -9.3990 44.7415 -4.3168
# 6 -3.7744 5.4403 -4.7196 -3.7853 -4.3168 58.3663
#
#
#
# Elastic Compliance Matrix: (Units=1/GPa)
#
#
# Indices 1 2 3 4 5 6 
#
# 1 0.007277 -0.003713 -0.003471 -0.006248 -0.004333 -0.000190
# 2 -0.003713 0.011392 -0.004677 0.007766 0.004151 -0.000869
# 3 -0.003471 -0.004677 0.021084 0.001513 -0.002632 0.001820
# 4 -0.006248 0.007766 0.001513 0.045265 0.012461 0.002852
# 5 -0.004333 0.004151 -0.002632 0.012461 0.028028 0.002001
# 6 -0.000190 -0.000869 0.001820 0.002852 0.002001 0.017682
#
#
# Mechanical properties :
#
#
# Convention : Reuss Voigt Hill
#
# Bulk Modulus (GPa) = 62.38155 92.08023 77.23089
# Shear Modulus (GPa) = 31.29014 43.42160 37.35587
#
# Velocity S-wave (km/s) = 3.64490 4.29373 3.98255
# Velocity P-wave (km/s) = 6.64830 7.97980 7.34429
#
# Compressibility (1/GPa) = 0.01603038
#
# Stress axis : x y z
#
# Youngs Moduli (GPa) = 137.41783 87.78235 47.42870
#
# Poissons Ratio (x) = 0.32593 0.16462
# Poissons Ratio (y) = 0.51023 0.22184
# Poissons Ratio (z) = 0.47697 0.41060
#
# Static dielectric constant tensor:
#      x y z
#    x 2.030210 -0.082630 0.210390 
#    y -0.082630 1.806260 -0.031620 
#    z 0.210390 -0.031620 2.119150 
# 
# From -- ./inp_files/138368.got.cif
#   From: 2010.05.17/outbox.cif.g08.bks.cpg/sg2_70_cif.got.tgz:138368.got - 2010.06.03 11:33:40.
