data_PCOD9017587
_publ_section_title
;
Structure prediction by ZEFSAII (Michael W. Deem and Ramdas Pophale) SiO2 
 PCOD9017587
Probable space group: P -1
;
_chemical_formula_sum "Si O2"
_cell_formula_units_Z 14
_cell_length_a 12.160843
_cell_length_b 9.235398
_cell_length_c 6.970424
_cell_angle_alpha 79.588923
_cell_angle_beta 56.311759
_cell_angle_gamma 50.973063
_cell_volume 488.519595
_symmetry_space_group_name_H-M "P -1"
_symmetry_group_IT_number 2
_symmetry_cell_setting 'triclinic'
loop_
_space_group_symop_operation_xyz
x,y,z
-x,-y,-z
loop_
_atom_site_type_symbol
_atom_site_label
_atom_site_fract_x
_atom_site_fract_y
_atom_site_fract_z
Si Si1 0.971671 0.691441 0.733288
Si Si2 0.264552 0.281370 0.739693
Si Si3 0.652882 0.329946 0.757464
Si Si4 0.630090 0.104157 0.360370
Si Si5 0.509344 0.827875 0.957689
Si Si6 0.823035 0.259055 0.243591
Si Si7 0.858014 0.386421 0.775776
O O1 0.135522 0.477997 0.702010
O O2 0.009646 0.821798 0.767506
O O3 0.980708 0.681456 0.497085
O O4 0.819063 0.719216 0.983703
O O5 0.445094 0.232298 0.616936
O O6 0.148694 0.654150 0.986153
O O7 0.290908 0.114193 0.631005
O O8 0.668028 0.392065 0.519178
O O9 0.814741 0.265175 0.737862
O O10 0.500000 0.500000 0.000000
O O11 0.627239 0.176458 0.794756
O O12 0.560630 0.144824 0.197955
O O13 0.767198 0.136614 0.253820
O O14 0.697326 0.613595 0.839636
O O15 0.500000 0.000000 0.000000
#
# Coordination Sequence:
#
# PCOD9017587 Si02
#       7
#     2   2   2   2   2   2   2
#     4  10  23  47  71  97 141 183 222 286 344 412
#     4  10  24  44  68  99 144 178 224 287 349 404
#     4   9  21  38  59  97 137 170 225 284 334 398
#     4  11  24  43  70 106 136 179 234 286 337 410
#     4  11  23  37  60 102 145 172 219 294 345 392
#     4  11  24  40  75 100 131 186 233 279 340 406
#     4  10  21  43  65 100 135 177 233 279 333 417
#
# _framework density 28.658010000000001
#
# number of rings (size 3 to 8) (size 9 to 14) (size 15 to 20)
#    0.000    1.714    2.857    0.000    6.000    4.571 
#    0.000    5.000    0.000    0.000    0.000    0.000 
#    0.000    0.000    0.000    0.000    0.000    0.000 
#
# Total GULP energy -78351.290337 kJ/mol
# GULP energy per Si atom -5596.520738 kJ/mol
# Density = 2.859278 g / cm^3
# Si number density = 28.658010 Si / 1000 Ang^3
#
#
#
# Elastic Constant Matrix: (Units=GPa)
#
#
# Indices 1 2 3 4 5 6 
#
# 1 168.6366 48.6243 45.5668 -19.4587 8.0792 40.9087
# 2 48.6243 130.5222 36.4582 -3.4718 -3.6206 25.0323
# 3 45.5668 36.4582 232.2192 -23.5571 15.8943 5.6826
# 4 -19.4587 -3.4718 -23.5571 33.1000 6.2673 -8.6268
# 5 8.0792 -3.6206 15.8943 6.2673 54.7508 -15.5176
# 6 40.9087 25.0323 5.6826 -8.6268 -15.5176 53.0287
#
#
#
# Elastic Compliance Matrix: (Units=1/GPa)
#
#
# Indices 1 2 3 4 5 6 
#
# 1 0.008716 -0.001870 -0.000684 0.003465 -0.003362 -0.006188
# 2 -0.001870 0.009231 -0.001248 -0.001897 0.000644 -0.002901
# 3 -0.000684 -0.001248 0.005099 0.003588 -0.001686 0.000660
# 4 0.003465 -0.001897 0.003588 0.036160 -0.005194 0.002201
# 5 -0.003362 0.000644 -0.001686 -0.005194 0.022188 0.008118
# 6 -0.006188 -0.002901 0.000660 0.002201 0.008118 0.027663
#
#
# Mechanical properties :
#
#
# Convention : Reuss Voigt Hill
#
# Bulk Modulus (GPa) = 64.75633 88.07518 76.41576
# Shear Modulus (GPa) = 41.04819 54.89114 47.96967
#
# Velocity S-wave (km/s) = 3.78874 4.38126 4.09573
# Velocity P-wave (km/s) = 6.46411 7.50958 7.00637
#
# Compressibility (1/GPa) = 0.01544251
#
# Stress axis : x y z
#
# Youngs Moduli (GPa) = 114.73373 108.33523 196.09887
#
# Poissons Ratio (x) = 0.20263 0.13405
# Poissons Ratio (y) = 0.21460 0.24467
# Poissons Ratio (z) = 0.07843 0.13517
#
# Static dielectric constant tensor:
#      x y z
#    x 2.249370 0.027480 -0.011070 
#    y 0.027480 2.281040 0.021480 
#    z -0.011070 0.021480 2.371630 
# 
# From -- ./inp_files/243390.got.cif
#   From: 2010.05.17/outbox.cif.g08.bks.cpg/sg2_122_cif.got.tgz:243390.got - 2010.06.03 11:33:40.
