data_PCOD9017718
_publ_section_title
;
Structure prediction by ZEFSAII (Michael W. Deem and Ramdas Pophale) SiO2 
 PCOD9017718
Probable space group: P -1
;
_chemical_formula_sum "Si O2"
_cell_formula_units_Z 16
_cell_length_a 15.842798
_cell_length_b 12.228321
_cell_length_c 9.328130
_cell_angle_alpha 61.498832
_cell_angle_beta 60.641388
_cell_angle_gamma 26.305381
_cell_volume 694.664302
_symmetry_space_group_name_H-M "P -1"
_symmetry_group_IT_number 2
_symmetry_cell_setting 'triclinic'
loop_
_space_group_symop_operation_xyz
x,y,z
-x,-y,-z
loop_
_atom_site_type_symbol
_atom_site_label
_atom_site_fract_x
_atom_site_fract_y
_atom_site_fract_z
Si Si1 0.158646 0.001325 0.531921
Si Si2 0.304661 0.402742 0.069699
Si Si3 0.849406 0.007662 0.792585
Si Si4 0.408620 0.083621 0.681034
Si Si5 0.250635 0.615969 0.254537
Si Si6 0.945813 0.652978 0.079862
Si Si7 0.705489 0.409188 0.285678
Si Si8 0.491788 0.758610 0.493765
O O1 0.200245 0.944173 0.363914
O O2 0.257786 0.773989 0.672409
O O3 0.263558 0.005596 0.504485
O O4 0.931787 0.239038 0.598083
O O5 0.458848 0.147158 0.182680
O O6 0.228324 0.590092 0.129618
O O7 0.133965 0.503164 0.091578
O O8 0.383535 0.399879 0.876550
O O9 0.753116 0.231904 0.812525
O O10 0.078327 0.782369 0.746041
O O11 0.828998 0.899961 0.956909
O O12 0.500000 0.000000 0.500000
O O13 0.194957 0.265155 0.747938
O O14 0.414665 0.217201 0.650635
O O15 0.441900 0.347152 0.335696
O O16 0.000000 0.500000 0.000000
O O17 0.586663 0.550881 0.441206
#
# Coordination Sequence:
#
# PCOD9017718 Si02
#       8
#     2   2   2   2   2   2   2   2
#     4  11  23  38  73 101 132 181 225 276 348 417
#     4  11  27  45  71 100 140 183 221 295 348 398
#     4  10  21  43  70 104 133 180 229 279 342 416
#     4  12  28  47  66 101 141 184 238 281 343 421
#     4  11  23  44  68 101 140 174 224 290 344 405
#     4  11  28  47  73 103 140 184 235 284 346 416
#     4  10  21  43  66 102 135 169 230 282 342 410
#     4  12  24  41  68  96 134 180 231 279 338 412
#
# _framework density 23.032706000000001
#
# number of rings (size 3 to 8) (size 9 to 14) (size 15 to 20)
#    0.000    1.000    3.750    2.625    5.250    6.000 
#    0.000    1.250    0.000    0.000    0.000    0.000 
#    0.000    0.000    0.000    0.000    0.000    0.000 
#
# Total GULP energy -89497.826696 kJ/mol
# GULP energy per Si atom -5593.614168 kJ/mol
# Density = 2.298028 g / cm^3
# Si number density = 23.032706 Si / 1000 Ang^3
#
#
#
# Elastic Constant Matrix: (Units=GPa)
#
#
# Indices 1 2 3 4 5 6 
#
# 1 114.1258 20.9186 29.9556 4.3036 0.7737 -2.3380
# 2 20.9186 42.3391 8.1661 -13.2067 2.6123 0.9084
# 3 29.9556 8.1661 79.2364 -1.1379 -0.6225 -6.9532
# 4 4.3036 -13.2067 -1.1379 38.9863 0.6390 -0.0668
# 5 0.7737 2.6123 -0.6225 0.6390 41.0962 5.1330
# 6 -2.3380 0.9084 -6.9532 -0.0668 5.1330 28.9656
#
#
#
# Elastic Compliance Matrix: (Units=1/GPa)
#
#
# Indices 1 2 3 4 5 6 
#
# 1 0.010864 -0.005705 -0.003550 -0.003237 0.000133 0.000173
# 2 -0.005705 0.030136 -0.000920 0.010839 -0.001831 -0.001277
# 3 -0.003550 -0.000920 0.014345 0.000505 -0.000065 0.003198
# 4 -0.003237 0.010839 0.000505 0.029711 -0.001054 -0.000225
# 5 0.000133 -0.001831 -0.000065 -0.001054 0.025010 -0.004382
# 6 0.000173 -0.001277 0.003198 -0.000225 -0.004382 0.036121
#
#
# Mechanical properties :
#
#
# Convention : Reuss Voigt Hill
#
# Bulk Modulus (GPa) = 28.57424 39.30910 33.94167
# Shear Modulus (GPa) = 28.05807 33.58702 30.82255
#
# Velocity S-wave (km/s) = 3.49404 3.82282 3.66212
# Velocity P-wave (km/s) = 5.35823 6.04888 5.71400
#
# Compressibility (1/GPa) = 0.03499655
#
# Stress axis : x y z
#
# Youngs Moduli (GPa) = 92.04415 33.18247 69.71251
#
# Poissons Ratio (x) = 0.18930 0.24745
# Poissons Ratio (y) = 0.52510 0.06413
# Poissons Ratio (z) = 0.32672 0.03052
#
# Static dielectric constant tensor:
#      x y z
#    x 1.936110 0.012870 0.002260 
#    y 0.012870 1.867670 0.000540 
#    z 0.002260 0.000540 1.835660 
# 
# From -- ./inp_files/285763.got.cif
#   From: 2010.05.17/outbox.cif.g08.bks.cpg/sg2_143_cif.got.tgz:285763.got - 2010.06.03 11:33:40.
