data_PCOD9017062
_publ_section_title
;
Structure prediction by ZEFSAII (Michael W. Deem and Ramdas Pophale) SiO2 
 PCOD9017062
Probable space group: P -1
;
_chemical_formula_sum "Si O2"
_cell_formula_units_Z 11
_cell_length_a 12.505469
_cell_length_b 5.514069
_cell_length_c 9.586052
_cell_angle_alpha 55.259720
_cell_angle_beta 47.194325
_cell_angle_gamma 74.404623
_cell_volume 390.756395
_symmetry_space_group_name_H-M "P -1"
_symmetry_group_IT_number 2
_symmetry_cell_setting 'triclinic'
loop_
_space_group_symop_operation_xyz
x,y,z
-x,-y,-z
loop_
_atom_site_type_symbol
_atom_site_label
_atom_site_fract_x
_atom_site_fract_y
_atom_site_fract_z
Si Si1 0.652649 0.914729 0.527103
Si Si2 0.405883 0.211608 0.090128
Si Si3 0.000000 0.500000 0.000000
Si Si4 0.157610 0.529986 0.547511
Si Si5 0.904405 0.081392 0.769606
Si Si6 0.308064 0.725628 0.875837
O O1 0.687339 0.594545 0.553088
O O2 0.476827 0.914970 0.675885
O O3 0.746674 0.167664 0.259396
O O4 0.684917 0.972171 0.642047
O O5 0.325049 0.383972 0.992818
O O6 0.500000 0.500000 0.000000
O O7 0.500000 0.000000 0.000000
O O8 0.085656 0.460417 0.784730
O O9 0.924725 0.756364 0.904523
O O10 0.136610 0.823718 0.380487
O O11 0.062312 0.282634 0.607476
O O12 0.786177 0.189140 0.942125
#
# Coordination Sequence:
#
# PCOD9017062 Si02
#       6
#     2   2   1   2   2   2
#     4  10  21  42  70  99 137 180 232 292 355 428
#     4  10  22  44  65  99 142 184 227 293 359 427
#     4  12  24  44  70 102 136 192 228 298 348 430
#     4  11  24  45  68 100 140 182 237 289 355 427
#     4  11  24  45  68 100 140 182 237 289 355 427
#     4  10  21  42  70  99 137 180 232 292 355 428
#
# _framework density 28.150531999999998
#
# number of rings (size 3 to 8) (size 9 to 14) (size 15 to 20)
#    0.000    1.455    3.636    1.091    0.000    0.727 
#   13.091    0.000    0.000    0.000    0.000    0.000 
#    0.000    0.000    0.000    0.000    0.000    0.000 
#
# Total GULP energy -61423.614741 kJ/mol
# GULP energy per Si atom -5583.964976 kJ/mol
# Density = 2.808646 g / cm^3
# Si number density = 28.150532 Si / 1000 Ang^3
#
#
#
# Elastic Constant Matrix: (Units=GPa)
#
#
# Indices 1 2 3 4 5 6 
#
# 1 111.3680 35.4845 30.8851 -2.2275 51.7234 -14.1634
# 2 35.4845 163.1613 39.9004 7.6528 10.9754 -43.9077
# 3 30.8851 39.9004 164.0335 1.5952 45.5665 -5.2968
# 4 -2.2275 7.6528 1.5952 81.2255 -11.5426 -2.9552
# 5 51.7234 10.9754 45.5665 -11.5426 70.6122 4.5931
# 6 -14.1634 -43.9077 -5.2968 -2.9552 4.5931 47.9134
#
#
#
# Elastic Compliance Matrix: (Units=1/GPa)
#
#
# Indices 1 2 3 4 5 6 
#
# 1 0.015339 -0.001559 0.000997 -0.001012 -0.012083 0.004312
# 2 -0.001559 0.008892 -0.001704 -0.000535 0.000288 0.007439
# 3 0.000997 -0.001704 0.007920 -0.000775 -0.005710 0.000108
# 4 -0.001012 -0.000535 -0.000775 0.012824 0.003448 -0.000415
# 5 -0.012083 0.000288 -0.005710 0.003448 0.027631 -0.006375
# 6 0.004312 0.007439 0.000108 -0.000415 -0.006375 0.029560
#
#
# Mechanical properties :
#
#
# Convention : Reuss Voigt Hill
#
# Bulk Modulus (GPa) = 36.20727 72.34474 54.27601
# Shear Modulus (GPa) = 43.13809 62.10306 52.62057
#
# Velocity S-wave (km/s) = 3.91884 4.70202 4.32818
# Velocity P-wave (km/s) = 5.77637 7.43193 6.65583
#
# Compressibility (1/GPa) = 0.02761876
#
# Stress axis : x y z
#
# Youngs Moduli (GPa) = 65.19130 112.45643 126.25672
#
# Poissons Ratio (x) = 0.17535 -0.12583
# Poissons Ratio (y) = 0.10165 0.21515
# Poissons Ratio (z) = -0.06497 0.19164
#
# Static dielectric constant tensor:
#      x y z
#    x 3.257330 0.705050 -0.533670 
#    y 0.705050 2.556560 -0.450440 
#    z -0.533670 -0.450440 2.495580 
# 
# From -- ./inp_files/286713.got.cif
#   From: 2010.05.17/outbox.cif.g08.bks.cpg/sg2_144_cif.got.tgz:286713.got - 2010.06.03 11:33:40.
