data_PCOD9017034
_publ_section_title
;
Structure prediction by ZEFSAII (Michael W. Deem and Ramdas Pophale) SiO2 
 PCOD9017034
Probable space group: P -1
;
_chemical_formula_sum "Si O2"
_cell_formula_units_Z 14
_cell_length_a 12.063384
_cell_length_b 20.540037
_cell_length_c 8.967507
_cell_angle_alpha 30.185151
_cell_angle_beta 63.314877
_cell_angle_gamma 41.460544
_cell_volume 593.481612
_symmetry_space_group_name_H-M "P -1"
_symmetry_group_IT_number 2
_symmetry_cell_setting 'triclinic'
loop_
_space_group_symop_operation_xyz
x,y,z
-x,-y,-z
loop_
_atom_site_type_symbol
_atom_site_label
_atom_site_fract_x
_atom_site_fract_y
_atom_site_fract_z
Si Si1 0.982823 0.366899 0.310055
Si Si2 0.629110 0.537844 0.352204
Si Si3 0.261593 0.151002 0.832123
Si Si4 0.376606 0.781870 0.535824
Si Si5 0.166153 0.746439 0.911174
Si Si6 0.145675 0.537805 0.120551
Si Si7 0.254814 0.800597 0.238245
O O1 0.777251 0.523710 0.225642
O O2 0.184832 0.169238 0.678379
O O3 0.962429 0.326510 0.237003
O O4 0.000000 0.500000 0.000000
O O5 0.396451 0.765263 0.102240
O O6 0.652109 0.414774 0.448327
O O7 0.754288 0.367624 0.751400
O O8 0.132162 0.394947 0.452260
O O9 0.500000 0.000000 0.000000
O O10 0.250011 0.021415 0.178940
O O11 0.344521 0.678673 0.852829
O O12 0.610384 0.635498 0.703209
O O13 0.317709 0.793267 0.379134
O O14 0.090855 0.683374 0.994162
O O15 0.000000 0.000000 0.500000
O O16 0.000000 0.000000 0.000000
#
# Coordination Sequence:
#
# PCOD9017034 Si02
#       7
#     2   2   2   2   2   2   2
#     4  10  21  42  70  97 132 187 236 285 352 417
#     4  11  25  41  66 107 144 184 239 295 354 423
#     4   9  20  40  69  96 127 184 234 277 349 423
#     4  11  22  42  66  94 139 183 227 284 358 412
#     4  12  24  39  64 104 139 179 234 293 348 422
#     4  10  22  41  69  93 137 187 224 286 358 410
#     4  11  23  41  69 100 144 188 231 291 359 418
#
# _framework density 23.589611999999999
#
# number of rings (size 3 to 8) (size 9 to 14) (size 15 to 20)
#    0.000    1.429    1.429    3.857    4.000    1.143 
#    0.000    6.429    0.000    4.286    0.000    0.000 
#    0.000    0.000    0.000    0.000    0.000    0.000 
#
# Total GULP energy -77951.683756 kJ/mol
# GULP energy per Si atom -5567.977411 kJ/mol
# Density = 2.353592 g / cm^3
# Si number density = 23.589612 Si / 1000 Ang^3
#
#
#
# Elastic Constant Matrix: (Units=GPa)
#
#
# Indices 1 2 3 4 5 6 
#
# 1 142.9961 52.9833 57.7476 4.1213 5.6168 10.2863
# 2 52.9833 128.5105 54.8701 -0.0551 -8.1174 -13.6192
# 3 57.7476 54.8701 115.9906 -4.9840 -11.5329 9.0255
# 4 4.1213 -0.0551 -4.9840 37.1394 -10.2745 -3.7490
# 5 5.6168 -8.1174 -11.5329 -10.2745 55.7661 -2.6938
# 6 10.2863 -13.6192 9.0255 -3.7490 -2.6938 33.8594
#
#
#
# Elastic Compliance Matrix: (Units=1/GPa)
#
#
# Indices 1 2 3 4 5 6 
#
# 1 0.010141 -0.003243 -0.003621 -0.002835 -0.002956 -0.003969
# 2 -0.003243 0.011830 -0.004328 0.000982 0.001679 0.007139
# 3 -0.003621 -0.004328 0.013138 0.002550 0.002746 -0.003642
# 4 -0.002835 0.000982 0.002550 0.029876 0.006674 0.004415
# 5 -0.002956 0.001679 0.002746 0.006674 0.020427 0.003206
# 6 -0.003969 0.007139 -0.003642 0.004415 0.003206 0.035326
#
#
# Mechanical properties :
#
#
# Convention : Reuss Voigt Hill
#
# Bulk Modulus (GPa) = 78.59691 79.85544 79.22618
# Shear Modulus (GPa) = 33.93017 40.14608 37.03812
#
# Velocity S-wave (km/s) = 3.79668 4.12983 3.96675
# Velocity P-wave (km/s) = 7.25331 7.52769 7.39177
#
# Compressibility (1/GPa) = 0.01272315
#
# Stress axis : x y z
#
# Youngs Moduli (GPa) = 98.61293 84.53427 76.11771
#
# Poissons Ratio (x) = 0.27416 0.27565
# Poissons Ratio (y) = 0.31982 0.32941
# Poissons Ratio (z) = 0.35711 0.36584
#
# Static dielectric constant tensor:
#      x y z
#    x 1.941150 -0.027230 -0.035900 
#    y -0.027230 2.050690 -0.031930 
#    z -0.035900 -0.031930 1.939730 
# 
# From -- ./inp_files/282620.got.cif
#   From: 2010.05.17/outbox.cif.g08.bks.cpg/sg2_142_cif.got.tgz:282620.got - 2010.06.03 11:33:40.
