data_PCOD9017409
_publ_section_title
;
Structure prediction by ZEFSAII (Michael W. Deem and Ramdas Pophale) SiO2 
 PCOD9017409
Probable space group: P -1
;
_chemical_formula_sum "Si O2"
_cell_formula_units_Z 14
_cell_length_a 24.903339
_cell_length_b 9.897636
_cell_length_c 7.443197
_cell_angle_alpha 115.132690
_cell_angle_beta 135.123743
_cell_angle_gamma 34.089522
_cell_volume 661.747534
_symmetry_space_group_name_H-M "P -1"
_symmetry_group_IT_number 2
_symmetry_cell_setting 'triclinic'
loop_
_space_group_symop_operation_xyz
x,y,z
-x,-y,-z
loop_
_atom_site_type_symbol
_atom_site_label
_atom_site_fract_x
_atom_site_fract_y
_atom_site_fract_z
Si Si1 0.584594 0.166498 0.344134
Si Si2 0.789128 0.610175 0.662133
Si Si3 0.503432 0.374643 0.652173
Si Si4 0.042173 0.321077 0.250351
Si Si5 0.401153 0.349716 0.713779
Si Si6 0.974970 0.760690 0.216008
Si Si7 0.222629 0.903267 0.756458
O O1 0.493762 0.336383 0.402930
O O2 0.586645 0.330842 0.362125
O O3 0.719554 0.869970 0.563349
O O4 0.515180 0.173113 0.037391
O O5 0.674102 0.684887 0.492849
O O6 0.887714 0.384563 0.612170
O O7 0.892000 0.491961 0.996358
O O8 0.464112 0.308231 0.656155
O O9 0.656133 0.185428 0.940720
O O10 0.021655 0.529105 0.285806
O O11 0.131964 0.134224 0.525220
O O12 0.094438 0.167226 0.098566
O O13 0.291991 0.649185 0.686305
O O14 0.870999 0.995555 0.242214
#
# Coordination Sequence:
#
# PCOD9017409 Si02
#       7
#     2   2   2   2   2   2   2
#     4  10  21  43  62  86 120 159 203 246 289 353
#     4  10  22  42  60  90 126 154 197 240 310 355
#     4  10  24  38  67  91 111 161 204 249 293 343
#     4   9  21  37  60  90 115 155 195 250 288 345
#     4  11  25  39  59  93 123 160 192 248 301 351
#     4   9  21  37  60  91 114 159 196 243 293 348
#     4  11  21  38  62  89 119 151 209 239 294 355
#
# _framework density 21.156103000000002
#
# number of rings (size 3 to 8) (size 9 to 14) (size 15 to 20)
#    0.857    1.143    0.000    3.429    4.000    4.000 
#    2.571    0.000    0.000    0.000    0.000    0.000 
#    0.000    0.000    0.000    0.000    0.000    0.000 
#
# Total GULP energy -78124.996933 kJ/mol
# GULP energy per Si atom -5580.356924 kJ/mol
# Density = 2.110795 g / cm^3
# Si number density = 21.156103 Si / 1000 Ang^3
#
#
#
# Elastic Constant Matrix: (Units=GPa)
#
#
# Indices 1 2 3 4 5 6 
#
# 1 82.7138 17.7497 34.8975 -2.0987 1.7976 6.4853
# 2 17.7497 15.2498 9.5437 -7.3790 4.1604 -3.2866
# 3 34.8975 9.5437 81.6038 -17.8591 -7.5877 16.3956
# 4 -2.0987 -7.3790 -17.8591 21.9279 -0.3891 5.8331
# 5 1.7976 4.1604 -7.5877 -0.3891 31.1321 4.3598
# 6 6.4853 -3.2866 16.3956 5.8331 4.3598 25.4355
#
#
#
# Elastic Compliance Matrix: (Units=1/GPa)
#
#
# Indices 1 2 3 4 5 6 
#
# 1 0.021065 -0.025318 -0.009380 -0.014354 -0.000406 0.000766
# 2 -0.025318 0.120051 -0.001811 0.031152 -0.017288 0.018955
# 3 -0.009380 -0.001811 0.028974 0.028996 0.011734 -0.025180
# 4 -0.014354 0.031152 0.028996 0.087169 0.009388 -0.032605
# 5 -0.000406 -0.017288 0.011734 0.009388 0.040053 -0.018712
# 6 0.000766 0.018955 -0.025180 -0.032605 -0.018712 0.068484
#
#
# Mechanical properties :
#
#
# Convention : Reuss Voigt Hill
#
# Bulk Modulus (GPa) = 10.30178 33.77216 22.03697
# Shear Modulus (GPa) = 10.61182 23.52421 17.06801
#
# Velocity S-wave (km/s) = 2.24206 3.33819 2.84344
# Velocity P-wave (km/s) = 3.40330 5.55481 4.60643
#
# Compressibility (1/GPa) = 0.09707058
#
# Stress axis : x y z
#
# Youngs Moduli (GPa) = 47.47171 8.32976 34.51417
#
# Poissons Ratio (x) = 0.21089 0.32376
# Poissons Ratio (y) = 1.20188 0.06252
# Poissons Ratio (z) = 0.44531 0.01509
#
# Static dielectric constant tensor:
#      x y z
#    x 1.770610 -0.036120 0.016970 
#    y -0.036120 1.786670 -0.012100 
#    z 0.016970 -0.012100 1.760920 
# 
# From -- ./inp_files/356622.got.cif
#   From: 2010.05.17/outbox.cif.g08.bks.cpg/sg2_179_cif.got.tgz:356622.got - 2010.06.03 11:33:40.
