data_PCOD9017155
_publ_section_title
;
Structure prediction by ZEFSAII (Michael W. Deem and Ramdas Pophale) SiO2 
 PCOD9017155
Probable space group: P -1
;
_chemical_formula_sum "Si O2"
_cell_formula_units_Z 16
_cell_length_a 14.855204
_cell_length_b 9.156295
_cell_length_c 10.122940
_cell_angle_alpha 82.983678
_cell_angle_beta 68.245401
_cell_angle_gamma 35.962016
_cell_volume 709.957832
_symmetry_space_group_name_H-M "P -1"
_symmetry_group_IT_number 2
_symmetry_cell_setting 'triclinic'
loop_
_space_group_symop_operation_xyz
x,y,z
-x,-y,-z
loop_
_atom_site_type_symbol
_atom_site_label
_atom_site_fract_x
_atom_site_fract_y
_atom_site_fract_z
Si Si1 0.386820 0.765387 0.872458
Si Si2 0.816652 0.685292 0.141315
Si Si3 0.383265 0.541232 0.470008
Si Si4 0.136361 0.001694 0.393420
Si Si5 0.700695 0.700934 0.943539
Si Si6 0.238218 0.410699 0.543809
Si Si7 0.805871 0.745292 0.637448
Si Si8 0.283756 0.644473 0.101649
O O1 0.521042 0.558641 0.709639
O O2 0.510273 0.636019 0.946030
O O3 0.292087 0.028638 0.845220
O O4 0.267423 0.779195 0.975378
O O5 0.810603 0.624081 0.297246
O O6 0.738291 0.670777 0.080275
O O7 0.000000 0.500000 0.000000
O O8 0.500000 0.500000 0.500000
O O9 0.362111 0.391820 0.518379
O O10 0.191716 0.847603 0.513465
O O11 0.240146 0.025907 0.345733
O O12 0.935710 0.296269 0.453803
O O13 0.187489 0.841908 0.254902
O O14 0.801534 0.683224 0.792374
O O15 0.764699 0.460040 0.891450
O O16 0.500000 0.000000 0.000000
O O17 0.300842 0.222857 0.411862
O O18 0.000000 0.500000 0.500000
#
# Coordination Sequence:
#
# PCOD9017155 Si02
#       8
#     2   2   2   2   2   2   2   2
#     4  10  22  42  65  95 137 177 222 281 347 407
#     4  12  26  46  68 101 142 178 232 294 349 412
#     4  11  26  42  65 100 141 179 229 285 346 409
#     4  10  22  45  73  96 136 183 232 281 346 421
#     4  12  25  42  72 104 136 184 241 282 349 422
#     4  11  25  45  71 102 140 186 230 287 348 418
#     4  10  22  43  71 102 136 187 234 283 348 418
#     4  10  21  42  71  97 132 181 229 281 343 414
#
# _framework density 22.536550999999999
#
# number of rings (size 3 to 8) (size 9 to 14) (size 15 to 20)
#    0.000    1.250    1.250    4.875    7.000    1.500 
#    2.250    1.250    0.000    0.000    0.000    0.000 
#    0.000    0.000    0.000    0.000    0.000    0.000 
#
# Total GULP energy -89301.115029 kJ/mol
# GULP energy per Si atom -5581.319689 kJ/mol
# Density = 2.248526 g / cm^3
# Si number density = 22.536551 Si / 1000 Ang^3
#
#
#
# Elastic Constant Matrix: (Units=GPa)
#
#
# Indices 1 2 3 4 5 6 
#
# 1 119.0125 39.6444 19.8541 -9.8615 4.9068 34.4752
# 2 39.6444 81.5442 13.3511 -1.2099 14.3292 17.2228
# 3 19.8541 13.3511 75.9514 -10.8465 2.4739 3.1435
# 4 -9.8615 -1.2099 -10.8465 36.2531 5.7628 -3.4258
# 5 4.9068 14.3292 2.4739 5.7628 25.7003 -0.4883
# 6 34.4752 17.2228 3.1435 -3.4258 -0.4883 43.1714
#
#
#
# Elastic Compliance Matrix: (Units=1/GPa)
#
#
# Indices 1 2 3 4 5 6 
#
# 1 0.012611 -0.003936 -0.001953 0.002041 -0.000639 -0.008204
# 2 -0.003936 0.016641 -0.001468 0.000062 -0.008465 -0.003479
# 3 -0.001953 -0.001468 0.014492 0.004061 -0.001088 0.001400
# 4 0.002041 0.000062 0.004061 0.030613 -0.007672 0.000392
# 5 -0.000639 -0.008465 -0.001088 -0.007672 0.045651 0.003874
# 6 -0.008204 -0.003479 0.001400 0.000392 0.003874 0.031076
#
#
# Mechanical properties :
#
#
# Convention : Reuss Voigt Hill
#
# Bulk Modulus (GPa) = 34.44633 46.91191 40.67912
# Shear Modulus (GPa) = 28.49429 34.60218 31.54824
#
# Velocity S-wave (km/s) = 3.55964 3.92264 3.74554
# Velocity P-wave (km/s) = 5.67561 6.43252 6.06588
#
# Compressibility (1/GPa) = 0.02903067
#
# Stress axis : x y z
#
# Youngs Moduli (GPa) = 79.29328 60.09402 69.00256
#
# Poissons Ratio (x) = 0.23655 0.13476
# Poissons Ratio (y) = 0.31212 0.10126
# Poissons Ratio (z) = 0.15485 0.08819
#
# Static dielectric constant tensor:
#      x y z
#    x 1.952620 -0.069120 -0.031180 
#    y -0.069120 1.939800 0.013670 
#    z -0.031180 0.013670 1.827460 
# 
# From -- ./inp_files/298206.got.cif
#   From: 2010.05.17/outbox.cif.g08.bks.cpg/sg2_150_cif.got.tgz:298206.got - 2010.06.03 11:33:40.
