data_PCOD9017774
_publ_section_title
;
Structure prediction by ZEFSAII (Michael W. Deem and Ramdas Pophale) SiO2 
 PCOD9017774
Probable space group: P -1
;
_chemical_formula_sum "Si O2"
_cell_formula_units_Z 16
_cell_length_a 14.675119
_cell_length_b 11.857630
_cell_length_c 18.968211
_cell_angle_alpha 48.646234
_cell_angle_beta 30.778432
_cell_angle_gamma 29.764446
_cell_volume 790.046048
_symmetry_space_group_name_H-M "P -1"
_symmetry_group_IT_number 2
_symmetry_cell_setting 'triclinic'
loop_
_space_group_symop_operation_xyz
x,y,z
-x,-y,-z
loop_
_atom_site_type_symbol
_atom_site_label
_atom_site_fract_x
_atom_site_fract_y
_atom_site_fract_z
Si Si1 0.184116 0.850031 0.509663
Si Si2 0.725063 0.669254 0.776820
Si Si3 0.735429 0.904575 0.554291
Si Si4 0.859351 0.376695 0.254336
Si Si5 0.198024 0.751098 0.929340
Si Si6 0.110337 0.047046 0.091165
Si Si7 0.066516 0.393195 0.797658
Si Si8 0.195159 0.648006 0.242165
O O1 0.518884 0.601528 0.372474
O O2 0.088880 0.772910 0.653413
O O3 0.175762 0.002585 0.501742
O O4 0.000000 0.000000 0.500000
O O5 0.791119 0.729847 0.641551
O O6 0.762844 0.472880 0.807385
O O7 0.929312 0.562227 0.751050
O O8 0.399154 0.910817 0.917223
O O9 0.917706 0.775987 0.415541
O O10 0.397110 0.137380 0.669485
O O11 0.944207 0.485613 0.179709
O O12 0.023181 0.211217 0.145285
O O13 0.523793 0.565584 0.809710
O O14 0.132394 0.804675 0.868149
O O15 0.107201 0.643741 0.057173
O O16 0.000000 0.000000 0.000000
O O17 0.167833 0.842239 0.165945
#
# Coordination Sequence:
#
# PCOD9017774 Si02
#       8
#     2   2   2   2   2   2   2   2
#     4  10  21  43  66  93 134 179 215 272 332 396
#     4  12  24  43  69  97 135 178 218 278 339 388
#     4  11  24  43  66 101 133 169 227 274 330 400
#     4  10  24  41  65  99 134 169 226 272 329 399
#     4  12  24  44  69  97 135 179 222 276 333 394
#     4  12  24  42  68  98 134 177 220 276 333 395
#     4  11  24  44  66  97 138 172 219 278 332 393
#     4  12  25  44  69 100 133 175 231 272 330 406
#
# _framework density 20.251984
#
# number of rings (size 3 to 8) (size 9 to 14) (size 15 to 20)
#    0.000    0.750    5.000    2.250    1.750    2.500 
#    0.000    0.000    0.000    0.000    0.000    0.000 
#    0.000    0.000    0.000    0.000    0.000    0.000 
#
# Total GULP energy -89533.037851 kJ/mol
# GULP energy per Si atom -5595.814866 kJ/mol
# Density = 2.020589 g / cm^3
# Si number density = 20.251984 Si / 1000 Ang^3
#
#
#
# Elastic Constant Matrix: (Units=GPa)
#
#
# Indices 1 2 3 4 5 6 
#
# 1 92.2263 25.9402 15.8414 22.7648 12.7873 -1.6675
# 2 25.9402 61.9990 14.5186 3.4016 3.0415 0.4216
# 3 15.8414 14.5186 53.8817 8.4943 17.6996 20.3508
# 4 22.7648 3.4016 8.4943 28.3995 7.4922 5.1224
# 5 12.7873 3.0415 17.6996 7.4922 20.9120 -1.8994
# 6 -1.6675 0.4216 20.3508 5.1224 -1.8994 47.0577
#
#
#
# Elastic Compliance Matrix: (Units=1/GPa)
#
#
# Indices 1 2 3 4 5 6 
#
# 1 0.015928 -0.005672 -0.000842 -0.011140 -0.004026 0.002030
# 2 -0.005672 0.019691 -0.006908 0.002231 0.005889 0.002605
# 3 -0.000842 -0.006908 0.037945 0.002087 -0.032973 -0.017936
# 4 -0.011140 0.002231 0.002087 0.047985 -0.013113 -0.007070
# 5 -0.004026 0.005889 -0.032973 -0.013113 0.083745 0.018872
# 6 0.002030 0.002605 -0.017936 -0.007070 0.018872 0.030587
#
#
# Mechanical properties :
#
#
# Convention : Reuss Voigt Hill
#
# Bulk Modulus (GPa) = 21.40469 35.63416 28.51942
# Shear Modulus (GPa) = 17.96629 29.39428 23.68028
#
# Velocity S-wave (km/s) = 2.98172 3.81389 3.42319
# Velocity P-wave (km/s) = 4.73775 6.08506 5.45318
#
# Compressibility (1/GPa) = 0.04671873
#
# Stress axis : x y z
#
# Youngs Moduli (GPa) = 62.78420 50.78421 26.35393
#
# Poissons Ratio (x) = 0.28804 0.02220
# Poissons Ratio (y) = 0.35611 0.18206
# Poissons Ratio (z) = 0.05288 0.35083
#
# Static dielectric constant tensor:
#      x y z
#    x 1.687740 0.002990 -0.005950 
#    y 0.002990 1.720340 -0.014950 
#    z -0.005950 -0.014950 1.693250 
# 
# From -- ./inp_files/186360.got.cif
#   From: 2010.05.17/outbox.cif.g08.bks.cpg/sg2_94_cif.got.tgz:186360.got - 2010.06.03 11:33:40.
