data_PCOD9017219
_publ_section_title
;
Structure prediction by ZEFSAII (Michael W. Deem and Ramdas Pophale) SiO2 
 PCOD9017219
Probable space group: P -1
;
_chemical_formula_sum "Si O2"
_cell_formula_units_Z 14
_cell_length_a 5.473748
_cell_length_b 23.686717
_cell_length_c 5.373206
_cell_angle_alpha 109.713946
_cell_angle_beta 82.938834
_cell_angle_gamma 60.654850
_cell_volume 535.248690
_symmetry_space_group_name_H-M "P -1"
_symmetry_group_IT_number 2
_symmetry_cell_setting 'triclinic'
loop_
_space_group_symop_operation_xyz
x,y,z
-x,-y,-z
loop_
_atom_site_type_symbol
_atom_site_label
_atom_site_fract_x
_atom_site_fract_y
_atom_site_fract_z
Si Si1 0.185822 0.590802 0.944801
Si Si2 0.716368 0.546504 0.428175
Si Si3 0.678540 0.793458 0.783285
Si Si4 0.565987 0.739461 0.196599
Si Si5 0.223215 0.083877 0.137932
Si Si6 0.310079 0.676686 0.420584
Si Si7 0.867047 0.951987 0.402904
O O1 0.428078 0.573032 0.676212
O O2 0.221765 0.515116 0.868146
O O3 0.250420 0.620797 0.223757
O O4 0.861903 0.657644 0.995597
O O5 0.628633 0.622809 0.435015
O O6 0.000000 0.500000 0.500000
O O7 0.609047 0.770763 0.495316
O O8 0.650436 0.868233 0.861143
O O9 0.033200 0.734256 0.706447
O O10 0.522044 0.786183 0.030800
O O11 0.319451 0.724172 0.271485
O O12 0.057411 0.099175 0.443888
O O13 0.031416 0.087761 0.934432
O O14 0.500000 0.000000 0.000000
O O15 0.500000 0.000000 0.500000
O O16 0.000000 0.000000 0.500000
#
# Coordination Sequence:
#
# PCOD9017219 Si02
#       7
#     2   2   2   2   2   2   2
#     4  10  23  41  65  95 137 176 230 293 345 416
#     4  11  23  39  69  98 132 176 235 290 355 410
#     4  11  25  48  69 103 142 186 240 289 354 432
#     4  11  25  43  74  97 143 186 236 289 353 428
#     4  10  22  45  73 103 144 183 237 301 362 427
#     4  11  25  44  68  96 139 184 235 283 364 417
#     4  10  21  42  72 107 146 187 233 298 368 436
#
# _framework density 26.156064000000001
#
# number of rings (size 3 to 8) (size 9 to 14) (size 15 to 20)
#    0.000    1.429    1.429    2.571    4.000    3.429 
#   15.429    0.000    0.000    0.000    0.000    0.000 
#    0.000    0.000    0.000    0.000    0.000    0.000 
#
# Total GULP energy -78443.116460 kJ/mol
# GULP energy per Si atom -5603.079747 kJ/mol
# Density = 2.609653 g / cm^3
# Si number density = 26.156064 Si / 1000 Ang^3
#
#
#
# Elastic Constant Matrix: (Units=GPa)
#
#
# Indices 1 2 3 4 5 6 
#
# 1 92.9740 42.7287 32.8358 -3.0316 0.4032 7.6994
# 2 42.7287 200.3096 61.3304 -11.7339 -0.4096 11.6707
# 3 32.8358 61.3304 128.7504 -21.4232 4.3292 0.7129
# 4 -3.0316 -11.7339 -21.4232 55.6000 6.0808 -2.9913
# 5 0.4032 -0.4096 4.3292 6.0808 41.9046 -3.2730
# 6 7.6994 11.6707 0.7129 -2.9913 -3.2730 40.8716
#
#
#
# Elastic Compliance Matrix: (Units=1/GPa)
#
#
# Indices 1 2 3 4 5 6 
#
# 1 0.012609 -0.001880 -0.002439 -0.000757 0.000078 -0.001845
# 2 -0.001880 0.006236 -0.002462 0.000170 0.000203 -0.001355
# 3 -0.002439 -0.002462 0.010187 0.003494 -0.001472 0.001123
# 4 -0.000757 0.000170 0.003494 0.019734 -0.003120 0.001228
# 5 0.000078 0.000203 -0.001472 -0.003120 0.024602 0.001695
# 6 -0.001845 -0.001355 0.001123 0.001228 0.001695 0.025407
#
#
# Mechanical properties :
#
#
# Convention : Reuss Voigt Hill
#
# Bulk Modulus (GPa) = 64.64011 77.31377 70.97694
# Shear Modulus (GPa) = 42.55585 46.68449 44.62017
#
# Velocity S-wave (km/s) = 4.03798 4.22932 4.13476
# Velocity P-wave (km/s) = 6.81963 7.31248 7.07035
#
# Compressibility (1/GPa) = 0.01547027
#
# Stress axis : x y z
#
# Youngs Moduli (GPa) = 79.31134 160.34680 98.16911
#
# Poissons Ratio (x) = 0.30139 0.23939
# Poissons Ratio (y) = 0.14907 0.24174
# Poissons Ratio (z) = 0.19341 0.39485
#
# Static dielectric constant tensor:
#      x y z
#    x 1.945780 0.010780 0.182830 
#    y 0.010780 2.019790 -0.104380 
#    z 0.182830 -0.104380 1.867410 
# 
# From -- ./inp_files/7684.got.cif
#   From: 2010.05.17/outbox.cif.g08.bks.cpg/sg2_4_cif.got.tgz:7684.got - 2010.06.03 11:33:40.
