data_PCOD9017206
_publ_section_title
;
Structure prediction by ZEFSAII (Michael W. Deem and Ramdas Pophale) SiO2 
 PCOD9017206
Probable space group: P -1
;
_chemical_formula_sum "Si O2"
_cell_formula_units_Z 14
_cell_length_a 11.150706
_cell_length_b 8.165202
_cell_length_c 7.875410
_cell_angle_alpha 132.637903
_cell_angle_beta 106.238048
_cell_angle_gamma 88.282892
_cell_volume 493.372920
_symmetry_space_group_name_H-M "P -1"
_symmetry_group_IT_number 2
_symmetry_cell_setting 'triclinic'
loop_
_space_group_symop_operation_xyz
x,y,z
-x,-y,-z
loop_
_atom_site_type_symbol
_atom_site_label
_atom_site_fract_x
_atom_site_fract_y
_atom_site_fract_z
Si Si1 0.405875 0.582979 0.889521
Si Si2 0.018175 0.672501 0.304140
Si Si3 0.174771 0.092640 0.814033
Si Si4 0.758388 0.225294 0.815282
Si Si5 0.859683 0.844941 0.790159
Si Si6 0.422224 0.951032 0.673039
Si Si7 0.500000 0.500000 0.500000
Si Si8 0.000000 0.500000 0.500000
O O1 0.425314 0.464226 0.637112
O O2 0.500000 0.500000 0.000000
O O3 0.278043 0.580341 0.945171
O O4 0.455799 0.857975 0.087288
O O5 0.129323 0.677647 0.212553
O O6 0.978071 0.449060 0.244117
O O7 0.088609 0.829638 0.603706
O O8 0.084964 0.210010 0.743526
O O9 0.306351 0.062372 0.769944
O O10 0.206355 0.205833 0.088275
O O11 0.628774 0.118528 0.584425
O O12 0.795141 0.010158 0.769545
O O13 0.876464 0.619499 0.545188
O O14 0.000000 0.000000 0.000000
O O15 0.435855 0.715772 0.593290
#
# Coordination Sequence:
#
# PCOD9017206 Si02
#       8
#     2   2   2   2   2   2   1   1
#     4  12  27  52  80 114 152 205 264 330 387 462
#     4  10  21  42  72 105 146 197 251 307 383 461
#     4  10  21  46  72 101 153 195 246 314 384 457
#     4  11  24  49  77 105 160 207 249 323 391 464
#     4  12  23  45  68 105 151 196 247 312 374 460
#     4  11  25  49  78 114 153 205 258 325 387 464
#     4  12  26  50  80 114 154 202 266 322 388 472
#     4  12  24  40  68 106 142 194 256 300 378 468
#
# _framework density 28.376104000000002
#
# number of rings (size 3 to 8) (size 9 to 14) (size 15 to 20)
#    0.000    0.857    4.286    3.429    0.000    1.714 
#   10.286    0.000    0.000    0.000    0.000    0.000 
#    0.000    0.000    0.000    0.000    0.000    0.000 
#
# Total GULP energy -78000.479631 kJ/mol
# GULP energy per Si atom -5571.462831 kJ/mol
# Density = 2.831152 g / cm^3
# Si number density = 28.376104 Si / 1000 Ang^3
#
#
#
# Elastic Constant Matrix: (Units=GPa)
#
#
# Indices 1 2 3 4 5 6 
#
# 1 132.3817 31.6531 43.9087 -1.3169 -49.4337 -2.6406
# 2 31.6531 170.9124 51.1846 -9.5660 -24.1762 -36.3608
# 3 43.9087 51.1846 156.5570 -19.6263 -54.3311 9.4706
# 4 -1.3169 -9.5660 -19.6263 53.8482 13.9914 -19.1438
# 5 -49.4337 -24.1762 -54.3311 13.9914 70.1822 -6.2968
# 6 -2.6406 -36.3608 9.4706 -19.1438 -6.2968 35.5726
#
#
#
# Elastic Compliance Matrix: (Units=1/GPa)
#
#
# Indices 1 2 3 4 5 6 
#
# 1 0.010583 -0.000830 -0.000438 -0.001794 0.007220 0.000367
# 2 -0.000830 0.010500 -0.003087 0.005743 0.000819 0.014728
# 3 -0.000438 -0.003087 0.009809 -0.000239 0.005830 -0.004896
# 4 -0.001794 0.005743 -0.000239 0.027378 -0.003136 0.019980
# 5 0.007220 0.000819 0.005830 -0.003136 0.024984 0.002556
# 6 0.000367 0.014728 -0.004896 0.019980 0.002556 0.055702
#
#
# Mechanical properties :
#
#
# Convention : Reuss Voigt Hill
#
# Bulk Modulus (GPa) = 45.08196 79.26045 62.17121
# Shear Modulus (GPa) = 32.24580 54.12756 43.18668
#
# Velocity S-wave (km/s) = 3.37467 4.37224 3.90544
# Velocity P-wave (km/s) = 5.57730 7.31310 6.50337
#
# Compressibility (1/GPa) = 0.02218182
#
# Stress axis : x y z
#
# Youngs Moduli (GPa) = 94.48967 95.23995 101.94801
#
# Poissons Ratio (x) = 0.07904 0.04470
# Poissons Ratio (y) = 0.07841 0.31468
# Poissons Ratio (z) = 0.04143 0.29397
#
# Static dielectric constant tensor:
#      x y z
#    x 2.204500 -0.316070 -0.099460 
#    y -0.316070 1.597070 -0.379550 
#    z -0.099460 -0.379550 2.204240 
# 
# From -- ./inp_files/246277.got.cif
#   From: 2010.05.17/outbox.cif.g08.bks.cpg/sg2_124_cif.got.tgz:246277.got - 2010.06.03 11:33:40.
