data_PCOD9017437
_publ_section_title
;
Structure prediction by ZEFSAII (Michael W. Deem and Ramdas Pophale) SiO2 
 PCOD9017437
Probable space group: P -1
;
_chemical_formula_sum "Si O2"
_cell_formula_units_Z 15
_cell_length_a 13.851236
_cell_length_b 14.012245
_cell_length_c 5.187798
_cell_angle_alpha 112.195793
_cell_angle_beta 119.098613
_cell_angle_gamma 46.964664
_cell_volume 641.411992
_symmetry_space_group_name_H-M "P -1"
_symmetry_group_IT_number 2
_symmetry_cell_setting 'triclinic'
loop_
_space_group_symop_operation_xyz
x,y,z
-x,-y,-z
loop_
_atom_site_type_symbol
_atom_site_label
_atom_site_fract_x
_atom_site_fract_y
_atom_site_fract_z
Si Si1 0.076933 0.023699 0.418448
Si Si2 0.308355 0.517412 0.724186
Si Si3 0.982209 0.439253 0.664210
Si Si4 0.621213 0.991165 0.793117
Si Si5 0.775568 0.866134 0.337549
Si Si6 0.441428 0.737131 0.926356
Si Si7 0.500000 0.500000 0.500000
Si Si8 0.790818 0.218653 0.967794
O O1 0.152066 0.081405 0.669891
O O2 0.194388 0.879050 0.320025
O O3 0.000000 0.000000 0.500000
O O4 0.954363 0.134335 0.179860
O O5 0.164197 0.541131 0.499363
O O6 0.421046 0.374483 0.841752
O O7 0.382597 0.537460 0.611806
O O8 0.276233 0.628947 0.006640
O O9 0.000000 0.500000 0.500000
O O10 0.110469 0.287156 0.653646
O O11 0.000000 0.500000 0.000000
O O12 0.570017 0.133276 0.966801
O O13 0.500000 0.000000 0.500000
O O14 0.732475 0.929662 0.632514
O O15 0.660367 0.904641 0.013569
O O16 0.301766 0.781260 0.935321
O O17 0.462402 0.646951 0.624996
#
# Coordination Sequence:
#
# PCOD9017437 Si02
#       8
#     2   2   2   2   2   2   1   2
#     4  11  23  38  73 103 153 193 240 312 390 466
#     4  11  26  45  73 110 150 202 259 323 394 466
#     4  12  30  53  81 111 157 209 267 325 388 474
#     4  12  29  50  80 108 155 201 261 323 385 467
#     4  12  27  52  76 116 146 201 263 314 387 461
#     4  11  25  44  72 109 152 202 254 325 390 473
#     4  10  24  44  76 110 152 202 258 326 400 466
#     4  10  21  43  63 107 145 188 247 308 391 457
#
# _framework density 23.385909000000002
#
# number of rings (size 3 to 8) (size 9 to 14) (size 15 to 20)
#    0.000    0.800    2.667    3.600    9.333    6.400 
#    0.000    0.000    0.000    0.000    0.000    0.000 
#    0.000    0.000    0.000    0.000    0.000    0.000 
#
# Total GULP energy -83566.318748 kJ/mol
# GULP energy per Si atom -5571.087917 kJ/mol
# Density = 2.333268 g / cm^3
# Si number density = 23.385909 Si / 1000 Ang^3
#
#
#
# Elastic Constant Matrix: (Units=GPa)
#
#
# Indices 1 2 3 4 5 6 
#
# 1 92.4723 49.6936 36.9733 14.4302 -2.7651 -0.4166
# 2 49.6936 193.8121 63.6938 17.2350 -6.6019 -1.6443
# 3 36.9733 63.6938 117.1277 24.5921 -5.2750 1.6662
# 4 14.4302 17.2350 24.5921 56.0646 -3.9361 -1.6404
# 5 -2.7651 -6.6019 -5.2750 -3.9361 43.5144 2.0998
# 6 -0.4166 -1.6443 1.6662 -1.6404 2.0998 26.2749
#
#
#
# Elastic Compliance Matrix: (Units=1/GPa)
#
#
# Indices 1 2 3 4 5 6 
#
# 1 0.013404 -0.002451 -0.002571 -0.001564 0.000021 0.000123
# 2 -0.002451 0.006761 -0.002858 -0.000145 0.000485 0.000518
# 3 -0.002571 -0.002858 0.011699 -0.003588 0.000556 -0.001230
# 4 -0.001564 -0.000145 -0.003588 0.019980 0.001186 0.001346
# 5 0.000021 0.000485 0.000556 0.001186 0.023317 -0.001794
# 6 0.000123 0.000518 -0.001230 0.001346 -0.001794 0.038399
#
#
# Mechanical properties :
#
#
# Convention : Reuss Voigt Hill
#
# Bulk Modulus (GPa) = 62.09342 78.23705 70.16523
# Shear Modulus (GPa) = 37.12235 42.04088 39.58162
#
# Velocity S-wave (km/s) = 3.98852 4.24453 4.11851
# Velocity P-wave (km/s) = 6.91522 7.58609 7.25841
#
# Compressibility (1/GPa) = 0.01610477
#
# Stress axis : x y z
#
# Youngs Moduli (GPa) = 74.60229 147.90282 85.47447
#
# Poissons Ratio (x) = 0.36254 0.21974
# Poissons Ratio (y) = 0.18287 0.24429
# Poissons Ratio (z) = 0.19179 0.42272
#
# Static dielectric constant tensor:
#      x y z
#    x 1.596780 0.238050 -0.345280 
#    y 0.238050 1.622210 0.262190 
#    z -0.345280 0.262190 1.584430 
# 
# From -- ./inp_files/98634.got.cif
#   From: 2010.05.17/outbox.cif.g08.bks.cpg/sg2_50_cif.got.tgz:98634.got - 2010.06.03 11:33:40.
