data_PCOD9017762
_publ_section_title
;
Structure prediction by ZEFSAII (Michael W. Deem and Ramdas Pophale) SiO2 
 PCOD9017762
Probable space group: P -1
;
_chemical_formula_sum "Si O2"
_cell_formula_units_Z 10
_cell_length_a 14.296938
_cell_length_b 9.101701
_cell_length_c 9.793889
_cell_angle_alpha 130.151815
_cell_angle_beta 151.929389
_cell_angle_gamma 45.762153
_cell_volume 428.036971
_symmetry_space_group_name_H-M "P -1"
_symmetry_group_IT_number 2
_symmetry_cell_setting 'triclinic'
loop_
_space_group_symop_operation_xyz
x,y,z
-x,-y,-z
loop_
_atom_site_type_symbol
_atom_site_label
_atom_site_fract_x
_atom_site_fract_y
_atom_site_fract_z
Si Si1 0.737364 0.899886 0.478697
Si Si2 0.068771 0.912127 0.684647
Si Si3 0.265382 0.171143 0.273921
Si Si4 0.481016 0.638257 0.427213
Si Si5 0.760742 0.492802 0.204351
O O1 0.848686 0.809745 0.714672
O O2 0.627602 0.733884 0.203197
O O3 0.876658 0.914294 0.538043
O O4 0.602297 0.133199 0.479728
O O5 0.221917 0.672156 0.752976
O O6 0.000000 0.000000 0.500000
O O7 0.162053 0.067081 0.970368
O O8 0.306953 0.368407 0.385954
O O9 0.500000 0.000000 0.500000
O O10 0.500000 0.500000 0.500000
O O11 0.326988 0.591947 0.090028
O O12 0.000000 0.500000 0.500000
#
# Coordination Sequence:
#
# PCOD9017762 Si02
#       5
#     2   2   2   2   2
#     4  10  23  44  70  90 134 179 211 261 338 381
#     4  11  23  42  69 100 131 169 224 266 315 398
#     4  10  21  43  66  92 135 171 212 272 324 378
#     4  11  25  44  66  99 133 167 222 276 317 385
#     4  10  23  41  67  94 133 171 216 264 325 386
#
# _framework density 23.362468
#
# number of rings (size 3 to 8) (size 9 to 14) (size 15 to 20)
#    0.000    1.600    4.000    0.600    8.400    3.200 
#    3.600    2.000    0.000    0.000    0.000    0.000 
#    0.000    0.000    0.000    0.000    0.000    0.000 
#
# Total GULP energy -55783.898562 kJ/mol
# GULP energy per Si atom -5578.389856 kJ/mol
# Density = 2.330929 g / cm^3
# Si number density = 23.362468 Si / 1000 Ang^3
#
#
#
# Elastic Constant Matrix: (Units=GPa)
#
#
# Indices 1 2 3 4 5 6 
#
# 1 157.0889 84.7992 114.3745 13.9026 -29.7514 58.2865
# 2 84.7992 141.4747 28.0940 18.7160 -13.2556 36.5051
# 3 114.3745 28.0940 0.0827 -16.0793 0.1884 30.4185
# 4 13.9026 18.7160 -16.0793 20.9627 15.2876 -12.0411
# 5 -29.7514 -13.2556 0.1884 15.2876 35.5305 0.1811
# 6 58.2865 36.5051 30.4185 -12.0411 0.1811 60.1607
#
#
#
# Elastic Compliance Matrix: (Units=1/GPa)
#
#
# Indices 1 2 3 4 5 6 
#
# 1 0.002666 -0.003607 0.007653 0.007439 -0.002340 -0.002768
# 2 -0.003607 0.016581 0.007586 -0.026136 0.014450 -0.015676
# 3 0.007653 0.007586 0.007320 -0.038694 0.025968 -0.023541
# 4 0.007439 -0.026136 -0.038694 0.096817 -0.045216 0.047730
# 5 -0.002340 0.014450 0.025968 -0.045216 0.051041 -0.028835
# 6 -0.002768 -0.015676 -0.023541 0.047730 -0.028835 0.050359
#
#
# Mechanical properties :
#
#
# Convention : Reuss Voigt Hill
#
# Bulk Modulus (GPa) = 20.06818 83.68683 51.87751
# Shear Modulus (GPa) = 22.92209 28.08934 25.50571
#
# Velocity S-wave (km/s) = 3.13573 3.47122 3.30773
# Velocity P-wave (km/s) = 4.66036 7.20865 6.06975
#
# Compressibility (1/GPa) = 0.04983012
#
# Stress axis : x y z
#
# Youngs Moduli (GPa) = 375.04255 60.31128 136.61355
#
# Poissons Ratio (x) = 0.21755 -1.04551
# Poissons Ratio (y) = 1.35282 -1.03631
# Poissons Ratio (z) = -2.87022 -0.45750
#
# Static dielectric constant tensor:
#      x y z
#    x 2.064460 -0.113260 0.067040 
#    y -0.113260 2.095030 0.123140 
#    z 0.067040 0.123140 2.097010 
# 
# From -- ./inp_files/144241.got.cif
#   From: 2010.05.17/outbox.cif.g08.bks.cpg/sg2_73_cif.got.tgz:144241.got - 2010.06.03 11:33:40.
