data_PCOD9017866
_publ_section_title
;
Structure prediction by ZEFSAII (Michael W. Deem and Ramdas Pophale) SiO2 
 PCOD9017866
Probable space group: P -1
;
_chemical_formula_sum "Si O2"
_cell_formula_units_Z 16
_cell_length_a 19.150486
_cell_length_b 7.961897
_cell_length_c 22.935381
_cell_angle_alpha 29.047001
_cell_angle_beta 23.322031
_cell_angle_gamma 32.141157
_cell_volume 654.397306
_symmetry_space_group_name_H-M "P -1"
_symmetry_group_IT_number 2
_symmetry_cell_setting 'triclinic'
loop_
_space_group_symop_operation_xyz
x,y,z
-x,-y,-z
loop_
_atom_site_type_symbol
_atom_site_label
_atom_site_fract_x
_atom_site_fract_y
_atom_site_fract_z
Si Si1 0.142907 0.394993 0.679308
Si Si2 0.320631 0.596146 0.817418
Si Si3 0.761739 0.247741 0.038896
Si Si4 0.687897 0.241154 0.453944
Si Si5 0.034807 0.549861 0.891119
Si Si6 0.307169 0.859673 0.343001
Si Si7 0.524797 0.644903 0.001716
Si Si8 0.213038 0.412875 0.350695
O O1 0.231088 0.581206 0.607131
O O2 0.172517 0.596999 0.535463
O O3 0.241075 0.977777 0.732880
O O4 0.934415 0.422469 0.846287
O O5 0.348148 0.653379 0.847361
O O6 0.498931 0.388679 0.711626
O O7 0.165744 0.373628 0.003476
O O8 0.646781 0.344145 0.039567
O O9 0.852873 0.831757 0.101112
O O10 0.500000 0.500000 0.500000
O O11 0.838055 0.194954 0.301850
O O12 0.684088 0.853235 0.597573
O O13 0.000000 0.500000 0.000000
O O14 0.236752 0.181212 0.343591
O O15 0.367838 0.041936 0.183438
O O16 0.325623 0.715199 0.162578
O O17 0.500000 0.500000 0.000000
O O18 0.000000 0.500000 0.500000
#
# Coordination Sequence:
#
# PCOD9017866 Si02
#       8
#     2   2   2   2   2   2   2   2
#     4  10  21  43  67 102 140 177 228 280 349 408
#     4  11  22  42  68  98 140 175 225 288 344 412
#     4  11  22  44  68  96 139 185 218 289 347 406
#     4  11  22  40  69 102 138 178 232 283 342 411
#     4  11  24  37  67 103 133 176 228 280 346 403
#     4  10  24  40  69  93 135 184 223 283 332 414
#     4  10  24  44  68  97 135 175 238 279 337 406
#     4  10  24  43  68  97 137 181 226 289 345 407
#
# _framework density 24.449978999999999
#
# number of rings (size 3 to 8) (size 9 to 14) (size 15 to 20)
#    0.000    1.500    2.500    1.875    8.750    2.000 
#    0.000    2.500    0.000    0.000    0.000    0.000 
#    0.000    0.000    0.000    0.000    0.000    0.000 
#
# Total GULP energy -89404.195040 kJ/mol
# GULP energy per Si atom -5587.762190 kJ/mol
# Density = 2.439433 g / cm^3
# Si number density = 24.449979 Si / 1000 Ang^3
#
#
#
# Elastic Constant Matrix: (Units=GPa)
#
#
# Indices 1 2 3 4 5 6 
#
# 1 73.4698 -0.4521 16.0829 3.6643 -2.5728 -3.6707
# 2 -0.4521 65.1966 36.1700 13.2358 10.1817 3.7473
# 3 16.0829 36.1700 192.0985 -11.1954 23.7744 -4.5295
# 4 3.6643 13.2358 -11.1954 46.8460 -6.9255 15.0223
# 5 -2.5728 10.1817 23.7744 -6.9255 30.0611 1.1548
# 6 -3.6707 3.7473 -4.5295 15.0223 1.1548 21.5867
#
#
#
# Elastic Compliance Matrix: (Units=1/GPa)
#
#
# Indices 1 2 3 4 5 6 
#
# 1 0.014365 0.001183 -0.001669 -0.002885 0.001337 0.003823
# 2 0.001183 0.019692 -0.003522 -0.007939 -0.005684 0.001872
# 3 -0.001669 -0.003522 0.006598 0.001979 -0.003733 0.000534
# 4 -0.002885 -0.007939 0.001979 0.032692 0.009251 -0.021943
# 5 0.001337 -0.005684 -0.003733 0.009251 0.040703 -0.008185
# 6 0.003823 0.001872 0.000534 -0.021943 -0.008185 0.062470
#
#
# Mechanical properties :
#
#
# Convention : Reuss Voigt Hill
#
# Bulk Modulus (GPa) = 30.63766 48.26293 39.45029
# Shear Modulus (GPa) = 25.58623 38.29637 31.94130
#
# Velocity S-wave (km/s) = 3.23843 3.96196 3.61833
# Velocity P-wave (km/s) = 5.15182 6.38058 5.79884
#
# Compressibility (1/GPa) = 0.03263957
#
# Stress axis : x y z
#
# Youngs Moduli (GPa) = 69.61177 50.78217 151.55039
#
# Poissons Ratio (x) = -0.06005 0.25291
# Poissons Ratio (y) = -0.08232 0.53373
# Poissons Ratio (z) = 0.11617 0.17885
#
# Static dielectric constant tensor:
#      x y z
#    x 1.996160 0.005440 -0.009090 
#    y 0.005440 1.937160 -0.049360 
#    z -0.009090 -0.049360 2.069200 
# 
# From -- ./inp_files/543806.got.cif
#   From: 2010.05.17/outbox.cif.g08.bks.cpg/sg2_272_cif.got.tgz:543806.got - 2010.06.03 11:33:40.
