data_PCOD9017748
_publ_section_title
;
Structure prediction by ZEFSAII (Michael W. Deem and Ramdas Pophale) SiO2 
 PCOD9017748
Probable space group: P -1
;
_chemical_formula_sum "Si O2"
_cell_formula_units_Z 16
_cell_length_a 9.100767
_cell_length_b 14.572400
_cell_length_c 13.549018
_cell_angle_alpha 149.326995
_cell_angle_beta 109.534984
_cell_angle_gamma 57.330795
_cell_volume 735.497226
_symmetry_space_group_name_H-M "P -1"
_symmetry_group_IT_number 2
_symmetry_cell_setting 'triclinic'
loop_
_space_group_symop_operation_xyz
x,y,z
-x,-y,-z
loop_
_atom_site_type_symbol
_atom_site_label
_atom_site_fract_x
_atom_site_fract_y
_atom_site_fract_z
Si Si1 0.538121 0.880868 0.571165
Si Si2 0.966310 0.571519 0.403991
Si Si3 0.081383 0.753435 0.772620
Si Si4 0.266533 0.621099 0.015642
Si Si5 0.373333 0.355266 0.985610
Si Si6 0.437289 0.497474 0.716703
Si Si7 0.028329 0.504057 0.151523
Si Si8 0.166347 0.004153 0.481457
O O1 0.757189 0.728617 0.461652
O O2 0.513686 0.737681 0.513445
O O3 0.370105 0.923370 0.499600
O O4 0.507814 0.106824 0.795789
O O5 0.968966 0.378923 0.284389
O O6 0.019588 0.702093 0.608718
O O7 0.100616 0.482256 0.259177
O O8 0.298040 0.646637 0.741476
O O9 0.000000 0.000000 0.000000
O O10 0.213237 0.847877 0.255019
O O11 0.384063 0.446357 0.966363
O O12 0.339842 0.571231 0.873604
O O13 0.086334 0.608184 0.968754
O O14 0.392721 0.484356 0.198840
O O15 0.175103 0.394800 0.997822
O O16 0.916039 0.753479 0.337778
O O17 0.000000 0.000000 0.500000
#
# Coordination Sequence:
#
# PCOD9017748 Si02
#       8
#     2   2   2   2   2   2   2   2
#     4  11  22  39  61  89 125 168 204 253 300 369
#     4  10  24  41  66  93 119 159 216 263 312 368
#     4  10  21  43  66  91 119 155 212 272 315 362
#     4  12  23  38  60  92 129 170 208 249 298 378
#     4  12  24  38  63  92 136 169 201 249 314 371
#     4  11  24  40  62  96 121 161 219 257 307 375
#     4  12  24  42  60  96 132 169 205 255 311 374
#     4  12  24  38  60  92 136 174 203 247 309 371
#
# _framework density 21.753990999999999
#
# number of rings (size 3 to 8) (size 9 to 14) (size 15 to 20)
#    0.000    0.750    6.250    2.250    3.500    1.000 
#    0.000    0.625    0.000   10.500    0.000    0.000 
#    0.000    0.000    0.000    0.000    0.000    0.000 
#
# Total GULP energy -89138.763377 kJ/mol
# GULP energy per Si atom -5571.172711 kJ/mol
# Density = 2.170448 g / cm^3
# Si number density = 21.753991 Si / 1000 Ang^3
#
#
#
# Elastic Constant Matrix: (Units=GPa)
#
#
# Indices 1 2 3 4 5 6 
#
# 1 73.3333 14.6951 -1.5066 -11.6999 2.5791 5.7526
# 2 14.6951 61.4379 24.7844 -6.9382 -0.7279 -8.0108
# 3 -1.5066 24.7844 113.5576 9.2713 10.7905 13.5137
# 4 -11.6999 -6.9382 9.2713 39.3524 -6.4527 7.0748
# 5 2.5791 -0.7279 10.7905 -6.4527 28.8672 -2.7869
# 6 5.7526 -8.0108 13.5137 7.0748 -2.7869 19.3719
#
#
#
# Elastic Compliance Matrix: (Units=1/GPa)
#
#
# Indices 1 2 3 4 5 6 
#
# 1 0.016705 -0.006124 0.002803 0.004868 -0.002728 -0.011618
# 2 -0.006124 0.023567 -0.008060 0.002156 0.006307 0.017307
# 3 0.002803 -0.008060 0.013083 -0.002432 -0.007185 -0.013437
# 4 0.004868 0.002156 -0.002432 0.030503 0.006472 -0.009066
# 5 -0.002728 0.006307 -0.007185 0.006472 0.040322 0.011867
# 6 -0.011618 0.017307 -0.013437 -0.009066 0.011867 0.076620
#
#
# Mechanical properties :
#
#
# Convention : Reuss Voigt Hill
#
# Bulk Modulus (GPa) = 32.68676 36.03050 34.35863
# Shear Modulus (GPa) = 21.38945 31.54202 26.46574
#
# Velocity S-wave (km/s) = 3.13907 3.81194 3.49175
# Velocity P-wave (km/s) = 5.31005 5.99777 5.66435
#
# Compressibility (1/GPa) = 0.03059343
#
# Stress axis : x y z
#
# Youngs Moduli (GPa) = 59.86204 42.43140 76.43674
#
# Poissons Ratio (x) = 0.25983 -0.21422
# Poissons Ratio (y) = 0.36657 0.61607
# Poissons Ratio (z) = -0.16777 0.34199
#
# Static dielectric constant tensor:
#      x y z
#    x 1.918500 -0.052740 0.031470 
#    y -0.052740 1.838600 -0.017680 
#    z 0.031470 -0.017680 1.800560 
# 
# From -- ./inp_files/495202.got.cif
#   From: 2010.05.17/outbox.cif.g08.bks.cpg/sg2_248_cif.got.tgz:495202.got - 2010.06.03 11:33:40.
