data_PCOD9017054
_publ_section_title
;
Structure prediction by ZEFSAII (Michael W. Deem and Ramdas Pophale) SiO2 
 PCOD9017054
Probable space group: P -1
;
_chemical_formula_sum "Si O2"
_cell_formula_units_Z 16
_cell_length_a 11.112839
_cell_length_b 11.702570
_cell_length_c 14.321889
_cell_angle_alpha 126.775537
_cell_angle_beta 111.720656
_cell_angle_gamma 112.892833
_cell_volume 792.213390
_symmetry_space_group_name_H-M "P -1"
_symmetry_group_IT_number 2
_symmetry_cell_setting 'triclinic'
loop_
_space_group_symop_operation_xyz
x,y,z
-x,-y,-z
loop_
_atom_site_type_symbol
_atom_site_label
_atom_site_fract_x
_atom_site_fract_y
_atom_site_fract_z
Si Si1 0.302304 0.327184 0.088296
Si Si2 0.842554 0.748856 0.666791
Si Si3 0.663087 0.383495 0.888782
Si Si4 0.521377 0.347292 0.519287
Si Si5 0.037029 0.156832 0.456103
Si Si6 0.699353 0.124020 0.684102
Si Si7 0.481024 0.344715 0.984995
Si Si8 0.134884 0.924171 0.441957
O O1 0.227145 0.383529 0.020983
O O2 0.392195 0.491048 0.284351
O O3 0.494948 0.411437 0.128155
O O4 0.092519 0.032245 0.902915
O O5 0.731467 0.535101 0.600175
O O6 0.680792 0.740831 0.623950
O O7 0.832024 0.689472 0.526611
O O8 0.760821 0.321079 0.854676
O O9 0.640624 0.381639 0.992806
O O10 0.397506 0.155448 0.665482
O O11 0.414909 0.100386 0.394789
O O12 0.021961 0.225948 0.584278
O O13 0.085130 0.034657 0.437148
O O14 0.777785 0.936329 0.237452
O O15 0.874431 0.202391 0.703776
O O16 0.500000 0.000000 0.500000
O O17 0.500000 0.500000 0.000000
#
# Coordination Sequence:
#
# PCOD9017054 Si02
#       8
#     2   2   2   2   2   2   2   2
#     4  10  17  32  52  75 100 130 171 212 251 293
#     4  10  21  32  50  78 102 130 172 212 249 299
#     4   9  16  29  49  75 102 134 161 204 257 305
#     4  11  20  34  51  75 103 137 166 206 260 296
#     4   9  15  27  44  70 100 121 164 214 242 289
#     4  10  17  30  52  74 104 139 166 198 255 315
#     4   8  16  26  45  69  98 128 163 208 253 290
#     4   9  15  25  48  72  98 130 159 205 254 287
#
# _framework density 20.196577999999999
#
# number of rings (size 3 to 8) (size 9 to 14) (size 15 to 20)
#    0.000    2.500    3.750    0.375    0.000    0.000 
#    0.000    0.625    0.000   12.000    0.000    1.750 
#    0.000    0.000    0.000    0.000    0.000    0.000 
#
# Total GULP energy -89201.530323 kJ/mol
# GULP energy per Si atom -5575.095645 kJ/mol
# Density = 2.015061 g / cm^3
# Si number density = 20.196578 Si / 1000 Ang^3
#
#
#
# Elastic Constant Matrix: (Units=GPa)
#
#
# Indices 1 2 3 4 5 6 
#
# 1 140.8643 43.3115 24.3302 7.3401 -15.3907 31.9056
# 2 43.3115 85.5670 4.5721 11.4717 -4.3731 32.1041
# 3 24.3302 4.5721 55.7933 -3.9391 -9.6088 11.0586
# 4 7.3401 11.4717 -3.9391 29.2282 10.5588 0.8960
# 5 -15.3907 -4.3731 -9.6088 10.5588 35.2193 -6.6838
# 6 31.9056 32.1041 11.0586 0.8960 -6.6838 38.5312
#
#
#
# Elastic Compliance Matrix: (Units=1/GPa)
#
#
# Indices 1 2 3 4 5 6 
#
# 1 0.009940 -0.002591 -0.002853 -0.002890 0.003232 -0.004625
# 2 -0.002591 0.019069 0.002070 -0.006523 0.001100 -0.013994
# 3 -0.002853 0.002070 0.020615 0.001660 0.003234 -0.004756
# 4 -0.002890 -0.006523 0.001660 0.042516 -0.013607 0.004003
# 5 0.003232 0.001100 0.003234 -0.013607 0.035267 0.001913
# 6 -0.004625 -0.013994 -0.004756 0.004003 0.001913 0.043047
#
#
# Mechanical properties :
#
#
# Convention : Reuss Voigt Hill
#
# Bulk Modulus (GPa) = 23.32317 47.40579 35.36448
# Shear Modulus (GPa) = 26.11067 34.59646 30.35357
#
# Velocity S-wave (km/s) = 3.59949 4.14331 3.88094
# Velocity P-wave (km/s) = 5.37106 6.81268 6.13436
#
# Compressibility (1/GPa) = 0.04287582
#
# Stress axis : x y z
#
# Youngs Moduli (GPa) = 100.60684 52.44150 48.50911
#
# Poissons Ratio (x) = 0.13587 0.13839
# Poissons Ratio (y) = 0.26065 -0.10041
# Poissons Ratio (z) = 0.28701 -0.10855
#
# Static dielectric constant tensor:
#      x y z
#    x 1.756390 0.059470 0.004410 
#    y 0.059470 1.746860 -0.005860 
#    z 0.004410 -0.005860 1.868940 
# 
# From -- ./inp_files/253707.got.cif
#   From: 2010.05.17/outbox.cif.g08.bks.cpg/sg2_127_cif.got.tgz:253707.got - 2010.06.03 11:33:40.
