data_PCOD9017942
_publ_section_title
;
Structure prediction by ZEFSAII (Michael W. Deem and Ramdas Pophale) SiO2 
 PCOD9017942
Probable space group: P -1
;
_chemical_formula_sum "Si O2"
_cell_formula_units_Z 15
_cell_length_a 22.186846
_cell_length_b 9.687581
_cell_length_c 12.972268
_cell_angle_alpha 32.485218
_cell_angle_beta 28.140643
_cell_angle_gamma 41.771489
_cell_volume 706.256352
_symmetry_space_group_name_H-M "P -1"
_symmetry_group_IT_number 2
_symmetry_cell_setting 'triclinic'
loop_
_space_group_symop_operation_xyz
x,y,z
-x,-y,-z
loop_
_atom_site_type_symbol
_atom_site_label
_atom_site_fract_x
_atom_site_fract_y
_atom_site_fract_z
Si Si1 0.436204 0.912628 0.380778
Si Si2 0.718000 0.359806 0.532672
Si Si3 0.651687 0.255990 0.928639
Si Si4 0.730789 0.674413 0.705806
Si Si5 0.454817 0.362989 0.802495
Si Si6 0.000000 0.500000 0.500000
Si Si7 0.896354 0.891511 0.581658
Si Si8 0.854535 0.800165 0.927555
O O1 0.423039 0.636859 0.626217
O O2 0.516947 0.847669 0.195927
O O3 0.302535 0.051265 0.468842
O O4 0.519864 0.107015 0.200692
O O5 0.691816 0.386871 0.677279
O O6 0.586580 0.385417 0.652556
O O7 0.783323 0.081433 0.597773
O O8 0.811175 0.571123 0.210268
O O9 0.658539 0.461487 0.879465
O O10 0.753618 0.033191 0.941562
O O11 0.876198 0.589031 0.555155
O O12 0.657079 0.685067 0.918482
O O13 0.948743 0.702584 0.536083
O O14 0.856563 0.737196 0.842095
O O15 0.008535 0.088011 0.320204
#
# Coordination Sequence:
#
# PCOD9017942 Si02
#       8
#     2   2   2   2   2   1   2   2
#     4  11  24  43  68 102 130 168 218 273 323 394
#     4  11  22  40  73  98 126 176 221 268 320 390
#     4  11  23  41  67  98 135 166 219 268 325 382
#     4  12  26  45  65  96 134 177 209 274 327 389
#     4  11  25  41  69 100 130 169 220 269 333 379
#     4  12  26  46  68  92 140 172 214 264 338 384
#     4  10  23  42  67  96 130 177 212 272 314 390
#     4  10  21  43  67  95 132 169 227 260 320 382
#
# _framework density 21.238747
#
# number of rings (size 3 to 8) (size 9 to 14) (size 15 to 20)
#    0.000    1.067    4.000    2.000    3.733    1.600 
#    0.000    1.333    0.000    0.000    0.000    0.000 
#    0.000    0.000    0.000    0.000    0.000    0.000 
#
# Total GULP energy -83641.518818 kJ/mol
# GULP energy per Si atom -5576.101255 kJ/mol
# Density = 2.119041 g / cm^3
# Si number density = 21.238747 Si / 1000 Ang^3
#
#
#
# Elastic Constant Matrix: (Units=GPa)
#
#
# Indices 1 2 3 4 5 6 
#
# 1 86.9904 54.1775 12.9027 -6.6472 -12.2731 -9.2317
# 2 54.1775 94.1392 -3.2689 -0.6933 -13.4992 -7.9943
# 3 12.9027 -3.2689 38.0739 -3.4365 -3.5845 -7.2810
# 4 -6.6472 -0.6933 -3.4365 16.8652 -9.8118 -14.2987
# 5 -12.2731 -13.4992 -3.5845 -9.8118 25.0901 8.8812
# 6 -9.2317 -7.9943 -7.2810 -14.2987 8.8812 45.8689
#
#
#
# Elastic Compliance Matrix: (Units=1/GPa)
#
#
# Indices 1 2 3 4 5 6 
#
# 1 0.022345 -0.011179 -0.005141 0.017003 0.008955 0.005299
# 2 -0.011179 0.018220 0.006365 0.002173 0.005549 0.001539
# 3 -0.005141 0.006365 0.032828 0.018165 0.009478 0.009113
# 4 0.017003 0.002173 0.018165 0.130867 0.049870 0.037823
# 5 0.008955 0.005549 0.009478 0.049870 0.065556 0.007127
# 6 0.005299 0.001539 0.009113 0.037823 0.007127 0.034993
#
#
# Mechanical properties :
#
#
# Convention : Reuss Voigt Hill
#
# Bulk Modulus (GPa) = 18.69746 38.53624 28.61685
# Shear Modulus (GPa) = 14.59657 27.92430 21.26043
#
# Velocity S-wave (km/s) = 2.62441 3.62992 3.16732
# Velocity P-wave (km/s) = 4.24334 5.97931 5.18450
#
# Compressibility (1/GPa) = 0.05348321
#
# Stress axis : x y z
#
# Youngs Moduli (GPa) = 44.75198 54.88616 30.46172
#
# Poissons Ratio (x) = 0.61358 0.15661
# Poissons Ratio (y) = 0.50029 -0.19390
# Poissons Ratio (z) = 0.23008 -0.34937
#
# Static dielectric constant tensor:
#      x y z
#    x 1.811950 -0.008600 -0.019650 
#    y -0.008600 1.722740 -0.001090 
#    z -0.019650 -0.001090 1.776320 
# 
# From -- ./inp_files/469129.got.cif
#   From: 2010.05.17/outbox.cif.g08.bks.cpg/sg2_235_cif.got.tgz:469129.got - 2010.06.03 11:33:40.
