data_PCOD9017181
_publ_section_title
;
Structure prediction by ZEFSAII (Michael W. Deem and Ramdas Pophale) SiO2 
 PCOD9017181
Probable space group: P -1
;
_chemical_formula_sum "Si O2"
_cell_formula_units_Z 16
_cell_length_a 19.682688
_cell_length_b 8.430973
_cell_length_c 16.867724
_cell_angle_alpha 136.356370
_cell_angle_beta 150.796077
_cell_angle_gamma 32.012882
_cell_volume 722.515288
_symmetry_space_group_name_H-M "P -1"
_symmetry_group_IT_number 2
_symmetry_cell_setting 'triclinic'
loop_
_space_group_symop_operation_xyz
x,y,z
-x,-y,-z
loop_
_atom_site_type_symbol
_atom_site_label
_atom_site_fract_x
_atom_site_fract_y
_atom_site_fract_z
Si Si1 0.800155 0.777767 0.293021
Si Si2 0.639155 0.432774 0.308427
Si Si3 0.234535 0.880935 0.101854
Si Si4 0.132160 0.519447 0.907965
Si Si5 0.733177 0.802675 0.621969
Si Si6 0.227473 0.395871 0.628391
Si Si7 0.504764 0.226617 0.416405
Si Si8 0.112254 0.533863 0.067768
O O1 0.775209 0.672781 0.146157
O O2 0.739100 0.686833 0.273528
O O3 0.013180 0.598471 0.464579
O O4 0.706768 0.123350 0.304480
O O5 0.419313 0.662178 0.162213
O O6 0.711090 0.562164 0.486856
O O7 0.711915 0.436081 0.296669
O O8 0.252213 0.109277 0.244085
O O9 0.221108 0.674596 0.070852
O O10 0.024346 0.101568 0.939048
O O11 0.918348 0.713083 0.741677
O O12 0.141023 0.397962 0.960022
O O13 0.559264 0.111373 0.519549
O O14 0.345025 0.069927 0.588509
O O15 0.500000 0.500000 0.500000
O O16 0.308651 0.355835 0.238016
O O17 0.000000 0.500000 0.000000
#
# Coordination Sequence:
#
# PCOD9017181 Si02
#       8
#     2   2   2   2   2   2   2   2
#     4  11  24  46  72 101 138 197 233 291 351 406
#     4  11  23  43  74 102 138 183 243 289 344 415
#     4  11  24  44  67 105 139 181 222 296 363 421
#     4  11  23  45  68  97 144 182 229 280 359 425
#     4  10  21  42  72 100 134 180 238 293 345 421
#     4  10  24  45  68 104 141 174 254 295 331 423
#     4  11  21  39  70 102 132 175 234 294 347 408
#     4  11  24  42  65 100 144 173 220 288 360 416
#
# _framework density 22.144859
#
# number of rings (size 3 to 8) (size 9 to 14) (size 15 to 20)
#    0.000    1.250    2.500    5.250    3.500    1.500 
#    2.250    0.625    0.000    0.000    0.000    0.000 
#    0.000    0.000    0.000    0.000    0.000    0.000 
#
# Total GULP energy -89096.108243 kJ/mol
# GULP energy per Si atom -5568.506765 kJ/mol
# Density = 2.209446 g / cm^3
# Si number density = 22.144859 Si / 1000 Ang^3
#
#
#
# Elastic Constant Matrix: (Units=GPa)
#
#
# Indices 1 2 3 4 5 6 
#
# 1 138.7601 29.8835 30.3023 1.0307 -16.2853 6.7578
# 2 29.8835 96.3146 33.4602 -15.9539 -3.3679 10.1506
# 3 30.3023 33.4602 90.0912 -10.8258 -9.7556 2.8594
# 4 1.0307 -15.9539 -10.8258 30.5020 5.3677 6.7611
# 5 -16.2853 -3.3679 -9.7556 5.3677 25.9108 -12.0219
# 6 6.7578 10.1506 2.8594 6.7611 -12.0219 27.9370
#
#
#
# Elastic Compliance Matrix: (Units=1/GPa)
#
#
# Indices 1 2 3 4 5 6 
#
# 1 0.008927 -0.002971 -0.001778 -0.004405 0.006929 0.003150
# 2 -0.002971 0.015251 -0.003984 0.010508 -0.008484 -0.010609
# 3 -0.001778 -0.003984 0.013767 0.001768 0.003999 0.001761
# 4 -0.004405 0.010508 0.001768 0.048230 -0.021872 -0.024017
# 5 0.006929 -0.008484 0.003999 -0.021872 0.063475 0.033605
# 6 0.003150 -0.010609 0.001761 -0.024017 0.033605 0.058981
#
#
# Mechanical properties :
#
#
# Convention : Reuss Voigt Hill
#
# Bulk Modulus (GPa) = 48.83255 56.93975 52.88615
# Shear Modulus (GPa) = 21.46628 32.30461 26.88545
#
# Velocity S-wave (km/s) = 3.11683 3.82355 3.48813
# Velocity P-wave (km/s) = 5.92048 6.72762 6.33692
#
# Compressibility (1/GPa) = 0.02047814
#
# Stress axis : x y z
#
# Youngs Moduli (GPa) = 112.01382 65.57139 72.63640
#
# Poissons Ratio (x) = 0.19484 0.12915
# Poissons Ratio (y) = 0.33285 0.28938
# Poissons Ratio (z) = 0.19917 0.26124
#
# Static dielectric constant tensor:
#      x y z
#    x 1.961660 0.097870 0.003610 
#    y 0.097870 2.005840 -0.020110 
#    z 0.003610 -0.020110 1.880120 
# 
# From -- ./inp_files/577637.got.cif
#   From: 2010.05.17/outbox.cif.g08.bks.cpg/sg2_289_cif.got.tgz:577637.got - 2010.06.03 11:33:40.
