data_PCOD9017271
_publ_section_title
;
Structure prediction by ZEFSAII (Michael W. Deem and Ramdas Pophale) SiO2 
 PCOD9017271
Probable space group: P -1
;
_chemical_formula_sum "Si O2"
_cell_formula_units_Z 16
_cell_length_a 5.432499
_cell_length_b 16.565165
_cell_length_c 9.993724
_cell_angle_alpha 135.390733
_cell_angle_beta 80.859690
_cell_angle_gamma 89.796411
_cell_volume 614.669579
_symmetry_space_group_name_H-M "P -1"
_symmetry_group_IT_number 2
_symmetry_cell_setting 'triclinic'
loop_
_space_group_symop_operation_xyz
x,y,z
-x,-y,-z
loop_
_atom_site_type_symbol
_atom_site_label
_atom_site_fract_x
_atom_site_fract_y
_atom_site_fract_z
Si Si1 0.809063 0.471825 0.303712
Si Si2 0.608835 0.866226 0.294875
Si Si3 0.620677 0.896467 0.028465
Si Si4 0.618482 0.312152 0.324053
Si Si5 0.759517 0.433722 0.960669
Si Si6 0.178875 0.105082 0.264747
Si Si7 0.073779 0.666460 0.431293
Si Si8 0.929326 0.126969 0.581303
O O1 0.824629 0.365603 0.279031
O O2 0.606570 0.578684 0.505234
O O3 0.046291 0.537361 0.330991
O O4 0.727981 0.427753 0.115101
O O5 0.348392 0.816744 0.275634
O O6 0.836361 0.815235 0.313100
O O7 0.500000 0.000000 0.500000
O O8 0.705036 0.861580 0.129262
O O9 0.471773 0.795872 0.867934
O O10 0.826013 0.911828 0.915255
O O11 0.421743 0.016677 0.189022
O O12 0.748665 0.282793 0.420402
O O13 0.829603 0.332734 0.726169
O O14 0.500000 0.500000 0.000000
O O15 0.000000 0.500000 0.000000
O O16 0.188103 0.243118 0.438546
O O17 0.963737 0.095434 0.382682
O O18 0.000000 0.000000 0.500000
#
# Coordination Sequence:
#
# PCOD9017271 Si02
#       8
#     2   2   2   2   2   2   2   2
#     4  10  22  45  67 101 135 181 236 301 355 421
#     4  10  21  44  70  92 140 186 249 292 346 426
#     4  11  24  44  67 105 143 196 240 291 367 436
#     4  11  23  42  71  95 141 179 242 290 358 425
#     4  10  21  42  73 100 139 177 236 294 357 424
#     4  11  24  43  67 104 151 184 241 295 361 436
#     4  11  23  43  70 104 138 185 234 300 363 424
#     4  10  21  44  67  96 133 193 235 298 345 417
#
# _framework density 26.030244
#
# number of rings (size 3 to 8) (size 9 to 14) (size 15 to 20)
#    0.000    1.500    5.000    0.375    0.000    3.500 
#    2.250    2.500    0.000    0.000    0.000    0.000 
#    0.000    0.000    0.000    0.000    0.000    0.000 
#
# Total GULP energy -89408.837053 kJ/mol
# GULP energy per Si atom -5588.052316 kJ/mol
# Density = 2.597100 g / cm^3
# Si number density = 26.030244 Si / 1000 Ang^3
#
#
#
# Elastic Constant Matrix: (Units=GPa)
#
#
# Indices 1 2 3 4 5 6 
#
# 1 124.8713 28.8246 35.5370 -10.8955 5.4475 -8.1875
# 2 28.8246 109.9901 40.4481 -29.8989 14.0919 13.4358
# 3 35.5370 40.4481 134.2370 -21.2971 9.8090 -13.0495
# 4 -10.8955 -29.8989 -21.2971 62.1918 -4.7899 3.7027
# 5 5.4475 14.0919 9.8090 -4.7899 43.1908 -4.1146
# 6 -8.1875 13.4358 -13.0495 3.7027 -4.1146 37.1467
#
#
#
# Elastic Compliance Matrix: (Units=1/GPa)
#
#
# Indices 1 2 3 4 5 6 
#
# 1 0.009077 -0.002111 -0.001571 -0.000088 0.000104 0.002232
# 2 -0.002111 0.013601 -0.003166 0.005251 -0.003576 -0.007416
# 3 -0.001571 -0.003166 0.009417 0.001161 -0.000403 0.003946
# 4 -0.000088 0.005251 0.001161 0.019178 -0.000167 -0.003440
# 5 0.000104 -0.003576 -0.000403 -0.000167 0.024755 0.003934
# 6 0.002232 -0.007416 0.003946 -0.003440 0.003934 0.032260
#
#
# Mechanical properties :
#
#
# Convention : Reuss Voigt Hill
#
# Bulk Modulus (GPa) = 54.35288 64.30197 59.32743
# Shear Modulus (GPa) = 39.02742 46.12511 42.57626
#
# Velocity S-wave (km/s) = 3.87629 4.21406 4.04870
# Velocity P-wave (km/s) = 6.40002 6.95946 6.68559
#
# Compressibility (1/GPa) = 0.01839829
#
# Stress axis : x y z
#
# Youngs Moduli (GPa) = 110.17028 73.52665 106.19300
#
# Poissons Ratio (x) = 0.15518 0.16688
# Poissons Ratio (y) = 0.23252 0.33620
# Poissons Ratio (z) = 0.17313 0.23278
#
# Static dielectric constant tensor:
#      x y z
#    x 2.271440 0.008860 0.032310 
#    y 0.008860 2.236760 0.054500 
#    z 0.032310 0.054500 2.081890 
# 
# From -- ./inp_files/139520.got.cif
#   From: 2010.05.17/outbox.cif.g08.bks.cpg/sg2_70_cif.got.tgz:139520.got - 2010.06.03 11:33:40.
