data_PCOD9017443
_publ_section_title
;
Structure prediction by ZEFSAII (Michael W. Deem and Ramdas Pophale) SiO2 
 PCOD9017443
Probable space group: P -1
;
_chemical_formula_sum "Si O2"
_cell_formula_units_Z 14
_cell_length_a 7.847056
_cell_length_b 12.575862
_cell_length_c 8.299977
_cell_angle_alpha 62.964611
_cell_angle_beta 60.052619
_cell_angle_gamma 83.956521
_cell_volume 624.260015
_symmetry_space_group_name_H-M "P -1"
_symmetry_group_IT_number 2
_symmetry_cell_setting 'triclinic'
loop_
_space_group_symop_operation_xyz
x,y,z
-x,-y,-z
loop_
_atom_site_type_symbol
_atom_site_label
_atom_site_fract_x
_atom_site_fract_y
_atom_site_fract_z
Si Si1 0.949395 0.328632 0.045853
Si Si2 0.334850 0.130333 0.391698
Si Si3 0.322813 0.972044 0.224594
Si Si4 0.870398 0.600446 0.433997
Si Si5 0.475057 0.598411 0.807407
Si Si6 0.055763 0.954252 0.832496
Si Si7 0.024062 0.752764 0.565493
O O1 0.759102 0.398120 0.099494
O O2 0.909467 0.183728 0.120389
O O3 0.012408 0.333657 0.202156
O O4 0.086244 0.377488 0.792384
O O5 0.454724 0.261172 0.275391
O O6 0.130738 0.157905 0.389943
O O7 0.412130 0.045683 0.285758
O O8 0.255419 0.045621 0.633660
O O9 0.242844 0.831725 0.402314
O O10 0.132722 0.020448 0.202470
O O11 0.500000 0.000000 0.000000
O O12 0.633709 0.575620 0.607448
O O13 0.000000 0.500000 0.500000
O O14 0.962542 0.704470 0.447889
O O15 0.500000 0.500000 0.000000
O O16 0.000000 0.000000 0.000000
#
# Coordination Sequence:
#
# PCOD9017443 Si02
#       7
#     2   2   2   2   2   2   2
#     4  12  23  44  73  96 138 175 228 285 329 405
#     4  10  21  43  63  88 139 169 207 279 335 391
#     4  11  22  37  63  97 138 170 212 274 338 401
#     4  11  25  47  69  92 135 181 223 284 341 388
#     4  11  25  44  67  97 131 180 232 274 334 398
#     4  11  22  40  64 100 132 173 219 269 342 402
#     4  10  22  44  65  97 131 176 222 271 341 404
#
# _framework density 22.426552000000001
#
# number of rings (size 3 to 8) (size 9 to 14) (size 15 to 20)
#    0.000    1.143    4.286    3.429    4.000    3.429 
#    0.000    0.714    0.000    0.000    0.000    0.000 
#    0.000    0.000    0.000    0.000    0.000    0.000 
#
# Total GULP energy -77941.321364 kJ/mol
# GULP energy per Si atom -5567.237240 kJ/mol
# Density = 2.237551 g / cm^3
# Si number density = 22.426552 Si / 1000 Ang^3
#
#
#
# Elastic Constant Matrix: (Units=GPa)
#
#
# Indices 1 2 3 4 5 6 
#
# 1 57.0720 26.4605 30.4874 9.2794 5.0758 -34.1159
# 2 26.4605 71.4603 37.8745 9.0399 -6.5503 -7.7217
# 3 30.4874 37.8745 176.2041 25.6786 -3.4712 -11.4506
# 4 9.2794 9.0399 25.6786 45.8988 0.5938 2.3237
# 5 5.0758 -6.5503 -3.4712 0.5938 29.1852 -0.7197
# 6 -34.1159 -7.7217 -11.4506 2.3237 -0.7197 38.2688
#
#
#
# Elastic Compliance Matrix: (Units=1/GPa)
#
#
# Indices 1 2 3 4 5 6 
#
# 1 0.055762 -0.014242 -0.002447 -0.009298 -0.011851 0.046447
# 2 -0.014242 0.020052 -0.002421 0.000672 0.006447 -0.009294
# 3 -0.002447 -0.002421 0.007041 -0.002959 0.000771 -0.000369
# 4 -0.009298 0.000672 -0.002959 0.025718 0.000631 -0.010588
# 5 -0.011851 0.006447 0.000771 0.000631 0.037644 -0.008364
# 6 0.046447 -0.009294 -0.000369 -0.010588 -0.008364 0.066037
#
#
# Mechanical properties :
#
#
# Convention : Reuss Voigt Hill
#
# Bulk Modulus (GPa) = 22.40355 54.93123 38.66739
# Shear Modulus (GPa) = 18.84277 36.66483 27.75380
#
# Velocity S-wave (km/s) = 2.90176 4.04776 3.52169
# Velocity P-wave (km/s) = 4.60851 6.81123 5.81512
#
# Compressibility (1/GPa) = 0.04463578
#
# Stress axis : x y z
#
# Youngs Moduli (GPa) = 17.93331 49.87015 142.01658
#
# Poissons Ratio (x) = 0.71026 0.34752
# Poissons Ratio (y) = 0.25541 0.34379
# Poissons Ratio (z) = 0.04388 0.12072
#
# Static dielectric constant tensor:
#      x y z
#    x 1.899840 0.032870 -0.035770 
#    y 0.032870 1.910290 -0.057780 
#    z -0.035770 -0.057780 1.890690 
# 
# From -- ./inp_files/199275.got.cif
#   From: 2010.05.17/outbox.cif.g08.bks.cpg/sg2_100_cif.got.tgz:199275.got - 2010.06.03 11:33:40.
