data_PCOD9017511
_publ_section_title
;
Structure prediction by ZEFSAII (Michael W. Deem and Ramdas Pophale) SiO2 
 PCOD9017511
Probable space group: P -1
;
_chemical_formula_sum "Si O2"
_cell_formula_units_Z 16
_cell_length_a 15.729085
_cell_length_b 9.171009
_cell_length_c 9.895790
_cell_angle_alpha 79.895420
_cell_angle_beta 102.214150
_cell_angle_gamma 152.929805
_cell_volume 634.647683
_symmetry_space_group_name_H-M "P -1"
_symmetry_group_IT_number 2
_symmetry_cell_setting 'triclinic'
loop_
_space_group_symop_operation_xyz
x,y,z
-x,-y,-z
loop_
_atom_site_type_symbol
_atom_site_label
_atom_site_fract_x
_atom_site_fract_y
_atom_site_fract_z
Si Si1 0.808658 0.022403 0.218868
Si Si2 0.330858 0.420406 0.921176
Si Si3 0.223501 0.582216 0.207171
Si Si4 0.201378 0.546660 0.880052
Si Si5 0.194286 0.210419 0.516211
Si Si6 0.911728 0.240182 0.615063
Si Si7 0.456068 0.162173 0.333753
Si Si8 0.511204 0.239595 0.800993
O O1 0.033078 0.373410 0.232203
O O2 0.750627 0.867583 0.078654
O O3 0.783256 0.838124 0.326220
O O4 0.669484 0.927735 0.261244
O O5 0.194057 0.359428 0.876019
O O6 0.488027 0.687192 0.818147
O O7 0.416096 0.570526 0.071949
O O8 0.293008 0.513658 0.246718
O O9 0.378122 0.886879 0.307697
O O10 0.198492 0.567688 0.038084
O O11 0.050304 0.403235 0.758918
O O12 0.404038 0.923011 0.846832
O O13 0.383020 0.592982 0.536697
O O14 0.152484 0.011332 0.434921
O O15 0.000000 0.000000 0.500000
O O16 0.000000 0.500000 0.500000
O O17 0.717056 0.009347 0.639439
#
# Coordination Sequence:
#
# PCOD9017511 Si02
#       8
#     2   2   2   2   2   2   2   2
#     4  11  25  43  68 105 142 174 235 303 341 412
#     4  10  21  43  64 102 141 182 220 282 362 410
#     4  11  23  43  72 111 136 185 228 281 376 407
#     4  11  22  42  73  98 144 182 227 285 347 435
#     4  11  26  52  69  96 141 188 237 284 348 415
#     4  12  26  45  71 105 138 183 241 291 339 411
#     4  11  22  44  75  96 136 184 234 284 350 421
#     4  11  21  40  69 101 146 175 229 285 348 431
#
# _framework density 25.210836
#
# number of rings (size 3 to 8) (size 9 to 14) (size 15 to 20)
#    0.000    1.000    2.500    5.250    1.750    3.000 
#   13.500    1.875    0.000    0.000    0.000    0.000 
#    0.000    0.000    0.000    0.000    0.000    0.000 
#
# Total GULP energy -89085.011980 kJ/mol
# GULP energy per Si atom -5567.813249 kJ/mol
# Density = 2.515346 g / cm^3
# Si number density = 25.210836 Si / 1000 Ang^3
#
#
#
# Elastic Constant Matrix: (Units=GPa)
#
#
# Indices 1 2 3 4 5 6 
#
# 1 179.4181 32.6639 29.0685 14.8416 5.1231 16.8877
# 2 32.6639 52.4748 18.7782 38.1423 3.4787 0.6566
# 3 29.0685 18.7782 110.1453 30.8459 7.1317 -1.8138
# 4 14.8416 38.1423 30.8459 40.2639 -4.7346 -7.3828
# 5 5.1231 3.4787 7.1317 -4.7346 44.4910 13.0211
# 6 16.8877 0.6566 -1.8138 -7.3828 13.0211 42.0946
#
#
#
# Elastic Compliance Matrix: (Units=1/GPa)
#
#
# Indices 1 2 3 4 5 6 
#
# 1 0.007264 -0.010157 -0.002868 0.009021 0.001932 -0.001895
# 2 -0.010157 0.095928 0.016210 -0.103312 -0.017130 -0.009544
# 3 -0.002868 0.016210 0.014878 -0.026622 -0.005761 -0.001348
# 4 0.009021 -0.103312 -0.026622 0.145220 0.022243 0.015435
# 5 0.001932 -0.017130 -0.005761 0.022243 0.028548 -0.005686
# 6 -0.001895 -0.009544 -0.001348 0.015435 -0.005686 0.029073
#
#
# Mechanical properties :
#
#
# Convention : Reuss Voigt Hill
#
# Bulk Modulus (GPa) = 8.03592 55.89548 31.96570
# Shear Modulus (GPa) = 14.04415 42.80507 28.42461
#
# Velocity S-wave (km/s) = 2.36279 4.12501 3.36143
# Velocity P-wave (km/s) = 3.26161 6.70126 5.26996
#
# Compressibility (1/GPa) = 0.12444123
#
# Stress axis : x y z
#
# Youngs Moduli (GPa) = 137.65893 10.42452 67.21177
#
# Poissons Ratio (x) = 0.10588 0.19277
# Poissons Ratio (y) = 1.39818 -1.08953
# Poissons Ratio (z) = 0.39482 -0.16899
#
# Static dielectric constant tensor:
#      x y z
#    x 2.102700 -0.062340 -0.075140 
#    y -0.062340 2.263550 0.098590 
#    z -0.075140 0.098590 2.091680 
# 
# From -- ./inp_files/447527.got.cif
#   From: 2010.05.17/outbox.cif.g08.bks.cpg/sg2_224_cif.got.tgz:447527.got - 2010.06.03 11:33:40.
