data_PCOD9017065
_publ_section_title
;
Structure prediction by ZEFSAII (Michael W. Deem and Ramdas Pophale) SiO2 
 PCOD9017065
Probable space group: P -1
;
_chemical_formula_sum "Si O2"
_cell_formula_units_Z 16
_cell_length_a 22.385237
_cell_length_b 9.774900
_cell_length_c 8.409206
_cell_angle_alpha 95.900411
_cell_angle_beta 45.349865
_cell_angle_gamma 131.981212
_cell_volume 700.128583
_symmetry_space_group_name_H-M "P -1"
_symmetry_group_IT_number 2
_symmetry_cell_setting 'triclinic'
loop_
_space_group_symop_operation_xyz
x,y,z
-x,-y,-z
loop_
_atom_site_type_symbol
_atom_site_label
_atom_site_fract_x
_atom_site_fract_y
_atom_site_fract_z
Si Si1 0.065355 0.368484 0.681793
Si Si2 0.909592 0.910911 0.817548
Si Si3 0.376373 0.259467 0.073360
Si Si4 0.461636 0.788831 0.247648
Si Si5 0.406255 0.746972 0.977084
Si Si6 0.411325 0.500044 0.754182
Si Si7 0.050505 0.639773 0.591325
Si Si8 0.893078 0.657756 0.046752
O O1 0.220532 0.505783 0.337111
O O2 0.068725 0.533059 0.658694
O O3 0.039968 0.300014 0.905602
O O4 0.924003 0.093879 0.831526
O O5 0.728631 0.632538 0.102050
O O6 0.965387 0.893909 0.858183
O O7 0.000000 0.000000 0.500000
O O8 0.207333 0.949262 0.371517
O O9 0.500000 0.500000 0.000000
O O10 0.473555 0.265857 0.822279
O O11 0.343121 0.333368 0.019863
O O12 0.475978 0.814937 0.030673
O O13 0.284831 0.560190 0.601805
O O14 0.553954 0.052584 0.152873
O O15 0.484118 0.737887 0.720191
O O16 0.500000 0.500000 0.500000
O O17 0.000000 0.500000 0.500000
O O18 0.914927 0.561064 0.875418
#
# Coordination Sequence:
#
# PCOD9017065 Si02
#       8
#     2   2   2   2   2   2   2   2
#     4  11  23  45  72 100 142 187 249 294 352 440
#     4  12  24  45  69  99 143 187 232 295 373 433
#     4  12  25  46  73 104 143 193 242 296 363 442
#     4  10  22  44  71 101 137 182 249 298 351 424
#     4  10  21  42  70  99 138 191 231 299 362 420
#     4  12  26  42  66 105 145 185 238 301 364 430
#     4  12  27  47  70 108 148 191 237 300 379 430
#     4  11  26  43  74 105 134 192 247 300 353 437
#
# _framework density 22.852947
#
# number of rings (size 3 to 8) (size 9 to 14) (size 15 to 20)
#    0.000    0.750    3.750    3.750    0.000    4.000 
#    0.000    1.875    0.000    0.000    0.000    0.000 
#    0.000    0.000    0.000    0.000    0.000    0.000 
#
# Total GULP energy -89171.287399 kJ/mol
# GULP energy per Si atom -5573.205462 kJ/mol
# Density = 2.280093 g / cm^3
# Si number density = 22.852947 Si / 1000 Ang^3
#
#
#
# Elastic Constant Matrix: (Units=GPa)
#
#
# Indices 1 2 3 4 5 6 
#
# 1 75.1945 21.0929 -6.9837 -13.6333 9.5260 -12.5292
# 2 21.0929 131.6994 27.6113 8.8123 15.2942 -21.5347
# 3 -6.9837 27.6113 49.6916 8.0751 2.1241 0.2733
# 4 -13.6333 8.8123 8.0751 34.2182 -18.0136 -6.3648
# 5 9.5260 15.2942 2.1241 -18.0136 28.1793 0.5194
# 6 -12.5292 -21.5347 0.2733 -6.3648 0.5194 36.0804
#
#
#
# Elastic Compliance Matrix: (Units=1/GPa)
#
#
# Indices 1 2 3 4 5 6 
#
# 1 0.016672 -0.003003 0.002576 0.008374 0.001053 0.005439
# 2 -0.003003 0.011526 -0.005322 -0.006952 -0.009372 0.004785
# 3 0.002576 -0.005322 0.024576 -0.005917 -0.003553 -0.003461
# 4 0.008374 -0.006952 -0.005917 0.057199 0.037799 0.008349
# 5 0.001053 -0.009372 -0.003553 0.037799 0.064639 0.000537
# 6 0.005439 0.004785 -0.003461 0.008349 0.000537 0.033952
#
#
# Mechanical properties :
#
#
# Convention : Reuss Voigt Hill
#
# Bulk Modulus (GPa) = 24.22806 37.78073 31.00440
# Shear Modulus (GPa) = 21.38386 34.01992 27.70189
#
# Velocity S-wave (km/s) = 3.06227 3.86248 3.48542
# Velocity P-wave (km/s) = 4.80916 6.03819 5.45837
#
# Compressibility (1/GPa) = 0.04127446
#
# Stress axis : x y z
#
# Youngs Moduli (GPa) = 59.98151 86.76117 40.69009
#
# Poissons Ratio (x) = 0.26058 -0.10483
# Poissons Ratio (y) = 0.18015 0.21657
# Poissons Ratio (z) = -0.15452 0.46178
#
# Static dielectric constant tensor:
#      x y z
#    x 1.855920 0.087600 0.034570 
#    y 0.087600 1.954990 0.022120 
#    z 0.034570 0.022120 1.877940 
# 
# From -- ./inp_files/352225.got.cif
#   From: 2010.05.17/outbox.cif.g08.bks.cpg/sg2_177_cif.got.tgz:352225.got - 2010.06.03 11:33:40.
