data_PCOD9017937
_publ_section_title
;
Structure prediction by ZEFSAII (Michael W. Deem and Ramdas Pophale) SiO2 
 PCOD9017937
Probable space group: P -1
;
_chemical_formula_sum "Si O2"
_cell_formula_units_Z 14
_cell_length_a 11.552005
_cell_length_b 11.695828
_cell_length_c 12.027071
_cell_angle_alpha 106.573266
_cell_angle_beta 100.135438
_cell_angle_gamma 143.415469
_cell_volume 654.614996
_symmetry_space_group_name_H-M "P -1"
_symmetry_group_IT_number 2
_symmetry_cell_setting 'triclinic'
loop_
_space_group_symop_operation_xyz
x,y,z
-x,-y,-z
loop_
_atom_site_type_symbol
_atom_site_label
_atom_site_fract_x
_atom_site_fract_y
_atom_site_fract_z
Si Si1 0.550060 0.297617 0.182398
Si Si2 0.970910 0.283313 0.995994
Si Si3 0.756498 0.897440 0.355771
Si Si4 0.374620 0.404881 0.574438
Si Si5 0.114329 0.728215 0.428456
Si Si6 0.387400 0.530954 0.996975
Si Si7 0.345431 0.845134 0.268389
O O1 0.543834 0.392260 0.304060
O O2 0.784504 0.416186 0.286403
O O3 0.244731 0.966565 0.022676
O O4 0.637405 0.438347 0.120818
O O5 0.779129 0.190639 0.860757
O O6 0.106327 0.301868 0.951487
O O7 0.208943 0.588262 0.166463
O O8 0.568491 0.640939 0.331734
O O9 0.612002 0.798710 0.188966
O O10 0.834522 0.084862 0.490625
O O11 0.041818 0.095291 0.425522
O O12 0.500000 0.500000 0.500000
O O13 0.227889 0.794205 0.346863
O O14 0.323623 0.856750 0.585060
O O15 0.500000 0.500000 0.000000
#
# Coordination Sequence:
#
# PCOD9017937 Si02
#       7
#     2   2   2   2   2   2   2
#     4  11  25  41  67 101 131 172 226 269 325 396
#     4  11  25  43  67  98 130 177 219 275 329 386
#     4  10  22  41  64  91 134 176 210 269 334 388
#     4  10  23  39  64  95 129 172 221 271 323 392
#     4  10  21  43  67  95 125 174 219 274 331 382
#     4  12  24  44  65  94 141 175 213 268 331 396
#     4  10  22  44  70  91 132 175 220 273 335 384
#
# _framework density 21.386616
#
# number of rings (size 3 to 8) (size 9 to 14) (size 15 to 20)
#    0.000    1.429    4.286    0.000    4.000    2.857 
#    0.000    1.429    0.000    0.000    0.000    0.000 
#    0.000    0.000    0.000    0.000    0.000    0.000 
#
# Total GULP energy -78111.222723 kJ/mol
# GULP energy per Si atom -5579.373052 kJ/mol
# Density = 2.133794 g / cm^3
# Si number density = 21.386616 Si / 1000 Ang^3
#
#
#
# Elastic Constant Matrix: (Units=GPa)
#
#
# Indices 1 2 3 4 5 6 
#
# 1 94.8920 33.3772 14.5991 2.0257 1.8352 29.9932
# 2 33.3772 77.0291 27.1915 -1.5502 6.3501 27.6888
# 3 14.5991 27.1915 86.1212 -9.2288 11.9612 15.9354
# 4 2.0257 -1.5502 -9.2288 28.1583 9.7997 0.0558
# 5 1.8352 6.3501 11.9612 9.7997 30.0920 -2.9390
# 6 29.9932 27.6888 15.9354 0.0558 -2.9390 23.2340
#
#
#
# Elastic Compliance Matrix: (Units=1/GPa)
#
#
# Indices 1 2 3 4 5 6 
#
# 1 0.018698 0.001923 0.002603 0.001753 -0.005982 -0.028976
# 2 0.001923 0.025322 -0.000086 0.004891 -0.010332 -0.033920
# 3 0.002603 -0.000086 0.016791 0.009324 -0.011438 -0.016244
# 4 0.001753 0.004891 0.009324 0.046266 -0.021604 -0.017330
# 5 -0.005982 -0.010332 -0.011438 -0.021604 0.050713 0.034347
# 6 -0.028976 -0.033920 -0.016244 -0.017330 0.034347 0.136397
#
#
# Mechanical properties :
#
#
# Convention : Reuss Voigt Hill
#
# Bulk Modulus (GPa) = 14.34872 45.37533 29.86203
# Shear Modulus (GPa) = 16.20557 28.48850 22.34703
#
# Velocity S-wave (km/s) = 2.75570 3.65371 3.23601
# Velocity P-wave (km/s) = 4.10475 6.24998 5.28731
#
# Compressibility (1/GPa) = 0.06969264
#
# Stress axis : x y z
#
# Youngs Moduli (GPa) = 53.48066 39.49147 59.55696
#
# Poissons Ratio (x) = -0.07595 -0.15505
# Poissons Ratio (y) = -0.10285 0.00510
# Poissons Ratio (z) = -0.13923 0.00338
#
# Static dielectric constant tensor:
#      x y z
#    x 1.817530 -0.017010 0.021900 
#    y -0.017010 1.747050 0.022510 
#    z 0.021900 0.022510 1.812330 
# 
# From -- ./inp_files/68213.got.cif
#   From: 2010.05.17/outbox.cif.g08.bks.cpg/sg2_35_cif.got.tgz:68213.got - 2010.06.03 11:33:40.
