data_PCOD9017973
_publ_section_title
;
Structure prediction by ZEFSAII (Michael W. Deem and Ramdas Pophale) SiO2 
 PCOD9017973
Probable space group: P -1
;
_chemical_formula_sum "Si O2"
_cell_formula_units_Z 12
_cell_length_a 11.138097
_cell_length_b 12.789787
_cell_length_c 17.473177
_cell_angle_alpha 29.926212
_cell_angle_beta 147.719337
_cell_angle_gamma 155.524038
_cell_volume 494.779756
_symmetry_space_group_name_H-M "P -1"
_symmetry_group_IT_number 2
_symmetry_cell_setting 'triclinic'
loop_
_space_group_symop_operation_xyz
x,y,z
-x,-y,-z
loop_
_atom_site_type_symbol
_atom_site_label
_atom_site_fract_x
_atom_site_fract_y
_atom_site_fract_z
Si Si1 0.728097 0.082751 0.776700
Si Si2 0.286540 0.050801 0.322781
Si Si3 0.352194 0.402914 0.899002
Si Si4 0.929704 0.182762 0.383450
Si Si5 0.752786 0.748409 0.344395
Si Si6 0.943631 0.643196 0.817379
O O1 0.066267 0.378399 0.775376
O O2 0.753383 0.014342 0.746956
O O3 0.420241 0.018508 0.655229
O O4 0.720770 0.890521 0.958012
O O5 0.452585 0.379773 0.201920
O O6 0.500000 0.000000 0.500000
O O7 0.982440 0.855339 0.330771
O O8 0.500000 0.500000 0.000000
O O9 0.152506 0.337263 0.477669
O O10 0.979384 0.370822 0.220150
O O11 0.000000 0.000000 0.500000
O O12 0.410021 0.516093 0.279772
O O13 0.841948 0.033935 0.243757
O O14 0.000000 0.500000 0.000000
#
# Coordination Sequence:
#
# PCOD9017973 Si02
#       6
#     2   2   2   2   2   2
#     4  10  21  43  67  96 134 176 227 283 354 408
#     4  11  23  39  65 100 133 174 226 287 351 411
#     4   9  22  40  62  98 132 175 222 283 347 413
#     4  10  23  45  68  98 137 184 232 284 348 421
#     4  11  25  46  69 102 140 180 233 286 351 416
#     4  11  26  46  71 101 136 187 235 287 341 413
#
# _framework density 24.253216999999999
#
# number of rings (size 3 to 8) (size 9 to 14) (size 15 to 20)
#    0.000    1.667    1.667    1.000    4.667    6.000 
#   12.000    0.000    0.000    0.000    0.000    0.000 
#    0.000    0.000    0.000    0.000    0.000    0.000 
#
# Total GULP energy -67002.218173 kJ/mol
# GULP energy per Si atom -5583.518181 kJ/mol
# Density = 2.419802 g / cm^3
# Si number density = 24.253217 Si / 1000 Ang^3
#
#
#
# Elastic Constant Matrix: (Units=GPa)
#
#
# Indices 1 2 3 4 5 6 
#
# 1 86.4798 11.1010 25.9973 8.2484 -21.7877 28.5641
# 2 11.1010 77.3808 16.6348 23.3015 -12.2448 13.8543
# 3 25.9973 16.6348 137.4007 13.0722 -35.0582 -6.2860
# 4 8.2484 23.3015 13.0722 43.7689 9.5210 7.7143
# 5 -21.7877 -12.2448 -35.0582 9.5210 38.8724 -6.3452
# 6 28.5641 13.8543 -6.2860 7.7143 -6.3452 36.7316
#
#
#
# Elastic Compliance Matrix: (Units=1/GPa)
#
#
# Indices 1 2 3 4 5 6 
#
# 1 0.018806 0.002601 -0.002087 -0.003640 0.008118 -0.013796
# 2 0.002601 0.018391 0.000793 -0.011919 0.010140 -0.004569
# 3 -0.002087 0.000793 0.011923 -0.007662 0.012885 0.007199
# 4 -0.003640 -0.011919 -0.007662 0.038237 -0.023049 -0.005997
# 5 0.008118 0.010140 0.012885 -0.023049 0.051687 0.005837
# 6 -0.013796 -0.004569 0.007199 -0.005997 0.005837 0.043176
#
#
# Mechanical properties :
#
#
# Convention : Reuss Voigt Hill
#
# Bulk Modulus (GPa) = 19.32915 45.41419 32.37167
# Shear Modulus (GPa) = 25.40015 40.37645 32.88830
#
# Velocity S-wave (km/s) = 3.23970 4.08461 3.68644
# Velocity P-wave (km/s) = 4.68841 6.40398 5.61214
#
# Compressibility (1/GPa) = 0.05173533
#
# Stress axis : x y z
#
# Youngs Moduli (GPa) = 53.17500 54.37441 83.87485
#
# Poissons Ratio (x) = -0.14145 0.17503
# Poissons Ratio (y) = -0.13833 -0.06655
# Poissons Ratio (z) = 0.11097 -0.04314
#
# Static dielectric constant tensor:
#      x y z
#    x 2.422060 -0.761790 -0.045460 
#    y -0.761790 3.113470 0.072660 
#    z -0.045460 0.072660 2.008930 
# 
# From -- ./inp_files/19857.got.cif
#   From: 2010.05.17/outbox.cif.g08.bks.cpg/sg2_10_cif.got.tgz:19857.got - 2010.06.03 11:33:40.
