data_PCOD9017894
_publ_section_title
;
Structure prediction by ZEFSAII (Michael W. Deem and Ramdas Pophale) SiO2 
 PCOD9017894
Probable space group: P -1
;
_chemical_formula_sum "Si O2"
_cell_formula_units_Z 16
_cell_length_a 8.729004
_cell_length_b 12.199048
_cell_length_c 10.472064
_cell_angle_alpha 128.481046
_cell_angle_beta 81.138120
_cell_angle_gamma 129.350374
_cell_volume 619.465665
_symmetry_space_group_name_H-M "P -1"
_symmetry_group_IT_number 2
_symmetry_cell_setting 'triclinic'
loop_
_space_group_symop_operation_xyz
x,y,z
-x,-y,-z
loop_
_atom_site_type_symbol
_atom_site_label
_atom_site_fract_x
_atom_site_fract_y
_atom_site_fract_z
Si Si1 0.739577 0.247677 0.154086
Si Si2 0.371453 0.446868 0.318989
Si Si3 0.075976 0.906981 0.854404
Si Si4 0.176475 0.991547 0.483325
Si Si5 0.127999 0.678417 0.400808
Si Si6 0.476484 0.156060 0.349639
Si Si7 0.473145 0.700680 0.964503
Si Si8 0.632131 0.397591 0.822233
O O1 0.845427 0.166665 0.115559
O O2 0.527796 0.134488 0.187212
O O3 0.674452 0.262961 0.034500
O O4 0.919804 0.474427 0.338562
O O5 0.496523 0.657927 0.512220
O O6 0.502009 0.389718 0.223865
O O7 0.305205 0.452877 0.186723
O O8 0.153134 0.287988 0.312730
O O9 0.289123 0.087572 0.882275
O O10 0.000000 0.000000 0.000000
O O11 0.255792 0.988291 0.330961
O O12 0.395468 0.193073 0.662497
O O13 0.097864 0.813710 0.450027
O O14 0.000000 0.000000 0.500000
O O15 0.327864 0.789594 0.553580
O O16 0.205066 0.628715 0.237586
O O17 0.378561 0.565922 0.003315
#
# Coordination Sequence:
#
# PCOD9017894 Si02
#       8
#     2   2   2   2   2   2   2   2
#     4  12  24  41  65  99 129 172 221 260 321 388
#     4   9  20  44  63  93 123 170 220 261 328 374
#     4  10  22  44  61  88 128 171 217 262 318 385
#     4  10  23  43  66 100 126 162 223 274 321 373
#     4  10  22  41  68  92 127 167 218 270 319 383
#     4  10  22  42  70  91 132 169 215 266 324 383
#     4  11  25  38  64  93 134 171 213 264 321 384
#     4  10  21  43  67  89 130 174 209 265 328 384
#
# _framework density 25.828714999999999
#
# number of rings (size 3 to 8) (size 9 to 14) (size 15 to 20)
#    0.000    2.000    2.500    2.625    7.000    1.000 
#    6.750    0.000    0.000    0.000    0.000    0.000 
#    0.000    0.000    0.000    0.000    0.000    0.000 
#
# Total GULP energy -89515.173668 kJ/mol
# GULP energy per Si atom -5594.698354 kJ/mol
# Density = 2.576993 g / cm^3
# Si number density = 25.828715 Si / 1000 Ang^3
#
#
#
# Elastic Constant Matrix: (Units=GPa)
#
#
# Indices 1 2 3 4 5 6 
#
# 1 138.4106 45.2140 32.2167 0.5189 -24.2902 -14.1948
# 2 45.2140 103.7511 20.2361 -0.7161 0.4534 -6.9086
# 3 32.2167 20.2361 52.0759 -14.2594 -18.0695 -2.6025
# 4 0.5189 -0.7161 -14.2594 43.7332 -7.5900 -10.8589
# 5 -24.2902 0.4534 -18.0695 -7.5900 24.2107 10.1205
# 6 -14.1948 -6.9086 -2.6025 -10.8589 10.1205 36.7352
#
#
#
# Elastic Compliance Matrix: (Units=1/GPa)
#
#
# Indices 1 2 3 4 5 6 
#
# 1 0.010811 -0.004525 -0.000847 0.001542 0.010427 0.000850
# 2 -0.004525 0.013333 -0.007783 -0.003854 -0.012902 0.002623
# 3 -0.000847 -0.007783 0.040409 0.018551 0.036764 -0.003573
# 4 0.001542 -0.003854 0.018551 0.034187 0.024256 0.004609
# 5 0.010427 -0.012902 0.036764 0.024256 0.093005 -0.014245
# 6 0.000850 0.002623 -0.003573 0.004609 -0.014245 0.033077
#
#
# Mechanical properties :
#
#
# Convention : Reuss Voigt Hill
#
# Bulk Modulus (GPa) = 26.14824 54.39680 40.27252
# Shear Modulus (GPa) = 18.94799 34.04053 26.49426
#
# Velocity S-wave (km/s) = 2.71145 3.63427 3.20624
# Velocity P-wave (km/s) = 4.46635 6.22229 5.41596
#
# Compressibility (1/GPa) = 0.03824350
#
# Stress axis : x y z
#
# Youngs Moduli (GPa) = 92.49426 75.00356 24.74698
#
# Poissons Ratio (x) = 0.33936 0.02097
# Poissons Ratio (y) = 0.41850 0.19260
# Poissons Ratio (z) = 0.07838 0.58374
#
# Static dielectric constant tensor:
#      x y z
#    x 1.992060 -0.011670 -0.010350 
#    y -0.011670 2.031840 0.011450 
#    z -0.010350 0.011450 2.136200 
# 
# From -- ./inp_files/392833.got.cif
#   From: 2010.05.17/outbox.cif.g08.bks.cpg/sg2_197_cif.got.tgz:392833.got - 2010.06.03 11:33:40.
