data_PCOD9017130
_publ_section_title
;
Structure prediction by ZEFSAII (Michael W. Deem and Ramdas Pophale) SiO2 
 PCOD9017130
Probable space group: P -1
;
_chemical_formula_sum "Si O2"
_cell_formula_units_Z 14
_cell_length_a 15.834944
_cell_length_b 7.140086
_cell_length_c 13.917475
_cell_angle_alpha 53.920926
_cell_angle_beta 35.647007
_cell_angle_gamma 78.537750
_cell_volume 596.181673
_symmetry_space_group_name_H-M "P -1"
_symmetry_group_IT_number 2
_symmetry_cell_setting 'triclinic'
loop_
_space_group_symop_operation_xyz
x,y,z
-x,-y,-z
loop_
_atom_site_type_symbol
_atom_site_label
_atom_site_fract_x
_atom_site_fract_y
_atom_site_fract_z
Si Si1 0.529312 0.322647 0.101270
Si Si2 0.850467 0.410499 0.980282
Si Si3 0.913048 0.411810 0.451377
Si Si4 0.232506 0.870438 0.134493
Si Si5 0.211049 0.153436 0.780372
Si Si6 0.444664 0.524132 0.754188
Si Si7 0.776535 0.344817 0.394751
O O1 0.573573 0.481135 0.113222
O O2 0.358332 0.995188 0.381691
O O3 0.500000 0.500000 0.000000
O O4 0.674864 0.280940 0.937377
O O5 0.688446 0.396147 0.178076
O O6 0.786822 0.096262 0.097176
O O7 0.951984 0.614792 0.731451
O O8 0.019551 0.533117 0.857104
O O9 0.799798 0.171623 0.708254
O O10 0.797145 0.416012 0.471011
O O11 0.038882 0.699917 0.312049
O O12 0.361788 0.205764 0.890008
O O13 0.351623 0.246764 0.536045
O O14 0.273976 0.463277 0.668467
O O15 0.000000 0.000000 0.000000
#
# Coordination Sequence:
#
# PCOD9017130 Si02
#       7
#     2   2   2   2   2   2   2
#     4  12  25  38  64 100 130 167 215 261 321 390
#     4   9  21  42  65  95 125 172 221 258 310 389
#     4   9  21  41  66  89 134 169 216 254 327 374
#     4  11  23  42  64  96 130 176 207 266 321 383
#     4  10  21  42  71  90 131 168 215 272 319 373
#     4  12  24  42  68  94 134 166 218 263 322 382
#     4   9  20  42  64  93 132 164 213 264 316 375
#
# _framework density 23.482773000000002
#
# number of rings (size 3 to 8) (size 9 to 14) (size 15 to 20)
#    0.857    0.857    2.857    1.286    2.000    4.000 
#    0.000    7.143    0.000    0.000    0.000    0.000 
#    0.000    0.000    0.000    0.000    0.000    0.000 
#
# Total GULP energy -78020.472321 kJ/mol
# GULP energy per Si atom -5572.890880 kJ/mol
# Density = 2.342933 g / cm^3
# Si number density = 23.482773 Si / 1000 Ang^3
#
#
#
# Elastic Constant Matrix: (Units=GPa)
#
#
# Indices 1 2 3 4 5 6 
#
# 1 39.4149 20.2100 5.1538 5.0541 6.3491 11.2862
# 2 20.2100 105.2571 41.1249 0.2937 -5.6373 -15.0189
# 3 5.1538 41.1249 111.9758 4.1453 1.1687 -2.2755
# 4 5.0541 0.2937 4.1453 50.5858 6.0422 -2.0275
# 5 6.3491 -5.6373 1.1687 6.0422 22.7322 1.0582
# 6 11.2862 -15.0189 -2.2755 -2.0275 1.0582 26.8836
#
#
#
# Elastic Compliance Matrix: (Units=1/GPa)
#
#
# Indices 1 2 3 4 5 6 
#
# 1 0.041162 -0.013069 0.002685 -0.003699 -0.012769 -0.024131
# 2 -0.013069 0.016448 -0.005277 0.001372 0.006981 0.014058
# 3 0.002685 -0.005277 0.010740 -0.000981 -0.002203 -0.003154
# 4 -0.003699 0.001372 -0.000981 0.020885 -0.004313 0.003981
# 5 -0.012769 0.006981 -0.002203 -0.004313 0.050233 0.006772
# 6 -0.024131 0.014058 -0.003154 0.003981 0.006772 0.054948
#
#
# Mechanical properties :
#
#
# Convention : Reuss Voigt Hill
#
# Bulk Modulus (GPa) = 27.00683 43.29166 35.14925
# Shear Modulus (GPa) = 21.00124 32.71758 26.85941
#
# Velocity S-wave (km/s) = 2.99377 3.73669 3.38567
# Velocity P-wave (km/s) = 4.84519 6.09037 5.50311
#
# Compressibility (1/GPa) = 0.03702767
#
# Stress axis : x y z
#
# Youngs Moduli (GPa) = 24.29411 60.79887 93.10767
#
# Poissons Ratio (x) = 0.79460 -0.25001
# Poissons Ratio (y) = 0.31751 0.49134
# Poissons Ratio (z) = -0.06523 0.32084
#
# Static dielectric constant tensor:
#      x y z
#    x 1.992540 -0.048860 -0.005860 
#    y -0.048860 1.928890 -0.020720 
#    z -0.005860 -0.020720 1.925430 
# 
# From -- ./inp_files/575215.got.cif
#   From: 2010.05.17/outbox.cif.g08.bks.cpg/sg2_288_cif.got.tgz:575215.got - 2010.06.03 11:33:40.
