data_PCOD9017901
_publ_section_title
;
Structure prediction by ZEFSAII (Michael W. Deem and Ramdas Pophale) SiO2 
 PCOD9017901
Probable space group: P -1
;
_chemical_formula_sum "Si O2"
_cell_formula_units_Z 16
_cell_length_a 26.012566
_cell_length_b 8.887719
_cell_length_c 9.252428
_cell_angle_alpha 55.997041
_cell_angle_beta 133.730023
_cell_angle_gamma 149.530522
_cell_volume 779.889791
_symmetry_space_group_name_H-M "P -1"
_symmetry_group_IT_number 2
_symmetry_cell_setting 'triclinic'
loop_
_space_group_symop_operation_xyz
x,y,z
-x,-y,-z
loop_
_atom_site_type_symbol
_atom_site_label
_atom_site_fract_x
_atom_site_fract_y
_atom_site_fract_z
Si Si1 0.305816 0.773058 0.410448
Si Si2 0.739686 0.400027 0.916734
Si Si3 0.300991 0.189929 0.091288
Si Si4 0.908398 0.680954 0.571149
Si Si5 0.104485 0.980211 0.998754
Si Si6 0.084314 0.665344 0.383355
Si Si7 0.812825 0.135659 0.233556
Si Si8 0.464491 0.824279 0.172821
O O1 0.290531 0.658321 0.281785
O O2 0.210703 0.501211 0.485517
O O3 0.292265 0.965436 0.255015
O O4 0.429076 0.986433 0.611362
O O5 0.635586 0.269075 0.883378
O O6 0.852124 0.748808 0.987518
O O7 0.771253 0.258723 0.093853
O O8 0.414000 0.525720 0.185962
O O9 0.194491 0.097804 0.989449
O O10 0.280120 0.143404 0.903638
O O11 0.883680 0.475690 0.516706
O O12 0.000000 0.000000 0.500000
O O13 0.979700 0.743303 0.810882
O O14 0.107786 0.832677 0.202080
O O15 0.164523 0.894925 0.547215
O O16 0.945401 0.396759 0.288047
O O17 0.500000 0.000000 0.000000
#
# Coordination Sequence:
#
# PCOD9017901 Si02
#       8
#     2   2   2   2   2   2   2   2
#     4  11  24  44  67  93 130 178 219 265 327 379
#     4  10  24  43  65  95 133 169 218 272 316 392
#     4  10  21  43  67  91 128 173 214 264 317 396
#     4  12  25  38  68  99 136 170 217 268 324 396
#     4  11  21  39  64  94 131 166 215 251 330 383
#     4  11  22  37  63  97 134 171 207 265 318 403
#     4  10  22  39  63  94 135 165 212 263 329 372
#     4  11  26  42  69  95 128 170 224 273 323 381
#
# _framework density 20.515720999999999
#
# number of rings (size 3 to 8) (size 9 to 14) (size 15 to 20)
#    0.000    1.250    2.500    3.375    5.250    5.000 
#    0.000    2.500    0.000    0.000    0.000    0.000 
#    0.000    0.000    0.000    0.000    0.000    0.000 
#
# Total GULP energy -89353.335680 kJ/mol
# GULP energy per Si atom -5584.583480 kJ/mol
# Density = 2.046903 g / cm^3
# Si number density = 20.515721 Si / 1000 Ang^3
#
#
#
# Elastic Constant Matrix: (Units=GPa)
#
#
# Indices 1 2 3 4 5 6 
#
# 1 99.1307 23.1915 22.8029 1.8320 -24.1986 -3.9739
# 2 23.1915 18.2531 -8.1167 -19.1682 -42.6373 13.2316
# 3 22.8029 -8.1167 73.1968 11.9549 -35.3581 1.5948
# 4 1.8320 -19.1682 11.9549 25.6063 -15.3493 5.7213
# 5 -24.1986 -42.6373 -35.3581 -15.3493 3.2918 15.4597
# 6 -3.9739 13.2316 1.5948 5.7213 15.4597 23.5612
#
#
#
# Elastic Compliance Matrix: (Units=1/GPa)
#
#
# Indices 1 2 3 4 5 6 
#
# 1 0.013161 -0.004942 -0.001685 -0.000542 0.006010 0.001298
# 2 -0.004942 0.009448 -0.005912 -0.002072 -0.018000 0.006575
# 3 -0.001685 -0.005912 0.015709 -0.012345 0.000544 0.004614
# 4 -0.000542 -0.002072 -0.012345 0.034591 -0.013623 0.002447
# 5 0.006010 -0.018000 0.000544 -0.013623 0.005027 0.011095
# 6 0.001298 0.006575 0.004614 0.002447 0.011095 0.030783
#
#
# Mechanical properties :
#
#
# Convention : Reuss Voigt Hill
#
# Bulk Modulus (GPa) = 75.53371 29.59287 52.56329
# Shear Modulus (GPa) = 36.17666 20.67205 28.42436
#
# Velocity S-wave (km/s) = 4.20380 3.17775 3.72626
# Velocity P-wave (km/s) = 7.77560 5.28393 6.64755
#
# Compressibility (1/GPa) = 0.01323912
#
# Stress axis : x y z
#
# Youngs Moduli (GPa) = 75.98475 105.84111 63.65691
#
# Poissons Ratio (x) = 0.52311 0.10724
# Poissons Ratio (y) = 0.37555 0.37636
# Poissons Ratio (z) = 0.12800 0.62577
#
# Static dielectric constant tensor:
#      x y z
#    x 1.692080 -0.020810 -0.016710 
#    y -0.020810 1.726680 -0.014520 
#    z -0.016710 -0.014520 1.707790 
# 
# From -- ./inp_files/178703.got.cif
#   From: 2010.05.17/outbox.cif.g08.bks.cpg/sg2_90_cif.got.tgz:178703.got - 2010.06.03 11:33:40.
