data_PCOD9017372
_publ_section_title
;
Structure prediction by ZEFSAII (Michael W. Deem and Ramdas Pophale) SiO2 
 PCOD9017372
Probable space group: P -1
;
_chemical_formula_sum "Si O2"
_cell_formula_units_Z 12
_cell_length_a 16.913730
_cell_length_b 4.752997
_cell_length_c 5.559214
_cell_angle_alpha 95.551432
_cell_angle_beta 64.853162
_cell_angle_gamma 85.518211
_cell_volume 399.112904
_symmetry_space_group_name_H-M "P -1"
_symmetry_group_IT_number 2
_symmetry_cell_setting 'triclinic'
loop_
_space_group_symop_operation_xyz
x,y,z
-x,-y,-z
loop_
_atom_site_type_symbol
_atom_site_label
_atom_site_fract_x
_atom_site_fract_y
_atom_site_fract_z
Si Si1 0.081748 0.153588 0.500403
Si Si2 0.345412 0.940286 0.863323
Si Si3 0.295885 0.040891 0.455063
Si Si4 0.798317 0.602530 0.037272
Si Si5 0.522901 0.723894 0.791961
Si Si6 0.078096 0.736895 0.829769
O O1 0.141485 0.252174 0.217817
O O2 0.949409 0.551235 0.282370
O O3 0.131431 0.886245 0.567783
O O4 0.000000 0.000000 0.500000
O O5 0.312205 0.882119 0.168223
O O6 0.300136 0.280517 0.935874
O O7 0.446528 0.789101 0.695428
O O8 0.304780 0.837517 0.662100
O O9 0.378101 0.231396 0.391797
O O10 0.215527 0.270065 0.661759
O O11 0.862614 0.323602 0.013601
O O12 0.500000 0.500000 0.000000
O O13 0.500000 0.000000 0.000000
O O14 0.000000 0.000000 0.000000
#
# Coordination Sequence:
#
# PCOD9017372 Si02
#       6
#     2   2   2   2   2   2
#     4  12  30  52  82 119 159 216 288 355 437 519
#     4   9  20  44  73 112 158 211 269 332 414 491
#     4   9  20  44  73 112 158 211 269 332 414 491
#     4  10  26  47  82 112 168 212 274 357 418 516
#     4  10  21  42  76 114 158 210 272 331 403 495
#     4  12  30  52  82 119 159 216 288 355 437 519
#
# _framework density 30.066682
#
# number of rings (size 3 to 8) (size 9 to 14) (size 15 to 20)
#    1.000    0.667    0.000    2.500    7.000    1.333 
#    0.000   20.000    0.000    0.000    0.000    0.000 
#    0.000    0.000    0.000    0.000    0.000    0.333 
#
# Total GULP energy -66805.355149 kJ/mol
# GULP energy per Si atom -5567.112929 kJ/mol
# Density = 2.999825 g / cm^3
# Si number density = 30.066682 Si / 1000 Ang^3
#
#
#
# Elastic Constant Matrix: (Units=GPa)
#
#
# Indices 1 2 3 4 5 6 
#
# 1 88.6945 55.5021 7.8009 -7.9596 -10.3133 -12.0268
# 2 55.5021 210.1216 50.1978 -11.7267 -0.8814 -0.3650
# 3 7.8009 50.1978 211.5368 5.1407 -2.9776 -4.9327
# 4 -7.9596 -11.7267 5.1407 58.1050 -14.9767 12.6959
# 5 -10.3133 -0.8814 -2.9776 -14.9767 59.1184 -5.7639
# 6 -12.0268 -0.3650 -4.9327 12.6959 -5.7639 60.4653
#
#
#
# Elastic Compliance Matrix: (Units=1/GPa)
#
#
# Indices 1 2 3 4 5 6 
#
# 1 0.014525 -0.003853 0.000458 0.001339 0.003123 0.002920
# 2 -0.003853 0.006154 -0.001374 0.000940 -0.000518 -0.001088
# 3 0.000458 -0.001374 0.005073 -0.000762 0.000188 0.000675
# 4 0.001339 0.000940 -0.000762 0.019656 0.004852 -0.003455
# 5 0.003123 -0.000518 0.000188 0.004852 0.018828 0.001410
# 6 0.002920 -0.001088 0.000675 -0.003455 0.001410 0.018027
#
#
# Mechanical properties :
#
#
# Convention : Reuss Voigt Hill
#
# Bulk Modulus (GPa) = 61.67364 81.92826 71.80095
# Shear Modulus (GPa) = 51.43738 61.99455 56.71597
#
# Velocity S-wave (km/s) = 4.14064 4.54574 4.34791
# Velocity P-wave (km/s) = 6.58913 7.40673 7.00986
#
# Compressibility (1/GPa) = 0.01621438
#
# Stress axis : x y z
#
# Youngs Moduli (GPa) = 68.84779 162.50903 197.11134
#
# Poissons Ratio (x) = 0.62618 -0.09033
# Poissons Ratio (y) = 0.26529 0.27076
# Poissons Ratio (z) = -0.03155 0.22323
#
# Static dielectric constant tensor:
#      x y z
#    x 13.075700 -2.691930 -3.110610 
#    y -2.691930 3.080490 0.760040 
#    z -3.110610 0.760040 3.402480 
# 
# From -- ./inp_files/114412.got.cif
#   From: 2010.05.17/outbox.cif.g08.bks.cpg/sg2_58_cif.got.tgz:114412.got - 2010.06.03 11:33:40.
