data_PCOD9017382
_publ_section_title
;
Structure prediction by ZEFSAII (Michael W. Deem and Ramdas Pophale) SiO2 
 PCOD9017382
Probable space group: P -1
;
_chemical_formula_sum "Si O2"
_cell_formula_units_Z 12
_cell_length_a 17.943778
_cell_length_b 5.765026
_cell_length_c 5.650743
_cell_angle_alpha 104.470644
_cell_angle_beta 90.590903
_cell_angle_gamma 120.708958
_cell_volume 479.909949
_symmetry_space_group_name_H-M "P -1"
_symmetry_group_IT_number 2
_symmetry_cell_setting 'triclinic'
loop_
_space_group_symop_operation_xyz
x,y,z
-x,-y,-z
loop_
_atom_site_type_symbol
_atom_site_label
_atom_site_fract_x
_atom_site_fract_y
_atom_site_fract_z
Si Si1 0.388026 0.012163 0.644323
Si Si2 0.736677 0.884166 0.566553
Si Si3 0.691470 0.423222 0.108664
Si Si4 0.050216 0.334435 0.523072
Si Si5 0.147145 0.555229 0.089717
Si Si6 0.418049 0.560806 0.260026
O O1 0.375307 0.886371 0.873675
O O2 0.403024 0.803248 0.426995
O O3 0.292774 0.964865 0.582116
O O4 0.479125 0.310599 0.703576
O O5 0.744869 0.646879 0.375540
O O6 0.645860 0.716376 0.665386
O O7 0.819504 0.117298 0.771050
O O8 0.763428 0.443111 0.941536
O O9 0.627904 0.508804 0.012330
O O10 0.099662 0.382488 0.282615
O O11 0.000000 0.500000 0.500000
O O12 0.099854 0.469356 0.810742
O O13 0.000000 0.000000 0.500000
#
# Coordination Sequence:
#
# PCOD9017382 Si02
#       6
#     2   2   2   2   2   2
#     4  10  21  43  58 102 147 208 264 322 367 440
#     4  11  25  42  70 106 146 204 259 314 391 443
#     4  11  25  42  69 107 147 202 260 317 387 446
#     4  12  31  59  90 124 159 206 251 320 410 503
#     4  12  28  52  83 116 162 193 260 325 393 488
#     4  10  22  38  68  93 152 202 270 317 372 437
#
# _framework density 25.004693
#
# number of rings (size 3 to 8) (size 9 to 14) (size 15 to 20)
#    0.000    1.000    1.667    3.000    9.333    0.667 
#    0.000    0.000    0.000    0.000    0.000    0.000 
#    0.000    0.000    0.000    0.000    0.000    0.000 
#
# Total GULP energy -67028.054887 kJ/mol
# GULP energy per Si atom -5585.671241 kJ/mol
# Density = 2.494778 g / cm^3
# Si number density = 25.004693 Si / 1000 Ang^3
#
#
#
# Elastic Constant Matrix: (Units=GPa)
#
#
# Indices 1 2 3 4 5 6 
#
# 1 64.9798 31.4121 29.8518 -22.8589 -7.7477 9.6929
# 2 31.4121 120.9644 59.0561 -3.3914 -3.6757 26.2552
# 3 29.8518 59.0561 147.1369 -4.7347 4.9236 26.3802
# 4 -22.8589 -3.3914 -4.7347 46.4966 0.5768 -2.6664
# 5 -7.7477 -3.6757 4.9236 0.5768 55.6784 -3.9634
# 6 9.6929 26.2552 26.3802 -2.6664 -3.9634 29.8276
#
#
#
# Elastic Compliance Matrix: (Units=1/GPa)
#
#
# Indices 1 2 3 4 5 6 
#
# 1 0.022728 -0.004211 -0.002690 0.010558 0.003016 0.000045
# 2 -0.004211 0.012228 -0.002851 -0.001872 -0.000008 -0.007042
# 3 -0.002690 -0.002851 0.009469 -0.000848 -0.001769 -0.005302
# 4 0.010558 -0.001872 -0.000848 0.026545 0.001253 0.001507
# 5 0.003016 -0.000008 -0.001769 0.001253 0.018750 0.003195
# 6 0.000045 -0.007042 -0.005302 0.001507 0.003195 0.044958
#
#
# Mechanical properties :
#
#
# Convention : Reuss Voigt Hill
#
# Bulk Modulus (GPa) = 40.12707 63.74680 51.93694
# Shear Modulus (GPa) = 30.77131 40.58460 35.67796
#
# Velocity S-wave (km/s) = 3.51183 4.03312 3.78147
# Velocity P-wave (km/s) = 5.70321 6.87294 6.31521
#
# Compressibility (1/GPa) = 0.02492083
#
# Stress axis : x y z
#
# Youngs Moduli (GPa) = 43.99909 81.77995 105.60869
#
# Poissons Ratio (x) = 0.34434 0.28412
# Poissons Ratio (y) = 0.18526 0.30109
# Poissons Ratio (z) = 0.11837 0.23316
#
# Static dielectric constant tensor:
#      x y z
#    x 1.937620 -0.022740 0.005090 
#    y -0.022740 1.965350 -0.003050 
#    z 0.005090 -0.003050 2.073110 
# 
# From -- ./inp_files/3350.got.cif
#   From: 2010.05.17/outbox.cif.g08.bks.cpg/sg2_2_cif.got.tgz:3350.got - 2010.06.03 11:33:40.
