data_PCOD9017149
_publ_section_title
;
Structure prediction by ZEFSAII (Michael W. Deem and Ramdas Pophale) SiO2 
 PCOD9017149
Probable space group: P -1
;
_chemical_formula_sum "Si O2"
_cell_formula_units_Z 15
_cell_length_a 8.387498
_cell_length_b 11.223206
_cell_length_c 18.181114
_cell_angle_alpha 139.879856
_cell_angle_beta 136.302668
_cell_angle_gamma 41.919616
_cell_volume 688.050933
_symmetry_space_group_name_H-M "P -1"
_symmetry_group_IT_number 2
_symmetry_cell_setting 'triclinic'
loop_
_space_group_symop_operation_xyz
x,y,z
-x,-y,-z
loop_
_atom_site_type_symbol
_atom_site_label
_atom_site_fract_x
_atom_site_fract_y
_atom_site_fract_z
Si Si1 0.434245 0.235862 0.604192
Si Si2 0.300432 0.827892 0.475817
Si Si3 0.998871 0.464948 0.306133
Si Si4 0.500000 0.500000 0.500000
Si Si5 0.794956 0.812841 0.289521
Si Si6 0.344628 0.248843 0.941864
Si Si7 0.909907 0.063410 0.083137
Si Si8 0.156192 0.726039 0.130215
O O1 0.485575 0.305586 0.573677
O O2 0.153252 0.372456 0.604294
O O3 0.636098 0.250479 0.736193
O O4 0.500000 0.000000 0.500000
O O5 0.295266 0.695645 0.481009
O O6 0.029154 0.866683 0.367615
O O7 0.326282 0.024905 0.608470
O O8 0.892545 0.587175 0.251490
O O9 0.937386 0.271954 0.204660
O O10 0.298792 0.394033 0.380005
O O11 0.631507 0.828131 0.170502
O O12 0.101867 0.235298 0.892786
O O13 0.607621 0.121484 0.012036
O O14 0.279059 0.489962 0.033472
O O15 0.071926 0.886371 0.110839
O O16 0.000000 0.000000 0.000000
#
# Coordination Sequence:
#
# PCOD9017149 Si02
#       8
#     2   2   2   1   2   2   2   2
#     4  12  24  45  73 102 140 188 234 294 362 421
#     4  10  22  43  66 101 138 181 233 284 353 421
#     4  11  25  45  67 103 143 180 238 295 349 423
#     4  10  26  44  64 102 140 182 238 286 348 428
#     4  10  21  42  71  95 134 188 232 278 356 420
#     4  11  24  48  76  99 143 191 232 298 353 430
#     4  12  28  45  71 109 142 185 242 295 352 423
#     4  11  26  48  72 107 143 187 235 294 364 422
#
# _framework density 21.800713999999999
#
# number of rings (size 3 to 8) (size 9 to 14) (size 15 to 20)
#    0.000    1.067    4.000    1.200    5.600    1.600 
#    2.400    0.000    0.000    0.000    0.000    0.000 
#    0.000    0.000    0.000    0.000    0.000    0.000 
#
# Total GULP energy -83565.025410 kJ/mol
# GULP energy per Si atom -5571.001694 kJ/mol
# Density = 2.175109 g / cm^3
# Si number density = 21.800714 Si / 1000 Ang^3
#
#
#
# Elastic Constant Matrix: (Units=GPa)
#
#
# Indices 1 2 3 4 5 6 
#
# 1 45.4760 -1.7206 18.4698 4.7313 -5.0182 1.5430
# 2 -1.7206 68.5493 21.1641 1.2663 -6.6306 21.4573
# 3 18.4698 21.1641 111.9978 0.9120 3.4775 5.2382
# 4 4.7313 1.2663 0.9120 31.9742 -6.2008 8.3973
# 5 -5.0182 -6.6306 3.4775 -6.2008 34.9857 -0.9953
# 6 1.5430 21.4573 5.2382 8.3973 -0.9953 29.0853
#
#
#
# Elastic Compliance Matrix: (Units=1/GPa)
#
#
# Indices 1 2 3 4 5 6 
#
# 1 0.024783 0.003130 -0.004696 -0.002338 0.004145 -0.001961
# 2 0.003130 0.021407 -0.003995 0.004068 0.005162 -0.016237
# 3 -0.004696 -0.003995 0.010477 -0.000269 -0.002483 0.001303
# 4 -0.002338 0.004068 -0.000269 0.036154 0.006499 -0.013045
# 5 0.004145 0.005162 -0.002483 0.006499 0.031430 -0.004382
# 6 -0.001961 -0.016237 0.001303 -0.013045 -0.004382 0.049846
#
#
# Mechanical properties :
#
#
# Convention : Reuss Voigt Hill
#
# Bulk Modulus (GPa) = 21.95747 33.53883 27.74815
# Shear Modulus (GPa) = 24.95000 31.74968 28.34984
#
# Velocity S-wave (km/s) = 3.38665 3.82037 3.61003
# Velocity P-wave (km/s) = 5.03849 5.90576 5.48928
#
# Compressibility (1/GPa) = 0.04554259
#
# Stress axis : x y z
#
# Youngs Moduli (GPa) = 40.35087 46.71388 95.45090
#
# Poissons Ratio (x) = -0.14621 0.44827
# Poissons Ratio (y) = -0.12630 0.38136
# Poissons Ratio (z) = 0.18950 0.18664
#
# Static dielectric constant tensor:
#      x y z
#    x 1.906760 0.013260 0.014000 
#    y 0.013260 1.723030 0.033760 
#    z 0.014000 0.033760 1.774270 
# 
# From -- ./inp_files/559345.got.cif
#   From: 2010.05.17/outbox.cif.g08.bks.cpg/sg2_280_cif.got.tgz:559345.got - 2010.06.03 11:33:40.
