data_PCOD9017919
_publ_section_title
;
Structure prediction by ZEFSAII (Michael W. Deem and Ramdas Pophale) SiO2 
 PCOD9017919
Probable space group: P -1
;
_chemical_formula_sum "Si O2"
_cell_formula_units_Z 16
_cell_length_a 7.196806
_cell_length_b 12.168506
_cell_length_c 14.841275
_cell_angle_alpha 145.023511
_cell_angle_beta 56.753886
_cell_angle_gamma 107.562047
_cell_volume 592.886435
_symmetry_space_group_name_H-M "P -1"
_symmetry_group_IT_number 2
_symmetry_cell_setting 'triclinic'
loop_
_space_group_symop_operation_xyz
x,y,z
-x,-y,-z
loop_
_atom_site_type_symbol
_atom_site_label
_atom_site_fract_x
_atom_site_fract_y
_atom_site_fract_z
Si Si1 0.057272 0.920400 0.533207
Si Si2 0.401571 0.768365 0.063754
Si Si3 0.604522 0.704379 0.775604
Si Si4 0.405407 0.310687 0.740749
Si Si5 0.453378 0.718371 0.502151
Si Si6 0.115778 0.782342 0.864629
Si Si7 0.777095 0.831614 0.141344
Si Si8 0.167050 0.363069 0.503608
O O1 0.001221 0.717815 0.443930
O O2 0.338439 0.852070 0.421384
O O3 0.861603 0.084149 0.755630
O O4 0.000000 0.000000 0.500000
O O5 0.551036 0.809753 0.134500
O O6 0.535541 0.796527 0.954856
O O7 0.406669 0.537187 0.910321
O O8 0.646474 0.464878 0.613390
O O9 0.367459 0.773461 0.827410
O O10 0.793057 0.726637 0.668028
O O11 0.361693 0.292373 0.634460
O O12 0.226257 0.262005 0.823520
O O13 0.589299 0.697264 0.545296
O O14 0.260218 0.931261 0.688965
O O15 0.102089 0.605209 0.682089
O O16 0.993499 0.735570 0.955951
O O17 0.000000 0.000000 0.000000
#
# Coordination Sequence:
#
# PCOD9017919 Si02
#       8
#     2   2   2   2   2   2   2   2
#     4  12  25  43  72 101 135 180 222 271 340 399
#     4  11  25  45  68 100 138 176 224 277 330 399
#     4  10  24  46  66  94 137 174 223 277 331 397
#     4  11  25  44  67  98 141 173 221 279 331 400
#     4  10  21  43  67  93 131 175 216 277 331 388
#     4  11  24  40  69  99 128 176 229 275 335 398
#     4  12  22  42  67  97 134 175 218 275 340 394
#     4  11  22  46  68  94 135 179 221 277 335 396
#
# _framework density 26.986619999999998
#
# number of rings (size 3 to 8) (size 9 to 14) (size 15 to 20)
#    0.000    1.000    2.500    4.500    3.500    0.500 
#    0.000    5.000    0.000    0.000    0.000    0.000 
#    0.000    0.000    0.000    0.000    0.000    0.000 
#
# Total GULP energy -89734.763049 kJ/mol
# GULP energy per Si atom -5608.422691 kJ/mol
# Density = 2.692520 g / cm^3
# Si number density = 26.986620 Si / 1000 Ang^3
#
#
#
# Elastic Constant Matrix: (Units=GPa)
#
#
# Indices 1 2 3 4 5 6 
#
# 1 73.0117 28.0428 10.6786 -3.7322 -11.4308 -9.6336
# 2 28.0428 162.6953 58.7462 -22.1782 1.8194 -14.1636
# 3 10.6786 58.7462 121.0218 -14.8108 -0.0958 -21.9421
# 4 -3.7322 -22.1782 -14.8108 75.7273 -5.7361 1.8094
# 5 -11.4308 1.8194 -0.0958 -5.7361 33.9341 -3.8204
# 6 -9.6336 -14.1636 -21.9421 1.8094 -3.8204 40.8612
#
#
#
# Elastic Compliance Matrix: (Units=1/GPa)
#
#
# Indices 1 2 3 4 5 6 
#
# 1 0.016104 -0.002674 0.000623 0.000503 0.006077 0.003751
# 2 -0.002674 0.008091 -0.003488 0.001471 -0.001081 0.000135
# 3 0.000623 -0.003488 0.010920 0.001117 0.001164 0.004861
# 4 0.000503 0.001471 0.001117 0.014053 0.002565 0.000846
# 5 0.006077 -0.001081 0.001164 0.002565 0.032530 0.004611
# 6 0.003751 0.000135 0.004861 0.000846 0.004611 0.028408
#
#
# Mechanical properties :
#
#
# Convention : Reuss Voigt Hill
#
# Bulk Modulus (GPa) = 41.59981 61.29603 51.44792
# Shear Modulus (GPa) = 38.70070 47.38861 43.04465
#
# Velocity S-wave (km/s) = 3.79102 4.19502 3.99812
# Velocity P-wave (km/s) = 5.88310 6.79904 6.35759
#
# Compressibility (1/GPa) = 0.02403857
#
# Stress axis : x y z
#
# Youngs Moduli (GPa) = 62.09535 123.59294 91.57398
#
# Poissons Ratio (x) = 0.33045 -0.05708
# Poissons Ratio (y) = 0.16602 0.31941
# Poissons Ratio (z) = -0.03870 0.43110
#
# Static dielectric constant tensor:
#      x y z
#    x 2.116800 0.016030 0.012710 
#    y 0.016030 2.071270 -0.000380 
#    z 0.012710 -0.000380 2.120050 
# 
# From -- ./inp_files/307862.got.cif
#   From: 2010.05.17/outbox.cif.g08.bks.cpg/sg2_154_cif.got.tgz:307862.got - 2010.06.03 11:33:40.
