data_PCOD9017501
_publ_section_title
;
Structure prediction by ZEFSAII (Michael W. Deem and Ramdas Pophale) SiO2 
 PCOD9017501
Probable space group: P -1
;
_chemical_formula_sum "Si O2"
_cell_formula_units_Z 14
_cell_length_a 13.908603
_cell_length_b 9.100428
_cell_length_c 11.177930
_cell_angle_alpha 103.985739
_cell_angle_beta 122.848176
_cell_angle_gamma 121.964392
_cell_volume 676.055242
_symmetry_space_group_name_H-M "P -1"
_symmetry_group_IT_number 2
_symmetry_cell_setting 'triclinic'
loop_
_space_group_symop_operation_xyz
x,y,z
-x,-y,-z
loop_
_atom_site_type_symbol
_atom_site_label
_atom_site_fract_x
_atom_site_fract_y
_atom_site_fract_z
Si Si1 0.917736 0.752147 0.440382
Si Si2 0.483357 0.163482 0.036763
Si Si3 0.452938 0.832936 0.326970
Si Si4 0.219343 0.853966 0.579484
Si Si5 0.741736 0.112317 0.923318
Si Si6 0.454560 0.626278 0.485889
Si Si7 0.112583 0.408528 0.366369
O O1 0.972016 0.785904 0.623740
O O2 0.019340 0.731230 0.424304
O O3 0.685080 0.471712 0.225153
O O4 0.000000 0.000000 0.500000
O O5 0.344626 0.057694 0.812176
O O6 0.500000 0.000000 0.000000
O O7 0.380291 0.066478 0.076465
O O8 0.310214 0.770990 0.128270
O O9 0.386962 0.611613 0.307000
O O10 0.500000 0.000000 0.500000
O O11 0.648701 0.001856 0.420797
O O12 0.179502 0.632590 0.524976
O O13 0.656746 0.922495 0.720488
O O14 0.961365 0.308235 0.145964
O O15 0.500000 0.500000 0.500000
O O16 0.289610 0.513091 0.442059
#
# Coordination Sequence:
#
# PCOD9017501 Si02
#       7
#     2   2   2   2   2   2   2
#     4  12  27  41  64 106 144 175 223 286 347 405
#     4  12  20  42  71  99 135 178 220 282 345 397
#     4  10  21  43  63  98 127 175 227 279 325 396
#     4  12  23  41  73  99 133 177 233 278 340 407
#     4  11  22  41  70  97 131 171 236 285 333 399
#     4  11  25  46  67  90 142 183 222 279 346 408
#     4  12  23  44  70 102 133 180 233 282 337 408
#
# _framework density 20.708366000000002
#
# number of rings (size 3 to 8) (size 9 to 14) (size 15 to 20)
#    0.000    0.571    8.571    1.286    2.000    1.714 
#    2.571    0.000    0.000    0.000    0.000    0.000 
#    0.000    0.000    0.000    0.000    0.000    0.000 
#
# Total GULP energy -78127.793624 kJ/mol
# GULP energy per Si atom -5580.556687 kJ/mol
# Density = 2.066123 g / cm^3
# Si number density = 20.708366 Si / 1000 Ang^3
#
#
#
# Elastic Constant Matrix: (Units=GPa)
#
#
# Indices 1 2 3 4 5 6 
#
# 1 75.3803 46.4816 26.5820 -13.3442 18.4780 -6.0356
# 2 46.4816 143.0934 27.5559 -14.6725 3.5320 -9.5936
# 3 26.5820 27.5559 113.6872 -11.8395 11.1864 -3.1375
# 4 -13.3442 -14.6725 -11.8395 23.3883 1.1626 -8.9774
# 5 18.4780 3.5320 11.1864 1.1626 24.0915 -5.1774
# 6 -6.0356 -9.5936 -3.1375 -8.9774 -5.1774 30.2918
#
#
#
# Elastic Compliance Matrix: (Units=1/GPa)
#
#
# Indices 1 2 3 4 5 6 
#
# 1 0.023447 -0.005587 -0.001240 0.011339 -0.016421 0.003328
# 2 -0.005587 0.009468 -0.000920 0.003425 0.003905 0.003473
# 3 -0.001240 -0.000920 0.010166 0.004516 -0.003586 0.001240
# 4 0.011339 0.003425 0.004516 0.062022 -0.009883 0.020504
# 5 -0.016421 0.003905 -0.003586 -0.009883 0.056605 0.004339
# 6 0.003328 0.003473 0.001240 0.020504 0.004339 0.041722
#
#
# Mechanical properties :
#
#
# Convention : Reuss Voigt Hill
#
# Bulk Modulus (GPa) = 36.24732 59.26667 47.75700
# Shear Modulus (GPa) = 21.91823 30.99041 26.45432
#
# Velocity S-wave (km/s) = 3.25687 3.87268 3.57805
# Velocity P-wave (km/s) = 5.62891 6.97701 6.33890
#
# Compressibility (1/GPa) = 0.02758824
#
# Stress axis : x y z
#
# Youngs Moduli (GPa) = 42.64918 105.61858 98.36324
#
# Poissons Ratio (x) = 0.59004 0.12195
# Poissons Ratio (y) = 0.23826 0.09053
# Poissons Ratio (z) = 0.05287 0.09721
#
# Static dielectric constant tensor:
#      x y z
#    x 1.769770 0.000150 0.019680 
#    y 0.000150 1.802460 -0.034530 
#    z 0.019680 -0.034530 1.806810 
# 
# From -- ./inp_files/258770.got.cif
#   From: 2010.05.17/outbox.cif.g08.bks.cpg/sg2_130_cif.got.tgz:258770.got - 2010.06.03 11:33:40.
