data_PCOD9017030
_publ_section_title
;
Structure prediction by ZEFSAII (Michael W. Deem and Ramdas Pophale) SiO2 
 PCOD9017030
Probable space group: P -1
;
_chemical_formula_sum "Si O2"
_cell_formula_units_Z 15
_cell_length_a 7.787858
_cell_length_b 8.217046
_cell_length_c 15.098050
_cell_angle_alpha 84.530069
_cell_angle_beta 49.911639
_cell_angle_gamma 63.898027
_cell_volume 638.449145
_symmetry_space_group_name_H-M "P -1"
_symmetry_group_IT_number 2
_symmetry_cell_setting 'triclinic'
loop_
_space_group_symop_operation_xyz
x,y,z
-x,-y,-z
loop_
_atom_site_type_symbol
_atom_site_label
_atom_site_fract_x
_atom_site_fract_y
_atom_site_fract_z
Si Si1 0.347339 0.275516 0.072199
Si Si2 0.362147 0.844924 0.728744
Si Si3 0.832516 0.932300 0.983521
Si Si4 0.976270 0.628497 0.087014
Si Si5 0.827963 0.803057 0.688416
Si Si6 0.322281 0.447679 0.502341
Si Si7 0.000000 0.000000 0.500000
Si Si8 0.606283 0.815289 0.356797
O O1 0.229016 0.489949 0.068457
O O2 0.166247 0.260426 0.209853
O O3 0.636102 0.153085 0.020340
O O4 0.324826 0.162564 0.001797
O O5 0.525616 0.654348 0.629957
O O6 0.553652 0.843204 0.740854
O O7 0.097744 0.864815 0.847882
O O8 0.318245 0.021962 0.675862
O O9 0.922455 0.827718 0.053896
O O10 0.742038 0.686362 0.231390
O O11 0.000000 0.500000 0.000000
O O12 0.051227 0.633476 0.565656
O O13 0.884353 0.968777 0.636047
O O14 0.500000 0.500000 0.500000
O O15 0.284193 0.305640 0.584763
O O16 0.296723 0.907923 0.447675
#
# Coordination Sequence:
#
# PCOD9017030 Si02
#       8
#     2   2   2   2   2   2   1   2
#     4  10  21  42  70  97 128 182 232 273 331 412
#     4  11  26  42  64 101 139 172 216 287 347 392
#     4  10  22  42  66  98 136 176 225 280 339 396
#     4  10  22  41  69 100 131 173 231 280 326 398
#     4  11  22  41  65  95 138 173 226 274 344 398
#     4  12  23  43  71  94 132 178 229 272 333 413
#     4  10  22  36  66 100 126 184 218 270 334 406
#     4  11  23  43  66  97 138 174 222 279 339 400
#
# _framework density 23.494433000000001
#
# number of rings (size 3 to 8) (size 9 to 14) (size 15 to 20)
#    0.000    1.333    2.667    3.200    1.867    2.133 
#    2.400    1.333    0.000    0.000    0.000    0.000 
#    0.000    0.000    0.000    0.000    0.000    0.000 
#
# Total GULP energy -83505.549749 kJ/mol
# GULP energy per Si atom -5567.036650 kJ/mol
# Density = 2.344096 g / cm^3
# Si number density = 23.494433 Si / 1000 Ang^3
#
#
#
# Elastic Constant Matrix: (Units=GPa)
#
#
# Indices 1 2 3 4 5 6 
#
# 1 84.8915 21.9762 25.2180 1.7037 -23.4860 -14.7470
# 2 21.9762 86.7730 4.9115 -3.4002 -8.7841 -35.0041
# 3 25.2180 4.9115 93.5186 10.8527 -18.8942 -14.2926
# 4 1.7037 -3.4002 10.8527 41.6873 -6.7863 3.0487
# 5 -23.4860 -8.7841 -18.8942 -6.7863 37.2386 10.5023
# 6 -14.7470 -35.0041 -14.2926 3.0487 10.5023 26.1298
#
#
#
# Elastic Compliance Matrix: (Units=1/GPa)
#
#
# Indices 1 2 3 4 5 6 
#
# 1 0.015477 -0.002826 -0.002503 0.001063 0.007944 0.000262
# 2 -0.002826 0.027610 0.004818 -0.002580 -0.004630 0.040189
# 3 -0.002503 0.004818 0.013886 -0.003583 0.002558 0.012027
# 4 0.001063 -0.002580 -0.003583 0.026389 0.005954 -0.010288
# 5 0.007944 -0.004630 0.002558 0.005954 0.037717 -0.016173
# 6 0.000262 0.040189 0.012027 -0.010288 -0.016173 0.106536
#
#
# Mechanical properties :
#
#
# Convention : Reuss Voigt Hill
#
# Bulk Modulus (GPa) = 17.87312 41.04383 29.45847
# Shear Modulus (GPa) = 20.21939 35.21629 27.71784
#
# Velocity S-wave (km/s) = 2.93679 3.87579 3.43849
# Velocity P-wave (km/s) = 4.37305 6.12671 5.32260
#
# Compressibility (1/GPa) = 0.05594995
#
# Stress axis : x y z
#
# Youngs Moduli (GPa) = 64.61147 36.21890 72.01608
#
# Poissons Ratio (x) = 0.10237 0.18028
# Poissons Ratio (y) = 0.18262 -0.34699
# Poissons Ratio (z) = 0.16174 -0.17451
#
# Static dielectric constant tensor:
#      x y z
#    x 1.875840 -0.014120 0.040340 
#    y -0.014120 1.962150 0.021100 
#    z 0.040340 0.021100 1.901880 
# 
# From -- ./inp_files/171761.got.cif
#   From: 2010.05.17/outbox.cif.g08.bks.cpg/sg2_86_cif.got.tgz:171761.got - 2010.06.03 11:33:40.
