data_PCOD9017212
_publ_section_title
;
Structure prediction by ZEFSAII (Michael W. Deem and Ramdas Pophale) SiO2 
 PCOD9017212
Probable space group: P -1
;
_chemical_formula_sum "Si O2"
_cell_formula_units_Z 16
_cell_length_a 8.797652
_cell_length_b 11.641814
_cell_length_c 14.531931
_cell_angle_alpha 60.245550
_cell_angle_beta 109.320629
_cell_angle_gamma 58.104525
_cell_volume 651.400936
_symmetry_space_group_name_H-M "P -1"
_symmetry_group_IT_number 2
_symmetry_cell_setting 'triclinic'
loop_
_space_group_symop_operation_xyz
x,y,z
-x,-y,-z
loop_
_atom_site_type_symbol
_atom_site_label
_atom_site_fract_x
_atom_site_fract_y
_atom_site_fract_z
Si Si1 0.175444 0.979533 0.752734
Si Si2 0.274802 0.401007 0.130156
Si Si3 0.112300 0.530854 0.243593
Si Si4 0.807235 0.759702 0.386327
Si Si5 0.212728 0.489143 0.736355
Si Si6 0.291701 0.968614 0.123688
Si Si7 0.573544 0.418997 0.941454
Si Si8 0.399842 0.716346 0.421929
O O1 0.094719 0.184898 0.676662
O O2 0.867378 0.113902 0.623038
O O3 0.428933 0.813945 0.789913
O O4 0.303657 0.815328 0.931943
O O5 0.302419 0.354267 0.262236
O O6 0.226231 0.595621 0.040970
O O7 0.000000 0.500000 0.000000
O O8 0.329450 0.396196 0.428244
O O9 0.865306 0.586489 0.188406
O O10 0.957342 0.780339 0.086983
O O11 0.466361 0.965999 0.212036
O O12 0.000000 0.500000 0.500000
O O13 0.907211 0.720841 0.524406
O O14 0.479034 0.262932 0.809181
O O15 0.288822 0.580013 0.758552
O O16 0.271644 0.877279 0.240377
O O17 0.500000 0.500000 0.000000
O O18 0.500000 0.500000 0.500000
#
# Coordination Sequence:
#
# PCOD9017212 Si02
#       8
#     2   2   2   2   2   2   2   2
#     4  11  25  46  75 103 155 196 246 316 380 427
#     4  11  25  49  78 108 146 196 260 315 372 460
#     4  12  26  45  75 108 151 203 255 306 381 450
#     4  10  21  42  72 106 149 192 245 309 367 448
#     4  11  23  43  75 109 148 199 251 312 381 445
#     4  11  24  45  74 107 154 199 248 310 388 445
#     4  10  23  45  74 107 145 193 257 312 372 454
#     4  12  28  45  69 114 156 194 257 313 370 461
#
# _framework density 24.562445
#
# number of rings (size 3 to 8) (size 9 to 14) (size 15 to 20)
#    0.000    1.000    1.250    5.625    7.000    1.000 
#    2.250    0.625    0.000    0.000    0.000    0.000 
#    0.000    0.000    0.000    0.000    0.000    0.000 
#
# Total GULP energy -89229.979596 kJ/mol
# GULP energy per Si atom -5576.873725 kJ/mol
# Density = 2.450654 g / cm^3
# Si number density = 24.562445 Si / 1000 Ang^3
#
#
#
# Elastic Constant Matrix: (Units=GPa)
#
#
# Indices 1 2 3 4 5 6 
#
# 1 200.0092 64.3508 38.2862 -0.8706 -2.6448 -3.5732
# 2 64.3508 102.8719 33.0071 18.2605 14.7330 -15.3395
# 3 38.2862 33.0071 69.6489 -1.1362 -4.9918 3.2767
# 4 -0.8706 18.2605 -1.1362 32.6558 11.7288 3.6687
# 5 -2.6448 14.7330 -4.9918 11.7288 46.9670 -4.0395
# 6 -3.5732 -15.3395 3.2767 3.6687 -4.0395 54.1865
#
#
#
# Elastic Compliance Matrix: (Units=1/GPa)
#
#
# Indices 1 2 3 4 5 6 
#
# 1 0.006701 -0.004394 -0.001457 0.002334 0.000949 -0.000801
# 2 -0.004394 0.017610 -0.006603 -0.009505 -0.003629 0.005468
# 3 -0.001457 -0.006603 0.018695 0.003652 0.002794 -0.003135
# 4 0.002334 -0.009505 0.003652 0.039237 -0.006807 -0.005922
# 5 0.000949 -0.003629 0.002794 -0.006807 0.024580 0.001159
# 6 -0.000801 0.005468 -0.003135 -0.005922 0.001159 0.020627
#
#
# Mechanical properties :
#
#
# Convention : Reuss Voigt Hill
#
# Bulk Modulus (GPa) = 55.25341 71.53534 63.39438
# Shear Modulus (GPa) = 31.56769 42.55426 37.06097
#
# Velocity S-wave (km/s) = 3.58886 4.16684 3.88860
# Velocity P-wave (km/s) = 6.30215 7.23444 6.78433
#
# Compressibility (1/GPa) = 0.01809843
#
# Stress axis : x y z
#
# Youngs Moduli (GPa) = 149.23700 56.78590 53.48921
#
# Poissons Ratio (x) = 0.24949 0.07796
# Poissons Ratio (y) = 0.65569 0.35318
# Poissons Ratio (z) = 0.21751 0.37494
#
# Static dielectric constant tensor:
#      x y z
#    x 2.054690 0.048280 0.063020 
#    y 0.048280 2.091550 -0.069650 
#    z 0.063020 -0.069650 2.095700 
# 
# From -- ./inp_files/500192.got.cif
#   From: 2010.05.17/outbox.cif.g08.bks.cpg/sg2_251_cif.got.tgz:500192.got - 2010.06.03 11:33:40.
