data_PCOD9017959
_publ_section_title
;
Structure prediction by ZEFSAII (Michael W. Deem and Ramdas Pophale) SiO2 
 PCOD9017959
Probable space group: P -1
;
_chemical_formula_sum "Si O2"
_cell_formula_units_Z 16
_cell_length_a 11.791570
_cell_length_b 9.323233
_cell_length_c 17.555632
_cell_angle_alpha 133.178736
_cell_angle_beta 131.773348
_cell_angle_gamma 32.342405
_cell_volume 733.488912
_symmetry_space_group_name_H-M "P -1"
_symmetry_group_IT_number 2
_symmetry_cell_setting 'triclinic'
loop_
_space_group_symop_operation_xyz
x,y,z
-x,-y,-z
loop_
_atom_site_type_symbol
_atom_site_label
_atom_site_fract_x
_atom_site_fract_y
_atom_site_fract_z
Si Si1 0.653801 0.879187 0.952209
Si Si2 0.049483 0.769334 0.155894
Si Si3 0.002370 0.773807 0.772479
Si Si4 0.570383 0.653527 0.107558
Si Si5 0.573116 0.986020 0.682672
Si Si6 0.207386 0.444664 0.589302
Si Si7 0.673334 0.171534 0.441188
Si Si8 0.917483 0.077021 0.370227
O O1 0.757164 0.568133 0.869270
O O2 0.516986 0.109688 0.907478
O O3 0.853684 0.837288 0.049923
O O4 0.500000 0.000000 0.000000
O O5 0.099714 0.916717 0.180050
O O6 0.971784 0.911193 0.256710
O O7 0.169685 0.598606 0.853442
O O8 0.141973 0.604819 0.698232
O O9 0.825130 0.765975 0.696566
O O10 0.460003 0.814671 0.196649
O O11 0.500000 0.500000 0.000000
O O12 0.436083 0.137485 0.599416
O O13 0.463873 0.898682 0.639299
O O14 0.231202 0.596683 0.595510
O O15 0.000000 0.500000 0.500000
O O16 0.500000 0.500000 0.500000
O O17 0.796355 0.066929 0.377370
O O18 0.862416 0.031773 0.536970
#
# Coordination Sequence:
#
# PCOD9017959 Si02
#       8
#     2   2   2   2   2   2   2   2
#     4  11  26  44  73 101 141 177 235 288 350 413
#     4  10  24  46  69 108 133 186 230 285 353 413
#     4  10  24  43  72  98 138 175 231 284 338 418
#     4  11  25  47  69  99 134 182 228 286 349 411
#     4  11  26  43  69 101 133 179 231 283 348 411
#     4  10  21  43  67  96 129 176 226 273 334 399
#     4  11  26  43  67 104 139 185 230 283 349 408
#     4  10  24  45  70  95 143 179 229 288 333 423
#
# _framework density 21.813552999999999
#
# number of rings (size 3 to 8) (size 9 to 14) (size 15 to 20)
#    0.000    1.500    2.500    0.000    7.000    6.000 
#    0.000    0.000    0.000    0.000    0.000    0.000 
#    0.000    0.000    0.000    0.000    0.000    0.000 
#
# Total GULP energy -89367.522365 kJ/mol
# GULP energy per Si atom -5585.470148 kJ/mol
# Density = 2.176390 g / cm^3
# Si number density = 21.813553 Si / 1000 Ang^3
#
#
#
# Elastic Constant Matrix: (Units=GPa)
#
#
# Indices 1 2 3 4 5 6 
#
# 1 86.3862 46.3839 32.3784 -12.0551 9.7336 4.4138
# 2 46.3839 119.4747 47.7745 -22.6933 2.0034 22.0939
# 3 32.3784 47.7745 93.4944 -2.5338 -1.1177 13.1974
# 4 -12.0551 -22.6933 -2.5338 37.8734 -5.6627 -0.5254
# 5 9.7336 2.0034 -1.1177 -5.6627 33.5123 -5.1808
# 6 4.4138 22.0939 13.1974 -0.5254 -5.1808 30.0462
#
#
#
# Elastic Compliance Matrix: (Units=1/GPa)
#
#
# Indices 1 2 3 4 5 6 
#
# 1 0.015999 -0.004951 -0.003317 0.001349 -0.003910 0.002097
# 2 -0.004951 0.014945 -0.004589 0.007009 0.000329 -0.008067
# 3 -0.003317 -0.004589 0.014463 -0.002738 0.000889 -0.002385
# 4 0.001349 0.007009 -0.002738 0.031400 0.003953 -0.002919
# 5 -0.003910 0.000329 0.000889 0.003953 0.032522 0.005619
# 6 0.002097 -0.008067 -0.002385 -0.002919 0.005619 0.040872
#
#
# Mechanical properties :
#
#
# Convention : Reuss Voigt Hill
#
# Bulk Modulus (GPa) = 50.78228 61.38098 56.08163
# Shear Modulus (GPa) = 27.40038 31.80761 29.60400
#
# Velocity S-wave (km/s) = 3.54802 3.82273 3.68793
# Velocity P-wave (km/s) = 6.33366 6.90538 6.62569
#
# Compressibility (1/GPa) = 0.01969191
#
# Stress axis : x y z
#
# Youngs Moduli (GPa) = 62.50345 66.91227 69.14293
#
# Poissons Ratio (x) = 0.33129 0.22934
# Poissons Ratio (y) = 0.30946 0.31733
# Poissons Ratio (z) = 0.20732 0.30709
#
# Static dielectric constant tensor:
#      x y z
#    x 1.754930 0.040140 -0.008370 
#    y 0.040140 1.861330 0.006870 
#    z -0.008370 0.006870 1.786220 
# 
# From -- ./inp_files/81272.got.cif
#   From: 2010.05.17/outbox.cif.g08.bks.cpg/sg2_41_cif.got.tgz:81272.got - 2010.06.03 11:33:40.
