data_PCOD9017854
_publ_section_title
;
Structure prediction by ZEFSAII (Michael W. Deem and Ramdas Pophale) SiO2 
 PCOD9017854
Probable space group: P -1
;
_chemical_formula_sum "Si O2"
_cell_formula_units_Z 14
_cell_length_a 9.368144
_cell_length_b 8.894972
_cell_length_c 9.660878
_cell_angle_alpha 94.828594
_cell_angle_beta 50.812894
_cell_angle_gamma 98.155870
_cell_volume 617.645249
_symmetry_space_group_name_H-M "P -1"
_symmetry_group_IT_number 2
_symmetry_cell_setting 'triclinic'
loop_
_space_group_symop_operation_xyz
x,y,z
-x,-y,-z
loop_
_atom_site_type_symbol
_atom_site_label
_atom_site_fract_x
_atom_site_fract_y
_atom_site_fract_z
Si Si1 0.081200 0.930008 0.310438
Si Si2 0.070360 0.144798 0.876604
Si Si3 0.636101 0.788544 0.842045
Si Si4 0.930842 0.628858 0.461129
Si Si5 0.608523 0.647364 0.151527
Si Si6 0.711591 0.309826 0.126761
Si Si7 0.662325 0.413270 0.454847
O O1 0.923585 0.917348 0.287702
O O2 0.095585 0.756423 0.328244
O O3 0.260682 0.044637 0.172237
O O4 0.000000 0.000000 0.500000
O O5 0.250237 0.232708 0.841779
O O6 0.909302 0.255145 0.974568
O O7 0.000000 0.000000 0.000000
O O8 0.776360 0.705284 0.651023
O O9 0.451119 0.789515 0.864707
O O10 0.601659 0.696130 0.999557
O O11 0.834861 0.539932 0.382374
O O12 0.000000 0.500000 0.500000
O O13 0.683616 0.482219 0.110859
O O14 0.414095 0.643353 0.353151
O O15 0.693266 0.298389 0.304588
O O16 0.500000 0.500000 0.500000
#
# Coordination Sequence:
#
# PCOD9017854 Si02
#       7
#     2   2   2   2   2   2   2
#     4  10  24  44  68  92 141 179 220 279 336 402
#     4  12  26  46  66 101 138 179 228 281 340 402
#     4  11  23  44  65 100 138 178 223 278 344 403
#     4  11  24  40  72 102 134 175 233 276 339 399
#     4  11  23  43  72  99 137 173 232 281 335 406
#     4  11  25  42  71  99 138 179 228 279 338 400
#     4  10  21  43  67 100 133 174 224 282 334 396
#
# _framework density 22.666734000000002
#
# number of rings (size 3 to 8) (size 9 to 14) (size 15 to 20)
#    0.000    1.143    4.286    2.571    6.000    0.571 
#    2.571    0.714    0.000    0.000    0.000    0.000 
#    0.000    0.000    0.000    0.000    0.000    0.000 
#
# Total GULP energy -78247.646146 kJ/mol
# GULP energy per Si atom -5589.117582 kJ/mol
# Density = 2.261514 g / cm^3
# Si number density = 22.666734 Si / 1000 Ang^3
#
#
#
# Elastic Constant Matrix: (Units=GPa)
#
#
# Indices 1 2 3 4 5 6 
#
# 1 91.4948 41.8055 22.5669 7.2013 16.3465 24.6078
# 2 41.8055 111.2446 18.7744 -25.0140 3.9200 17.0018
# 3 22.5669 18.7744 117.9390 -1.0459 19.8143 -6.7741
# 4 7.2013 -25.0140 -1.0459 36.4228 3.3482 6.5817
# 5 16.3465 3.9200 19.8143 3.3482 35.9529 -2.4664
# 6 24.6078 17.0018 -6.7741 6.5817 -2.4664 34.7099
#
#
#
# Elastic Compliance Matrix: (Units=1/GPa)
#
#
# Indices 1 2 3 4 5 6 
#
# 1 0.018566 -0.006085 -0.002063 -0.005469 -0.006820 -0.010032
# 2 -0.006085 0.015264 -0.001552 0.012662 0.000378 -0.005840
# 3 -0.002063 -0.001552 0.010031 -0.000723 -0.004077 0.004028
# 4 -0.005469 0.012662 -0.000723 0.039303 -0.002850 -0.010121
# 5 -0.006820 0.000378 -0.004077 -0.002850 0.033853 0.006800
# 6 -0.010032 -0.005840 0.004028 -0.010121 0.006800 0.041971
#
#
# Mechanical properties :
#
#
# Convention : Reuss Voigt Hill
#
# Bulk Modulus (GPa) = 40.88218 54.10801 47.49509
# Shear Modulus (GPa) = 26.80383 37.25257 32.02820
#
# Velocity S-wave (km/s) = 3.44251 4.05840 3.76307
# Velocity P-wave (km/s) = 5.82035 6.77375 6.31507
#
# Compressibility (1/GPa) = 0.02446054
#
# Stress axis : x y z
#
# Youngs Moduli (GPa) = 53.86274 65.51248 99.69424
#
# Poissons Ratio (x) = 0.39866 0.20564
# Poissons Ratio (y) = 0.32777 0.15474
# Poissons Ratio (z) = 0.11110 0.10169
#
# Static dielectric constant tensor:
#      x y z
#    x 2.385240 0.123710 0.226420 
#    y 0.123710 1.897510 0.032570 
#    z 0.226420 0.032570 1.989350 
# 
# From -- ./inp_files/156688.got.cif
#   From: 2010.05.17/outbox.cif.g08.bks.cpg/sg2_79_cif.got.tgz:156688.got - 2010.06.03 11:33:40.
