data_PCOD9017337
_publ_section_title
;
Structure prediction by ZEFSAII (Michael W. Deem and Ramdas Pophale) SiO2 
 PCOD9017337
Probable space group: P -1
;
_chemical_formula_sum "Si O2"
_cell_formula_units_Z 14
_cell_length_a 16.527878
_cell_length_b 8.959069
_cell_length_c 11.653263
_cell_angle_alpha 54.885739
_cell_angle_beta 135.418735
_cell_angle_gamma 87.745286
_cell_volume 617.453727
_symmetry_space_group_name_H-M "P -1"
_symmetry_group_IT_number 2
_symmetry_cell_setting 'triclinic'
loop_
_space_group_symop_operation_xyz
x,y,z
-x,-y,-z
loop_
_atom_site_type_symbol
_atom_site_label
_atom_site_fract_x
_atom_site_fract_y
_atom_site_fract_z
Si Si1 0.893867 0.252129 0.389938
Si Si2 0.110885 0.192698 0.802941
Si Si3 0.698426 0.824411 0.818957
Si Si4 0.361867 0.494610 0.760709
Si Si5 0.208841 0.021340 0.596107
Si Si6 0.112075 0.152151 0.185650
Si Si7 0.175375 0.459233 0.445082
O O1 0.733864 0.452388 0.241374
O O2 0.876277 0.065320 0.411558
O O3 0.081687 0.074607 0.728322
O O4 0.822629 0.496800 0.124582
O O5 0.000000 0.500000 0.500000
O O6 0.987905 0.282437 0.746833
O O7 0.290242 0.055621 0.109272
O O8 0.791762 0.815205 0.811273
O O9 0.500000 0.000000 0.500000
O O10 0.348052 0.352477 0.715078
O O11 0.238028 0.815948 0.450251
O O12 0.575857 0.277891 0.083004
O O13 0.114455 0.189487 0.305902
O O14 0.196736 0.214993 0.576444
O O15 0.904550 0.382177 0.828017
#
# Coordination Sequence:
#
# PCOD9017337 Si02
#       7
#     2   2   2   2   2   2   2
#     4   9  18  33  52  73 102 137 172 205 248 308
#     4   8  17  33  50  71  98 134 170 202 246 304
#     4  10  17  30  52  77  97 126 172 216 245 289
#     4  10  19  34  54  76 102 138 176 209 248 305
#     4  11  20  33  52  80 107 134 168 214 259 299
#     4  10  20  34  52  76 104 138 172 206 254 309
#     4  10  20  33  53  79 105 133 170 216 258 298
#
# _framework density 22.673763000000001
#
# number of rings (size 3 to 8) (size 9 to 14) (size 15 to 20)
#    0.000    2.286    0.000    4.714    0.000    1.143 
#    0.000    6.429    0.000    3.429    0.000   33.000 
#    0.000    0.000    0.000    0.000    0.000    0.000 
#
# Total GULP energy -78133.710625 kJ/mol
# GULP energy per Si atom -5580.979330 kJ/mol
# Density = 2.262216 g / cm^3
# Si number density = 22.673763 Si / 1000 Ang^3
#
#
#
# Elastic Constant Matrix: (Units=GPa)
#
#
# Indices 1 2 3 4 5 6 
#
# 1 74.2982 15.3246 23.2923 -3.0939 -24.6457 28.3578
# 2 15.3246 155.0590 34.3680 17.3593 -7.4572 9.5516
# 3 23.2923 34.3680 63.3831 18.6413 -0.6916 11.7162
# 4 -3.0939 17.3593 18.6413 49.6472 9.7380 1.7158
# 5 -24.6457 -7.4572 -0.6916 9.7380 36.9143 -3.8401
# 6 28.3578 9.5516 11.7162 1.7158 -3.8401 29.4767
#
#
#
# Elastic Compliance Matrix: (Units=1/GPa)
#
#
# Indices 1 2 3 4 5 6 
#
# 1 0.031223 0.000790 -0.007643 0.001924 0.017748 -0.025056
# 2 0.000790 0.007551 -0.003627 -0.001627 0.002271 -0.001374
# 3 -0.007643 -0.003627 0.022670 -0.006990 -0.003624 -0.000548
# 4 0.001924 -0.001627 -0.006990 0.024607 -0.005742 -0.000726
# 5 0.017748 0.002271 -0.003624 -0.005742 0.039715 -0.010862
# 6 -0.025056 -0.001374 -0.000548 -0.000726 -0.010862 0.057320
#
#
# Mechanical properties :
#
#
# Convention : Reuss Voigt Hill
#
# Bulk Modulus (GPa) = 24.70145 48.74559 36.72352
# Shear Modulus (GPa) = 22.98410 37.85801 30.42106
#
# Velocity S-wave (km/s) = 3.18730 4.09061 3.66688
# Velocity P-wave (km/s) = 4.94602 6.62240 5.84462
#
# Compressibility (1/GPa) = 0.04048345
#
# Stress axis : x y z
#
# Youngs Moduli (GPa) = 32.02761 132.43098 44.11079
#
# Poissons Ratio (x) = -0.10460 0.33714
# Poissons Ratio (y) = -0.02530 0.16000
# Poissons Ratio (z) = 0.24479 0.48037
#
# Static dielectric constant tensor:
#      x y z
#    x 1.883670 -0.032620 0.023340 
#    y -0.032620 1.972090 0.056700 
#    z 0.023340 0.056700 1.810560 
# 
# From -- ./inp_files/167456.got.cif
#   From: 2010.05.17/outbox.cif.g08.bks.cpg/sg2_84_cif.got.tgz:167456.got - 2010.06.03 11:33:40.
