data_PCOD9017479
_publ_section_title
;
Structure prediction by ZEFSAII (Michael W. Deem and Ramdas Pophale) SiO2 
 PCOD9017479
Probable space group: P -1
;
_chemical_formula_sum "Si O2"
_cell_formula_units_Z 16
_cell_length_a 15.766269
_cell_length_b 8.514552
_cell_length_c 5.466630
_cell_angle_alpha 99.143567
_cell_angle_beta 74.749855
_cell_angle_gamma 108.696681
_cell_volume 668.413401
_symmetry_space_group_name_H-M "P -1"
_symmetry_group_IT_number 2
_symmetry_cell_setting 'triclinic'
loop_
_space_group_symop_operation_xyz
x,y,z
-x,-y,-z
loop_
_atom_site_type_symbol
_atom_site_label
_atom_site_fract_x
_atom_site_fract_y
_atom_site_fract_z
Si Si1 0.895668 0.950642 0.156047
Si Si2 0.649177 0.545180 0.537467
Si Si3 0.503859 0.184077 0.107546
Si Si4 0.710886 0.347236 0.092986
Si Si5 0.877869 0.275091 0.092039
Si Si6 0.938972 0.656202 0.334231
Si Si7 0.807674 0.678990 0.813600
Si Si8 0.546537 0.690856 0.306734
O O1 0.893285 0.797628 0.302390
O O2 0.877698 0.128911 0.250134
O O3 0.828965 0.855154 0.970026
O O4 0.000000 0.000000 0.000000
O O5 0.726378 0.658102 0.674917
O O6 0.632078 0.634329 0.322811
O O7 0.544868 0.467794 0.688433
O O8 0.685959 0.391463 0.396798
O O9 0.611908 0.284530 0.026579
O O10 0.444412 0.230125 0.946297
O O11 0.473585 0.207367 0.415302
O O12 0.500000 0.000000 0.000000
O O13 0.770455 0.517146 0.968777
O O14 0.777602 0.233365 0.034164
O O15 0.899730 0.462202 0.234432
O O16 0.957307 0.286874 0.831389
O O17 0.906238 0.661487 0.638468
#
# Coordination Sequence:
#
# PCOD9017479 Si02
#       8
#     2   2   2   2   2   2   2   2
#     4  10  23  42  64  94 135 175 231 292 343 420
#     4  10  22  39  67  94 129 174 237 287 347 430
#     4  11  24  44  68 100 147 183 234 296 363 430
#     4  11  23  42  66  94 137 178 230 294 350 426
#     4  10  21  43  63  94 137 178 226 285 361 410
#     4  10  22  43  64  94 134 181 226 289 347 420
#     4  12  21  41  68  94 135 179 236 289 347 419
#     4  10  23  41  69 100 131 188 233 288 362 430
#
# _framework density 23.937280999999999
#
# number of rings (size 3 to 8) (size 9 to 14) (size 15 to 20)
#    0.000    1.500    3.750    0.375    1.750    5.000 
#    4.500    0.000    0.000    0.000    0.000    0.000 
#    0.000    0.000    0.000    0.000    0.000    0.000 
#
# Total GULP energy -89255.910605 kJ/mol
# GULP energy per Si atom -5578.494413 kJ/mol
# Density = 2.388280 g / cm^3
# Si number density = 23.937281 Si / 1000 Ang^3
#
#
#
# Elastic Constant Matrix: (Units=GPa)
#
#
# Indices 1 2 3 4 5 6 
#
# 1 101.8852 14.8270 12.7199 5.9862 8.6464 -17.4216
# 2 14.8270 115.7408 25.0244 6.3081 6.0850 -13.6816
# 3 12.7199 25.0244 66.9692 10.2402 -8.0549 -4.5752
# 4 5.9862 6.3081 10.2402 15.3607 -0.7326 6.2833
# 5 8.6464 6.0850 -8.0549 -0.7326 35.9646 6.7942
# 6 -17.4216 -13.6816 -4.5752 6.2833 6.7942 40.0365
#
#
#
# Elastic Compliance Matrix: (Units=1/GPa)
#
#
# Indices 1 2 3 4 5 6 
#
# 1 0.011956 0.000217 -0.001380 -0.006915 -0.004683 0.006999
# 2 0.000217 0.010269 -0.003375 -0.004032 -0.003466 0.004439
# 3 -0.001380 -0.003375 0.018771 -0.010907 0.004636 0.001316
# 4 -0.006915 -0.004032 -0.010907 0.085124 0.005397 -0.019909
# 5 -0.004683 -0.003466 0.004636 0.005397 0.032372 -0.009033
# 6 0.006999 0.004439 0.001316 -0.019909 -0.009033 0.034348
#
#
# Mechanical properties :
#
#
# Convention : Reuss Voigt Hill
#
# Bulk Modulus (GPa) = 31.32856 43.30417 37.31636
# Shear Modulus (GPa) = 23.52321 33.74063 28.63192
#
# Velocity S-wave (km/s) = 3.13821 3.75846 3.46225
# Velocity P-wave (km/s) = 5.12321 6.07986 5.62192
#
# Compressibility (1/GPa) = 0.03191976
#
# Stress axis : x y z
#
# Youngs Moduli (GPa) = 83.63869 97.38308 53.27385
#
# Poissons Ratio (x) = -0.02115 0.07351
# Poissons Ratio (y) = -0.01816 0.17982
# Poissons Ratio (z) = 0.11540 0.32871
#
# Static dielectric constant tensor:
#      x y z
#    x 2.019440 -0.060880 0.013500 
#    y -0.060880 1.964120 -0.003040 
#    z 0.013500 -0.003040 2.040620 
# 
# From -- ./inp_files/90399.got.cif
#   From: 2010.05.17/outbox.cif.g08.bks.cpg/sg2_46_cif.got.tgz:90399.got - 2010.06.03 11:33:40.
