data_PCOD9017534
_publ_section_title
;
Structure prediction by ZEFSAII (Michael W. Deem and Ramdas Pophale) SiO2 
 PCOD9017534
Probable space group: P -1
;
_chemical_formula_sum "Si O2"
_cell_formula_units_Z 13
_cell_length_a 7.155093
_cell_length_b 15.302906
_cell_length_c 7.329791
_cell_angle_alpha 55.093735
_cell_angle_beta 121.263850
_cell_angle_gamma 125.274079
_cell_volume 515.592996
_symmetry_space_group_name_H-M "P -1"
_symmetry_group_IT_number 2
_symmetry_cell_setting 'triclinic'
loop_
_space_group_symop_operation_xyz
x,y,z
-x,-y,-z
loop_
_atom_site_type_symbol
_atom_site_label
_atom_site_fract_x
_atom_site_fract_y
_atom_site_fract_z
Si Si1 0.966157 0.826018 0.084912
Si Si2 0.452851 0.235287 0.288462
Si Si3 0.314912 0.084764 0.893789
Si Si4 0.731329 0.142842 0.305103
Si Si5 0.821364 0.367493 0.609672
Si Si6 0.000000 0.000000 0.500000
Si Si7 0.799906 0.376099 0.006809
O O1 0.795302 0.836383 0.145671
O O2 0.041314 0.718288 0.251630
O O3 0.830881 0.824768 0.822182
O O4 0.180861 0.951005 0.049782
O O5 0.563798 0.144253 0.386593
O O6 0.583019 0.309490 0.438384
O O7 0.566401 0.334548 0.066214
O O8 0.256477 0.074458 0.663069
O O9 0.578370 0.122792 0.064767
O O10 0.904891 0.279101 0.220737
O O11 0.866105 0.061127 0.484373
O O12 0.744046 0.368447 0.776291
O O13 0.000000 0.500000 0.500000
O O14 0.000000 0.500000 0.000000
#
# Coordination Sequence:
#
# PCOD9017534 Si02
#       7
#     2   2   2   2   2   1   2
#     4  10  23  43  62  92 128 165 212 261 309 374
#     4   9  22  43  63  92 126 167 207 260 313 369
#     4  10  22  39  62  88 129 164 208 262 304 371
#     4   9  21  39  61  90 132 161 204 269 304 371
#     4  12  22  40  69  91 126 171 209 256 321 373
#     4  12  20  34  64  96 122 166 212 240 330 374
#     4  10  21  43  64  92 130 160 206 270 305 368
#
# _framework density 25.213688000000001
#
# number of rings (size 3 to 8) (size 9 to 14) (size 15 to 20)
#    0.923    0.923    1.538    2.308    0.000    3.077 
#    0.000    5.385    0.000    0.000    0.000    0.000 
#    0.000    0.000    0.000    0.000    0.000    0.000 
#
# Total GULP energy -72491.772395 kJ/mol
# GULP energy per Si atom -5576.290184 kJ/mol
# Density = 2.515630 g / cm^3
# Si number density = 25.213688 Si / 1000 Ang^3
#
#
#
# Elastic Constant Matrix: (Units=GPa)
#
#
# Indices 1 2 3 4 5 6 
#
# 1 62.4869 38.7683 12.9782 0.8051 2.5230 -13.9920
# 2 38.7683 203.0687 51.9431 5.3584 21.5573 -1.6641
# 3 12.9782 51.9431 86.3144 25.0414 1.0837 -18.5064
# 4 0.8051 5.3584 25.0414 59.6078 -15.9117 -10.2909
# 5 2.5230 21.5573 1.0837 -15.9117 28.7770 10.8259
# 6 -13.9920 -1.6641 -18.5064 -10.2909 10.8259 35.1803
#
#
#
# Elastic Compliance Matrix: (Units=1/GPa)
#
#
# Indices 1 2 3 4 5 6 
#
# 1 0.020349 -0.003894 0.001113 0.000671 -0.002044 0.009320
# 2 -0.003894 0.007137 -0.003984 -0.000427 -0.004297 -0.002109
# 3 0.001113 -0.003984 0.017858 -0.006927 -0.005070 0.009182
# 4 0.000671 -0.000427 -0.006927 0.023224 0.013668 -0.000810
# 5 -0.002044 -0.004297 -0.005070 0.013668 0.051772 -0.015617
# 6 0.009320 -0.002109 0.009182 -0.000810 -0.015617 0.041431
#
#
# Mechanical properties :
#
#
# Convention : Reuss Voigt Hill
#
# Bulk Modulus (GPa) = 31.43315 62.13880 46.78597
# Shear Modulus (GPa) = 26.89543 41.25838 34.07690
#
# Velocity S-wave (km/s) = 3.26958 4.04957 3.68030
# Velocity P-wave (km/s) = 5.17178 6.82376 6.05438
#
# Compressibility (1/GPa) = 0.03181355
#
# Stress axis : x y z
#
# Youngs Moduli (GPa) = 49.14301 140.11312 55.99786
#
# Poissons Ratio (x) = 0.54557 -0.06231
# Poissons Ratio (y) = 0.19135 0.22310
# Poissons Ratio (z) = -0.05469 0.55822
#
# Static dielectric constant tensor:
#      x y z
#    x 2.029020 0.090270 -0.077590 
#    y 0.090270 1.984410 -0.024020 
#    z -0.077590 -0.024020 2.146350 
# 
# From -- ./inp_files/210054.got.cif
#   From: 2010.05.17/outbox.cif.g08.bks.cpg/sg2_106_cif.got.tgz:210054.got - 2010.06.03 11:33:40.
