data_PCOD9017046
_publ_section_title
;
Structure prediction by ZEFSAII (Michael W. Deem and Ramdas Pophale) SiO2 
 PCOD9017046
Probable space group: P -1
;
_chemical_formula_sum "Si O2"
_cell_formula_units_Z 14
_cell_length_a 10.088974
_cell_length_b 11.480860
_cell_length_c 7.931510
_cell_angle_alpha 118.421910
_cell_angle_beta 134.832109
_cell_angle_gamma 58.651398
_cell_volume 547.299803
_symmetry_space_group_name_H-M "P -1"
_symmetry_group_IT_number 2
_symmetry_cell_setting 'triclinic'
loop_
_space_group_symop_operation_xyz
x,y,z
-x,-y,-z
loop_
_atom_site_type_symbol
_atom_site_label
_atom_site_fract_x
_atom_site_fract_y
_atom_site_fract_z
Si Si1 0.632183 0.916508 0.909192
Si Si2 0.534469 0.296056 0.559400
Si Si3 0.385696 0.338599 0.841304
Si Si4 0.852810 0.522536 0.728403
Si Si5 0.215621 0.843565 0.858586
Si Si6 0.924666 0.775080 0.350555
Si Si7 0.860276 0.348106 0.060186
O O1 0.497985 0.844152 0.634677
O O2 0.815512 0.811687 0.099553
O O3 0.500000 0.000000 0.000000
O O4 0.717008 0.021383 0.951799
O O5 0.462948 0.320624 0.707173
O O6 0.372780 0.412705 0.392998
O O7 0.750254 0.312315 0.771717
O O8 0.242461 0.247207 0.691479
O O9 0.725531 0.500777 0.107195
O O10 0.579884 0.273968 0.083467
O O11 0.910450 0.373564 0.593231
O O12 0.000000 0.500000 0.000000
O O13 0.929553 0.629490 0.758976
O O14 0.045088 0.876114 0.589730
O O15 0.132083 0.775699 0.891153
#
# Coordination Sequence:
#
# PCOD9017046 Si02
#       7
#     2   2   2   2   2   2   2
#     4  12  26  45  62  94 135 180 218 257 321 383
#     4  11  23  43  66  98 134 166 217 268 322 384
#     4  10  21  42  70  98 129 165 215 272 326 385
#     4  11  22  40  67 100 130 157 212 274 330 381
#     4  11  22  41  66  89 128 175 219 256 316 382
#     4  11  22  43  67  94 131 170 214 273 322 378
#     4  10  23  41  69 104 124 167 216 268 333 381
#
# _framework density 25.580131000000002
#
# number of rings (size 3 to 8) (size 9 to 14) (size 15 to 20)
#    0.000    1.143    2.857    4.714    0.000    6.286 
#    2.571    1.429    0.000    0.000    0.000    0.000 
#    0.000    0.000    0.000    0.000    0.000    0.000 
#
# Total GULP energy -78359.903474 kJ/mol
# GULP energy per Si atom -5597.135962 kJ/mol
# Density = 2.552191 g / cm^3
# Si number density = 25.580131 Si / 1000 Ang^3
#
#
#
# Elastic Constant Matrix: (Units=GPa)
#
#
# Indices 1 2 3 4 5 6 
#
# 1 66.2471 25.5688 17.3470 11.1118 16.6233 9.5980
# 2 25.5688 85.9466 30.3153 5.9333 12.3015 24.7546
# 3 17.3470 30.3153 153.9223 12.7293 24.7480 -5.7553
# 4 11.1118 5.9333 12.7293 43.4517 2.0986 -0.8199
# 5 16.6233 12.3015 24.7480 2.0986 34.6024 0.0728
# 6 9.5980 24.7546 -5.7553 -0.8199 0.0728 33.5693
#
#
#
# Elastic Compliance Matrix: (Units=1/GPa)
#
#
# Indices 1 2 3 4 5 6 
#
# 1 0.019587 -0.003509 -0.000016 -0.004203 -0.007889 -0.003101
# 2 -0.003509 0.017835 -0.003157 -0.000741 -0.002325 -0.012703
# 3 -0.000016 -0.003157 0.008134 -0.001656 -0.004595 0.003697
# 4 -0.004203 -0.000741 -0.001656 0.024619 0.001969 0.002061
# 5 -0.007889 -0.002325 -0.004595 0.001969 0.036677 0.003151
# 6 -0.003101 -0.012703 0.003697 0.002061 0.003151 0.040721
#
#
# Mechanical properties :
#
#
# Convention : Reuss Voigt Hill
#
# Bulk Modulus (GPa) = 31.06309 50.28645 40.67477
# Shear Modulus (GPa) = 29.12579 37.85034 33.48806
#
# Velocity S-wave (km/s) = 3.37799 3.85083 3.62213
# Velocity P-wave (km/s) = 5.23299 6.28275 5.78175
#
# Compressibility (1/GPa) = 0.03219255
#
# Stress axis : x y z
#
# Youngs Moduli (GPa) = 51.05305 56.06831 122.93484
#
# Poissons Ratio (x) = 0.19674 0.00201
# Poissons Ratio (y) = 0.17914 0.38812
# Poissons Ratio (z) = 0.00083 0.17701
#
# Static dielectric constant tensor:
#      x y z
#    x 2.079940 -0.000350 -0.080720 
#    y -0.000350 2.065320 -0.016380 
#    z -0.080720 -0.016380 2.046520 
# 
# From -- ./inp_files/260422.got.cif
#   From: 2010.05.17/outbox.cif.g08.bks.cpg/sg2_131_cif.got.tgz:260422.got - 2010.06.03 11:33:40.
