data_PCOD9017427
_publ_section_title
;
Structure prediction by ZEFSAII (Michael W. Deem and Ramdas Pophale) SiO2 
 PCOD9017427
Probable space group: P -1
;
_chemical_formula_sum "Si O2"
_cell_formula_units_Z 16
_cell_length_a 11.910610
_cell_length_b 15.109760
_cell_length_c 9.538681
_cell_angle_alpha 109.592604
_cell_angle_beta 67.201486
_cell_angle_gamma 150.648610
_cell_volume 775.687259
_symmetry_space_group_name_H-M "P -1"
_symmetry_group_IT_number 2
_symmetry_cell_setting 'triclinic'
loop_
_space_group_symop_operation_xyz
x,y,z
-x,-y,-z
loop_
_atom_site_type_symbol
_atom_site_label
_atom_site_fract_x
_atom_site_fract_y
_atom_site_fract_z
Si Si1 0.504546 0.388692 0.766069
Si Si2 0.416290 0.529436 0.907809
Si Si3 0.692133 0.182336 0.183051
Si Si4 0.180216 0.858838 0.393051
Si Si5 0.216857 0.099320 0.531643
Si Si6 0.094170 0.834493 0.117333
Si Si7 0.500941 0.757448 0.789407
Si Si8 0.981194 0.597354 0.592037
O O1 0.548581 0.526653 0.776889
O O2 0.284385 0.202840 0.690007
O O3 0.719594 0.463023 0.664812
O O4 0.484635 0.381114 0.939666
O O5 0.424693 0.627394 0.862498
O O6 0.146111 0.316872 0.931948
O O7 0.680991 0.277876 0.167800
O O8 0.884617 0.299545 0.272300
O O9 0.441398 0.008318 0.289453
O O10 0.748134 0.140762 0.019463
O O11 0.032767 0.764541 0.269862
O O12 0.098270 0.732250 0.480781
O O13 0.177514 0.963247 0.509419
O O14 0.432546 0.242013 0.393063
O O15 0.000000 0.000000 0.500000
O O16 0.260411 0.034742 0.160009
O O17 0.000000 0.500000 0.500000
#
# Coordination Sequence:
#
# PCOD9017427 Si02
#       8
#     2   2   2   2   2   2   2   2
#     4  11  25  45  62  99 136 168 223 274 325 406
#     4  11  25  44  66  96 137 175 221 276 331 389
#     4  10  21  43  62  95 133 169 230 265 327 398
#     4  10  23  39  66  94 129 173 218 277 329 388
#     4  10  22  44  67  96 127 169 223 271 332 394
#     4  10  21  43  65  97 132 171 225 271 328 393
#     4  10  23  40  68  97 127 176 223 273 328 394
#     4  12  25  40  63  98 136 174 214 273 335 391
#
# _framework density 20.626868999999999
#
# number of rings (size 3 to 8) (size 9 to 14) (size 15 to 20)
#    0.000    1.750    1.250    4.875    5.250    4.000 
#    0.000    1.875    0.000    0.000    0.000    0.000 
#    0.000    0.000    0.000    0.000    0.000    0.000 
#
# Total GULP energy -89387.143449 kJ/mol
# GULP energy per Si atom -5586.696466 kJ/mol
# Density = 2.057992 g / cm^3
# Si number density = 20.626869 Si / 1000 Ang^3
#
#
#
# Elastic Constant Matrix: (Units=GPa)
#
#
# Indices 1 2 3 4 5 6 
#
# 1 109.7579 53.2094 45.1815 3.9583 -7.0944 -8.1264
# 2 53.2094 63.5305 45.4632 18.8407 14.3380 -9.3388
# 3 45.1815 45.4632 109.2238 38.1193 -5.2596 -15.0199
# 4 3.9583 18.8407 38.1193 29.5452 7.7777 11.9621
# 5 -7.0944 14.3380 -5.2596 7.7777 41.0546 1.6963
# 6 -8.1264 -9.3388 -15.0199 11.9621 1.6963 44.1463
#
#
#
# Elastic Compliance Matrix: (Units=1/GPa)
#
#
# Indices 1 2 3 4 5 6 
#
# 1 0.024811 -0.024370 -0.014678 0.036224 0.004699 -0.015578
# 2 -0.024370 0.050538 0.003877 -0.037390 -0.015035 0.018233
# 3 -0.014678 0.003877 0.046729 -0.079010 0.015625 0.034825
# 4 0.036224 -0.037390 -0.079010 0.193355 -0.024147 -0.079587
# 5 0.004699 -0.015035 0.015625 -0.024147 0.036661 0.008135
# 6 -0.015578 0.018233 0.034825 -0.079587 0.008135 0.056743
#
#
# Mechanical properties :
#
#
# Convention : Reuss Voigt Hill
#
# Bulk Modulus (GPa) = 19.32819 63.35782 41.34300
# Shear Modulus (GPa) = 10.07204 32.19309 21.13257
#
# Velocity S-wave (km/s) = 2.21214 3.95490 3.20428
# Velocity P-wave (km/s) = 3.98942 7.18595 5.81177
#
# Compressibility (1/GPa) = 0.05173791
#
# Stress axis : x y z
#
# Youngs Moduli (GPa) = 40.30436 19.78703 21.39989
#
# Poissons Ratio (x) = 0.48221 0.31410
# Poissons Ratio (y) = 0.98221 -0.08297
# Poissons Ratio (z) = 0.59158 -0.07672
#
# Static dielectric constant tensor:
#      x y z
#    x 1.761960 0.025770 -0.006890 
#    y 0.025770 1.743060 0.022280 
#    z -0.006890 0.022280 1.745220 
# 
# From -- ./inp_files/273683.got.cif
#   From: 2010.05.17/outbox.cif.g08.bks.cpg/sg2_137_cif.got.tgz:273683.got - 2010.06.03 11:33:40.
