data_PCOD9017272
_publ_section_title
;
Structure prediction by ZEFSAII (Michael W. Deem and Ramdas Pophale) SiO2 
 PCOD9017272
Probable space group: P -1
;
_chemical_formula_sum "Si O2"
_cell_formula_units_Z 12
_cell_length_a 7.105612
_cell_length_b 9.305740
_cell_length_c 12.443630
_cell_angle_alpha 142.506764
_cell_angle_beta 73.229195
_cell_angle_gamma 101.985362
_cell_volume 479.196715
_symmetry_space_group_name_H-M "P -1"
_symmetry_group_IT_number 2
_symmetry_cell_setting 'triclinic'
loop_
_space_group_symop_operation_xyz
x,y,z
-x,-y,-z
loop_
_atom_site_type_symbol
_atom_site_label
_atom_site_fract_x
_atom_site_fract_y
_atom_site_fract_z
Si Si1 0.181578 0.553438 0.368313
Si Si2 0.745497 0.001429 0.253457
Si Si3 0.110487 0.689633 0.008258
Si Si4 0.556773 0.653830 0.230601
Si Si5 0.089948 0.254839 0.633355
Si Si6 0.722698 0.972058 0.984697
O O1 0.341441 0.600992 0.275284
O O2 0.969942 0.638701 0.408581
O O3 0.191315 0.276340 0.222746
O O4 0.248828 0.726121 0.553118
O O5 0.583748 0.849301 0.251053
O O6 0.734605 0.972239 0.110890
O O7 0.950106 0.877243 0.189747
O O8 0.316337 0.587486 0.962936
O O9 0.003349 0.450446 0.849472
O O10 0.171273 0.812266 0.959167
O O11 0.683744 0.747076 0.367523
O O12 0.000000 0.000000 0.500000
O O13 0.500000 0.000000 0.000000
#
# Coordination Sequence:
#
# PCOD9017272 Si02
#       6
#     2   2   2   2   2   2
#     4  12  24  46  74 104 143 184 233 290 351 413
#     4  12  25  42  75 102 136 187 240 281 356 414
#     4  10  23  46  70  98 148 178 234 292 340 424
#     4  10  23  45  71 105 144 174 240 293 334 431
#     4  10  21  42  73 100 140 176 223 289 356 386
#     4  12  25  50  66 100 148 188 230 295 342 415
#
# _framework density 25.041907999999999
#
# number of rings (size 3 to 8) (size 9 to 14) (size 15 to 20)
#    1.000    0.000    5.000    1.500    0.000    2.000 
#    6.000    0.000    0.000    0.000    0.000    0.000 
#    0.000    0.000    0.000    0.000    0.000    0.000 
#
# Total GULP energy -67086.134257 kJ/mol
# GULP energy per Si atom -5590.511188 kJ/mol
# Density = 2.498491 g / cm^3
# Si number density = 25.041908 Si / 1000 Ang^3
#
#
#
# Elastic Constant Matrix: (Units=GPa)
#
#
# Indices 1 2 3 4 5 6 
#
# 1 82.7328 14.4409 13.0424 -6.4988 13.1833 -4.9720
# 2 14.4409 88.2162 9.7977 9.5414 -11.7383 -13.3373
# 3 13.0424 9.7977 125.6524 22.4838 -2.5892 -15.2729
# 4 -6.4988 9.5414 22.4838 36.9708 0.9257 -10.4162
# 5 13.1833 -11.7383 -2.5892 0.9257 31.9578 -2.4561
# 6 -4.9720 -13.3373 -15.2729 -10.4162 -2.4561 36.3375
#
#
#
# Elastic Compliance Matrix: (Units=1/GPa)
#
#
# Indices 1 2 3 4 5 6 
#
# 1 0.014776 -0.003660 -0.002271 0.005321 -0.007722 0.000727
# 2 -0.003660 0.013843 0.000604 -0.003550 0.007076 0.004294
# 3 -0.002271 0.000604 0.009511 -0.005713 0.002281 0.002425
# 4 0.005321 -0.003550 -0.005713 0.034336 -0.004452 0.006565
# 5 -0.007722 0.007076 0.002281 -0.004452 0.037679 0.003770
# 6 0.000727 0.004294 0.002425 0.006565 0.003770 0.032351
#
#
# Mechanical properties :
#
#
# Convention : Reuss Voigt Hill
#
# Bulk Modulus (GPa) = 36.39662 41.24039 38.81851
# Shear Modulus (GPa) = 30.80536 38.34127 34.57332
#
# Velocity S-wave (km/s) = 3.51116 3.91715 3.71970
# Velocity P-wave (km/s) = 5.56808 6.07973 5.82952
#
# Compressibility (1/GPa) = 0.02747508
#
# Stress axis : x y z
#
# Youngs Moduli (GPa) = 67.67663 72.24075 105.13934
#
# Poissons Ratio (x) = 0.26438 0.23880
# Poissons Ratio (y) = 0.24767 -0.06345
# Poissons Ratio (z) = 0.15371 -0.04360
#
# Static dielectric constant tensor:
#      x y z
#    x 1.971900 -0.013130 -0.013000 
#    y -0.013130 1.987810 -0.036030 
#    z -0.013000 -0.036030 2.009130 
# 
# From -- ./inp_files/380769.got.cif
#   From: 2010.05.17/outbox.cif.g08.bks.cpg/sg2_191_cif.got.tgz:380769.got - 2010.06.03 11:33:40.
