data_PCOD9017480
_publ_section_title
;
Structure prediction by ZEFSAII (Michael W. Deem and Ramdas Pophale) SiO2 
 PCOD9017480
Probable space group: P -1
;
_chemical_formula_sum "Si O2"
_cell_formula_units_Z 13
_cell_length_a 7.728402
_cell_length_b 11.505700
_cell_length_c 15.724994
_cell_angle_alpha 150.602481
_cell_angle_beta 126.338605
_cell_angle_gamma 69.916538
_cell_volume 497.251460
_symmetry_space_group_name_H-M "P -1"
_symmetry_group_IT_number 2
_symmetry_cell_setting 'triclinic'
loop_
_space_group_symop_operation_xyz
x,y,z
-x,-y,-z
loop_
_atom_site_type_symbol
_atom_site_label
_atom_site_fract_x
_atom_site_fract_y
_atom_site_fract_z
Si Si1 0.005473 0.691988 0.497902
Si Si2 0.000000 0.500000 0.000000
Si Si3 0.512148 0.483750 0.827323
Si Si4 0.882274 0.176764 0.617556
Si Si5 0.730957 0.952048 0.052846
Si Si6 0.020324 0.719144 0.896685
Si Si7 0.528919 0.921900 0.225625
O O1 0.971814 0.403829 0.271343
O O2 0.757154 0.691019 0.394561
O O3 0.068956 0.798129 0.679635
O O4 0.247454 0.876008 0.634870
O O5 0.292663 0.624392 0.177177
O O6 0.004923 0.751262 0.211290
O O7 0.631652 0.709167 0.934813
O O8 0.485590 0.631833 0.998532
O O9 0.961778 0.473591 0.790419
O O10 0.611539 0.010580 0.402026
O O11 0.000000 0.000000 0.500000
O O12 0.837462 0.843703 0.938617
O O13 0.500000 0.000000 0.000000
O O14 0.283142 0.929263 0.134596
#
# Coordination Sequence:
#
# PCOD9017480 Si02
#       7
#     2   1   2   2   2   2   2
#     4   9  22  42  66  90 128 169 211 267 312 375
#     4  12  22  38  66  96 130 164 214 262 316 382
#     4  10  21  43  63  95 129 166 217 262 312 383
#     4  11  22  38  60  93 126 169 209 258 318 373
#     4  11  24  42  66  98 129 164 213 265 323 380
#     4  10  22  41  66  90 127 167 211 263 317 384
#     4   9  20  42  61  88 130 166 212 257 318 378
#
# _framework density 26.143715
#
# number of rings (size 3 to 8) (size 9 to 14) (size 15 to 20)
#    0.000    1.846    3.077    0.000    2.154    1.846 
#    2.769   10.769    0.000    0.000    0.000    0.000 
#    0.000    0.000    0.000    0.000    0.000    0.000 
#
# Total GULP energy -72432.464763 kJ/mol
# GULP energy per Si atom -5571.728059 kJ/mol
# Density = 2.608421 g / cm^3
# Si number density = 26.143715 Si / 1000 Ang^3
#
#
#
# Elastic Constant Matrix: (Units=GPa)
#
#
# Indices 1 2 3 4 5 6 
#
# 1 96.8107 51.3603 37.4294 -14.5509 -3.6373 -37.4241
# 2 51.3603 99.9444 45.3597 -13.4715 9.6212 -39.6626
# 3 37.4294 45.3597 163.6091 -45.6563 -14.6298 -13.3121
# 4 -14.5509 -13.4715 -45.6563 51.5989 -2.1389 8.5152
# 5 -3.6373 9.6212 -14.6298 -2.1389 40.8477 6.0728
# 6 -37.4241 -39.6626 -13.3121 8.5152 6.0728 55.8798
#
#
#
# Elastic Compliance Matrix: (Units=1/GPa)
#
#
# Indices 1 2 3 4 5 6 
#
# 1 0.016367 -0.005081 -0.001406 0.000983 0.001200 0.006740
# 2 -0.005081 0.019518 -0.004932 -0.002810 -0.008544 0.010633
# 3 -0.001406 -0.004932 0.010324 0.008329 0.005746 -0.003876
# 4 0.000983 -0.002810 0.008329 0.027213 0.005771 -0.004126
# 5 0.001200 -0.008544 0.005746 0.005771 0.030157 -0.008048
# 6 0.006740 0.010633 -0.003876 -0.004126 -0.008048 0.030536
#
#
# Mechanical properties :
#
#
# Convention : Reuss Voigt Hill
#
# Bulk Modulus (GPa) = 42.78766 69.85145 56.31956
# Shear Modulus (GPa) = 30.35030 44.74627 37.54828
#
# Velocity S-wave (km/s) = 3.41090 4.14158 3.79387
# Velocity P-wave (km/s) = 5.64926 7.04602 6.38595
#
# Compressibility (1/GPa) = 0.02337122
#
# Stress axis : x y z
#
# Youngs Moduli (GPa) = 61.09965 51.23391 96.86543
#
# Poissons Ratio (x) = 0.26033 0.13615
# Poissons Ratio (y) = 0.31046 0.47773
# Poissons Ratio (z) = 0.08588 0.25268
#
# Static dielectric constant tensor:
#      x y z
#    x 2.290460 0.227130 -0.041450 
#    y 0.227130 2.134590 -0.035290 
#    z -0.041450 -0.035290 2.051520 
# 
# From -- ./inp_files/29948.got.cif
#   From: 2010.05.17/outbox.cif.g08.bks.cpg/sg2_15_cif.got.tgz:29948.got - 2010.06.03 11:33:40.
