data_PCOD9017784
_publ_section_title
;
Structure prediction by ZEFSAII (Michael W. Deem and Ramdas Pophale) SiO2 
 PCOD9017784
Probable space group: P -1
;
_chemical_formula_sum "Si O2"
_cell_formula_units_Z 16
_cell_length_a 17.055917
_cell_length_b 17.864115
_cell_length_c 5.607709
_cell_angle_alpha 116.518261
_cell_angle_beta 50.007206
_cell_angle_gamma 146.261619
_cell_volume 711.318309
_symmetry_space_group_name_H-M "P -1"
_symmetry_group_IT_number 2
_symmetry_cell_setting 'triclinic'
loop_
_space_group_symop_operation_xyz
x,y,z
-x,-y,-z
loop_
_atom_site_type_symbol
_atom_site_label
_atom_site_fract_x
_atom_site_fract_y
_atom_site_fract_z
Si Si1 0.285035 0.333682 0.931066
Si Si2 0.735898 0.040346 0.252290
Si Si3 0.605406 0.209746 0.192677
Si Si4 0.073548 0.955152 0.814981
Si Si5 0.599410 0.847698 0.868529
Si Si6 0.858738 0.433602 0.373921
Si Si7 0.423190 0.347506 0.177067
Si Si8 0.886761 0.302627 0.509611
O O1 0.328976 0.319898 0.565820
O O2 0.394350 0.489306 0.942475
O O3 0.343274 0.321100 0.038992
O O4 0.083454 0.207331 0.166735
O O5 0.846968 0.029663 0.075352
O O6 0.852478 0.195190 0.286401
O O7 0.576726 0.944003 0.602906
O O8 0.642498 0.962521 0.078297
O O9 0.563217 0.245044 0.109818
O O10 0.685565 0.314603 0.400804
O O11 0.738913 0.225725 0.880631
O O12 0.232992 0.058233 0.478211
O O13 0.000000 0.000000 0.000000
O O14 0.574355 0.750268 0.940793
O O15 0.864261 0.363810 0.456530
O O16 0.931009 0.564925 0.537790
O O17 0.000000 0.500000 0.000000
#
# Coordination Sequence:
#
# PCOD9017784 Si02
#       8
#     2   2   2   2   2   2   2   2
#     4  10  22  42  67  95 131 183 229 290 348 406
#     4  11  25  40  64  99 131 169 226 273 335 413
#     4  10  22  41  66  95 127 171 218 273 338 398
#     4  11  23  42  65  93 131 179 223 281 339 403
#     4  11  24  39  66  99 133 174 226 278 343 411
#     4   9  20  40  68  91 128 173 216 273 337 398
#     4  10  22  42  68  96 133 177 236 285 348 414
#     4  10  21  43  66  94 129 173 217 274 338 404
#
# _framework density 22.493445999999999
#
# number of rings (size 3 to 8) (size 9 to 14) (size 15 to 20)
#    0.000    1.750    1.250    1.875    3.500    7.000 
#    9.000    0.000    0.000    0.000    0.000    0.000 
#    0.000    0.000    0.000    0.000    0.000    0.000 
#
# Total GULP energy -89281.590742 kJ/mol
# GULP energy per Si atom -5580.099421 kJ/mol
# Density = 2.244225 g / cm^3
# Si number density = 22.493446 Si / 1000 Ang^3
#
#
#
# Elastic Constant Matrix: (Units=GPa)
#
#
# Indices 1 2 3 4 5 6 
#
# 1 80.2835 58.7532 20.4784 11.1061 14.2132 19.3180
# 2 58.7532 156.5352 5.5934 19.5737 3.4913 12.0350
# 3 20.4784 5.5934 54.2511 9.6248 2.1789 -3.5038
# 4 11.1061 19.5737 9.6248 31.4936 5.6251 4.6042
# 5 14.2132 3.4913 2.1789 5.6251 27.3825 4.3414
# 6 19.3180 12.0350 -3.5038 4.6042 4.3414 27.8715
#
#
#
# Elastic Compliance Matrix: (Units=1/GPa)
#
#
# Indices 1 2 3 4 5 6 
#
# 1 0.026079 -0.008464 -0.010059 0.003058 -0.009964 -0.014639
# 2 -0.008464 0.009830 0.003079 -0.005037 0.003567 0.002285
# 3 -0.010059 0.003079 0.023735 -0.007530 0.002996 0.009404
# 4 0.003058 -0.005037 -0.007530 0.038290 -0.007246 -0.006088
# 5 -0.009964 0.003567 0.002996 -0.007246 0.042435 0.000330
# 6 -0.014639 0.002285 0.009404 -0.006088 0.000330 0.047175
#
#
# Mechanical properties :
#
#
# Convention : Reuss Voigt Hill
#
# Bulk Modulus (GPa) = 34.77435 51.19109 42.98272
# Shear Modulus (GPa) = 21.92825 31.09916 26.51370
#
# Velocity S-wave (km/s) = 3.12568 3.72235 3.43699
# Velocity P-wave (km/s) = 5.34040 6.42512 5.90771
#
# Compressibility (1/GPa) = 0.02875683
#
# Stress axis : x y z
#
# Youngs Moduli (GPa) = 38.34506 101.73421 42.13126
#
# Poissons Ratio (x) = 0.86103 0.42381
# Poissons Ratio (y) = 0.32453 -0.12973
# Poissons Ratio (z) = 0.38572 -0.31326
#
# Static dielectric constant tensor:
#      x y z
#    x 1.840990 0.011240 0.039880 
#    y 0.011240 1.832940 0.008180 
#    z 0.039880 0.008180 1.898230 
# 
# From -- ./inp_files/111683.got.cif
#   From: 2010.05.17/outbox.cif.g08.bks.cpg/sg2_56_cif.got.tgz:111683.got - 2010.06.03 11:33:40.
