data_PCOD9017376
_publ_section_title
;
Structure prediction by ZEFSAII (Michael W. Deem and Ramdas Pophale) SiO2 
 PCOD9017376
Probable space group: P -1
;
_chemical_formula_sum "Si O2"
_cell_formula_units_Z 15
_cell_length_a 12.338753
_cell_length_b 7.370402
_cell_length_c 16.959358
_cell_angle_alpha 121.219688
_cell_angle_beta 151.624043
_cell_angle_gamma 71.015738
_cell_volume 593.528969
_symmetry_space_group_name_H-M "P -1"
_symmetry_group_IT_number 2
_symmetry_cell_setting 'triclinic'
loop_
_space_group_symop_operation_xyz
x,y,z
-x,-y,-z
loop_
_atom_site_type_symbol
_atom_site_label
_atom_site_fract_x
_atom_site_fract_y
_atom_site_fract_z
Si Si1 0.289710 0.754985 0.060189
Si Si2 0.047107 0.972721 0.825044
Si Si3 0.910910 0.373331 0.816505
Si Si4 0.170300 0.877100 0.707661
Si Si5 0.440521 0.403493 0.596170
Si Si6 0.657607 0.545744 0.271636
Si Si7 0.000000 0.000000 0.500000
Si Si8 0.693745 0.185978 0.468401
O O1 0.070582 0.615246 0.943198
O O2 0.433846 0.581425 0.092804
O O3 0.477249 0.954272 0.273202
O O4 0.192782 0.861283 0.949678
O O5 0.132491 0.966182 0.787946
O O6 0.770226 0.816484 0.617070
O O7 0.065551 0.224000 0.915547
O O8 0.697194 0.381308 0.737400
O O9 0.792359 0.241650 0.631696
O O10 0.286861 0.684506 0.753967
O O11 0.259779 0.045601 0.732171
O O12 0.908075 0.754756 0.463991
O O13 0.388937 0.432416 0.661046
O O14 0.401028 0.614557 0.574983
O O15 0.100698 0.841971 0.464091
#
# Coordination Sequence:
#
# PCOD9017376 Si02
#       8
#     2   2   2   2   2   2   1   2
#     4  12  28  47  72 114 147 189 250 300 366 438
#     4  11  25  47  72 111 145 192 248 302 367 429
#     4  12  27  51  73 105 151 195 245 305 360 436
#     4  10  21  42  76  99 147 192 231 303 366 434
#     4  11  24  48  78 103 147 200 245 299 367 436
#     4  10  22  43  68 109 142 189 242 294 368 432
#     4  12  20  44  78 106 136 194 242 290 368 440
#     4  12  25  48  76 108 147 192 240 301 373 434
#
# _framework density 25.272565
#
# number of rings (size 3 to 8) (size 9 to 14) (size 15 to 20)
#    0.000    0.800    5.333    1.600    1.867    1.600 
#    2.400    1.333    0.000    0.000    0.000    0.000 
#    0.000    0.000    0.000    0.000    0.000    0.000 
#
# Total GULP energy -83952.443615 kJ/mol
# GULP energy per Si atom -5596.829574 kJ/mol
# Density = 2.521504 g / cm^3
# Si number density = 25.272565 Si / 1000 Ang^3
#
#
#
# Elastic Constant Matrix: (Units=GPa)
#
#
# Indices 1 2 3 4 5 6 
#
# 1 115.6380 40.2398 48.0690 1.2765 5.8024 -21.7987
# 2 40.2398 116.7069 46.8181 -25.8068 -12.8924 6.0130
# 3 48.0690 46.8181 99.1915 -14.7028 -6.8591 6.3233
# 4 1.2765 -25.8068 -14.7028 60.9918 10.3097 -1.8638
# 5 5.8024 -12.8924 -6.8591 10.3097 28.2106 7.5245
# 6 -21.7987 6.0130 6.3233 -1.8638 7.5245 31.2698
#
#
#
# Elastic Compliance Matrix: (Units=1/GPa)
#
#
# Indices 1 2 3 4 5 6 
#
# 1 0.018351 -0.005718 -0.008570 -0.002170 -0.012622 0.018533
# 2 -0.005718 0.013403 -0.001979 0.003811 0.007492 -0.007739
# 3 -0.008570 -0.001979 0.016598 0.001832 0.007034 -0.010533
# 4 -0.002170 0.003811 0.001832 0.019203 -0.004266 -0.000445
# 5 -0.012622 0.007492 0.007034 -0.004266 0.051201 -0.024237
# 6 0.018533 -0.007739 -0.010533 -0.000445 -0.024237 0.054323
#
#
# Mechanical properties :
#
#
# Convention : Reuss Voigt Hill
#
# Bulk Modulus (GPa) = 63.21890 66.86558 65.04224
# Shear Modulus (GPa) = 23.70965 37.18841 30.44903
#
# Velocity S-wave (km/s) = 3.06626 3.84017 3.47483
# Velocity P-wave (km/s) = 6.13230 6.79542 6.47236
#
# Compressibility (1/GPa) = 0.01581806
#
# Stress axis : x y z
#
# Youngs Moduli (GPa) = 54.49380 74.61073 60.24864
#
# Poissons Ratio (x) = 0.42665 0.51631
# Poissons Ratio (y) = 0.31161 0.11922
# Poissons Ratio (z) = 0.46700 0.14763
#
# Static dielectric constant tensor:
#      x y z
#    x 2.103480 0.206100 0.007130 
#    y 0.206100 2.217500 -0.038900 
#    z 0.007130 -0.038900 2.079560 
# 
# From -- ./inp_files/432638.got.cif
#   From: 2010.05.17/outbox.cif.g08.bks.cpg/sg2_217_cif.got.tgz:432638.got - 2010.06.03 11:33:40.
