data_PCOD9017218
_publ_section_title
;
Structure prediction by ZEFSAII (Michael W. Deem and Ramdas Pophale) SiO2 
 PCOD9017218
Probable space group: P -1
;
_chemical_formula_sum "Si O2"
_cell_formula_units_Z 16
_cell_length_a 10.607643
_cell_length_b 10.096476
_cell_length_c 8.121395
_cell_angle_alpha 80.779714
_cell_angle_beta 132.694424
_cell_angle_gamma 106.869138
_cell_volume 610.951380
_symmetry_space_group_name_H-M "P -1"
_symmetry_group_IT_number 2
_symmetry_cell_setting 'triclinic'
loop_
_space_group_symop_operation_xyz
x,y,z
-x,-y,-z
loop_
_atom_site_type_symbol
_atom_site_label
_atom_site_fract_x
_atom_site_fract_y
_atom_site_fract_z
Si Si1 0.012443 0.714720 0.054908
Si Si2 0.291586 0.158878 0.314150
Si Si3 0.580331 0.922239 0.888626
Si Si4 0.830242 0.089583 0.541562
Si Si5 0.147754 0.519966 0.848510
Si Si6 0.146098 0.812460 0.786666
Si Si7 0.502647 0.377930 0.647907
Si Si8 0.345749 0.361822 0.843658
O O1 0.102880 0.816978 0.259433
O O2 0.080353 0.759783 0.922768
O O3 0.189847 0.270010 0.138290
O O4 0.008518 0.563717 0.155479
O O5 0.327289 0.072585 0.208535
O O6 0.473593 0.238839 0.544422
O O7 0.173665 0.062577 0.364915
O O8 0.373498 0.908457 0.675655
O O9 0.678864 0.062882 0.042060
O O10 0.611369 0.780574 0.026746
O O11 0.934223 0.124933 0.455056
O O12 0.143966 0.663201 0.732405
O O13 0.317955 0.578382 0.102932
O O14 0.183395 0.405794 0.776201
O O15 0.500000 0.500000 0.500000
O O16 0.345765 0.355211 0.647849
O O17 0.500000 0.500000 0.000000
#
# Coordination Sequence:
#
# PCOD9017218 Si02
#       8
#     2   2   2   2   2   2   2   2
#     4  12  27  49  70 106 154 191 244 297 363 439
#     4  12  24  46  75 111 142 189 245 305 359 437
#     4  12  24  49  77 107 144 187 250 308 355 429
#     4  12  27  45  75 109 146 192 237 305 376 424
#     4  11  24  49  69 105 148 191 245 302 355 437
#     4  12  28  48  74 107 152 193 241 302 367 434
#     4  11  21  39  72 107 136 185 246 295 360 418
#     4  10  21  42  72 107 141 186 242 306 350 431
#
# _framework density 26.188665
#
# number of rings (size 3 to 8) (size 9 to 14) (size 15 to 20)
#    0.000    0.500    3.750    5.250    1.750    2.000 
#    0.000    0.000    0.000    0.000    0.000    0.000 
#    0.000    0.000    0.000    0.000    0.000    0.000 
#
# Total GULP energy -89460.576948 kJ/mol
# GULP energy per Si atom -5591.286059 kJ/mol
# Density = 2.612906 g / cm^3
# Si number density = 26.188665 Si / 1000 Ang^3
#
#
#
# Elastic Constant Matrix: (Units=GPa)
#
#
# Indices 1 2 3 4 5 6 
#
# 1 81.3001 24.1637 27.5322 -15.5915 -23.9734 6.8317
# 2 24.1637 188.5897 43.7999 -16.1429 -7.3009 6.7954
# 3 27.5322 43.7999 122.8866 1.6369 -24.4373 1.4457
# 4 -15.5915 -16.1429 1.6369 51.2592 12.1141 -2.7419
# 5 -23.9734 -7.3009 -24.4373 12.1141 35.7099 -17.4356
# 6 6.8317 6.7954 1.4457 -2.7419 -17.4356 39.6415
#
#
#
# Elastic Compliance Matrix: (Units=1/GPa)
#
#
# Indices 1 2 3 4 5 6 
#
# 1 0.016351 -0.001285 -0.001263 0.002343 0.010046 0.002029
# 2 -0.001285 0.006201 -0.002533 0.002257 -0.003036 -0.001928
# 3 -0.001263 -0.002533 0.011229 -0.003582 0.009591 0.004213
# 4 0.002343 0.002257 -0.003582 0.023220 -0.009973 -0.003441
# 5 0.010046 -0.003036 0.009591 -0.009973 0.054727 0.021820
# 6 0.002029 -0.001928 0.004213 -0.003441 0.021820 0.034413
#
#
# Mechanical properties :
#
#
# Convention : Reuss Voigt Hill
#
# Bulk Modulus (GPa) = 42.34054 64.86310 53.60182
# Shear Modulus (GPa) = 30.45538 45.14083 37.79810
#
# Velocity S-wave (km/s) = 3.41386 4.15622 3.80320
# Velocity P-wave (km/s) = 5.63399 6.91763 6.30855
#
# Compressibility (1/GPa) = 0.02361803
#
# Stress axis : x y z
#
# Youngs Moduli (GPa) = 61.15863 161.27236 89.05782
#
# Poissons Ratio (x) = 0.20730 0.11244
# Poissons Ratio (y) = 0.07861 0.22560
# Poissons Ratio (z) = 0.07721 0.40853
#
# Static dielectric constant tensor:
#      x y z
#    x 2.211490 0.048180 -0.007510 
#    y 0.048180 2.065920 -0.023730 
#    z -0.007510 -0.023730 1.995340 
# 
# From -- ./inp_files/258198.got.cif
#   From: 2010.05.17/outbox.cif.g08.bks.cpg/sg2_130_cif.got.tgz:258198.got - 2010.06.03 11:33:40.
