data_PCOD9017209
_publ_section_title
;
Structure prediction by ZEFSAII (Michael W. Deem and Ramdas Pophale) SiO2 
 PCOD9017209
Probable space group: P -1
;
_chemical_formula_sum "Si O2"
_cell_formula_units_Z 15
_cell_length_a 17.173594
_cell_length_b 9.037252
_cell_length_c 7.908598
_cell_angle_alpha 110.403430
_cell_angle_beta 86.078664
_cell_angle_gamma 39.648229
_cell_volume 606.558451
_symmetry_space_group_name_H-M "P -1"
_symmetry_group_IT_number 2
_symmetry_cell_setting 'triclinic'
loop_
_space_group_symop_operation_xyz
x,y,z
-x,-y,-z
loop_
_atom_site_type_symbol
_atom_site_label
_atom_site_fract_x
_atom_site_fract_y
_atom_site_fract_z
Si Si1 0.794555 0.184053 0.884574
Si Si2 0.825512 0.770776 0.345603
Si Si3 0.888738 0.082943 0.200635
Si Si4 0.883206 0.530054 0.902635
Si Si5 0.366514 0.648542 0.491282
Si Si6 0.885648 0.426121 0.497566
Si Si7 0.444546 0.266862 0.067243
Si Si8 0.500000 0.500000 0.000000
O O1 0.709060 0.468201 0.909463
O O2 0.663424 0.281703 0.969423
O O3 0.873510 0.115251 0.014198
O O4 0.934307 0.877125 0.637144
O O5 0.837398 0.625068 0.434292
O O6 0.988404 0.564390 0.208204
O O7 0.699267 0.117392 0.544561
O O8 0.785214 0.769833 0.164758
O O9 0.765719 0.163779 0.293058
O O10 0.852343 0.306747 0.391470
O O11 0.032237 0.757927 0.130944
O O12 0.822065 0.578999 0.751001
O O13 0.500000 0.500000 0.500000
O O14 0.413675 0.408010 0.302657
O O15 0.532170 0.256805 0.952001
O O16 0.500000 0.000000 0.000000
#
# Coordination Sequence:
#
# PCOD9017209 Si02
#       8
#     2   2   2   2   2   2   2   1
#     4  10  21  42  72 105 154 194 249 310 382 452
#     4  10  23  44  69 105 143 197 251 302 380 450
#     4  11  23  43  69 107 150 188 242 320 376 451
#     4  10  22  42  67 105 145 193 248 299 379 454
#     4  11  25  50  71 101 150 198 254 314 375 464
#     4  12  23  43  72 112 151 191 245 320 384 453
#     4  10  23  48  74 109 143 199 259 308 383 451
#     4   8  22  44  74 106 148 204 250 314 376 458
#
# _framework density 24.729686000000001
#
# number of rings (size 3 to 8) (size 9 to 14) (size 15 to 20)
#    0.800    0.800    1.333    3.600    0.000    1.067 
#    4.800    2.667    0.000    0.000    0.000    0.000 
#    0.000    0.000    0.000    0.000    0.000    0.000 
#
# Total GULP energy -83616.470090 kJ/mol
# GULP energy per Si atom -5574.431339 kJ/mol
# Density = 2.467340 g / cm^3
# Si number density = 24.729686 Si / 1000 Ang^3
#
#
#
# Elastic Constant Matrix: (Units=GPa)
#
#
# Indices 1 2 3 4 5 6 
#
# 1 139.6490 71.2168 34.8335 2.2325 6.2873 2.2934
# 2 71.2168 145.1340 48.4067 9.5985 24.4476 22.8709
# 3 34.8335 48.4067 80.8445 -17.7567 43.9114 -0.4922
# 4 2.2325 9.5985 -17.7567 45.3825 -1.2132 10.2858
# 5 6.2873 24.4476 43.9114 -1.2132 40.6158 2.0299
# 6 2.2934 22.8709 -0.4922 10.2858 2.0299 58.4212
#
#
#
# Elastic Compliance Matrix: (Units=1/GPa)
#
#
# Indices 1 2 3 4 5 6 
#
# 1 0.010870 -0.004400 -0.007392 -0.002574 0.008812 0.001381
# 2 -0.004400 0.011991 -0.006460 -0.003950 0.000525 -0.003899
# 3 -0.007392 -0.006460 0.050294 0.019773 -0.048824 0.001458
# 4 -0.002574 -0.003950 0.019773 0.030951 -0.017525 -0.003026
# 5 0.008812 0.000525 -0.048824 -0.017525 0.075228 -0.000491
# 6 0.001381 -0.003899 0.001458 -0.003026 -0.000491 0.019151
#
#
# Mechanical properties :
#
#
# Convention : Reuss Voigt Hill
#
# Bulk Modulus (GPa) = 27.28537 74.94905 51.11721
# Shear Modulus (GPa) = 20.22592 42.96193 31.59392
#
# Velocity S-wave (km/s) = 2.86296 4.17257 3.57819
# Velocity P-wave (km/s) = 4.68894 7.32031 6.14707
#
# Compressibility (1/GPa) = 0.03664968
#
# Stress axis : x y z
#
# Youngs Moduli (GPa) = 91.99233 83.39374 19.88324
#
# Poissons Ratio (x) = 0.36695 0.14699
# Poissons Ratio (y) = 0.40479 0.12845
# Poissons Ratio (z) = 0.68005 0.53874
#
# Static dielectric constant tensor:
#      x y z
#    x 2.031720 0.059000 -0.086110 
#    y 0.059000 1.939740 -0.065930 
#    z -0.086110 -0.065930 2.123890 
# 
# From -- ./inp_files/326454.got.cif
#   From: 2010.05.17/outbox.cif.g08.bks.cpg/sg2_164_cif.got.tgz:326454.got - 2010.06.03 11:33:40.
