data_PCOD9017029
_publ_section_title
;
Structure prediction by ZEFSAII (Michael W. Deem and Ramdas Pophale) SiO2 
 PCOD9017029
Probable space group: P -1
;
_chemical_formula_sum "Si O2"
_cell_formula_units_Z 16
_cell_length_a 20.027593
_cell_length_b 12.468056
_cell_length_c 16.942784
_cell_angle_alpha 30.779642
_cell_angle_beta 19.035251
_cell_angle_gamma 30.531453
_cell_volume 674.756045
_symmetry_space_group_name_H-M "P -1"
_symmetry_group_IT_number 2
_symmetry_cell_setting 'triclinic'
loop_
_space_group_symop_operation_xyz
x,y,z
-x,-y,-z
loop_
_atom_site_type_symbol
_atom_site_label
_atom_site_fract_x
_atom_site_fract_y
_atom_site_fract_z
Si Si1 0.158676 0.213301 0.868866
Si Si2 0.092571 0.749368 0.032891
Si Si3 0.085962 0.563247 0.480837
Si Si4 0.547482 0.500676 0.636065
Si Si5 0.166562 0.017311 0.573271
Si Si6 0.533743 0.874776 0.124502
Si Si7 0.709920 0.187597 0.802814
Si Si8 0.538156 0.836010 0.743139
O O1 0.055647 0.278982 0.856822
O O2 0.263094 0.398866 0.663507
O O3 0.352988 0.985421 0.800202
O O4 0.969681 0.153640 0.165280
O O5 0.067144 0.579619 0.234711
O O6 0.341479 0.688141 0.776053
O O7 0.000000 0.000000 0.000000
O O8 0.096076 0.729491 0.435808
O O9 0.312894 0.384820 0.322676
O O10 0.992408 0.735422 0.407902
O O11 0.462101 0.370881 0.745300
O O12 0.617405 0.341244 0.734521
O O13 0.310193 0.020585 0.486965
O O14 0.328588 0.972744 0.347332
O O15 0.500000 0.000000 0.000000
O O16 0.726943 0.941312 0.910025
O O17 0.567343 0.215108 0.024774
#
# Coordination Sequence:
#
# PCOD9017029 Si02
#       8
#     2   2   2   2   2   2   2   2
#     4  12  25  43  65 101 136 173 223 262 334 403
#     4  12  27  44  67 101 135 176 222 269 326 405
#     4  12  22  42  70 100 130 178 224 268 334 396
#     4  11  24  47  68  93 137 178 215 276 339 375
#     4  11  24  43  69 101 132 171 228 271 326 392
#     4   9  21  45  70  95 131 172 220 283 326 379
#     4  10  21  42  70  97 126 175 222 271 330 386
#     4  11  24  42  67  98 142 171 212 283 331 386
#
# _framework density 23.712274000000001
#
# number of rings (size 3 to 8) (size 9 to 14) (size 15 to 20)
#    0.000    1.000    2.500    5.250    1.750    1.500 
#    2.250    7.500    0.000    0.000    0.000    0.000 
#    0.000    0.000    0.000    0.000    0.000    0.000 
#
# Total GULP energy -89400.595729 kJ/mol
# GULP energy per Si atom -5587.537233 kJ/mol
# Density = 2.365830 g / cm^3
# Si number density = 23.712274 Si / 1000 Ang^3
#
#
#
# Elastic Constant Matrix: (Units=GPa)
#
#
# Indices 1 2 3 4 5 6 
#
# 1 56.4286 0.1299 15.5139 -5.8234 -2.7199 -4.7493
# 2 0.1299 23.7681 25.7638 -15.9849 5.2855 2.0519
# 3 15.5139 25.7638 121.6656 -45.6967 -5.1358 6.1083
# 4 -5.8234 -15.9849 -45.6967 37.7328 -2.4702 -8.9010
# 5 -2.7199 5.2855 -5.1358 -2.4702 34.0732 -8.1235
# 6 -4.7493 2.0519 6.1083 -8.9010 -8.1235 37.8932
#
#
#
# Elastic Compliance Matrix: (Units=1/GPa)
#
#
# Indices 1 2 3 4 5 6 
#
# 1 0.018983 0.003419 -0.002301 0.002529 0.001659 0.003515
# 2 0.003419 0.064676 -0.007830 0.017900 -0.009560 0.000344
# 3 -0.002301 -0.007830 0.017006 0.017949 0.005564 0.002803
# 4 0.002529 0.017900 0.017949 0.059523 0.007307 0.012003
# 5 0.001659 -0.009560 0.005564 0.007307 0.034462 0.008933
# 6 0.003515 0.000344 0.002803 0.012003 0.008933 0.031095
#
#
# Mechanical properties :
#
#
# Convention : Reuss Voigt Hill
#
# Bulk Modulus (GPa) = 11.46226 31.63084 21.54655
# Shear Modulus (GPa) = 18.63938 32.63684 25.63811
#
# Velocity S-wave (km/s) = 2.80673 3.71397 3.29175
# Velocity P-wave (km/s) = 3.91765 5.63559 4.85324
#
# Compressibility (1/GPa) = 0.08724285
#
# Stress axis : x y z
#
# Youngs Moduli (GPa) = 52.67847 15.46159 58.80164
#
# Poissons Ratio (x) = -0.05286 0.13531
# Poissons Ratio (y) = -0.18011 0.46039
# Poissons Ratio (z) = 0.12122 0.12106
#
# Static dielectric constant tensor:
#      x y z
#    x 1.935370 0.018170 -0.021700 
#    y 0.018170 1.879130 -0.037700 
#    z -0.021700 -0.037700 1.958700 
# 
# From -- ./inp_files/577895.got.cif
#   From: 2010.05.17/outbox.cif.g08.bks.cpg/sg2_289_cif.got.tgz:577895.got - 2010.06.03 11:33:40.
