data_PCOD9017875
_publ_section_title
;
Structure prediction by ZEFSAII (Michael W. Deem and Ramdas Pophale) SiO2 
 PCOD9017875
Probable space group: P -1
;
_chemical_formula_sum "Si O2"
_cell_formula_units_Z 16
_cell_length_a 12.821789
_cell_length_b 5.499289
_cell_length_c 24.295192
_cell_angle_alpha 53.129483
_cell_angle_beta 27.678452
_cell_angle_gamma 59.103166
_cell_volume 635.849368
_symmetry_space_group_name_H-M "P -1"
_symmetry_group_IT_number 2
_symmetry_cell_setting 'triclinic'
loop_
_space_group_symop_operation_xyz
x,y,z
-x,-y,-z
loop_
_atom_site_type_symbol
_atom_site_label
_atom_site_fract_x
_atom_site_fract_y
_atom_site_fract_z
Si Si1 0.646788 0.412195 0.333096
Si Si2 0.081400 0.152344 0.498127
Si Si3 0.238157 0.284342 0.602591
Si Si4 0.380404 0.307614 0.033399
Si Si5 0.388785 0.294192 0.912580
Si Si6 0.967368 0.840106 0.172414
Si Si7 0.408570 0.688540 0.745187
Si Si8 0.107565 0.927658 0.290420
O O1 0.462520 0.488458 0.455529
O O2 0.884900 0.592842 0.200087
O O3 0.548495 0.476651 0.310395
O O4 0.684164 0.058635 0.375175
O O5 0.350791 0.158506 0.372322
O O6 0.000000 0.500000 0.500000
O O7 0.982939 0.972482 0.622087
O O8 0.000000 0.000000 0.500000
O O9 0.089455 0.325142 0.720445
O O10 0.083346 0.285437 0.620542
O O11 0.367104 0.462789 0.958894
O O12 0.500000 0.500000 0.000000
O O13 0.500000 0.000000 0.000000
O O14 0.159499 0.177250 0.185103
O O15 0.331384 0.485976 0.860214
O O16 0.649777 0.213330 0.794950
O O17 0.212135 0.002909 0.036227
O O18 0.789471 0.095617 0.207932
#
# Coordination Sequence:
#
# PCOD9017875 Si02
#       8
#     2   2   2   2   2   2   2   2
#     4  10  23  43  68  99 141 191 246 300 369 439
#     4  12  28  49  76 112 151 195 246 310 374 446
#     4  10  21  43  67 103 141 183 245 308 368 435
#     4  10  24  44  68 102 144 191 237 297 363 434
#     4  11  24  46  69 107 149 193 249 303 372 445
#     4  11  24  44  70 102 143 198 244 299 365 448
#     4  11  25  45  68 102 148 191 250 300 368 440
#     4  11  23  45  75 104 148 191 247 309 377 439
#
# _framework density 25.163191999999999
#
# number of rings (size 3 to 8) (size 9 to 14) (size 15 to 20)
#    0.000    1.250    3.750    0.750    3.500    2.500 
#    4.500    0.000    0.000    0.000    0.000    0.000 
#    0.000    0.000    0.000    0.000    0.000    0.000 
#
# Total GULP energy -89435.166132 kJ/mol
# GULP energy per Si atom -5589.697883 kJ/mol
# Density = 2.510592 g / cm^3
# Si number density = 25.163192 Si / 1000 Ang^3
#
#
#
# Elastic Constant Matrix: (Units=GPa)
#
#
# Indices 1 2 3 4 5 6 
#
# 1 205.6761 47.1369 76.0709 -2.0378 9.8187 20.8659
# 2 47.1369 74.0225 31.8197 10.1333 12.1101 6.1439
# 3 76.0709 31.8197 148.7170 7.5959 11.5847 11.0834
# 4 -2.0378 10.1333 7.5959 25.1772 2.1527 -6.2804
# 5 9.8187 12.1101 11.5847 2.1527 45.7989 -4.7950
# 6 20.8659 6.1439 11.0834 -6.2804 -4.7950 46.9039
#
#
#
# Elastic Compliance Matrix: (Units=1/GPa)
#
#
# Indices 1 2 3 4 5 6 
#
# 1 0.006849 -0.003322 -0.002775 0.002328 -0.000172 -0.001662
# 2 -0.003322 0.017934 -0.001351 -0.007246 -0.003545 -0.001885
# 3 -0.002775 -0.001351 0.008741 -0.002489 -0.001259 -0.001116
# 4 0.002328 -0.007246 -0.002489 0.045171 0.000615 0.006613
# 5 -0.000172 -0.003545 -0.001259 0.000615 0.023446 0.003317
# 6 -0.001662 -0.001885 -0.001116 0.006613 0.003317 0.023795
#
#
# Mechanical properties :
#
#
# Convention : Reuss Voigt Hill
#
# Bulk Modulus (GPa) = 53.67971 82.05229 67.86600
# Shear Modulus (GPa) = 34.00436 41.80188 37.90312
#
# Velocity S-wave (km/s) = 3.68006 4.08024 3.88531
# Velocity P-wave (km/s) = 6.27982 7.40788 6.86705
#
# Compressibility (1/GPa) = 0.01862901
#
# Stress axis : x y z
#
# Youngs Moduli (GPa) = 145.99968 55.76052 114.40521
#
# Poissons Ratio (x) = 0.18522 0.31742
# Poissons Ratio (y) = 0.48496 0.15460
# Poissons Ratio (z) = 0.40508 0.07535
#
# Static dielectric constant tensor:
#      x y z
#    x 2.002510 -0.025470 -0.008270 
#    y -0.025470 2.169520 0.014890 
#    z -0.008270 0.014890 1.982460 
# 
# From -- ./inp_files/609143.got.cif
#   From: 2010.05.17/outbox.cif.g08.bks.cpg/sg2_305_cif.got.tgz:609143.got - 2010.06.03 11:33:40.
