data_PCOD9017950
_publ_section_title
;
Structure prediction by ZEFSAII (Michael W. Deem and Ramdas Pophale) SiO2 
 PCOD9017950
Probable space group: P -1
;
_chemical_formula_sum "Si O2"
_cell_formula_units_Z 16
_cell_length_a 9.475822
_cell_length_b 11.573553
_cell_length_c 11.717488
_cell_angle_alpha 47.814511
_cell_angle_beta 56.371281
_cell_angle_gamma 40.606762
_cell_volume 617.160097
_symmetry_space_group_name_H-M "P -1"
_symmetry_group_IT_number 2
_symmetry_cell_setting 'triclinic'
loop_
_space_group_symop_operation_xyz
x,y,z
-x,-y,-z
loop_
_atom_site_type_symbol
_atom_site_label
_atom_site_fract_x
_atom_site_fract_y
_atom_site_fract_z
Si Si1 0.421139 0.123273 0.571024
Si Si2 0.693779 0.556046 0.106176
Si Si3 0.121639 0.431490 0.336635
Si Si4 0.983997 0.988188 0.879330
Si Si5 0.848861 0.300119 0.549838
Si Si6 0.877730 0.716693 0.062660
Si Si7 0.374428 0.707573 0.536836
Si Si8 0.557428 0.225992 0.140137
O O1 0.209543 0.348019 0.481262
O O2 0.601517 0.138357 0.521861
O O3 0.500000 0.000000 0.500000
O O4 0.394322 0.987008 0.750879
O O5 0.686932 0.400602 0.282631
O O6 0.707212 0.695217 0.095964
O O7 0.907190 0.436955 0.009430
O O8 0.493717 0.680843 0.024330
O O9 0.938403 0.640123 0.217714
O O10 0.340499 0.364859 0.220695
O O11 0.035947 0.309323 0.421340
O O12 0.242364 0.812983 0.856701
O O13 0.846956 0.919954 0.943052
O O14 0.909501 0.186899 0.717161
O O15 0.000000 0.000000 0.000000
O O16 0.621083 0.524648 0.507328
O O17 0.797663 0.194813 0.552804
#
# Coordination Sequence:
#
# PCOD9017950 Si02
#       8
#     2   2   2   2   2   2   2   2
#     4  10  23  41  67 102 129 173 221 277 335 393
#     4  10  22  44  67 100 133 175 222 278 340 387
#     4  10  21  43  67  95 136 172 227 273 328 400
#     4  12  27  45  66 100 138 179 223 275 339 401
#     4  11  25  46  66  99 134 181 225 272 340 401
#     4  10  24  41  70  98 133 176 225 277 330 402
#     4  11  25  44  71  96 138 177 224 278 334 404
#     4  10  23  41  65 101 136 173 221 274 335 391
#
# _framework density 25.9252
#
# number of rings (size 3 to 8) (size 9 to 14) (size 15 to 20)
#    0.000    1.500    2.500    0.750    8.750    2.500 
#    0.000    4.375    0.000    0.000    0.000    0.000 
#    0.000    0.000    0.000    0.000    0.000    0.000 
#
# Total GULP energy -89510.995953 kJ/mol
# GULP energy per Si atom -5594.437247 kJ/mol
# Density = 2.586619 g / cm^3
# Si number density = 25.925200 Si / 1000 Ang^3
#
#
#
# Elastic Constant Matrix: (Units=GPa)
#
#
# Indices 1 2 3 4 5 6 
#
# 1 135.0276 0.8784 12.3293 6.6117 -19.0832 13.6247
# 2 0.8784 40.3689 -6.9039 1.0606 -8.7644 3.7185
# 3 12.3293 -6.9039 111.4773 -7.7159 4.8066 0.9129
# 4 6.6117 1.0606 -7.7159 17.0788 7.5708 0.0332
# 5 -19.0832 -8.7644 4.8066 7.5708 36.3123 -15.6229
# 6 13.6247 3.7185 0.9129 0.0332 -15.6229 40.2887
#
#
#
# Elastic Compliance Matrix: (Units=1/GPa)
#
#
# Indices 1 2 3 4 5 6 
#
# 1 0.008858 0.001146 -0.001669 -0.007080 0.006377 -0.000585
# 2 0.001146 0.026781 0.000802 -0.005388 0.008218 0.000314
# 3 -0.001669 0.000802 0.009857 0.006805 -0.003954 -0.001272
# 4 -0.007080 -0.005388 0.006805 0.075645 -0.024656 -0.006886
# 5 0.006377 0.008218 -0.003954 -0.024656 0.044806 0.014569
# 6 -0.000585 0.000314 -0.001272 -0.006886 0.014569 0.030674
#
#
# Mechanical properties :
#
#
# Convention : Reuss Voigt Hill
#
# Bulk Modulus (GPa) = 21.71384 33.27570 27.49477
# Shear Modulus (GPa) = 23.65044 37.44063 30.54554
#
# Velocity S-wave (km/s) = 3.02364 3.80436 3.43624
# Velocity P-wave (km/s) = 4.53691 5.67104 5.13538
#
# Compressibility (1/GPa) = 0.04605358
#
# Stress axis : x y z
#
# Youngs Moduli (GPa) = 112.89522 37.34030 101.45529
#
# Poissons Ratio (x) = -0.04280 0.16932
# Poissons Ratio (y) = -0.12941 -0.08136
# Poissons Ratio (z) = 0.18841 -0.02994
#
# Static dielectric constant tensor:
#      x y z
#    x 2.027990 -0.046530 -0.003330 
#    y -0.046530 2.193740 0.089800 
#    z -0.003330 0.089800 2.026880 
# 
# From -- ./inp_files/392005.got.cif
#   From: 2010.05.17/outbox.cif.g08.bks.cpg/sg2_197_cif.got.tgz:392005.got - 2010.06.03 11:33:40.
