data_PCOD9017358
_publ_section_title
;
Structure prediction by ZEFSAII (Michael W. Deem and Ramdas Pophale) SiO2 
 PCOD9017358
Probable space group: P -1
;
_chemical_formula_sum "Si O2"
_cell_formula_units_Z 14
_cell_length_a 5.576957
_cell_length_b 17.208610
_cell_length_c 16.593220
_cell_angle_alpha 154.353590
_cell_angle_beta 92.873951
_cell_angle_gamma 74.732474
_cell_volume 594.315811
_symmetry_space_group_name_H-M "P -1"
_symmetry_group_IT_number 2
_symmetry_cell_setting 'triclinic'
loop_
_space_group_symop_operation_xyz
x,y,z
-x,-y,-z
loop_
_atom_site_type_symbol
_atom_site_label
_atom_site_fract_x
_atom_site_fract_y
_atom_site_fract_z
Si Si1 0.088274 0.169375 0.639527
Si Si2 0.336301 0.244174 0.202702
Si Si3 0.520633 0.516702 0.918942
Si Si4 0.410264 0.305397 0.582527
Si Si5 0.855581 0.231464 0.253770
Si Si6 0.174268 0.588012 0.406073
Si Si7 0.574755 0.894279 0.270140
O O1 0.158912 0.231120 0.784574
O O2 0.844391 0.353658 0.759443
O O3 0.347903 0.055883 0.479691
O O4 0.000000 0.000000 0.500000
O O5 0.529001 0.312306 0.317001
O O6 0.320188 0.346057 0.210855
O O7 0.016711 0.325078 0.294699
O O8 0.500000 0.000000 0.000000
O O9 0.364500 0.427200 0.780541
O O10 0.500000 0.500000 0.000000
O O11 0.468770 0.739216 0.098007
O O12 0.598167 0.376676 0.602881
O O13 0.113117 0.358281 0.591732
O O14 0.592312 0.052746 0.357666
O O15 0.910376 0.264280 0.377750
O O16 0.000000 0.000000 0.000000
#
# Coordination Sequence:
#
# PCOD9017358 Si02
#       7
#     2   2   2   2   2   2   2
#     4  11  20  42  75  99 133 182 266 317 350 429
#     4  10  21  42  75 106 134 185 244 286 342 443
#     4  12  24  46  77 103 140 204 265 306 361 436
#     4  12  28  47  68 111 155 194 236 305 383 436
#     4  10  21  42  75 104 131 181 243 281 343 440
#     4  12  25  47  71 104 156 185 228 309 371 426
#     4  11  24  44  68 103 142 193 245 314 373 434
#
# _framework density 23.556495999999999
#
# number of rings (size 3 to 8) (size 9 to 14) (size 15 to 20)
#    0.000    0.857    2.857    4.714    0.000    1.143 
#   15.429    0.000    0.000    0.000    0.000    0.000 
#    0.000    0.000    0.000    0.000    0.000    0.000 
#
# Total GULP energy -78105.927661 kJ/mol
# GULP energy per Si atom -5578.994833 kJ/mol
# Density = 2.350288 g / cm^3
# Si number density = 23.556496 Si / 1000 Ang^3
#
#
#
# Elastic Constant Matrix: (Units=GPa)
#
#
# Indices 1 2 3 4 5 6 
#
# 1 172.8601 56.4413 20.3499 2.1061 30.8065 0.9560
# 2 56.4413 102.8432 35.8642 11.9128 18.1571 -0.7503
# 3 20.3499 35.8642 102.7108 19.9629 35.7622 2.1438
# 4 2.1061 11.9128 19.9629 45.6541 4.9519 14.1356
# 5 30.8065 18.1571 35.7622 4.9519 48.5055 0.0934
# 6 0.9560 -0.7503 2.1438 14.1356 0.0934 62.6708
#
#
#
# Elastic Compliance Matrix: (Units=1/GPa)
#
#
# Indices 1 2 3 4 5 6 
#
# 1 0.007717 -0.003983 0.001267 0.000721 -0.004417 -0.000365
# 2 -0.003983 0.013343 -0.003647 -0.001996 0.000426 0.000795
# 3 0.001267 -0.003647 0.015228 -0.004822 -0.010176 0.000519
# 4 0.000721 -0.001996 -0.004822 0.026159 0.001185 -0.005772
# 5 -0.004417 0.000426 -0.010176 0.001185 0.030643 0.000108
# 6 -0.000365 0.000795 0.000519 -0.005772 0.000108 0.017255
#
#
# Mechanical properties :
#
#
# Convention : Reuss Voigt Hill
#
# Bulk Modulus (GPa) = 42.44125 67.08054 54.76090
# Shear Modulus (GPa) = 38.18966 49.08332 43.63649
#
# Velocity S-wave (km/s) = 4.03077 4.56965 4.30864
# Velocity P-wave (km/s) = 6.30228 7.50869 6.93178
#
# Compressibility (1/GPa) = 0.02356198
#
# Stress axis : x y z
#
# Youngs Moduli (GPa) = 129.58475 74.94438 65.66899
#
# Poissons Ratio (x) = 0.29854 -0.08323
# Poissons Ratio (y) = 0.51620 0.23950
# Poissons Ratio (z) = -0.16425 0.27333
#
# Static dielectric constant tensor:
#      x y z
#    x 1.951940 -0.004740 -0.048430 
#    y -0.004740 1.958150 0.008110 
#    z -0.048430 0.008110 1.947940 
# 
# From -- ./inp_files/484646.got.cif
#   From: 2010.05.17/outbox.cif.g08.bks.cpg/sg2_243_cif.got.tgz:484646.got - 2010.06.03 11:33:40.
