data_PCOD9017528
_publ_section_title
;
Structure prediction by ZEFSAII (Michael W. Deem and Ramdas Pophale) SiO2 
 PCOD9017528
Probable space group: P -1
;
_chemical_formula_sum "Si O2"
_cell_formula_units_Z 14
_cell_length_a 19.835156
_cell_length_b 5.346243
_cell_length_c 8.999793
_cell_angle_alpha 78.350379
_cell_angle_beta 37.041787
_cell_angle_gamma 83.640560
_cell_volume 561.008105
_symmetry_space_group_name_H-M "P -1"
_symmetry_group_IT_number 2
_symmetry_cell_setting 'triclinic'
loop_
_space_group_symop_operation_xyz
x,y,z
-x,-y,-z
loop_
_atom_site_type_symbol
_atom_site_label
_atom_site_fract_x
_atom_site_fract_y
_atom_site_fract_z
Si Si1 0.010217 0.041238 0.297719
Si Si2 0.851962 0.427327 0.983481
Si Si3 0.351866 0.717742 0.407447
Si Si4 0.696082 0.481054 0.973576
Si Si5 0.344120 0.183967 0.503499
Si Si6 0.612725 0.917614 0.239879
Si Si7 0.777142 0.914884 0.557090
O O1 0.079921 0.818468 0.135097
O O2 0.067496 0.326981 0.139817
O O3 0.000000 0.000000 0.500000
O O4 0.892405 0.009547 0.420952
O O5 0.752630 0.362924 0.286162
O O6 0.797244 0.489965 0.913946
O O7 0.408903 0.458206 0.325614
O O8 0.301770 0.848396 0.337349
O O9 0.417010 0.957723 0.345651
O O10 0.664459 0.180077 0.043171
O O11 0.606919 0.652701 0.192312
O O12 0.731138 0.658825 0.752482
O O13 0.316150 0.135762 0.729423
O O14 0.236814 0.161622 0.584140
O O15 0.500000 0.000000 0.500000
#
# Coordination Sequence:
#
# PCOD9017528 Si02
#       7
#     2   2   2   2   2   2   2
#     4  12  26  38  62  99 137 170 233 277 296 371
#     4  12  23  41  66  93 133 184 224 263 320 375
#     4  10  22  40  64  89 130 177 219 253 326 387
#     4  12  24  43  73  96 131 177 214 263 348 387
#     4  10  21  43  64  91 131 174 202 273 328 384
#     4  12  25  46  74 102 124 162 223 277 324 410
#     4  10  27  40  67  93 140 176 217 266 328 373
#
# _framework density 24.955075999999998
#
# number of rings (size 3 to 8) (size 9 to 14) (size 15 to 20)
#    0.857    0.000    4.286    2.571    4.000    1.143 
#    0.000    1.429    0.000    0.000    0.000    0.000 
#    0.000    0.000    0.000    0.000    0.000    0.000 
#
# Total GULP energy -78221.765987 kJ/mol
# GULP energy per Si atom -5587.268999 kJ/mol
# Density = 2.489828 g / cm^3
# Si number density = 24.955076 Si / 1000 Ang^3
#
#
#
# Elastic Constant Matrix: (Units=GPa)
#
#
# Indices 1 2 3 4 5 6 
#
# 1 107.2537 22.9570 43.6941 -7.6632 25.4896 3.9217
# 2 22.9570 179.2311 20.9540 -44.5227 7.1378 4.0597
# 3 43.6941 20.9540 85.0368 -30.5506 30.1898 -3.7393
# 4 -7.6632 -44.5227 -30.5506 46.8965 -4.7185 9.3464
# 5 25.4896 7.1378 30.1898 -4.7185 34.0993 -6.1494
# 6 3.9217 4.0597 -3.7393 9.3464 -6.1494 30.4510
#
#
#
# Elastic Compliance Matrix: (Units=1/GPa)
#
#
# Indices 1 2 3 4 5 6 
#
# 1 0.013079 -0.001512 -0.005681 -0.003070 -0.005271 -0.002303
# 2 -0.001512 0.008106 0.003193 0.010078 -0.002746 -0.004142
# 3 -0.005681 0.003193 0.027246 0.019149 -0.018987 -0.006060
# 4 -0.003070 0.010078 0.019149 0.044504 -0.013305 -0.014943
# 5 -0.005271 -0.002746 -0.018987 -0.013305 0.051178 0.013132
# 6 -0.002303 -0.004142 -0.006060 -0.014943 0.013132 0.040183
#
#
# Mechanical properties :
#
#
# Convention : Reuss Voigt Hill
#
# Bulk Modulus (GPa) = 24.73318 60.74800 42.74059
# Shear Modulus (GPa) = 24.29856 41.21713 32.75784
#
# Velocity S-wave (km/s) = 3.12379 4.06846 3.62701
# Velocity P-wave (km/s) = 4.78992 6.81657 5.89105
#
# Compressibility (1/GPa) = 0.04043152
#
# Stress axis : x y z
#
# Youngs Moduli (GPa) = 76.45811 123.35901 36.70274
#
# Poissons Ratio (x) = 0.18648 0.20850
# Poissons Ratio (y) = 0.11558 -0.11718
# Poissons Ratio (z) = 0.43435 -0.39384
#
# Static dielectric constant tensor:
#      x y z
#    x 2.003250 0.013900 0.035220 
#    y 0.013900 2.105850 0.011870 
#    z 0.035220 0.011870 2.031480 
# 
# From -- ./inp_files/340111.got.cif
#   From: 2010.05.17/outbox.cif.g08.bks.cpg/sg2_171_cif.got.tgz:340111.got - 2010.06.03 11:33:40.
