data_PCOD9017970
_publ_section_title
;
Structure prediction by ZEFSAII (Michael W. Deem and Ramdas Pophale) SiO2 
 PCOD9017970
Probable space group: P -1
;
_chemical_formula_sum "Si O2"
_cell_formula_units_Z 15
_cell_length_a 18.853807
_cell_length_b 10.011144
_cell_length_c 6.376054
_cell_angle_alpha 111.466099
_cell_angle_beta 73.392718
_cell_angle_gamma 140.073441
_cell_volume 718.787813
_symmetry_space_group_name_H-M "P -1"
_symmetry_group_IT_number 2
_symmetry_cell_setting 'triclinic'
loop_
_space_group_symop_operation_xyz
x,y,z
-x,-y,-z
loop_
_atom_site_type_symbol
_atom_site_label
_atom_site_fract_x
_atom_site_fract_y
_atom_site_fract_z
Si Si1 0.413689 0.068170 0.961444
Si Si2 0.160276 0.654085 0.987723
Si Si3 0.695225 0.600995 0.708990
Si Si4 0.782183 0.554213 0.995177
Si Si5 0.990719 0.371901 0.618982
Si Si6 0.099379 0.064287 0.574278
Si Si7 0.500000 0.500000 0.000000
Si Si8 0.566251 0.220825 0.281912
O O1 0.467091 0.285664 0.947078
O O2 0.458573 0.119114 0.191618
O O3 0.282617 0.881504 0.964683
O O4 0.447359 0.966613 0.763236
O O5 0.093415 0.684917 0.170337
O O6 0.165173 0.526975 0.071623
O O7 0.102848 0.518187 0.743448
O O8 0.793244 0.796640 0.586647
O O9 0.607391 0.384320 0.521126
O O10 0.752309 0.573397 0.806546
O O11 0.627056 0.628843 0.894576
O O12 0.859937 0.779660 0.178204
O O13 0.666677 0.374120 0.116343
O O14 0.000000 0.500000 0.500000
O O15 0.946004 0.156410 0.451359
O O16 0.000000 0.000000 0.500000
#
# Coordination Sequence:
#
# PCOD9017970 Si02
#       8
#     2   2   2   2   2   2   1   2
#     4  10  21  43  67  96 133 173 221 282 321 408
#     4  10  23  43  66  95 136 171 224 279 331 398
#     4  11  25  43  70 101 139 178 222 281 339 400
#     4  10  21  43  70  97 129 179 229 267 335 408
#     4  11  25  44  64  98 133 175 219 279 341 397
#     4  11  24  44  70 101 135 174 227 283 334 394
#     4  12  24  42  66 102 136 174 226 270 348 392
#     4   9  21  44  65  95 134 172 225 270 331 400
#
# _framework density 20.868471
#
# number of rings (size 3 to 8) (size 9 to 14) (size 15 to 20)
#    0.000    1.600    2.667    0.800    1.867    4.800 
#    4.800    0.000    0.000    0.000    0.000    0.000 
#    0.000    0.000    0.000    0.000    0.000    0.000 
#
# Total GULP energy -83573.477120 kJ/mol
# GULP energy per Si atom -5571.565141 kJ/mol
# Density = 2.082097 g / cm^3
# Si number density = 20.868471 Si / 1000 Ang^3
#
#
#
# Elastic Constant Matrix: (Units=GPa)
#
#
# Indices 1 2 3 4 5 6 
#
# 1 82.4864 45.0795 16.8024 9.5763 4.9439 8.8273
# 2 45.0795 143.9600 18.6243 17.1466 -6.1046 -17.0904
# 3 16.8024 18.6243 29.0702 11.1990 9.9873 5.8531
# 4 9.5763 17.1466 11.1990 24.8675 0.9832 -0.2034
# 5 4.9439 -6.1046 9.9873 0.9832 20.0647 5.6573
# 6 8.8273 -17.0904 5.8531 -0.2034 5.6573 44.1332
#
#
#
# Elastic Compliance Matrix: (Units=1/GPa)
#
#
# Indices 1 2 3 4 5 6 
#
# 1 0.016507 -0.005138 -0.004272 -0.000839 -0.002210 -0.004445
# 2 -0.005138 0.010497 -0.005742 -0.002871 0.006029 0.005068
# 3 -0.004272 -0.005742 0.058726 -0.019810 -0.027335 -0.005745
# 4 -0.000839 -0.002871 -0.019810 0.051194 0.006375 0.001102
# 5 -0.002210 0.006029 -0.027335 0.006375 0.066087 -0.002040
# 6 -0.004445 0.005068 -0.005745 0.001102 -0.002040 0.026539
#
#
# Mechanical properties :
#
#
# Convention : Reuss Voigt Hill
#
# Bulk Modulus (GPa) = 18.04133 46.28098 32.16116
# Shear Modulus (GPa) = 17.96441 29.48043 23.72242
#
# Velocity S-wave (km/s) = 2.93719 3.76264 3.37524
# Velocity P-wave (km/s) = 4.49075 6.41110 5.53485
#
# Compressibility (1/GPa) = 0.05542828
#
# Stress axis : x y z
#
# Youngs Moduli (GPa) = 60.58124 95.26322 17.02815
#
# Poissons Ratio (x) = 0.48944 0.07274
# Poissons Ratio (y) = 0.31125 0.09777
# Poissons Ratio (z) = 0.25879 0.54696
#
# Static dielectric constant tensor:
#      x y z
#    x 1.741660 0.005910 0.006280 
#    y 0.005910 1.711410 -0.003050 
#    z 0.006280 -0.003050 1.734850 
# 
# From -- ./inp_files/105603.got.cif
#   From: 2010.05.17/outbox.cif.g08.bks.cpg/sg2_53_cif.got.tgz:105603.got - 2010.06.03 11:33:40.
