data_PCOD9017019
_publ_section_title
;
Structure prediction by ZEFSAII (Michael W. Deem and Ramdas Pophale) SiO2 
 PCOD9017019
Probable space group: P -1
;
_chemical_formula_sum "Si O2"
_cell_formula_units_Z 16
_cell_length_a 9.249352
_cell_length_b 16.758769
_cell_length_c 9.286622
_cell_angle_alpha 83.756915
_cell_angle_beta 136.279999
_cell_angle_gamma 123.718148
_cell_volume 712.447134
_symmetry_space_group_name_H-M "P -1"
_symmetry_group_IT_number 2
_symmetry_cell_setting 'triclinic'
loop_
_space_group_symop_operation_xyz
x,y,z
-x,-y,-z
loop_
_atom_site_type_symbol
_atom_site_label
_atom_site_fract_x
_atom_site_fract_y
_atom_site_fract_z
Si Si1 0.798309 0.389673 0.779634
Si Si2 0.114573 0.194263 0.394904
Si Si3 0.347165 0.114588 0.160066
Si Si4 0.771905 0.478360 0.449861
Si Si5 0.018475 0.705363 0.506335
Si Si6 0.177548 0.046134 0.367687
Si Si7 0.728136 0.098080 0.855437
Si Si8 0.108304 0.311694 0.912394
O O1 0.463597 0.296306 0.609163
O O2 0.790777 0.431401 0.614087
O O3 0.950032 0.343490 0.874787
O O4 0.000000 0.500000 0.000000
O O5 0.066510 0.086068 0.384803
O O6 0.016092 0.219235 0.454809
O O7 0.914713 0.167780 0.119596
O O8 0.645065 0.224441 0.290081
O O9 0.309568 0.124885 0.300671
O O10 0.333422 0.013347 0.170274
O O11 0.090691 0.070570 0.876047
O O12 0.000000 0.500000 0.500000
O O13 0.866057 0.596049 0.511197
O O14 0.440098 0.389698 0.179314
O O15 0.893966 0.673837 0.262222
O O16 0.420752 0.059510 0.618053
O O17 0.922921 0.184644 0.848937
#
# Coordination Sequence:
#
# PCOD9017019 Si02
#       8
#     2   2   2   2   2   2   2   2
#     4  12  26  45  73 101 135 184 233 279 340 413
#     4  11  25  43  67  99 141 177 225 288 339 403
#     4  10  23  42  71 102 132 180 233 286 334 408
#     4  12  28  46  71 104 138 182 226 285 346 404
#     4  12  26  46  67 103 148 176 227 290 342 407
#     4  10  21  42  70  96 132 179 232 277 334 404
#     4  11  22  43  75  98 131 182 240 271 337 409
#     4  12  25  47  73 101 139 182 231 280 337 419
#
# _framework density 22.457806000000001
#
# number of rings (size 3 to 8) (size 9 to 14) (size 15 to 20)
#    0.000    0.750    5.000    1.500    3.500    4.000 
#    0.000    1.250    0.000    0.000    0.000    0.000 
#    0.000    0.000    0.000    0.000    0.000    0.000 
#
# Total GULP energy -89538.978470 kJ/mol
# GULP energy per Si atom -5596.186154 kJ/mol
# Density = 2.240669 g / cm^3
# Si number density = 22.457806 Si / 1000 Ang^3
#
#
#
# Elastic Constant Matrix: (Units=GPa)
#
#
# Indices 1 2 3 4 5 6 
#
# 1 81.1647 -5.4829 39.5363 -5.6283 4.5905 -21.2397
# 2 -5.4829 68.0550 16.3173 -1.0275 8.9335 -11.2584
# 3 39.5363 16.3173 158.6746 -0.8773 38.2282 -13.2719
# 4 -5.6283 -1.0275 -0.8773 14.3557 -8.5229 1.9846
# 5 4.5905 8.9335 38.2282 -8.5229 30.8369 8.9986
# 6 -21.2397 -11.2584 -13.2719 1.9846 8.9986 39.5488
#
#
#
# Elastic Compliance Matrix: (Units=1/GPa)
#
#
# Indices 1 2 3 4 5 6 
#
# 1 0.017153 0.003787 -0.004031 0.005850 0.000472 0.008536
# 2 0.003787 0.017860 0.000657 -0.005052 -0.010887 0.010069
# 3 -0.004031 0.000657 0.013408 -0.015549 -0.023001 0.008536
# 4 0.005850 -0.005052 -0.015549 0.106639 0.055623 -0.021522
# 5 0.000472 -0.010887 -0.023001 0.055623 0.089221 -0.033656
# 6 0.008536 0.010069 0.008536 -0.021522 -0.033656 0.044338
#
#
# Mechanical properties :
#
#
# Convention : Reuss Voigt Hill
#
# Bulk Modulus (GPa) = 20.30566 45.40395 32.85480
# Shear Modulus (GPa) = 16.43607 34.11652 25.27629
#
# Velocity S-wave (km/s) = 2.70823 3.90184 3.35849
# Velocity P-wave (km/s) = 4.34059 6.36871 5.44982
#
# Compressibility (1/GPa) = 0.04924736
#
# Stress axis : x y z
#
# Youngs Moduli (GPa) = 58.30021 55.99062 74.58025
#
# Poissons Ratio (x) = -0.21203 0.30061
# Poissons Ratio (y) = -0.22077 -0.04900
# Poissons Ratio (z) = 0.23499 -0.03678
#
# Static dielectric constant tensor:
#      x y z
#    x 2.388250 -0.035750 0.041400 
#    y -0.035750 1.845050 0.006670 
#    z 0.041400 0.006670 1.840490 
# 
# From -- ./inp_files/217746.got.cif
#   From: 2010.05.17/outbox.cif.g08.bks.cpg/sg2_109_cif.got.tgz:217746.got - 2010.06.03 11:33:40.
