data_PCOD9017287
_publ_section_title
;
Structure prediction by ZEFSAII (Michael W. Deem and Ramdas Pophale) SiO2 
 PCOD9017287
Probable space group: P -1
;
_chemical_formula_sum "Si O2"
_cell_formula_units_Z 14
_cell_length_a 9.221966
_cell_length_b 9.547291
_cell_length_c 8.889378
_cell_angle_alpha 48.924167
_cell_angle_beta 118.199813
_cell_angle_gamma 106.287870
_cell_volume 519.441641
_symmetry_space_group_name_H-M "P -1"
_symmetry_group_IT_number 2
_symmetry_cell_setting 'triclinic'
loop_
_space_group_symop_operation_xyz
x,y,z
-x,-y,-z
loop_
_atom_site_type_symbol
_atom_site_label
_atom_site_fract_x
_atom_site_fract_y
_atom_site_fract_z
Si Si1 0.874984 0.381024 0.117469
Si Si2 0.612115 0.865870 0.752812
Si Si3 0.160637 0.093247 0.403112
Si Si4 0.834715 0.108016 0.885235
Si Si5 0.219599 0.688510 0.558768
Si Si6 0.508261 0.599238 0.148625
Si Si7 0.671432 0.900968 0.199809
O O1 0.851784 0.426979 0.253151
O O2 0.984021 0.183336 0.300831
O O3 0.691303 0.386095 0.946690
O O4 0.000000 0.500000 0.000000
O O5 0.684572 0.011309 0.801460
O O6 0.405928 0.605200 0.683309
O O7 0.500000 0.000000 0.500000
O O8 0.536399 0.716346 0.928879
O O9 0.241161 0.215717 0.223254
O O10 0.277968 0.104170 0.598492
O O11 0.182958 0.892341 0.472790
O O12 0.845803 0.296272 0.657302
O O13 0.801419 0.033240 0.089102
O O14 0.000000 0.000000 0.000000
O O15 0.629384 0.696177 0.260898
O O16 0.500000 0.000000 0.000000
#
# Coordination Sequence:
#
# PCOD9017287 Si02
#       7
#     2   2   2   2   2   2   2
#     4  12  26  43  71 110 144 182 242 308 355 413
#     4  10  21  42  73 103 139 191 240 282 352 445
#     4  11  24  46  75 110 141 182 240 303 360 421
#     4  10  22  42  69 101 140 187 235 287 356 431
#     4  11  24  47  76 105 141 192 241 290 356 441
#     4  11  25  48  74 105 145 191 241 293 358 437
#     4  11  24  44  71 106 144 185 234 295 359 424
#
# _framework density 26.952019
#
# number of rings (size 3 to 8) (size 9 to 14) (size 15 to 20)
#    0.000    1.143    0.000    6.857    0.000    6.857 
#    0.000   15.000    0.000    1.714    0.000    0.000 
#    0.000    0.000    0.000    0.000    0.000    0.000 
#
# Total GULP energy -78044.821328 kJ/mol
# GULP energy per Si atom -5574.630095 kJ/mol
# Density = 2.689068 g / cm^3
# Si number density = 26.952019 Si / 1000 Ang^3
#
#
#
# Elastic Constant Matrix: (Units=GPa)
#
#
# Indices 1 2 3 4 5 6 
#
# 1 196.8366 20.4566 44.2354 -17.6160 6.0292 20.7843
# 2 20.4566 90.9671 52.2495 13.5733 -2.5106 -13.4425
# 3 44.2354 52.2495 140.6704 -3.7535 6.4894 7.1580
# 4 -17.6160 13.5733 -3.7535 44.4090 -3.6435 -0.4221
# 5 6.0292 -2.5106 6.4894 -3.6435 77.4158 -5.6925
# 6 20.7843 -13.4425 7.1580 -0.4221 -5.6925 35.7570
#
#
#
# Elastic Compliance Matrix: (Units=1/GPa)
#
#
# Indices 1 2 3 4 5 6 
#
# 1 0.006212 -0.001951 -0.000907 0.002891 -0.000646 -0.004231
# 2 -0.001951 0.017650 -0.006665 -0.006507 0.001660 0.009291
# 3 -0.000907 -0.006665 0.010202 0.002402 -0.001195 -0.004183
# 4 0.002891 -0.006507 0.002402 0.025838 0.000265 -0.004260
# 5 -0.000646 0.001660 -0.001195 0.000265 0.013382 0.003372
# 6 -0.004231 0.009291 -0.004183 -0.004260 0.003372 0.035243
#
#
# Mechanical properties :
#
#
# Convention : Reuss Voigt Hill
#
# Bulk Modulus (GPa) = 66.58497 73.59524 70.09010
# Shear Modulus (GPa) = 37.71380 52.28519 44.99950
#
# Velocity S-wave (km/s) = 3.74477 4.40925 4.09053
# Velocity P-wave (km/s) = 6.59215 7.29981 6.95499
#
# Compressibility (1/GPa) = 0.01501840
#
# Stress axis : x y z
#
# Youngs Moduli (GPa) = 160.97537 56.65821 98.02292
#
# Poissons Ratio (x) = 0.11052 0.08888
# Poissons Ratio (y) = 0.31400 0.65335
# Poissons Ratio (z) = 0.14596 0.37764
#
# Static dielectric constant tensor:
#      x y z
#    x 2.132780 0.113030 -0.217050 
#    y 0.113030 1.161530 0.254730 
#    z -0.217050 0.254730 2.041000 
# 
# From -- ./inp_files/430849.got.cif
#   From: 2010.05.17/outbox.cif.g08.bks.cpg/sg2_216_cif.got.tgz:430849.got - 2010.06.03 11:33:40.
