data_PCOD9017864
_publ_section_title
;
Structure prediction by ZEFSAII (Michael W. Deem and Ramdas Pophale) SiO2 
 PCOD9017864
Probable space group: P -1
;
_chemical_formula_sum "Si O2"
_cell_formula_units_Z 13
_cell_length_a 6.782719
_cell_length_b 16.367092
_cell_length_c 10.081328
_cell_angle_alpha 42.344670
_cell_angle_beta 124.902325
_cell_angle_gamma 130.348574
_cell_volume 564.886056
_symmetry_space_group_name_H-M "P -1"
_symmetry_group_IT_number 2
_symmetry_cell_setting 'triclinic'
loop_
_space_group_symop_operation_xyz
x,y,z
-x,-y,-z
loop_
_atom_site_type_symbol
_atom_site_label
_atom_site_fract_x
_atom_site_fract_y
_atom_site_fract_z
Si Si1 0.459167 0.830724 0.206882
Si Si2 0.650253 0.657064 0.912147
Si Si3 0.056121 0.574277 0.295890
Si Si4 0.500000 0.000000 0.500000
Si Si5 0.093804 0.612043 0.789343
Si Si6 0.739085 0.028223 0.853660
Si Si7 0.925385 0.833540 0.553001
O O1 0.351837 0.682130 0.288604
O O2 0.247640 0.841961 0.216704
O O3 0.721707 0.870089 0.346764
O O4 0.516749 0.919325 0.991096
O O5 0.410726 0.691273 0.829511
O O6 0.792888 0.759764 0.727240
O O7 0.500000 0.500000 0.000000
O O8 0.869032 0.651957 0.101649
O O9 0.000000 0.500000 0.500000
O O10 0.989920 0.466295 0.285044
O O11 0.659582 0.025847 0.673705
O O12 0.785990 0.050638 0.467283
O O13 0.966366 0.714847 0.634974
O O14 0.000000 0.500000 0.000000
O O15 0.000000 0.000000 0.000000
#
# Coordination Sequence:
#
# PCOD9017864 Si02
#       7
#     2   2   2   1   2   2   2
#     4  11  26  48  72 103 152 184 238 314 364 435
#     4  10  21  43  67 101 144 182 241 300 360 430
#     4  11  24  42  70 106 143 190 229 299 385 420
#     4  12  28  46  78 108 140 202 250 300 374 424
#     4  11  24  45  72 105 143 191 247 296 355 452
#     4  11  26  52  72 107 142 186 249 303 360 439
#     4  12  25  46  73 108 145 193 248 300 363 439
#
# _framework density 23.013491999999999
#
# number of rings (size 3 to 8) (size 9 to 14) (size 15 to 20)
#    0.000    0.923    4.615    2.769    4.308    2.462 
#    0.000    0.000    0.000    0.000    0.000    0.000 
#    0.000    0.000    0.000    0.000    0.000    0.000 
#
# Total GULP energy -72452.221714 kJ/mol
# GULP energy per Si atom -5573.247824 kJ/mol
# Density = 2.296111 g / cm^3
# Si number density = 23.013492 Si / 1000 Ang^3
#
#
#
# Elastic Constant Matrix: (Units=GPa)
#
#
# Indices 1 2 3 4 5 6 
#
# 1 129.0975 19.8445 47.6382 11.0767 0.0917 9.3132
# 2 19.8445 72.8215 32.9239 14.4407 -3.2018 18.6695
# 3 47.6382 32.9239 163.1724 17.9031 -31.1303 1.7524
# 4 11.0767 14.4407 17.9031 36.9567 4.9889 -4.1561
# 5 0.0917 -3.2018 -31.1303 4.9889 52.0112 -4.2868
# 6 9.3132 18.6695 1.7524 -4.1561 -4.2868 42.9145
#
#
#
# Elastic Compliance Matrix: (Units=1/GPa)
#
#
# Indices 1 2 3 4 5 6 
#
# 1 0.009074 -0.000617 -0.002707 -0.001146 -0.001719 -0.001873
# 2 -0.000617 0.018690 -0.002902 -0.006588 -0.000661 -0.008583
# 3 -0.002707 -0.002902 0.008863 -0.002900 0.005554 0.001762
# 4 -0.001146 -0.006588 -0.002900 0.032694 -0.004787 0.005921
# 5 -0.001719 -0.000661 0.005554 -0.004787 0.023161 0.002283
# 6 -0.001873 -0.008583 0.001762 0.005921 0.002283 0.028172
#
#
# Mechanical properties :
#
#
# Convention : Reuss Voigt Hill
#
# Bulk Modulus (GPa) = 41.36346 62.87829 52.12088
# Shear Modulus (GPa) = 35.41955 44.02214 39.72084
#
# Velocity S-wave (km/s) = 3.92736 4.37840 4.15900
# Velocity P-wave (km/s) = 6.21113 7.27614 6.76463
#
# Compressibility (1/GPa) = 0.02417593
#
# Stress axis : x y z
#
# Youngs Moduli (GPa) = 110.19952 53.50387 112.82568
#
# Poissons Ratio (x) = 0.03302 0.30539
# Poissons Ratio (y) = 0.06802 0.32742
# Poissons Ratio (z) = 0.29828 0.15527
#
# Static dielectric constant tensor:
#      x y z
#    x 3.524800 0.530710 1.990070 
#    y 0.530710 2.095870 0.680880 
#    z 1.990070 0.680880 4.149960 
# 
# From -- ./inp_files/137294.got.cif
#   From: 2010.05.17/outbox.cif.g08.bks.cpg/sg2_69_cif.got.tgz:137294.got - 2010.06.03 11:33:40.
