data_PCOD9017083
_publ_section_title
;
Structure prediction by ZEFSAII (Michael W. Deem and Ramdas Pophale) SiO2 
 PCOD9017083
Probable space group: P -1
;
_chemical_formula_sum "Si O2"
_cell_formula_units_Z 10
_cell_length_a 10.809432
_cell_length_b 7.543747
_cell_length_c 7.956958
_cell_angle_alpha 118.994515
_cell_angle_beta 78.036838
_cell_angle_gamma 135.292315
_cell_volume 389.189688
_symmetry_space_group_name_H-M "P -1"
_symmetry_group_IT_number 2
_symmetry_cell_setting 'triclinic'
loop_
_space_group_symop_operation_xyz
x,y,z
-x,-y,-z
loop_
_atom_site_type_symbol
_atom_site_label
_atom_site_fract_x
_atom_site_fract_y
_atom_site_fract_z
Si Si1 0.441725 0.284350 0.767974
Si Si2 0.515235 0.082618 0.224832
Si Si3 0.923330 0.100128 0.179200
Si Si4 0.152001 0.843859 0.127666
Si Si5 0.767894 0.632945 0.584492
O O1 0.585255 0.480372 0.669398
O O2 0.466353 0.080989 0.727005
O O3 0.230472 0.094257 0.725382
O O4 0.500000 0.500000 0.000000
O O5 0.684605 0.425725 0.354652
O O6 0.320422 0.963086 0.245002
O O7 0.500000 0.000000 0.000000
O O8 0.105182 0.375454 0.348685
O O9 0.820950 0.098583 0.055752
O O10 0.000000 0.000000 0.000000
O O11 0.117741 0.028847 0.299474
O O12 0.000000 0.500000 0.000000
#
# Coordination Sequence:
#
# PCOD9017083 Si02
#       5
#     2   2   2   2   2
#     4  12  22  43  75 102 138 188 230 289 352 421
#     4  12  25  46  69 103 145 185 235 292 350 405
#     4  10  21  42  71 101 137 180 235 283 350 421
#     4  11  23  43  72 103 144 178 225 297 356 410
#     4  11  25  46  72 105 142 187 236 281 349 431
#
# _framework density 25.694409
#
# number of rings (size 3 to 8) (size 9 to 14) (size 15 to 20)
#    0.000    0.800    6.000    2.400    2.800    0.800 
#    3.600    1.000    0.000    0.000    0.000    0.000 
#    0.000    0.000    0.000    0.000    0.000    0.000 
#
# Total GULP energy -55819.704488 kJ/mol
# GULP energy per Si atom -5581.970449 kJ/mol
# Density = 2.563593 g / cm^3
# Si number density = 25.694409 Si / 1000 Ang^3
#
#
#
# Elastic Constant Matrix: (Units=GPa)
#
#
# Indices 1 2 3 4 5 6 
#
# 1 127.6877 35.6656 24.9292 18.7407 14.9716 16.3466
# 2 35.6656 97.9053 33.6989 29.6394 1.2208 4.9213
# 3 24.9292 33.6989 174.1274 43.0614 15.8440 2.9589
# 4 18.7407 29.6394 43.0614 47.4417 13.4599 -7.6318
# 5 14.9716 1.2208 15.8440 13.4599 30.6854 14.5009
# 6 16.3466 4.9213 2.9589 -7.6318 14.5009 46.8947
#
#
#
# Elastic Compliance Matrix: (Units=1/GPa)
#
#
# Indices 1 2 3 4 5 6 
#
# 1 0.009482 -0.002787 -0.000167 -0.001502 -0.002619 -0.002437
# 2 -0.002787 0.014779 -0.000445 -0.010757 0.007974 -0.004768
# 3 -0.000167 -0.000445 0.007545 -0.006666 -0.000216 -0.001389
# 4 -0.001502 -0.010757 -0.006666 0.043188 -0.021833 0.015853
# 5 -0.002619 0.007974 -0.000216 -0.021833 0.052554 -0.019714
# 6 -0.002437 -0.004768 -0.001389 0.015853 -0.019714 0.031438
#
#
# Mechanical properties :
#
#
# Convention : Reuss Voigt Hill
#
# Bulk Modulus (GPa) = 39.98787 65.36752 52.67770
# Shear Modulus (GPa) = 28.71573 45.36613 37.04093
#
# Velocity S-wave (km/s) = 3.34666 4.20647 3.80095
# Velocity P-wave (km/s) = 5.52541 7.00629 6.30945
#
# Compressibility (1/GPa) = 0.02500758
#
# Stress axis : x y z
#
# Youngs Moduli (GPa) = 105.46162 67.66169 132.54116
#
# Poissons Ratio (x) = 0.18856 0.02214
# Poissons Ratio (y) = 0.29391 0.05904
# Poissons Ratio (z) = 0.01762 0.03014
#
# Static dielectric constant tensor:
#      x y z
#    x 2.214920 0.026370 -0.040350 
#    y 0.026370 2.219300 -0.089070 
#    z -0.040350 -0.089070 2.060440 
# 
# From -- ./inp_files/144467.got.cif
#   From: 2010.05.17/outbox.cif.g08.bks.cpg/sg2_73_cif.got.tgz:144467.got - 2010.06.03 11:33:40.
