data_PCOD9017670
_publ_section_title
;
Structure prediction by ZEFSAII (Michael W. Deem and Ramdas Pophale) SiO2 
 PCOD9017670
Probable space group: P -1
;
_chemical_formula_sum "Si O2"
_cell_formula_units_Z 16
_cell_length_a 8.571577
_cell_length_b 8.643552
_cell_length_c 11.512008
_cell_angle_alpha 90.802449
_cell_angle_beta 58.749791
_cell_angle_gamma 79.793345
_cell_volume 711.913367
_symmetry_space_group_name_H-M "P -1"
_symmetry_group_IT_number 2
_symmetry_cell_setting 'triclinic'
loop_
_space_group_symop_operation_xyz
x,y,z
-x,-y,-z
loop_
_atom_site_type_symbol
_atom_site_label
_atom_site_fract_x
_atom_site_fract_y
_atom_site_fract_z
Si Si1 0.800490 0.071985 0.702855
Si Si2 0.114261 0.608848 0.387488
Si Si3 0.503617 0.923255 0.368823
Si Si4 0.619067 0.391381 0.545583
Si Si5 0.381691 0.730993 0.002094
Si Si6 0.203617 0.458068 0.113129
Si Si7 0.046434 0.770481 0.740422
Si Si8 0.791574 0.056081 0.130061
O O1 0.913468 0.197739 0.602629
O O2 0.671676 0.016665 0.651939
O O3 0.921251 0.923964 0.725666
O O4 0.678171 0.183217 0.850053
O O5 0.326974 0.546365 0.351346
O O6 0.099694 0.559145 0.260850
O O7 0.000000 0.500000 0.500000
O O8 0.487937 0.745666 0.392182
O O9 0.500000 0.000000 0.500000
O O10 0.692774 0.930905 0.228843
O O11 0.500000 0.500000 0.500000
O O12 0.822893 0.325990 0.409886
O O13 0.596665 0.646290 0.926832
O O14 0.338659 0.863131 0.922143
O O15 0.261273 0.597494 0.016462
O O16 0.075906 0.330896 0.140559
O O17 0.189372 0.823067 0.774082
O O18 0.000000 0.000000 0.000000
#
# Coordination Sequence:
#
# PCOD9017670 Si02
#       8
#     2   2   2   2   2   2   2   2
#     4  10  24  43  72  95 140 175 228 277 334 410
#     4  10  21  43  65  97 128 177 222 277 332 402
#     4  11  25  47  68 101 137 182 221 282 344 400
#     4  11  26  44  64  96 140 177 222 276 349 406
#     4  10  23  46  66 100 133 183 220 278 341 405
#     4  10  23  41  70  97 132 172 231 275 341 400
#     4  12  24  43  67 105 128 181 230 281 336 400
#     4  12  26  43  69  99 140 175 230 280 338 400
#
# _framework density 22.474644999999999
#
# number of rings (size 3 to 8) (size 9 to 14) (size 15 to 20)
#    0.000    1.250    3.750    0.750    3.500    6.500 
#    2.250    0.000    0.000    0.000    0.000    0.000 
#    0.000    0.000    0.000    0.000    0.000    0.000 
#
# Total GULP energy -89243.217892 kJ/mol
# GULP energy per Si atom -5577.701118 kJ/mol
# Density = 2.242349 g / cm^3
# Si number density = 22.474645 Si / 1000 Ang^3
#
#
#
# Elastic Constant Matrix: (Units=GPa)
#
#
# Indices 1 2 3 4 5 6 
#
# 1 68.3916 36.3569 17.1059 -11.9847 6.4562 21.8464
# 2 36.3569 57.2579 21.4047 -19.6527 -17.4000 14.8978
# 3 17.1059 21.4047 74.3138 -19.6773 -13.8113 10.5549
# 4 -11.9847 -19.6527 -19.6773 34.9302 8.6257 -9.2879
# 5 6.4562 -17.4000 -13.8113 8.6257 46.5739 -9.5305
# 6 21.8464 14.8978 10.5549 -9.2879 -9.5305 43.2303
#
#
#
# Elastic Compliance Matrix: (Units=1/GPa)
#
#
# Indices 1 2 3 4 5 6 
#
# 1 0.031310 -0.021088 -0.002833 -0.002094 -0.015051 -0.011632
# 2 -0.021088 0.038973 -0.000957 0.011134 0.015821 0.003340
# 3 -0.002833 -0.000957 0.016968 0.007117 0.003743 -0.000027
# 4 -0.002094 0.011134 0.007117 0.039203 0.000104 0.003929
# 5 -0.015051 0.015821 0.003743 0.000104 0.032274 0.008377
# 6 -0.011632 0.003340 -0.000027 0.003929 0.008377 0.030557
#
#
# Mechanical properties :
#
#
# Convention : Reuss Voigt Hill
#
# Bulk Modulus (GPa) = 26.66989 38.85539 32.76264
# Shear Modulus (GPa) = 19.87763 33.28660 26.58212
#
# Velocity S-wave (km/s) = 2.97719 3.85265 3.44286
# Velocity P-wave (km/s) = 4.86936 6.09234 5.51485
#
# Compressibility (1/GPa) = 0.03749547
#
# Stress axis : x y z
#
# Youngs Moduli (GPa) = 31.93867 25.65850 58.93392
#
# Poissons Ratio (x) = 0.54109 0.16694
# Poissons Ratio (y) = 0.67353 0.05641
# Poissons Ratio (z) = 0.09047 0.02456
#
# Static dielectric constant tensor:
#      x y z
#    x 1.934130 0.057870 0.067500 
#    y 0.057870 1.837350 0.005490 
#    z 0.067500 0.005490 2.052800 
# 
# From -- ./inp_files/379014.got.cif
#   From: 2010.05.17/outbox.cif.g08.bks.cpg/sg2_190_cif.got.tgz:379014.got - 2010.06.03 11:33:40.
