data_PCOD9017025
_publ_section_title
;
Structure prediction by ZEFSAII (Michael W. Deem and Ramdas Pophale) SiO2 
 PCOD9017025
Probable space group: P -1
;
_chemical_formula_sum "Si O2"
_cell_formula_units_Z 16
_cell_length_a 5.529679
_cell_length_b 27.783339
_cell_length_c 8.475053
_cell_angle_alpha 33.297673
_cell_angle_beta 110.382573
_cell_angle_gamma 110.583727
_cell_volume 665.412312
_symmetry_space_group_name_H-M "P -1"
_symmetry_group_IT_number 2
_symmetry_cell_setting 'triclinic'
loop_
_space_group_symop_operation_xyz
x,y,z
-x,-y,-z
loop_
_atom_site_type_symbol
_atom_site_label
_atom_site_fract_x
_atom_site_fract_y
_atom_site_fract_z
Si Si1 0.950476 0.280708 0.597823
Si Si2 0.726259 0.879825 0.201542
Si Si3 0.093118 0.579769 0.559358
Si Si4 0.913057 0.976278 0.284796
Si Si5 0.516493 0.704201 0.750155
Si Si6 0.296337 0.419065 0.114988
Si Si7 0.493314 0.407049 0.663727
Si Si8 0.768943 0.098594 0.181674
O O1 0.799435 0.347317 0.487842
O O2 0.752153 0.264243 0.453507
O O3 0.206030 0.338560 0.430749
O O4 0.964135 0.186968 0.940028
O O5 0.720907 0.926016 0.248885
O O6 0.733576 0.780403 0.532203
O O7 0.506558 0.877603 0.018128
O O8 0.968069 0.935759 0.020969
O O9 0.285481 0.585364 0.439884
O O10 0.810073 0.608822 0.401043
O O11 0.054384 0.476186 0.881248
O O12 0.147145 0.925750 0.553623
O O13 0.787768 0.011834 0.316070
O O14 0.600873 0.617781 0.920715
O O15 0.472542 0.677334 0.992215
O O16 0.500000 0.500000 0.000000
O O17 0.500000 0.500000 0.500000
#
# Coordination Sequence:
#
# PCOD9017025 Si02
#       8
#     2   2   2   2   2   2   2   2
#     4  11  25  42  66  97 133 177 237 289 341 423
#     4  10  22  42  65 102 134 176 227 288 349 428
#     4  12  26  44  68  96 139 186 239 283 352 411
#     4  10  21  42  70  96 135 178 223 285 358 431
#     4  11  25  41  66  96 137 178 235 286 355 407
#     4  12  23  42  68  96 133 189 235 291 346 416
#     4  12  26  45  64 100 139 187 234 295 348 417
#     4  10  22  42  67 100 134 177 228 283 356 423
#
# _framework density 24.045244
#
# number of rings (size 3 to 8) (size 9 to 14) (size 15 to 20)
#    0.000    1.000    2.500    3.750    3.500    0.000 
#    0.000    1.250    0.000    0.000    0.000    0.000 
#    0.000    0.000    0.000    0.000    0.000    0.000 
#
# Total GULP energy -89155.110703 kJ/mol
# GULP energy per Si atom -5572.194419 kJ/mol
# Density = 2.399052 g / cm^3
# Si number density = 24.045244 Si / 1000 Ang^3
#
#
#
# Elastic Constant Matrix: (Units=GPa)
#
#
# Indices 1 2 3 4 5 6 
#
# 1 70.3989 20.6593 6.4910 -0.8657 -22.5239 -4.5077
# 2 20.6593 57.2415 30.0796 -3.8789 -9.5068 -5.6530
# 3 6.4910 30.0796 106.2793 -5.7415 -27.3398 11.9460
# 4 -0.8657 -3.8789 -5.7415 34.9777 1.7583 -1.6697
# 5 -22.5239 -9.5068 -27.3398 1.7583 27.0049 -2.7423
# 6 -4.5077 -5.6530 11.9460 -1.6697 -2.7423 30.4353
#
#
#
# Elastic Compliance Matrix: (Units=1/GPa)
#
#
# Indices 1 2 3 4 5 6 
#
# 1 0.023709 -0.008024 0.006818 -0.000320 0.024026 0.001492
# 2 -0.008024 0.024647 -0.008733 0.001722 -0.006325 0.006342
# 3 0.006818 -0.008733 0.017095 0.000771 0.019307 -0.005540
# 4 -0.000320 0.001722 0.000771 0.029002 -0.000615 0.001505
# 5 0.024026 -0.006325 0.019307 -0.000615 0.074581 0.001491
# 6 0.001492 0.006342 -0.005540 0.001505 0.001491 0.036647
#
#
# Mechanical properties :
#
#
# Convention : Reuss Voigt Hill
#
# Bulk Modulus (GPa) = 21.94153 38.70883 30.32518
# Shear Modulus (GPa) = 20.76837 30.26289 25.51563
#
# Velocity S-wave (km/s) = 2.94210 3.55150 3.26106
# Velocity P-wave (km/s) = 4.54821 5.74028 5.17866
#
# Compressibility (1/GPa) = 0.04557568
#
# Stress axis : x y z
#
# Youngs Moduli (GPa) = 42.17732 40.57248 58.49529
#
# Poissons Ratio (x) = 0.32556 -0.39885
# Poissons Ratio (y) = 0.33844 0.51081
# Poissons Ratio (z) = -0.28759 0.35430
#
# Static dielectric constant tensor:
#      x y z
#    x 2.016680 0.155710 0.085620 
#    y 0.155710 2.249660 0.133250 
#    z 0.085620 0.133250 1.992060 
# 
# From -- ./inp_files/112837.got.cif
#   From: 2010.05.17/outbox.cif.g08.bks.cpg/sg2_57_cif.got.tgz:112837.got - 2010.06.03 11:33:40.
