data_PCOD9017175
_publ_section_title
;
Structure prediction by ZEFSAII (Michael W. Deem and Ramdas Pophale) SiO2 
 PCOD9017175
Probable space group: P -1
;
_chemical_formula_sum "Si O2"
_cell_formula_units_Z 12
_cell_length_a 9.314880
_cell_length_b 14.702357
_cell_length_c 9.099495
_cell_angle_alpha 149.033742
_cell_angle_beta 67.065355
_cell_angle_gamma 122.192542
_cell_volume 536.133934
_symmetry_space_group_name_H-M "P -1"
_symmetry_group_IT_number 2
_symmetry_cell_setting 'triclinic'
loop_
_space_group_symop_operation_xyz
x,y,z
-x,-y,-z
loop_
_atom_site_type_symbol
_atom_site_label
_atom_site_fract_x
_atom_site_fract_y
_atom_site_fract_z
Si Si1 0.853235 0.727027 0.835949
Si Si2 0.634931 0.408284 0.289115
Si Si3 0.510050 0.975416 0.638755
Si Si4 0.316950 0.309572 0.828910
Si Si5 0.103408 0.372085 0.748175
Si Si6 0.845600 0.102375 0.236692
O O1 0.778919 0.512685 0.498720
O O2 0.056902 0.823912 0.854211
O O3 0.767342 0.709295 0.002999
O O4 0.796229 0.874326 0.968401
O O5 0.500000 0.500000 0.500000
O O6 0.723303 0.492835 0.216758
O O7 0.571495 0.179519 0.981989
O O8 0.500000 0.000000 0.500000
O O9 0.633878 0.870173 0.467465
O O10 0.317908 0.853472 0.607242
O O11 0.169190 0.302094 0.766751
O O12 0.500000 0.500000 0.000000
O O13 0.983122 0.206833 0.455824
O O14 0.000000 0.500000 0.000000
#
# Coordination Sequence:
#
# PCOD9017175 Si02
#       6
#     2   2   2   2   2   2
#     4  10  22  42  69  98 141 184 222 283 347 406
#     4  11  21  43  71  97 138 184 228 278 347 408
#     4  12  22  42  74 105 134 184 233 284 341 408
#     4  12  25  45  72 104 140 179 239 285 338 417
#     4  11  25  44  70  99 139 183 232 284 348 405
#     4  10  21  42  71  99 138 183 226 280 352 405
#
# _framework density 22.382466999999998
#
# number of rings (size 3 to 8) (size 9 to 14) (size 15 to 20)
#    0.000    1.000    3.333    4.000    0.000    0.667 
#    0.000   12.500    3.667    0.000    0.000    0.000 
#    0.000    0.000    0.000    0.000    0.000    0.000 
#
# Total GULP energy -67065.431811 kJ/mol
# GULP energy per Si atom -5588.785984 kJ/mol
# Density = 2.233152 g / cm^3
# Si number density = 22.382467 Si / 1000 Ang^3
#
#
#
# Elastic Constant Matrix: (Units=GPa)
#
#
# Indices 1 2 3 4 5 6 
#
# 1 111.0154 60.0605 59.1995 -7.3149 -27.2929 0.1312
# 2 60.0605 150.0211 50.9223 -27.2264 -15.4310 33.5086
# 3 59.1995 50.9223 147.1518 2.4336 -16.9469 -0.1833
# 4 -7.3149 -27.2264 2.4336 35.3082 16.7798 -12.0584
# 5 -27.2929 -15.4310 -16.9469 16.7798 35.3555 -0.1560
# 6 0.1312 33.5086 -0.1833 -12.0584 -0.1560 26.5097
#
#
#
# Elastic Compliance Matrix: (Units=1/GPa)
#
#
# Indices 1 2 3 4 5 6 
#
# 1 0.016572 -0.006776 -0.003039 -0.004308 0.010453 0.006564
# 2 -0.006776 0.014646 -0.002840 0.006282 -0.003250 -0.015661
# 3 -0.003039 -0.002840 0.009416 -0.004287 0.002970 0.001738
# 4 -0.004308 0.006282 -0.004287 0.050112 -0.026357 0.014691
# 5 0.010453 -0.003250 0.002970 -0.026357 0.048834 -0.007625
# 6 0.006564 -0.015661 0.001738 0.014691 -0.007625 0.064134
#
#
# Mechanical properties :
#
#
# Convention : Reuss Voigt Hill
#
# Bulk Modulus (GPa) = 65.25434 83.17255 74.21345
# Shear Modulus (GPa) = 21.35538 35.30175 28.32856
#
# Velocity S-wave (km/s) = 3.09222 3.97571 3.56147
# Velocity P-wave (km/s) = 6.47817 7.63645 7.08103
#
# Compressibility (1/GPa) = 0.01532465
#
# Stress axis : x y z
#
# Youngs Moduli (GPa) = 60.34163 68.27718 106.19929
#
# Poissons Ratio (x) = 0.46264 0.32275
# Poissons Ratio (y) = 0.40887 0.30162
# Poissons Ratio (z) = 0.18338 0.19392
#
# Static dielectric constant tensor:
#      x y z
#    x 1.887160 0.031940 0.025270 
#    y 0.031940 1.968650 0.077350 
#    z 0.025270 0.077350 1.882890 
# 
# From -- ./inp_files/156564.got.cif
#   From: 2010.05.17/outbox.cif.g08.bks.cpg/sg2_79_cif.got.tgz:156564.got - 2010.06.03 11:33:40.
