data_PCOD9017843
_publ_section_title
;
Structure prediction by ZEFSAII (Michael W. Deem and Ramdas Pophale) SiO2 
 PCOD9017843
Probable space group: P -1
;
_chemical_formula_sum "Si O2"
_cell_formula_units_Z 12
_cell_length_a 4.940899
_cell_length_b 11.747784
_cell_length_c 11.058612
_cell_angle_alpha 127.448996
_cell_angle_beta 119.409045
_cell_angle_gamma 71.028587
_cell_volume 443.600725
_symmetry_space_group_name_H-M "P -1"
_symmetry_group_IT_number 2
_symmetry_cell_setting 'triclinic'
loop_
_space_group_symop_operation_xyz
x,y,z
-x,-y,-z
loop_
_atom_site_type_symbol
_atom_site_label
_atom_site_fract_x
_atom_site_fract_y
_atom_site_fract_z
Si Si1 0.404352 0.933093 0.151213
Si Si2 0.101097 0.034656 0.375374
Si Si3 0.361386 0.350506 0.415889
Si Si4 0.178200 0.762035 0.366841
Si Si5 0.621372 0.633124 0.040152
Si Si6 0.334407 0.733319 0.805511
O O1 0.758811 0.972850 0.241855
O O2 0.420347 0.778638 0.125098
O O3 0.237116 0.042004 0.276228
O O4 0.279504 0.882994 0.962682
O O5 0.260023 0.908756 0.411480
O O6 0.043290 0.177772 0.533026
O O7 0.500000 0.500000 0.500000
O O8 0.529036 0.314364 0.555193
O O9 0.487480 0.247054 0.267772
O O10 0.990728 0.342646 0.332513
O O11 0.973678 0.661929 0.174034
O O12 0.500000 0.500000 0.000000
O O13 0.554460 0.638809 0.885248
#
# Coordination Sequence:
#
# PCOD9017843 Si02
#       6
#     2   2   2   2   2   2
#     4   9  21  40  68  90 132 169 215 274 318 383
#     4  10  21  43  66  98 128 169 228 272 313 385
#     4  12  25  44  64  97 137 173 211 270 335 395
#     4  10  24  40  71  98 130 174 224 272 325 383
#     4   9  20  40  67  96 128 174 223 267 318 385
#     4  10  24  43  63  93 136 168 218 262 334 391
#
# _framework density 27.051355999999998
#
# number of rings (size 3 to 8) (size 9 to 14) (size 15 to 20)
#    1.000    1.000    0.000    2.500    0.000   11.333 
#    0.000    8.333    0.000    0.000    0.000    0.000 
#    0.000    0.000    0.000    0.000    0.000    0.000 
#
# Total GULP energy -67254.321620 kJ/mol
# GULP energy per Si atom -5604.526802 kJ/mol
# Density = 2.698979 g / cm^3
# Si number density = 27.051356 Si / 1000 Ang^3
#
#
#
# Elastic Constant Matrix: (Units=GPa)
#
#
# Indices 1 2 3 4 5 6 
#
# 1 144.3776 5.1899 57.5573 -14.2948 -0.1347 10.5268
# 2 5.1899 109.2237 49.4039 -32.3776 19.0875 23.2389
# 3 57.5573 49.4039 173.0927 -38.7481 22.5704 -4.1871
# 4 -14.2948 -32.3776 -38.7481 58.1103 -9.6654 -4.2305
# 5 -0.1347 19.0875 22.5704 -9.6654 51.7546 8.1484
# 6 10.5268 23.2389 -4.1871 -4.2305 8.1484 32.3857
#
#
#
# Elastic Compliance Matrix: (Units=1/GPa)
#
#
# Indices 1 2 3 4 5 6 
#
# 1 0.008836 0.002394 -0.003790 0.000887 0.001812 -0.005420
# 2 0.002394 0.014960 -0.004021 0.005264 -0.001029 -0.011086
# 3 -0.003790 -0.004021 0.009436 0.003079 -0.003093 0.006518
# 4 0.000887 0.005264 0.003079 0.022520 0.001081 -0.000998
# 5 0.001812 -0.001029 -0.003093 0.001081 0.022151 -0.005683
# 6 -0.005420 -0.011086 0.006518 -0.000998 -0.005683 0.042737
#
#
# Mechanical properties :
#
#
# Convention : Reuss Voigt Hill
#
# Bulk Modulus (GPa) = 44.65107 72.33292 58.49199
# Shear Modulus (GPa) = 35.98667 49.41964 42.70315
#
# Velocity S-wave (km/s) = 3.65130 4.27884 3.97746
# Velocity P-wave (km/s) = 5.85814 7.15601 6.53935
#
# Compressibility (1/GPa) = 0.02239588
#
# Stress axis : x y z
#
# Youngs Moduli (GPa) = 113.17419 66.84572 105.98221
#
# Poissons Ratio (x) = -0.16003 0.40170
# Poissons Ratio (y) = -0.27094 0.42620
# Poissons Ratio (z) = 0.42896 0.26881
#
# Static dielectric constant tensor:
#      x y z
#    x 2.063120 -0.062260 -0.010080 
#    y -0.062260 2.255670 0.008830 
#    z -0.010080 0.008830 2.124400 
# 
# From -- ./inp_files/365879.got.cif
#   From: 2010.05.17/outbox.cif.g08.bks.cpg/sg2_183_cif.got.tgz:365879.got - 2010.06.03 11:33:40.
