data_PCOD9017249
_publ_section_title
;
Structure prediction by ZEFSAII (Michael W. Deem and Ramdas Pophale) SiO2 
 PCOD9017249
Probable space group: P -1
;
_chemical_formula_sum "Si O2"
_cell_formula_units_Z 16
_cell_length_a 19.038592
_cell_length_b 9.275162
_cell_length_c 13.229024
_cell_angle_alpha 114.009615
_cell_angle_beta 151.601198
_cell_angle_gamma 50.397320
_cell_volume 776.932246
_symmetry_space_group_name_H-M "P -1"
_symmetry_group_IT_number 2
_symmetry_cell_setting 'triclinic'
loop_
_space_group_symop_operation_xyz
x,y,z
-x,-y,-z
loop_
_atom_site_type_symbol
_atom_site_label
_atom_site_fract_x
_atom_site_fract_y
_atom_site_fract_z
Si Si1 0.950949 0.773615 0.134042
Si Si2 0.155171 0.460916 0.960551
Si Si3 0.902617 0.412168 0.306112
Si Si4 0.810503 0.846986 0.753231
Si Si5 0.497241 0.543048 0.890959
Si Si6 0.926617 0.024987 0.529215
Si Si7 0.379015 0.349269 0.540443
Si Si8 0.531452 0.292622 0.493444
O O1 0.890839 0.689805 0.119389
O O2 0.168243 0.572747 0.324423
O O3 0.828789 0.842562 0.896839
O O4 0.955188 0.941291 0.236809
O O5 0.106128 0.555711 0.815352
O O6 0.018501 0.652993 0.918777
O O7 0.377241 0.328446 0.231225
O O8 0.000000 0.500000 0.500000
O O9 0.032717 0.178026 0.440779
O O10 0.685441 0.516357 0.095531
O O11 0.664674 0.802669 0.528757
O O12 0.735083 0.063661 0.673805
O O13 0.487426 0.387760 0.768339
O O14 0.296736 0.772997 0.685448
O O15 0.500000 0.500000 0.000000
O O16 0.000000 0.000000 0.500000
O O17 0.475684 0.288228 0.536321
O O18 0.500000 0.500000 0.500000
#
# Coordination Sequence:
#
# PCOD9017249 Si02
#       8
#     2   2   2   2   2   2   2   2
#     4  10  21  42  72  97 133 181 231 272 332 411
#     4  11  24  44  63  99 139 169 223 287 340 396
#     4  12  28  47  70 102 140 177 226 292 351 399
#     4  11  23  41  70  97 130 188 221 272 338 404
#     4  11  25  45  75 101 133 180 234 285 337 414
#     4  11  24  45  74 104 131 184 233 276 344 412
#     4  10  21  43  66  98 134 170 233 274 329 412
#     4  12  25  38  62  98 137 174 221 275 343 399
#
# _framework density 20.593817999999999
#
# number of rings (size 3 to 8) (size 9 to 14) (size 15 to 20)
#    0.000    1.000    3.750    2.625    7.000    4.000 
#    2.250    0.000    0.000    0.000    0.000    0.000 
#    0.000    0.000    0.000    0.000    0.000    0.000 
#
# Total GULP energy -89429.163251 kJ/mol
# GULP energy per Si atom -5589.322703 kJ/mol
# Density = 2.054695 g / cm^3
# Si number density = 20.593818 Si / 1000 Ang^3
#
#
#
# Elastic Constant Matrix: (Units=GPa)
#
#
# Indices 1 2 3 4 5 6 
#
# 1 81.3788 19.3169 39.0635 6.0239 -24.4459 16.5435
# 2 19.3169 129.8523 51.0901 5.1194 -5.4216 31.3601
# 3 39.0635 51.0901 112.8258 12.0013 -6.7700 7.5838
# 4 6.0239 5.1194 12.0013 37.2439 -2.2493 -4.6683
# 5 -24.4459 -5.4216 -6.7700 -2.2493 36.4579 -0.9924
# 6 16.5435 31.3601 7.5838 -4.6683 -0.9924 26.3691
#
#
#
# Elastic Compliance Matrix: (Units=1/GPa)
#
#
# Indices 1 2 3 4 5 6 
#
# 1 0.022867 0.004563 -0.007618 -0.003240 0.013917 -0.017631
# 2 0.004563 0.014139 -0.006264 -0.002747 0.003333 -0.018237
# 3 -0.007618 -0.006264 0.013773 -0.001562 -0.003365 0.007865
# 4 -0.003240 -0.002747 -0.001562 0.029584 -0.000748 0.010959
# 5 0.013917 0.003333 -0.003365 -0.000748 0.036300 -0.010493
# 6 -0.017631 -0.018237 0.007865 0.010959 -0.010493 0.069956
#
#
# Mechanical properties :
#
#
# Convention : Reuss Voigt Hill
#
# Bulk Modulus (GPa) = 31.11482 60.33310 45.72396
# Shear Modulus (GPa) = 23.15133 34.31992 28.73562
#
# Velocity S-wave (km/s) = 3.35653 4.08673 3.73949
# Velocity P-wave (km/s) = 5.49212 7.18531 6.39500
#
# Compressibility (1/GPa) = 0.03213902
#
# Stress axis : x y z
#
# Youngs Moduli (GPa) = 43.73150 70.72858 72.60577
#
# Poissons Ratio (x) = -0.32271 0.55314
# Poissons Ratio (y) = -0.19953 0.45480
# Poissons Ratio (z) = 0.33316 0.44304
#
# Static dielectric constant tensor:
#      x y z
#    x 1.764010 0.005450 0.044460 
#    y 0.005450 1.761470 -0.006310 
#    z 0.044460 -0.006310 1.778840 
# 
# From -- ./inp_files/447876.got.cif
#   From: 2010.05.17/outbox.cif.g08.bks.cpg/sg2_224_cif.got.tgz:447876.got - 2010.06.03 11:33:40.
