data_PCOD9017550
_publ_section_title
;
Structure prediction by ZEFSAII (Michael W. Deem and Ramdas Pophale) SiO2 
 PCOD9017550
Probable space group: P -1
;
_chemical_formula_sum "Si O2"
_cell_formula_units_Z 14
_cell_length_a 16.230196
_cell_length_b 7.919056
_cell_length_c 13.181560
_cell_angle_alpha 108.645708
_cell_angle_beta 24.889289
_cell_angle_gamma 96.240565
_cell_volume 601.730026
_symmetry_space_group_name_H-M "P -1"
_symmetry_group_IT_number 2
_symmetry_cell_setting 'triclinic'
loop_
_space_group_symop_operation_xyz
x,y,z
-x,-y,-z
loop_
_atom_site_type_symbol
_atom_site_label
_atom_site_fract_x
_atom_site_fract_y
_atom_site_fract_z
Si Si1 0.332753 0.696022 0.002612
Si Si2 0.255411 0.263991 0.515285
Si Si3 0.206676 0.610822 0.916525
Si Si4 0.371919 0.897891 0.180336
Si Si5 0.353864 0.801933 0.630983
Si Si6 0.249576 0.379231 0.157323
Si Si7 0.469957 0.040359 0.696580
O O1 0.584193 0.662056 0.704099
O O2 0.238461 0.731050 0.000845
O O3 0.242225 0.851747 0.227561
O O4 0.296127 0.515309 0.051753
O O5 0.246871 0.070018 0.435121
O O6 0.370320 0.171976 0.474613
O O7 0.006194 0.421410 0.834212
O O8 0.188289 0.731530 0.855843
O O9 0.418479 0.397630 0.642291
O O10 0.558799 0.698746 0.986128
O O11 0.500000 0.000000 0.000000
O O12 0.382061 0.860598 0.496039
O O13 0.338575 0.992264 0.747057
O O14 0.000000 0.500000 0.500000
O O15 0.305387 0.176360 0.993916
#
# Coordination Sequence:
#
# PCOD9017550 Si02
#       7
#     2   2   2   2   2   2   2
#     4  11  22  42  64  94 133 163 216 266 306 391
#     4  10  23  42  65  94 132 167 214 262 323 373
#     4  11  23  41  68  95 122 177 214 256 325 376
#     4   9  22  41  62  92 132 161 209 266 312 382
#     4  10  22  42  66  95 132 166 219 263 310 380
#     4  11  24  41  69  97 125 172 213 259 326 383
#     4  10  21  43  64  94 136 163 211 275 305 379
#
# _framework density 23.266247
#
# number of rings (size 3 to 8) (size 9 to 14) (size 15 to 20)
#    0.000    1.714    2.857    0.429    4.000    2.857 
#    0.000    5.714    0.000    0.000    0.000    0.000 
#    0.000    0.000    0.000    0.000    0.000    0.000 
#
# Total GULP energy -78023.651100 kJ/mol
# GULP energy per Si atom -5573.117936 kJ/mol
# Density = 2.321329 g / cm^3
# Si number density = 23.266247 Si / 1000 Ang^3
#
#
#
# Elastic Constant Matrix: (Units=GPa)
#
#
# Indices 1 2 3 4 5 6 
#
# 1 59.4490 7.6735 35.6060 6.1321 28.9264 10.5471
# 2 7.6735 42.3174 5.7482 -21.2374 -9.2174 -17.2870
# 3 35.6060 5.7482 107.2221 -19.1064 -16.4528 -6.8835
# 4 6.1321 -21.2374 -19.1064 28.4290 -3.8468 12.3740
# 5 28.9264 -9.2174 -16.4528 -3.8468 15.0391 -6.5026
# 6 10.5471 -17.2870 -6.8835 12.3740 -6.5026 40.5137
#
#
#
# Elastic Compliance Matrix: (Units=1/GPa)
#
#
# Indices 1 2 3 4 5 6 
#
# 1 -0.000363 0.012913 0.005344 0.013627 0.020375 0.005621
# 2 0.012913 0.018852 -0.008116 0.003434 -0.021823 -0.001248
# 3 0.005344 -0.008116 0.005140 -0.003293 -0.012635 -0.005003
# 4 0.013627 0.003434 -0.003293 0.036941 -0.026090 -0.018112
# 5 0.020375 -0.021823 -0.012635 -0.026090 -0.011144 -0.010583
# 6 0.005621 -0.001248 -0.005003 -0.018112 -0.010583 0.025671
#
#
# Mechanical properties :
#
#
# Convention : Reuss Voigt Hill
#
# Bulk Modulus (GPa) = 22.77312 34.11600 28.44456
# Shear Modulus (GPa) = 71.99313 27.46040 49.72676
#
# Velocity S-wave (km/s) = 5.56869 3.43923 4.62810
# Velocity P-wave (km/s) = 7.15237 5.51962 6.38837
#
# Compressibility (1/GPa) = 0.04391142
#
# Stress axis : x y z
#
# Youngs Moduli (GPa) = -2752.59718 53.04527 194.54560
#
# Poissons Ratio (x) = -0.68497 -1.03965
# Poissons Ratio (y) = 35.54428 1.57886
# Poissons Ratio (z) = 14.70984 0.43050
#
# Static dielectric constant tensor:
#      x y z
#    x 1.982410 0.059830 0.030980 
#    y 0.059830 1.906820 0.023750 
#    z 0.030980 0.023750 1.889440 
# 
# From -- ./inp_files/392709.got.cif
#   From: 2010.05.17/outbox.cif.g08.bks.cpg/sg2_197_cif.got.tgz:392709.got - 2010.06.03 11:33:40.
