data_PCOD9017716
_publ_section_title
;
Structure prediction by ZEFSAII (Michael W. Deem and Ramdas Pophale) SiO2 
 PCOD9017716
Probable space group: P -1
;
_chemical_formula_sum "Si O2"
_cell_formula_units_Z 16
_cell_length_a 8.318749
_cell_length_b 8.596273
_cell_length_c 12.696956
_cell_angle_alpha 70.717051
_cell_angle_beta 133.637882
_cell_angle_gamma 107.469874
_cell_volume 616.757732
_symmetry_space_group_name_H-M "P -1"
_symmetry_group_IT_number 2
_symmetry_cell_setting 'triclinic'
loop_
_space_group_symop_operation_xyz
x,y,z
-x,-y,-z
loop_
_atom_site_type_symbol
_atom_site_label
_atom_site_fract_x
_atom_site_fract_y
_atom_site_fract_z
Si Si1 0.390933 0.896874 0.877761
Si Si2 0.928118 0.626572 0.522868
Si Si3 0.980273 0.407355 0.192566
Si Si4 0.412649 0.302617 0.309545
Si Si5 0.378928 0.381377 0.058465
Si Si6 0.178700 0.887745 0.435682
Si Si7 0.858336 0.033132 0.825453
Si Si8 0.402161 0.145991 0.638068
O O1 0.187056 0.764449 0.855177
O O2 0.575580 0.794134 0.929214
O O3 0.332962 0.022414 0.732077
O O4 0.500000 0.000000 0.000000
O O5 0.678914 0.675167 0.417686
O O6 0.000000 0.500000 0.500000
O O7 0.012354 0.570022 0.684579
O O8 0.047369 0.798333 0.493096
O O9 0.228064 0.388244 0.269819
O O10 0.867389 0.560158 0.056812
O O11 0.491174 0.405673 0.217785
O O12 0.624303 0.229927 0.472800
O O13 0.273540 0.142002 0.229419
O O14 0.500000 0.500000 0.000000
O O15 0.050316 0.904088 0.263379
O O16 0.286785 0.060415 0.498851
O O17 0.667094 0.147669 0.746261
O O18 0.000000 0.000000 0.000000
#
# Coordination Sequence:
#
# PCOD9017716 Si02
#       8
#     2   2   2   2   2   2   2   2
#     4  11  24  41  71 104 140 190 246 298 353 423
#     4  12  27  45  73 103 140 195 245 295 360 431
#     4  11  24  43  69 105 146 189 240 298 365 424
#     4  11  22  43  72 103 141 191 239 289 365 431
#     4  10  21  43  66 101 143 188 232 291 354 424
#     4  11  22  47  75  99 141 190 238 298 361 433
#     4  11  25  41  70 109 143 177 240 307 358 423
#     4  11  23  47  71 100 141 187 246 288 361 428
#
# _framework density 25.942112999999999
#
# number of rings (size 3 to 8) (size 9 to 14) (size 15 to 20)
#    0.000    1.000    3.750    4.500    5.250    1.000 
#    0.000    3.750    0.000    0.000    0.000    0.000 
#    0.000    0.000    0.000    0.000    0.000    0.000 
#
# Total GULP energy -89580.995461 kJ/mol
# GULP energy per Si atom -5598.812216 kJ/mol
# Density = 2.588307 g / cm^3
# Si number density = 25.942113 Si / 1000 Ang^3
#
#
#
# Elastic Constant Matrix: (Units=GPa)
#
#
# Indices 1 2 3 4 5 6 
#
# 1 95.8253 19.0961 27.1362 6.0798 -3.8679 -26.8910
# 2 19.0961 81.8889 47.9627 -5.4178 10.7889 -43.9727
# 3 27.1362 47.9627 183.9282 -1.0679 -13.3835 -29.4572
# 4 6.0798 -5.4178 -1.0679 41.5363 -9.0288 6.0653
# 5 -3.8679 10.7889 -13.3835 -9.0288 51.6774 -13.3766
# 6 -26.8910 -43.9727 -29.4572 6.0653 -13.3766 53.4420
#
#
#
# Elastic Compliance Matrix: (Units=1/GPa)
#
#
# Indices 1 2 3 4 5 6 
#
# 1 0.012862 0.001272 -0.000833 -0.002431 0.002091 0.007859
# 2 0.001272 0.023830 -0.003609 -0.000050 -0.001172 0.017971
# 3 -0.000833 -0.003609 0.006878 0.000280 0.002799 0.001071
# 4 -0.002431 -0.000050 0.000280 0.025666 0.003575 -0.003128
# 5 0.002091 -0.001172 0.002799 0.003575 0.022902 0.006957
# 6 0.007859 0.017971 0.001071 -0.003128 0.006957 0.040140
#
#
# Mechanical properties :
#
#
# Convention : Reuss Voigt Hill
#
# Bulk Modulus (GPa) = 26.85995 61.11471 43.98733
# Shear Modulus (GPa) = 33.10667 47.16096 40.13381
#
# Velocity S-wave (km/s) = 3.57623 4.26835 3.93753
# Velocity P-wave (km/s) = 5.23726 6.92105 6.13717
#
# Compressibility (1/GPa) = 0.03723016
#
# Stress axis : x y z
#
# Youngs Moduli (GPa) = 77.74824 41.96403 145.39727
#
# Poissons Ratio (x) = -0.05338 0.12107
# Poissons Ratio (y) = -0.09890 0.52477
# Poissons Ratio (z) = 0.06474 0.15146
#
# Static dielectric constant tensor:
#      x y z
#    x 2.158920 0.074580 0.013780 
#    y 0.074580 2.079200 -0.046170 
#    z 0.013780 -0.046170 2.042930 
# 
# From -- ./inp_files/382104.got.cif
#   From: 2010.05.17/outbox.cif.g08.bks.cpg/sg2_192_cif.got.tgz:382104.got - 2010.06.03 11:33:40.
