data_PCOD9017935
_publ_section_title
;
Structure prediction by ZEFSAII (Michael W. Deem and Ramdas Pophale) SiO2 
 PCOD9017935
Probable space group: P -1
;
_chemical_formula_sum "Si O2"
_cell_formula_units_Z 15
_cell_length_a 8.441357
_cell_length_b 8.751452
_cell_length_c 11.784867
_cell_angle_alpha 89.932022
_cell_angle_beta 56.363430
_cell_angle_gamma 113.449077
_cell_volume 636.366032
_symmetry_space_group_name_H-M "P -1"
_symmetry_group_IT_number 2
_symmetry_cell_setting 'triclinic'
loop_
_space_group_symop_operation_xyz
x,y,z
-x,-y,-z
loop_
_atom_site_type_symbol
_atom_site_label
_atom_site_fract_x
_atom_site_fract_y
_atom_site_fract_z
Si Si1 0.891968 0.899544 0.661471
Si Si2 0.000000 0.000000 0.000000
Si Si3 0.700699 0.149027 0.483185
Si Si4 0.503023 0.822006 0.208078
Si Si5 0.550098 0.542817 0.710173
Si Si6 0.882613 0.526166 0.434071
Si Si7 0.781553 0.154868 0.843446
Si Si8 0.942258 0.649877 0.057896
O O1 0.666524 0.723063 0.731487
O O2 0.079318 0.856706 0.625851
O O3 0.845956 0.015364 0.768702
O O4 0.000000 0.000000 0.500000
O O5 0.247163 0.076418 0.856981
O O6 0.068629 0.206351 0.020198
O O7 0.633422 0.137098 0.643055
O O8 0.749955 0.340654 0.428415
O O9 0.500000 0.000000 0.500000
O O10 0.432678 0.617614 0.237479
O O11 0.453486 0.879871 0.106267
O O12 0.707072 0.584300 0.540062
O O13 0.295547 0.460573 0.791431
O O14 0.000000 0.500000 0.500000
O O15 0.064387 0.667416 0.285307
O O16 0.872649 0.210869 0.932491
O O17 0.000000 0.500000 0.000000
#
# Coordination Sequence:
#
# PCOD9017935 Si02
#       8
#     2   1   2   2   2   2   2   2
#     4  12  21  37  63 106 140 168 215 272 347 422
#     4  10  26  50  70  94 134 182 242 296 334 392
#     4  11  23  36  63 100 139 178 213 266 348 417
#     4  10  21  45  67  93 137 182 230 281 335 412
#     4  10  21  43  67  94 143 174 214 286 341 417
#     4  11  18  41  66  98 140 173 213 269 348 428
#     4  12  24  41  72 103 134 178 225 284 348 416
#     4  11  29  51  69  98 136 184 243 295 340 397
#
# _framework density 23.571339999999999
#
# number of rings (size 3 to 8) (size 9 to 14) (size 15 to 20)
#    0.000    1.067    6.667    0.000    7.467    3.200 
#    2.400    1.333    0.000    0.000    0.000    0.000 
#    0.000    0.000    0.000    0.000    0.000    0.000 
#
# Total GULP energy -83534.541818 kJ/mol
# GULP energy per Si atom -5568.969455 kJ/mol
# Density = 2.351769 g / cm^3
# Si number density = 23.571340 Si / 1000 Ang^3
#
#
#
# Elastic Constant Matrix: (Units=GPa)
#
#
# Indices 1 2 3 4 5 6 
#
# 1 30.7342 3.3644 11.8219 7.2992 -12.2799 16.3248
# 2 3.3644 167.3065 7.3555 7.4798 -5.9706 24.9401
# 3 11.8219 7.3555 39.1159 1.0302 -24.0613 1.3452
# 4 7.2992 7.4798 1.0302 48.5044 0.0779 -15.3786
# 5 -12.2799 -5.9706 -24.0613 0.0779 43.6861 -7.7431
# 6 16.3248 24.9401 1.3452 -15.3786 -7.7431 36.5985
#
#
#
# Elastic Compliance Matrix: (Units=1/GPa)
#
#
# Indices 1 2 3 4 5 6 
#
# 1 0.071109 0.007653 -0.019305 -0.026322 0.002148 -0.046830
# 2 0.007653 0.007908 -0.003773 -0.005876 -0.000840 -0.011310
# 3 -0.019305 -0.003773 0.044678 0.008061 0.021758 0.017531
# 4 -0.026322 -0.005876 0.008061 0.034973 0.001578 0.030478
# 5 0.002148 -0.000840 0.021758 0.001578 0.036642 0.007230
# 6 -0.046830 -0.011310 0.017531 0.030478 0.007230 0.069612
#
#
# Mechanical properties :
#
#
# Convention : Reuss Voigt Hill
#
# Bulk Modulus (GPa) = 10.77075 31.36000 21.06537
# Shear Modulus (GPa) = 15.30362 40.06547 27.68454
#
# Velocity S-wave (km/s) = 2.55080 4.12728 3.43082
# Velocity P-wave (km/s) = 3.64071 6.00381 4.96490
#
# Compressibility (1/GPa) = 0.09284408
#
# Stress axis : x y z
#
# Youngs Moduli (GPa) = 14.06297 126.45788 22.38237
#
# Poissons Ratio (x) = -0.96779 0.43209
# Poissons Ratio (y) = -0.10762 0.08445
# Poissons Ratio (z) = 0.27149 0.47716
#
# Static dielectric constant tensor:
#      x y z
#    x 1.819920 0.083960 -0.137610 
#    y 0.083960 1.858030 0.042100 
#    z -0.137610 0.042100 1.848350 
# 
# From -- ./inp_files/491109.got.cif
#   From: 2010.05.17/outbox.cif.g08.bks.cpg/sg2_246_cif.got.tgz:491109.got - 2010.06.03 11:33:40.
