data_PCOD9017373
_publ_section_title
;
Structure prediction by ZEFSAII (Michael W. Deem and Ramdas Pophale) SiO2 
 PCOD9017373
Probable space group: P -1
;
_chemical_formula_sum "Si O2"
_cell_formula_units_Z 16
_cell_length_a 8.420968
_cell_length_b 15.633460
_cell_length_c 8.982898
_cell_angle_alpha 70.988886
_cell_angle_beta 79.111067
_cell_angle_gamma 39.780491
_cell_volume 711.705620
_symmetry_space_group_name_H-M "P -1"
_symmetry_group_IT_number 2
_symmetry_cell_setting 'triclinic'
loop_
_space_group_symop_operation_xyz
x,y,z
-x,-y,-z
loop_
_atom_site_type_symbol
_atom_site_label
_atom_site_fract_x
_atom_site_fract_y
_atom_site_fract_z
Si Si1 0.916928 0.270524 0.716061
Si Si2 0.351338 0.943132 0.312208
Si Si3 0.667065 0.843488 0.804417
Si Si4 0.204773 0.989243 0.970396
Si Si5 0.187253 0.348821 0.619957
Si Si6 0.983044 0.581145 0.085620
Si Si7 0.463885 0.466934 0.181998
Si Si8 0.031816 0.792714 0.592897
O O1 0.651431 0.412115 0.749837
O O2 0.908414 0.229539 0.578326
O O3 0.061401 0.303870 0.661242
O O4 0.058864 0.143772 0.873867
O O5 0.300303 0.947947 0.145607
O O6 0.542435 0.785157 0.420772
O O7 0.446367 0.007177 0.249427
O O8 0.120814 0.057065 0.399327
O O9 0.842371 0.786823 0.660472
O O10 0.426848 0.885394 0.866496
O O11 0.872160 0.720981 0.956229
O O12 0.000000 0.000000 0.000000
O O13 0.000000 0.500000 0.500000
O O14 0.204315 0.367958 0.779719
O O15 0.249735 0.484345 0.171803
O O16 0.000000 0.500000 0.000000
O O17 0.720366 0.323257 0.287498
O O18 0.500000 0.500000 0.000000
#
# Coordination Sequence:
#
# PCOD9017373 Si02
#       8
#     2   2   2   2   2   2   2   2
#     4  11  24  45  70 106 143 186 235 292 367 419
#     4  10  21  45  72  97 138 182 245 287 352 426
#     4  10  21  42  76  93 139 188 238 292 352 415
#     4  12  24  43  71 106 136 183 244 297 348 422
#     4  11  24  42  71 103 141 184 235 297 358 425
#     4  11  24  41  65 105 142 184 239 291 348 426
#     4  11  21  42  71 102 139 191 236 286 349 425
#     4  10  23  41  74 101 139 190 232 296 359 423
#
# _framework density 22.481207000000001
#
# number of rings (size 3 to 8) (size 9 to 14) (size 15 to 20)
#    0.750    0.500    3.750    3.000    1.750    4.000 
#    6.750    0.625    0.000    0.000    0.000    0.000 
#    0.000    0.000    0.000    0.000    0.000    0.000 
#
# Total GULP energy -89184.932365 kJ/mol
# GULP energy per Si atom -5574.058273 kJ/mol
# Density = 2.243004 g / cm^3
# Si number density = 22.481207 Si / 1000 Ang^3
#
#
#
# Elastic Constant Matrix: (Units=GPa)
#
#
# Indices 1 2 3 4 5 6 
#
# 1 64.6013 33.7435 5.5429 0.6166 -2.8991 -13.8315
# 2 33.7435 199.7998 72.3476 -5.7826 16.5754 -20.4083
# 3 5.5429 72.3476 86.2002 2.7533 12.6619 7.1908
# 4 0.6166 -5.7826 2.7533 49.3056 1.0214 -8.7469
# 5 -2.8991 16.5754 12.6619 1.0214 20.3141 -0.2954
# 6 -13.8315 -20.4083 7.1908 -8.7469 -0.2954 22.7075
#
#
#
# Elastic Compliance Matrix: (Units=1/GPa)
#
#
# Indices 1 2 3 4 5 6 
#
# 1 0.019218 -0.002117 -0.001180 0.001380 0.005293 0.010777
# 2 -0.002117 0.010372 -0.009301 0.004041 -0.002989 0.012495
# 3 -0.001180 -0.009301 0.022112 -0.005417 -0.006355 -0.018249
# 4 0.001380 0.004041 -0.005417 0.023776 -0.000696 0.015337
# 5 0.005293 -0.002989 -0.006355 -0.000696 0.056461 0.003016
# 6 0.010777 0.012495 -0.018249 0.015337 0.003016 0.073559
#
#
# Mechanical properties :
#
#
# Convention : Reuss Voigt Hill
#
# Bulk Modulus (GPa) = 37.72640 63.76325 50.74483
# Shear Modulus (GPa) = 20.87435 34.39661 27.63548
#
# Velocity S-wave (km/s) = 3.05048 3.91579 3.50990
# Velocity P-wave (km/s) = 5.40601 6.99064 6.24876
#
# Compressibility (1/GPa) = 0.02650664
#
# Stress axis : x y z
#
# Youngs Moduli (GPa) = 52.03357 96.41628 45.22436
#
# Poissons Ratio (x) = 0.20410 0.05335
# Poissons Ratio (y) = 0.11015 0.42064
# Poissons Ratio (z) = 0.06138 0.89678
#
# Static dielectric constant tensor:
#      x y z
#    x 1.901230 -0.036910 -0.021730 
#    y -0.036910 1.860530 0.024820 
#    z -0.021730 0.024820 1.818300 
# 
# From -- ./inp_files/206325.got.cif
#   From: 2010.05.17/outbox.cif.g08.bks.cpg/sg2_104_cif.got.tgz:206325.got - 2010.06.03 11:33:40.
