data_PCOD9017064
_publ_section_title
;
Structure prediction by ZEFSAII (Michael W. Deem and Ramdas Pophale) SiO2 
 PCOD9017064
Probable space group: P -1
;
_chemical_formula_sum "Si O2"
_cell_formula_units_Z 14
_cell_length_a 8.797969
_cell_length_b 8.683385
_cell_length_c 14.716993
_cell_angle_alpha 70.044966
_cell_angle_beta 145.278864
_cell_angle_gamma 113.292515
_cell_volume 587.916371
_symmetry_space_group_name_H-M "P -1"
_symmetry_group_IT_number 2
_symmetry_cell_setting 'triclinic'
loop_
_space_group_symop_operation_xyz
x,y,z
-x,-y,-z
loop_
_atom_site_type_symbol
_atom_site_label
_atom_site_fract_x
_atom_site_fract_y
_atom_site_fract_z
Si Si1 0.781605 0.204417 0.235505
Si Si2 0.289519 0.344751 0.970919
Si Si3 0.005220 0.305572 0.525761
Si Si4 0.374440 0.715121 0.188150
Si Si5 0.043645 0.574943 0.893359
Si Si6 0.280552 0.859294 0.296522
Si Si7 0.157881 0.008552 0.375375
O O1 0.886998 0.246174 0.380303
O O2 0.924751 0.347888 0.206106
O O3 0.459085 0.200141 0.080516
O O4 0.884221 0.050284 0.273056
O O5 0.219594 0.426973 0.013753
O O6 0.992026 0.285238 0.792907
O O7 0.500000 0.500000 0.000000
O O8 0.839634 0.174843 0.544292
O O9 0.000000 0.500000 0.500000
O O10 0.315848 0.282402 0.683784
O O11 0.329289 0.851114 0.213860
O O12 0.254299 0.531131 0.210817
O O13 0.190840 0.712408 0.008928
O O14 0.195772 0.004860 0.286422
O O15 0.580093 0.859447 0.483309
#
# Coordination Sequence:
#
# PCOD9017064 Si02
#       7
#     2   2   2   2   2   2   2
#     4  11  23  43  70 105 137 179 233 287 348 407
#     4   9  20  40  69 102 136 175 229 282 336 413
#     4  12  27  42  72 100 135 185 239 287 344 412
#     4  10  21  42  70  99 138 183 225 292 334 415
#     4   9  21  40  70 103 141 175 235 280 353 404
#     4  10  23  45  69  94 146 187 220 281 353 410
#     4  11  26  46  67 102 144 184 229 289 349 415
#
# _framework density 23.812909999999999
#
# number of rings (size 3 to 8) (size 9 to 14) (size 15 to 20)
#    0.000    1.714    1.429    1.286   10.000    3.429 
#    0.000    1.429    0.000    0.000    0.000    0.000 
#    0.000    0.000    0.000    0.000    0.000    0.000 
#
# Total GULP energy -78000.046983 kJ/mol
# GULP energy per Si atom -5571.431927 kJ/mol
# Density = 2.375871 g / cm^3
# Si number density = 23.812910 Si / 1000 Ang^3
#
#
#
# Elastic Constant Matrix: (Units=GPa)
#
#
# Indices 1 2 3 4 5 6 
#
# 1 110.8265 44.4086 46.2013 7.3844 13.5793 -19.9354
# 2 44.4086 81.9471 37.5353 -4.2806 14.3060 -9.5131
# 3 46.2013 37.5353 75.9308 21.3081 10.1030 -1.3619
# 4 7.3844 -4.2806 21.3081 28.8951 -2.7111 -0.7018
# 5 13.5793 14.3060 10.1030 -2.7111 41.3094 16.0518
# 6 -19.9354 -9.5131 -1.3619 -0.7018 16.0518 54.5499
#
#
#
# Elastic Compliance Matrix: (Units=1/GPa)
#
#
# Indices 1 2 3 4 5 6 
#
# 1 0.014768 -0.003486 -0.006699 0.000392 -0.004269 0.005883
# 2 -0.003486 0.020733 -0.010812 0.011648 -0.003939 0.003381
# 3 -0.006699 -0.010812 0.028607 -0.021170 -0.001047 -0.003584
# 4 0.000392 0.011648 -0.021170 0.052248 0.004001 0.001141
# 5 -0.004269 -0.003939 -0.001047 0.004001 0.032018 -0.011643
# 6 0.005883 0.003381 -0.003584 0.001141 -0.011643 0.024423
#
#
# Mechanical properties :
#
#
# Convention : Reuss Voigt Hill
#
# Bulk Modulus (GPa) = 45.22029 58.33278 51.77653
# Shear Modulus (GPa) = 22.50619 34.32149 28.41384
#
# Velocity S-wave (km/s) = 3.07762 3.80056 3.45804
# Velocity P-wave (km/s) = 5.62673 6.61880 6.14282
#
# Compressibility (1/GPa) = 0.02211397
#
# Stress axis : x y z
#
# Youngs Moduli (GPa) = 67.71503 48.23229 34.95693
#
# Poissons Ratio (x) = 0.16813 0.23417
# Poissons Ratio (y) = 0.23604 0.37795
# Poissons Ratio (z) = 0.45362 0.52149
#
# Static dielectric constant tensor:
#      x y z
#    x 1.998700 -0.007270 0.017230 
#    y -0.007270 2.093920 -0.024160 
#    z 0.017230 -0.024160 1.923730 
# 
# From -- ./inp_files/492855.got.cif
#   From: 2010.05.17/outbox.cif.g08.bks.cpg/sg2_247_cif.got.tgz:492855.got - 2010.06.03 11:33:40.
