data_PCOD9017023
_publ_section_title
;
Structure prediction by ZEFSAII (Michael W. Deem and Ramdas Pophale) SiO2 
 PCOD9017023
Probable space group: P -1
;
_chemical_formula_sum "Si O2"
_cell_formula_units_Z 16
_cell_length_a 13.791571
_cell_length_b 8.661644
_cell_length_c 22.673156
_cell_angle_alpha 131.955992
_cell_angle_beta 160.302863
_cell_angle_gamma 46.238259
_cell_volume 657.628317
_symmetry_space_group_name_H-M "P -1"
_symmetry_group_IT_number 2
_symmetry_cell_setting 'triclinic'
loop_
_space_group_symop_operation_xyz
x,y,z
-x,-y,-z
loop_
_atom_site_type_symbol
_atom_site_label
_atom_site_fract_x
_atom_site_fract_y
_atom_site_fract_z
Si Si1 0.463535 0.978387 0.542733
Si Si2 0.635020 0.778675 0.875783
Si Si3 0.148633 0.809894 0.884059
Si Si4 0.882125 0.379131 0.991550
Si Si5 0.303536 0.569559 0.348121
Si Si6 0.612811 0.827200 0.334614
Si Si7 0.733534 0.585539 0.229366
Si Si8 0.742322 0.234226 0.446354
O O1 0.244014 0.821974 0.380565
O O2 0.811441 0.871947 0.731541
O O3 0.500000 0.000000 0.500000
O O4 0.343617 0.167885 0.568815
O O5 0.327021 0.821981 0.674665
O O6 0.875212 0.707448 0.942195
O O7 0.663804 0.586006 0.888787
O O8 0.735225 0.980091 0.011226
O O9 0.162758 0.655018 0.796250
O O10 0.396949 0.681441 0.039133
O O11 0.028794 0.470755 0.153900
O O12 0.723095 0.195426 0.869168
O O13 0.500000 0.500000 0.500000
O O14 0.523607 0.466027 0.394664
O O15 0.769767 0.635662 0.331818
O O16 0.660944 0.050404 0.393202
O O17 0.939099 0.721952 0.350604
#
# Coordination Sequence:
#
# PCOD9017023 Si02
#       8
#     2   2   2   2   2   2   2   2
#     4  12  26  45  71 103 137 178 234 292 359 402
#     4  10  21  42  70  96 134 187 220 288 348 412
#     4  11  23  43  74  94 140 184 230 280 348 409
#     4  10  24  40  65 105 138 172 234 283 358 405
#     4  11  23  39  67 100 136 176 231 294 334 407
#     4  12  25  43  70 103 135 181 235 292 339 415
#     4  11  26  43  68 107 139 184 234 284 341 414
#     4  11  23  42  68  96 137 181 231 281 341 406
#
# _framework density 24.329853
#
# number of rings (size 3 to 8) (size 9 to 14) (size 15 to 20)
#    0.000    1.000    5.000    1.125    5.250    2.500 
#    0.000    3.125    0.000    0.000    0.000    0.000 
#    0.000    0.000    0.000    0.000    0.000    0.000 
#
# Total GULP energy -89349.092858 kJ/mol
# GULP energy per Si atom -5584.318304 kJ/mol
# Density = 2.427448 g / cm^3
# Si number density = 24.329853 Si / 1000 Ang^3
#
#
#
# Elastic Constant Matrix: (Units=GPa)
#
#
# Indices 1 2 3 4 5 6 
#
# 1 99.8332 35.3763 44.2091 26.2743 -26.6378 -10.7183
# 2 35.3763 76.8076 34.1277 33.9314 -17.9294 -24.2607
# 3 44.2091 34.1277 135.5934 41.7615 -8.0715 4.9506
# 4 26.2743 33.9314 41.7615 44.0094 -9.2447 -9.4067
# 5 -26.6378 -17.9294 -8.0715 -9.2447 45.3881 11.0840
# 6 -10.7183 -24.2607 4.9506 -9.4067 11.0840 41.5150
#
#
#
# Elastic Compliance Matrix: (Units=1/GPa)
#
#
# Indices 1 2 3 4 5 6 
#
# 1 0.014705 -0.002819 -0.002980 -0.002372 0.006443 0.000247
# 2 -0.002819 0.024601 -0.001410 -0.013229 0.002649 0.010112
# 3 -0.002980 -0.001410 0.011763 -0.009546 -0.000961 -0.004902
# 4 -0.002372 -0.013229 -0.009546 0.043981 -0.000033 0.002770
# 5 0.006443 0.002649 -0.000961 -0.000033 0.027677 -0.004071
# 6 0.000247 0.010112 -0.004902 0.002770 -0.004071 0.032360
#
#
# Mechanical properties :
#
#
# Convention : Reuss Voigt Hill
#
# Bulk Modulus (GPa) = 27.28410 59.96227 43.62318
# Shear Modulus (GPa) = 27.51458 39.41725 33.46592
#
# Velocity S-wave (km/s) = 3.36653 4.02944 3.71281
# Velocity P-wave (km/s) = 5.13322 6.80790 6.02899
#
# Compressibility (1/GPa) = 0.03665138
#
# Stress axis : x y z
#
# Youngs Moduli (GPa) = 68.00304 40.64916 85.00990
#
# Poissons Ratio (x) = 0.11459 0.25333
# Poissons Ratio (y) = 0.19171 0.11985
# Poissons Ratio (z) = 0.20265 0.05731
#
# Static dielectric constant tensor:
#      x y z
#    x 1.998160 -0.019980 -0.011220 
#    y -0.019980 1.919740 -0.067190 
#    z -0.011220 -0.067190 1.953200 
# 
# From -- ./inp_files/611696.got.cif
#   From: 2010.05.17/outbox.cif.g08.bks.cpg/sg2_306_cif.got.tgz:611696.got - 2010.06.03 11:33:40.
