data_PCOD9017392
_publ_section_title
;
Structure prediction by ZEFSAII (Michael W. Deem and Ramdas Pophale) SiO2 
 PCOD9017392
Probable space group: P -1
;
_chemical_formula_sum "Si O2"
_cell_formula_units_Z 15
_cell_length_a 8.074862
_cell_length_b 6.793632
_cell_length_c 13.677804
_cell_angle_alpha 69.634293
_cell_angle_beta 98.325633
_cell_angle_gamma 118.620042
_cell_volume 617.262341
_symmetry_space_group_name_H-M "P -1"
_symmetry_group_IT_number 2
_symmetry_cell_setting 'triclinic'
loop_
_space_group_symop_operation_xyz
x,y,z
-x,-y,-z
loop_
_atom_site_type_symbol
_atom_site_label
_atom_site_fract_x
_atom_site_fract_y
_atom_site_fract_z
Si Si1 0.560861 0.041527 0.154748
Si Si2 0.968925 0.163513 0.368091
Si Si3 0.152288 0.167169 0.770285
Si Si4 0.305369 0.488582 0.020044
Si Si5 0.623816 0.639282 0.577813
Si Si6 0.000000 0.000000 0.000000
Si Si7 0.251833 0.581937 0.212054
Si Si8 0.351678 0.730703 0.664665
O O1 0.677733 0.895537 0.180579
O O2 0.579042 0.156051 0.242550
O O3 0.340351 0.860452 0.149691
O O4 0.662876 0.252640 0.051310
O O5 0.149615 0.210001 0.442476
O O6 0.046454 0.408740 0.265779
O O7 0.931471 0.965825 0.317010
O O8 0.783982 0.158116 0.400647
O O9 0.235874 0.446565 0.713089
O O10 0.018723 0.063912 0.870346
O O11 0.279186 0.464196 0.137437
O O12 0.500000 0.500000 0.000000
O O13 0.134446 0.280215 0.987080
O O14 0.500000 0.500000 0.500000
O O15 0.622382 0.441347 0.686175
O O16 0.525232 0.774479 0.601449
#
# Coordination Sequence:
#
# PCOD9017392 Si02
#       8
#     2   2   2   2   2   1   2   2
#     4  11  23  40  67  93 136 185 224 270 335 409
#     4   9  23  39  66  98 129 172 223 275 337 399
#     4  11  21  41  62  97 137 175 224 277 326 401
#     4  12  24  39  63 100 135 187 231 270 339 404
#     4  10  22  46  71  96 131 170 224 285 342 409
#     4  12  22  38  62  94 136 182 230 266 334 400
#     4  10  21  43  60  96 138 168 226 286 323 395
#     4  11  22  41  70  94 137 176 216 278 344 400
#
# _framework density 24.300854000000001
#
# number of rings (size 3 to 8) (size 9 to 14) (size 15 to 20)
#    0.800    0.533    4.000    2.000    0.000    4.267 
#    0.000    1.333    0.000    0.000    0.000    0.000 
#    0.000    0.000    0.000    0.000    0.000    0.000 
#
# Total GULP energy -83603.034478 kJ/mol
# GULP energy per Si atom -5573.535632 kJ/mol
# Density = 2.424554 g / cm^3
# Si number density = 24.300854 Si / 1000 Ang^3
#
#
#
# Elastic Constant Matrix: (Units=GPa)
#
#
# Indices 1 2 3 4 5 6 
#
# 1 99.9582 18.6044 25.4027 13.0800 -14.5597 -9.5336
# 2 18.6044 144.1304 25.7971 13.7613 3.3594 16.6227
# 3 25.4027 25.7971 79.8385 11.7566 -15.5984 -11.1006
# 4 13.0800 13.7613 11.7566 35.4885 1.8195 -4.2344
# 5 -14.5597 3.3594 -15.5984 1.8195 11.8075 -2.8721
# 6 -9.5336 16.6227 -11.1006 -4.2344 -2.8721 36.5942
#
#
#
# Elastic Compliance Matrix: (Units=1/GPa)
#
#
# Indices 1 2 3 4 5 6 
#
# 1 0.015382 -0.003722 0.003820 -0.005930 0.028022 0.008370
# 2 -0.003722 0.010244 -0.007092 -0.000384 -0.019079 -0.009316
# 3 0.003820 -0.007092 0.025639 -0.007728 0.045356 0.014660
# 4 -0.005930 -0.000384 -0.007728 0.034066 -0.023046 -0.001581
# 5 0.028022 -0.019079 0.045356 -0.023046 0.198516 0.042639
# 6 0.008370 -0.009316 0.014660 -0.001581 0.042639 0.041349
#
#
# Mechanical properties :
#
#
# Convention : Reuss Voigt Hill
#
# Bulk Modulus (GPa) = 26.82583 51.50395 39.16489
# Shear Modulus (GPa) = 14.22037 33.71956 23.96997
#
# Velocity S-wave (km/s) = 2.42167 3.72907 3.14408
# Velocity P-wave (km/s) = 4.34538 6.30727 5.41590
#
# Compressibility (1/GPa) = 0.03727751
#
# Stress axis : x y z
#
# Youngs Moduli (GPa) = 65.01144 97.62055 39.00316
#
# Poissons Ratio (x) = 0.36330 -0.14900
# Poissons Ratio (y) = 0.24194 0.27661
# Poissons Ratio (z) = -0.24835 0.69234
#
# Static dielectric constant tensor:
#      x y z
#    x 2.009020 0.005450 0.004580 
#    y 0.005450 2.054880 -0.172280 
#    z 0.004580 -0.172280 2.031280 
# 
# From -- ./inp_files/487715.got.cif
#   From: 2010.05.17/outbox.cif.g08.bks.cpg/sg2_244_cif.got.tgz:487715.got - 2010.06.03 11:33:40.
