data_PCOD9017316
_publ_section_title
;
Structure prediction by ZEFSAII (Michael W. Deem and Ramdas Pophale) SiO2 
 PCOD9017316
Probable space group: P -1
;
_chemical_formula_sum "Si O2"
_cell_formula_units_Z 16
_cell_length_a 27.580726
_cell_length_b 9.257337
_cell_length_c 12.381866
_cell_angle_alpha 149.034831
_cell_angle_beta 154.458578
_cell_angle_gamma 34.819706
_cell_volume 685.218469
_symmetry_space_group_name_H-M "P -1"
_symmetry_group_IT_number 2
_symmetry_cell_setting 'triclinic'
loop_
_space_group_symop_operation_xyz
x,y,z
-x,-y,-z
loop_
_atom_site_type_symbol
_atom_site_label
_atom_site_fract_x
_atom_site_fract_y
_atom_site_fract_z
Si Si1 0.828543 0.951505 0.678075
Si Si2 0.882053 0.948669 0.548118
Si Si3 0.096960 0.016277 0.617247
Si Si4 0.463120 0.308151 0.569692
Si Si5 0.397480 0.286661 0.981212
Si Si6 0.692372 0.584478 0.882883
Si Si7 0.878216 0.607903 0.764436
Si Si8 0.767346 0.605867 0.740063
O O1 0.905380 0.881760 0.678754
O O2 0.717742 0.810908 0.348470
O O3 0.891851 0.795446 0.809385
O O4 0.773889 0.284711 0.812005
O O5 0.954742 0.879770 0.538706
O O6 0.845272 0.290369 0.694218
O O7 0.773815 0.807162 0.212060
O O8 0.162444 0.684493 0.533052
O O9 0.182412 0.212545 0.953065
O O10 0.000000 0.000000 0.500000
O O11 0.402671 0.310333 0.332532
O O12 0.357411 0.450426 0.524785
O O13 0.500000 0.000000 0.500000
O O14 0.562051 0.483721 0.867600
O O15 0.371888 0.425423 0.138074
O O16 0.500000 0.000000 0.000000
O O17 0.786359 0.760915 0.765704
O O18 0.000000 0.500000 0.000000
#
# Coordination Sequence:
#
# PCOD9017316 Si02
#       8
#     2   2   2   2   2   2   2   2
#     4  11  24  43  72 101 141 186 240 294 357 423
#     4  10  21  42  73  97 136 183 230 289 347 428
#     4  11  22  43  74  97 135 182 227 293 366 422
#     4  12  25  39  67 104 142 188 237 285 354 429
#     4  11  24  43  69 102 147 190 246 287 354 430
#     4  11  22  44  68  99 143 191 229 295 352 424
#     4  11  26  45  72 102 134 182 239 300 361 430
#     4  11  23  45  67  96 146 179 228 293 360 419
#
# _framework density 23.350218000000002
#
# number of rings (size 3 to 8) (size 9 to 14) (size 15 to 20)
#    0.000    1.000    5.000    1.125    3.500    1.000 
#    0.000    5.000    0.000    0.000    0.000    0.000 
#    0.000    0.000    0.000    0.000    0.000    0.000 
#
# Total GULP energy -89361.220770 kJ/mol
# GULP energy per Si atom -5585.076298 kJ/mol
# Density = 2.329707 g / cm^3
# Si number density = 23.350218 Si / 1000 Ang^3
#
#
#
# Elastic Constant Matrix: (Units=GPa)
#
#
# Indices 1 2 3 4 5 6 
#
# 1 199.6487 32.7491 15.5227 -2.4249 0.3587 21.7381
# 2 32.7491 82.1558 29.8523 7.0951 -12.1489 26.5654
# 3 15.5227 29.8523 101.4273 20.4396 2.1699 5.4954
# 4 -2.4249 7.0951 20.4396 34.7463 1.1565 2.7887
# 5 0.3587 -12.1489 2.1699 1.1565 43.5753 2.3300
# 6 21.7381 26.5654 5.4954 2.7887 2.3300 33.7415
#
#
#
# Elastic Compliance Matrix: (Units=1/GPa)
#
#
# Indices 1 2 3 4 5 6 
#
# 1 0.005562 -0.001352 -0.000553 0.001201 -0.000293 -0.002507
# 2 -0.001352 0.020347 -0.005063 -0.000310 0.006734 -0.014763
# 3 -0.000553 -0.005063 0.012650 -0.006617 -0.002020 0.002969
# 4 0.001201 -0.000310 -0.006617 0.033009 -0.000528 -0.002143
# 5 -0.000293 0.006734 -0.002020 -0.000528 0.025290 -0.006486
# 6 -0.002507 -0.014763 0.002969 -0.002143 -0.006486 0.043017
#
#
# Mechanical properties :
#
#
# Convention : Reuss Voigt Hill
#
# Bulk Modulus (GPa) = 40.61489 59.94220 50.27855
# Shear Modulus (GPa) = 30.86035 42.75314 36.80674
#
# Velocity S-wave (km/s) = 3.63937 4.28360 3.97456
# Velocity P-wave (km/s) = 5.92381 7.08466 6.53008
#
# Compressibility (1/GPa) = 0.02462151
#
# Stress axis : x y z
#
# Youngs Moduli (GPa) = 179.79996 49.14691 79.05132
#
# Poissons Ratio (x) = 0.06646 0.04371
# Poissons Ratio (y) = 0.24315 0.40027
# Poissons Ratio (z) = 0.09942 0.24885
#
# Static dielectric constant tensor:
#      x y z
#    x 2.105250 -0.085340 -0.010640 
#    y -0.085340 2.049070 -0.017980 
#    z -0.010640 -0.017980 1.874430 
# 
# From -- ./inp_files/476424.got.cif
#   From: 2010.05.17/outbox.cif.g08.bks.cpg/sg2_239_cif.got.tgz:476424.got - 2010.06.03 11:33:40.
