data_PCOD9017582
_publ_section_title
;
Structure prediction by ZEFSAII (Michael W. Deem and Ramdas Pophale) SiO2 
 PCOD9017582
Probable space group: P -1
;
_chemical_formula_sum "Si O2"
_cell_formula_units_Z 16
_cell_length_a 8.950471
_cell_length_b 7.712248
_cell_length_c 11.464531
_cell_angle_alpha 108.163215
_cell_angle_beta 104.854338
_cell_angle_gamma 91.830656
_cell_volume 721.403608
_symmetry_space_group_name_H-M "P -1"
_symmetry_group_IT_number 2
_symmetry_cell_setting 'triclinic'
loop_
_space_group_symop_operation_xyz
x,y,z
-x,-y,-z
loop_
_atom_site_type_symbol
_atom_site_label
_atom_site_fract_x
_atom_site_fract_y
_atom_site_fract_z
Si Si1 0.411657 0.349307 0.253465
Si Si2 0.641663 0.649863 0.020790
Si Si3 0.861460 0.261106 0.342138
Si Si4 0.431473 0.021009 0.782405
Si Si5 0.534986 0.750112 0.392849
Si Si6 0.129648 0.151262 0.500009
Si Si7 0.772610 0.412231 0.600414
Si Si8 0.892590 0.570147 0.239603
O O1 0.846345 0.366333 0.240352
O O2 0.472697 0.153228 0.229483
O O3 0.296783 0.400364 0.342392
O O4 0.334778 0.364607 0.115096
O O5 0.795211 0.614073 0.116634
O O6 0.583875 0.845339 0.083245
O O7 0.500000 0.500000 0.000000
O O8 0.829174 0.382326 0.474962
O O9 0.035475 0.216334 0.385933
O O10 0.743320 0.077909 0.291255
O O11 0.488568 0.154096 0.715145
O O12 0.457901 0.470450 0.671999
O O13 0.691560 0.862753 0.498333
O O14 0.378473 0.736836 0.436371
O O15 0.153275 0.297228 0.639904
O O16 0.000000 0.000000 0.500000
O O17 0.918529 0.395177 0.711944
#
# Coordination Sequence:
#
# PCOD9017582 Si02
#       8
#     2   2   2   2   2   2   2   2
#     4  10  24  42  65  99 133 177 221 274 338 387
#     4  12  21  42  72  95 134 171 227 287 322 393
#     4  11  23  40  67  98 134 179 223 272 331 406
#     4  12  22  41  67 103 130 175 229 266 337 403
#     4  10  21  43  64  99 133 175 222 270 339 384
#     4  11  18  37  59  90 133 170 224 266 320 398
#     4   9  23  45  63  98 141 181 209 279 343 391
#     4  11  23  42  66  98 132 179 226 271 337 391
#
# _framework density 22.178982999999999
#
# number of rings (size 3 to 8) (size 9 to 14) (size 15 to 20)
#    0.750    0.500    3.750    3.375    0.000    1.500 
#    2.250    2.500    0.000    2.250    0.000    0.000 
#    0.000    0.000    0.000    0.000    0.000    0.000 
#
# Total GULP energy -89294.393958 kJ/mol
# GULP energy per Si atom -5580.899622 kJ/mol
# Density = 2.212850 g / cm^3
# Si number density = 22.178983 Si / 1000 Ang^3
#
#
#
# Elastic Constant Matrix: (Units=GPa)
#
#
# Indices 1 2 3 4 5 6 
#
# 1 130.7894 38.3479 24.0777 1.2436 27.1464 11.4420
# 2 38.3479 120.1459 22.6010 4.1592 4.4865 -4.5251
# 3 24.0777 22.6010 62.9917 -0.3496 12.5143 -10.7239
# 4 1.2436 4.1592 -0.3496 38.1672 -4.2520 -0.4905
# 5 27.1464 4.4865 12.5143 -4.2520 34.7698 -3.5042
# 6 11.4420 -4.5251 -10.7239 -0.4905 -3.5042 37.3526
#
#
#
# Elastic Compliance Matrix: (Units=1/GPa)
#
#
# Indices 1 2 3 4 5 6 
#
# 1 0.011104 -0.002937 -0.002490 -0.001029 -0.008048 -0.005241
# 2 -0.002937 0.009742 -0.002514 -0.000746 0.002004 0.001537
# 3 -0.002490 -0.002514 0.019524 0.000142 -0.004170 0.005674
# 4 -0.001029 -0.000746 0.000142 0.026801 0.004228 0.001014
# 5 -0.008048 0.002004 -0.004170 0.004228 0.037314 0.005067
# 6 -0.005241 0.001537 0.005674 0.001014 0.005067 0.030681
#
#
# Mechanical properties :
#
#
# Convention : Reuss Voigt Hill
#
# Bulk Modulus (GPa) = 40.83338 53.77557 47.30447
# Shear Modulus (GPa) = 31.40512 37.31794 34.36153
#
# Velocity S-wave (km/s) = 3.76704 4.10638 3.94036
# Velocity P-wave (km/s) = 6.11323 6.83973 6.48666
#
# Compressibility (1/GPa) = 0.02448977
#
# Stress axis : x y z
#
# Youngs Moduli (GPa) = 90.05662 102.64461 51.21993
#
# Poissons Ratio (x) = 0.30148 0.12751
# Poissons Ratio (y) = 0.26451 0.12874
# Poissons Ratio (z) = 0.22420 0.25800
#
# Static dielectric constant tensor:
#      x y z
#    x 1.906470 -0.027680 0.036450 
#    y -0.027680 1.920250 -0.016080 
#    z 0.036450 -0.016080 1.795470 
# 
# From -- ./inp_files/493477.got.cif
#   From: 2010.05.17/outbox.cif.g08.bks.cpg/sg2_247_cif.got.tgz:493477.got - 2010.06.03 11:33:40.
