data_PCOD9017215
_publ_section_title
;
Structure prediction by ZEFSAII (Michael W. Deem and Ramdas Pophale) SiO2 
 PCOD9017215
Probable space group: P -1
;
_chemical_formula_sum "Si O2"
_cell_formula_units_Z 16
_cell_length_a 11.623838
_cell_length_b 18.513659
_cell_length_c 21.263656
_cell_angle_alpha 160.786998
_cell_angle_beta 148.700634
_cell_angle_gamma 28.652475
_cell_volume 712.334389
_symmetry_space_group_name_H-M "P -1"
_symmetry_group_IT_number 2
_symmetry_cell_setting 'triclinic'
loop_
_space_group_symop_operation_xyz
x,y,z
-x,-y,-z
loop_
_atom_site_type_symbol
_atom_site_label
_atom_site_fract_x
_atom_site_fract_y
_atom_site_fract_z
Si Si1 0.314924 0.083088 0.423230
Si Si2 0.063649 0.457759 0.327516
Si Si3 0.700828 0.033402 0.466295
Si Si4 0.615508 0.693504 0.841017
Si Si5 0.537141 0.044306 0.258097
Si Si6 0.199782 0.720265 0.502577
Si Si7 0.912955 0.874288 0.052008
Si Si8 0.729331 0.515787 0.881631
O O1 0.472627 0.013647 0.376591
O O2 0.163345 0.371143 0.596758
O O3 0.126582 0.958544 0.231493
O O4 0.500000 0.000000 0.500000
O O5 0.273131 0.262339 0.306997
O O6 0.137809 0.654506 0.488053
O O7 0.021243 0.308111 0.126508
O O8 0.666326 0.046795 0.386312
O O9 0.711871 0.275324 0.698773
O O10 0.948816 0.817242 0.425923
O O11 0.620611 0.535059 0.652672
O O12 0.354073 0.910363 0.908118
O O13 0.670239 0.528640 0.791132
O O14 0.840020 0.764285 0.989205
O O15 0.682209 0.094745 0.308227
O O16 0.550903 0.775800 0.038863
O O17 0.000000 0.500000 0.000000
#
# Coordination Sequence:
#
# PCOD9017215 Si02
#       8
#     2   2   2   2   2   2   2   2
#     4  12  28  49  71  98 143 197 238 278 353 426
#     4  11  25  45  73 105 134 187 238 292 347 415
#     4  12  27  47  64 104 149 187 233 287 346 433
#     4  10  21  42  72 107 136 175 228 298 356 399
#     4  12  24  42  73 105 140 181 234 297 361 406
#     4  11  21  43  70 104 145 176 232 297 352 409
#     4  10  24  45  72 103 142 174 236 300 341 412
#     4  12  24  40  69 102 144 183 227 281 361 420
#
# _framework density 22.461361
#
# number of rings (size 3 to 8) (size 9 to 14) (size 15 to 20)
#    0.000    0.750    5.000    2.250    3.500    2.000 
#    0.000    1.250    0.000    0.000    0.000    0.000 
#    0.000    0.000    0.000    0.000    0.000    0.000 
#
# Total GULP energy -89429.183440 kJ/mol
# GULP energy per Si atom -5589.323965 kJ/mol
# Density = 2.241024 g / cm^3
# Si number density = 22.461361 Si / 1000 Ang^3
#
#
#
# Elastic Constant Matrix: (Units=GPa)
#
#
# Indices 1 2 3 4 5 6 
#
# 1 38.8267 7.2861 22.9453 -2.0943 3.0215 -11.6173
# 2 7.2861 103.3304 12.2148 4.4466 5.9716 -10.6238
# 3 22.9453 12.2148 98.1181 -2.4089 18.5822 -13.5147
# 4 -2.0943 4.4466 -2.4089 33.3167 -5.5687 1.9371
# 5 3.0215 5.9716 18.5822 -5.5687 30.6114 -1.4576
# 6 -11.6173 -10.6238 -13.5147 1.9371 -1.4576 31.8414
#
#
#
# Elastic Compliance Matrix: (Units=1/GPa)
#
#
# Indices 1 2 3 4 5 6 
#
# 1 0.032328 -0.000761 -0.006526 0.001419 0.001594 0.008758
# 2 -0.000761 0.010280 -0.000370 -0.001943 -0.001915 0.003026
# 3 -0.006526 -0.000370 0.013579 -0.000810 -0.007533 0.002963
# 4 0.001419 -0.001943 -0.000810 0.031490 0.006359 -0.002099
# 5 0.001594 -0.001915 -0.007533 0.006359 0.038524 -0.001878
# 6 0.008758 0.003026 0.002963 -0.002099 -0.001878 0.036910
#
#
# Mechanical properties :
#
#
# Convention : Reuss Voigt Hill
#
# Bulk Modulus (GPa) = 24.46602 36.12974 30.29788
# Shear Modulus (GPa) = 26.03498 32.34251 29.18874
#
# Velocity S-wave (km/s) = 3.40825 3.79874 3.60878
# Velocity P-wave (km/s) = 5.13852 5.94649 5.55721
#
# Compressibility (1/GPa) = 0.04087302
#
# Stress axis : x y z
#
# Youngs Moduli (GPa) = 30.93312 97.27185 73.64354
#
# Poissons Ratio (x) = 0.07401 0.48060
# Poissons Ratio (y) = 0.02354 0.02726
# Poissons Ratio (z) = 0.20187 0.03600
#
# Static dielectric constant tensor:
#      x y z
#    x 1.833400 -0.007520 -0.006480 
#    y -0.007520 1.820700 0.012150 
#    z -0.006480 0.012150 1.901730 
# 
# From -- ./inp_files/280184.got.cif
#   From: 2010.05.17/outbox.cif.g08.bks.cpg/sg2_141_cif.got.tgz:280184.got - 2010.06.03 11:33:40.
