data_PCOD9017256
_publ_section_title
;
Structure prediction by ZEFSAII (Michael W. Deem and Ramdas Pophale) SiO2 
 PCOD9017256
Probable space group: P -1
;
_chemical_formula_sum "Si O2"
_cell_formula_units_Z 14
_cell_length_a 4.959125
_cell_length_b 19.214040
_cell_length_c 5.781980
_cell_angle_alpha 91.006123
_cell_angle_beta 84.719234
_cell_angle_gamma 75.232073
_cell_volume 529.992782
_symmetry_space_group_name_H-M "P -1"
_symmetry_group_IT_number 2
_symmetry_cell_setting 'triclinic'
loop_
_space_group_symop_operation_xyz
x,y,z
-x,-y,-z
loop_
_atom_site_type_symbol
_atom_site_label
_atom_site_fract_x
_atom_site_fract_y
_atom_site_fract_z
Si Si1 0.283930 0.910638 0.575844
Si Si2 0.798828 0.737819 0.968541
Si Si3 0.710493 0.962045 0.779464
Si Si4 0.288770 0.541727 0.324759
Si Si5 0.757199 0.215320 0.767834
Si Si6 0.217821 0.675431 0.580587
Si Si7 0.332561 0.405814 0.081229
O O1 0.578172 0.900820 0.679600
O O2 0.231583 0.851502 0.401638
O O3 0.039547 0.928293 0.791155
O O4 0.280855 0.978486 0.412509
O O5 0.473668 0.777489 0.013271
O O6 0.957538 0.774783 0.144980
O O7 0.831616 0.651330 0.996368
O O8 0.964521 0.734664 0.717120
O O9 0.500000 0.000000 0.000000
O O10 0.500000 0.500000 0.500000
O O11 0.104723 0.612625 0.466497
O O12 0.161493 0.481314 0.214029
O O13 0.479142 0.570036 0.126506
O O14 0.645097 0.284970 0.619152
O O15 0.446427 0.639257 0.751254
#
# Coordination Sequence:
#
# PCOD9017256 Si02
#       7
#     2   2   2   2   2   2   2
#     4  10  23  42  65 102 133 175 216 263 320 385
#     4  12  25  43  65  95 132 175 222 274 323 404
#     4  10  21  42  72  98 135 169 219 268 314 374
#     4   9  19  39  69  94 125 171 221 286 339 393
#     4  12  27  43  67  97 141 175 218 269 330 393
#     4  11  23  42  66  93 132 176 219 279 341 392
#     4  10  21  43  65  96 128 168 231 276 336 398
#
# _framework density 26.415455000000001
#
# number of rings (size 3 to 8) (size 9 to 14) (size 15 to 20)
#    0.000    1.429    2.857    1.286    2.000    2.857 
#    0.000   10.000    0.000    0.000    0.000    0.000 
#    0.000    0.000    0.000    0.000    0.000    0.000 
#
# Total GULP energy -78397.823599 kJ/mol
# GULP energy per Si atom -5599.844543 kJ/mol
# Density = 2.635533 g / cm^3
# Si number density = 26.415455 Si / 1000 Ang^3
#
#
#
# Elastic Constant Matrix: (Units=GPa)
#
#
# Indices 1 2 3 4 5 6 
#
# 1 123.8080 42.8541 24.5817 15.5174 -7.0238 22.6639
# 2 42.8541 122.7495 17.8978 34.7412 -3.1503 37.7583
# 3 24.5817 17.8978 65.4079 14.7123 -25.7194 5.5084
# 4 15.5174 34.7412 14.7123 62.9885 -0.2163 10.5541
# 5 -7.0238 -3.1503 -25.7194 -0.2163 34.1114 10.0433
# 6 22.6639 37.7583 5.5084 10.5541 10.0433 44.5246
#
#
#
# Elastic Compliance Matrix: (Units=1/GPa)
#
#
# Indices 1 2 3 4 5 6 
#
# 1 0.009941 -0.002052 -0.002512 -0.000197 0.000893 -0.003164
# 2 -0.002052 0.013551 0.000938 -0.005447 0.004532 -0.010294
# 3 -0.002512 0.000938 0.025764 -0.004796 0.020808 -0.006261
# 4 -0.000197 -0.005447 -0.004796 0.019757 -0.004520 0.001649
# 5 0.000893 0.004532 0.020808 -0.004520 0.050650 -0.017226
# 6 -0.003164 -0.010294 -0.006261 0.001649 -0.017226 0.037069
#
#
# Mechanical properties :
#
#
# Convention : Reuss Voigt Hill
#
# Bulk Modulus (GPa) = 23.80865 53.62583 38.71724
# Shear Modulus (GPa) = 28.09197 43.43369 35.76283
#
# Velocity S-wave (km/s) = 3.26462 4.05934 3.68348
# Velocity P-wave (km/s) = 4.82111 6.50507 5.72534
#
# Compressibility (1/GPa) = 0.04200154
#
# Stress axis : x y z
#
# Youngs Moduli (GPa) = 100.59639 73.79551 38.81345
#
# Poissons Ratio (x) = 0.15146 0.09751
# Poissons Ratio (y) = 0.20646 -0.03639
# Poissons Ratio (z) = 0.25274 -0.06919
#
# Static dielectric constant tensor:
#      x y z
#    x 2.036060 -0.000960 0.014160 
#    y -0.000960 2.078070 0.032780 
#    z 0.014160 0.032780 2.069700 
# 
# From -- ./inp_files/7798.got.cif
#   From: 2010.05.17/outbox.cif.g08.bks.cpg/sg2_4_cif.got.tgz:7798.got - 2010.06.03 11:33:40.
