data_PCOD9017975
_publ_section_title
;
Structure prediction by ZEFSAII (Michael W. Deem and Ramdas Pophale) SiO2 
 PCOD9017975
Probable space group: P -1
;
_chemical_formula_sum "Si O2"
_cell_formula_units_Z 14
_cell_length_a 15.021201
_cell_length_b 18.570972
_cell_length_c 8.029687
_cell_angle_alpha 76.082172
_cell_angle_beta 91.773571
_cell_angle_gamma 160.032027
_cell_volume 600.204603
_symmetry_space_group_name_H-M "P -1"
_symmetry_group_IT_number 2
_symmetry_cell_setting 'triclinic'
loop_
_space_group_symop_operation_xyz
x,y,z
-x,-y,-z
loop_
_atom_site_type_symbol
_atom_site_label
_atom_site_fract_x
_atom_site_fract_y
_atom_site_fract_z
Si Si1 0.163934 0.633584 0.117406
Si Si2 0.178216 0.782712 0.663172
Si Si3 0.180714 0.097838 0.813281
Si Si4 0.876871 0.241847 0.927120
Si Si5 0.729965 0.708404 0.742855
Si Si6 0.094571 0.261551 0.837015
Si Si7 0.066810 0.263379 0.472121
O O1 0.093641 0.494729 0.253145
O O2 0.543308 0.954169 0.974290
O O3 0.015877 0.589738 0.216995
O O4 0.000000 0.500000 0.000000
O O5 0.179711 0.796616 0.855486
O O6 0.125127 0.819066 0.555176
O O7 0.500000 0.000000 0.500000
O O8 0.558562 0.413750 0.662302
O O9 0.996922 0.971801 0.702330
O O10 0.000000 0.000000 0.000000
O O11 0.109488 0.954727 0.933218
O O12 0.105278 0.355297 0.843672
O O13 0.457480 0.521258 0.709673
O O14 0.917194 0.790025 0.627810
O O15 0.500000 0.500000 0.000000
O O16 0.945226 0.138973 0.713025
#
# Coordination Sequence:
#
# PCOD9017975 Si02
#       7
#     2   2   2   2   2   2   2
#     4   9  21  42  69  91 127 173 229 275 337 387
#     4  11  25  43  67  98 138 176 227 282 334 400
#     4  11  23  43  71  94 136 180 215 275 341 393
#     4  10  22  44  68  94 134 176 224 278 341 395
#     4  10  21  43  67  96 135 170 215 273 332 398
#     4  11  24  43  69 100 137 172 225 276 329 411
#     4  12  25  44  66 101 134 177 226 273 335 400
#
# _framework density 23.325381
#
# number of rings (size 3 to 8) (size 9 to 14) (size 15 to 20)
#    0.000    1.429    2.857    3.000    6.000    1.143 
#    5.143    0.000    0.000    0.000    0.000    0.000 
#    0.000    0.000    0.000    0.000    0.000    0.000 
#
# Total GULP energy -78235.838624 kJ/mol
# GULP energy per Si atom -5588.274187 kJ/mol
# Density = 2.327229 g / cm^3
# Si number density = 23.325381 Si / 1000 Ang^3
#
#
#
# Elastic Constant Matrix: (Units=GPa)
#
#
# Indices 1 2 3 4 5 6 
#
# 1 150.1550 19.8150 11.3734 21.3474 -25.6550 1.6983
# 2 19.8150 99.1246 2.1527 12.4218 1.4871 -6.4347
# 3 11.3734 2.1527 47.7699 20.6520 -8.5283 -1.3706
# 4 21.3474 12.4218 20.6520 37.1472 -1.9059 2.2476
# 5 -25.6550 1.4871 -8.5283 -1.9059 34.1032 6.2857
# 6 1.6983 -6.4347 -1.3706 2.2476 6.2857 41.1212
#
#
#
# Elastic Compliance Matrix: (Units=1/GPa)
#
#
# Indices 1 2 3 4 5 6 
#
# 1 0.008597 -0.001336 0.001250 -0.004760 0.006812 -0.001304
# 2 -0.001336 0.010983 0.001212 -0.003812 -0.001818 0.002300
# 3 0.001250 0.001212 0.029258 -0.017085 0.007071 0.000966
# 4 -0.004760 -0.003812 -0.017085 0.040319 -0.004990 -0.002410
# 5 0.006812 -0.001818 0.007071 -0.004990 0.037071 -0.005724
# 6 -0.001304 0.002300 0.000966 -0.002410 -0.005724 0.025771
#
#
# Mechanical properties :
#
#
# Convention : Reuss Voigt Hill
#
# Bulk Modulus (GPa) = 19.57279 40.41462 29.99370
# Shear Modulus (GPa) = 29.98031 40.05489 35.01760
#
# Velocity S-wave (km/s) = 3.58901 4.14844 3.87882
# Velocity P-wave (km/s) = 5.05807 6.34902 5.73995
#
# Compressibility (1/GPa) = 0.05109134
#
# Stress axis : x y z
#
# Youngs Moduli (GPa) = 116.32202 91.04745 34.17873
#
# Poissons Ratio (x) = 0.12163 -0.04273
# Poissons Ratio (y) = 0.15540 -0.04144
# Poissons Ratio (z) = -0.14542 -0.11039
#
# Static dielectric constant tensor:
#      x y z
#    x 1.953980 0.019500 0.102070 
#    y 0.019500 1.908860 0.013900 
#    z 0.102070 0.013900 1.977970 
# 
# From -- ./inp_files/317687.got.cif
#   From: 2010.05.17/outbox.cif.g08.bks.cpg/sg2_159_cif.got.tgz:317687.got - 2010.06.03 11:33:40.
