data_PCOD9017247
_publ_section_title
;
Structure prediction by ZEFSAII (Michael W. Deem and Ramdas Pophale) SiO2 
 PCOD9017247
Probable space group: P -1
;
_chemical_formula_sum "Si O2"
_cell_formula_units_Z 16
_cell_length_a 17.472901
_cell_length_b 11.497530
_cell_length_c 8.503808
_cell_angle_alpha 82.027995
_cell_angle_beta 68.487372
_cell_angle_gamma 142.122727
_cell_volume 645.950761
_symmetry_space_group_name_H-M "P -1"
_symmetry_group_IT_number 2
_symmetry_cell_setting 'triclinic'
loop_
_space_group_symop_operation_xyz
x,y,z
-x,-y,-z
loop_
_atom_site_type_symbol
_atom_site_label
_atom_site_fract_x
_atom_site_fract_y
_atom_site_fract_z
Si Si1 0.747044 0.841351 0.947820
Si Si2 0.483992 0.719282 0.222388
Si Si3 0.678317 0.502431 0.929551
Si Si4 0.778524 0.763812 0.260558
Si Si5 0.883443 0.545142 0.307989
Si Si6 0.249864 0.885027 0.513319
Si Si7 0.547178 0.946050 0.364927
Si Si8 0.998379 0.761496 0.823609
O O1 0.599766 0.758137 0.049745
O O2 0.743626 0.724028 0.858411
O O3 0.692757 0.710703 0.180173
O O4 0.960209 0.179172 0.758283
O O5 0.383966 0.533938 0.490371
O O6 0.644363 0.023804 0.112091
O O7 0.324828 0.540536 0.240335
O O8 0.452410 0.184907 0.217337
O O9 0.817420 0.599212 0.914434
O O10 0.827616 0.919873 0.329615
O O11 0.000000 0.000000 0.000000
O O12 0.846367 0.363296 0.417801
O O13 0.667837 0.324698 0.511578
O O14 0.945347 0.638674 0.058406
O O15 0.086211 0.773481 0.650309
O O16 0.329572 0.968355 0.616565
O O17 0.500000 0.000000 0.500000
#
# Coordination Sequence:
#
# PCOD9017247 Si02
#       8
#     2   2   2   2   2   2   2   2
#     4  11  23  44  71 105 144 185 242 295 350 425
#     4  12  25  43  69 107 143 193 230 295 370 424
#     4  12  26  45  69 108 156 185 231 295 364 435
#     4  11  21  41  67 101 134 176 242 294 347 411
#     4  10  22  43  74 102 137 185 249 304 339 413
#     4  11  23  46  75 101 139 192 246 294 350 425
#     4  10  21  42  72  97 132 182 243 296 337 411
#     4  11  22  40  72 106 138 186 242 298 357 412
#
# _framework density 24.769687999999999
#
# number of rings (size 3 to 8) (size 9 to 14) (size 15 to 20)
#    0.000    1.000    2.500    5.625    0.000    1.500 
#    4.500    3.125    0.000    1.500    0.000    0.000 
#    0.000    0.000    0.000    0.000    0.000    0.000 
#
# Total GULP energy -89215.685274 kJ/mol
# GULP energy per Si atom -5575.980330 kJ/mol
# Density = 2.471331 g / cm^3
# Si number density = 24.769688 Si / 1000 Ang^3
#
#
#
# Elastic Constant Matrix: (Units=GPa)
#
#
# Indices 1 2 3 4 5 6 
#
# 1 77.7012 21.7790 -8.2419 15.6731 -4.5709 -22.2889
# 2 21.7790 163.3743 18.2757 18.0254 25.1022 -26.1786
# 3 -8.2419 18.2757 -20.1857 20.0859 -2.3241 -17.2915
# 4 15.6731 18.0254 20.0859 18.2102 -4.5899 14.6983
# 5 -4.5709 25.1022 -2.3241 -4.5899 6.9956 11.8539
# 6 -22.2889 -26.1786 -17.2915 14.6983 11.8539 31.6833
#
#
#
# Elastic Compliance Matrix: (Units=1/GPa)
#
#
# Indices 1 2 3 4 5 6 
#
# 1 0.013181 -0.000852 -0.009473 -0.000890 0.004041 0.002299
# 2 -0.000852 -0.001438 0.010039 0.006000 0.028246 -0.009660
# 3 -0.009473 0.010039 -0.022671 0.010178 -0.046072 0.001774
# 4 -0.000890 0.006000 0.010178 0.014879 -0.038313 0.017318
# 5 0.004041 0.028246 -0.046072 -0.038313 -0.076729 0.047518
# 6 0.002299 -0.009660 0.001774 0.017318 0.047518 0.000354
#
#
# Mechanical properties :
#
#
# Convention : Reuss Voigt Hill
#
# Bulk Modulus (GPa) = -86.95844 31.61282 -27.67281
# Shear Modulus (GPa) = -66.06228 23.98294 -21.03967
#
# Velocity S-wave (km/s) = -5.16996 3.11503 -2.91763
# Velocity P-wave (km/s) = 8.41552 5.07230 4.74830
#
# Compressibility (1/GPa) = -0.01149975
#
# Stress axis : x y z
#
# Youngs Moduli (GPa) = 75.86965 -695.22995 -44.11002
#
# Poissons Ratio (x) = -0.59215 -0.41785
# Poissons Ratio (y) = 0.06462 0.44282
# Poissons Ratio (z) = 0.71871 6.97943
#
# Static dielectric constant tensor:
#      x y z
#    x 2.069010 -0.199240 -0.098310 
#    y -0.199240 2.155060 0.111150 
#    z -0.098310 0.111150 1.925070 
# 
# From -- ./inp_files/331928.got.cif
#   From: 2010.05.17/outbox.cif.g08.bks.cpg/sg2_166_cif.got.tgz:331928.got - 2010.06.03 11:33:40.
