data_PCOD9017834
_publ_section_title
;
Structure prediction by ZEFSAII (Michael W. Deem and Ramdas Pophale) SiO2 
 PCOD9017834
Probable space group: P -1
;
_chemical_formula_sum "Si O2"
_cell_formula_units_Z 14
_cell_length_a 10.304472
_cell_length_b 8.729011
_cell_length_c 11.828259
_cell_angle_alpha 139.830166
_cell_angle_beta 60.525722
_cell_angle_gamma 114.372540
_cell_volume 596.193022
_symmetry_space_group_name_H-M "P -1"
_symmetry_group_IT_number 2
_symmetry_cell_setting 'triclinic'
loop_
_space_group_symop_operation_xyz
x,y,z
-x,-y,-z
loop_
_atom_site_type_symbol
_atom_site_label
_atom_site_fract_x
_atom_site_fract_y
_atom_site_fract_z
Si Si1 0.175244 0.695583 0.959222
Si Si2 0.333899 0.916737 0.416978
Si Si3 0.953297 0.824175 0.316054
Si Si4 0.409891 0.729871 0.521962
Si Si5 0.501833 0.719824 0.858739
Si Si6 0.662879 0.568214 0.921035
Si Si7 0.827265 0.039693 0.117098
O O1 0.087377 0.459648 0.811962
O O2 0.331212 0.633834 0.915150
O O3 0.219562 0.865828 0.931856
O O4 0.075212 0.827606 0.166195
O O5 0.405519 0.799841 0.430391
O O6 0.263021 0.682357 0.251641
O O7 0.203776 0.078175 0.599960
O O8 0.459936 0.074617 0.382035
O O9 0.000000 0.000000 0.500000
O O10 0.457036 0.460748 0.360711
O O11 0.247064 0.769959 0.663073
O O12 0.624474 0.670123 0.871818
O O13 0.500000 0.000000 0.000000
O O14 0.500000 0.500000 0.000000
O O15 0.758361 0.789111 0.055403
O O16 0.000000 0.000000 0.000000
#
# Coordination Sequence:
#
# PCOD9017834 Si02
#       7
#     2   2   2   2   2   2   2
#     4  11  26  46  69 103 141 184 233 298 357 420
#     4  10  21  43  66  97 129 179 240 278 336 424
#     4  11  26  45  71 100 141 186 229 289 364 432
#     4  10  22  42  71  95 132 184 229 288 348 411
#     4  11  23  45  67  97 139 178 237 296 345 414
#     4  11  24  41  71 100 132 187 236 283 345 426
#     4  12  26  44  67 103 145 180 231 296 359 421
#
# _framework density 23.482329
#
# number of rings (size 3 to 8) (size 9 to 14) (size 15 to 20)
#    0.000    1.143    4.286    0.857    4.000    2.857 
#    0.000    2.143    0.000    0.000    0.000    0.000 
#    0.000    0.000    0.000    0.000    0.000    0.000 
#
# Total GULP energy -78079.386781 kJ/mol
# GULP energy per Si atom -5577.099056 kJ/mol
# Density = 2.342888 g / cm^3
# Si number density = 23.482329 Si / 1000 Ang^3
#
#
#
# Elastic Constant Matrix: (Units=GPa)
#
#
# Indices 1 2 3 4 5 6 
#
# 1 37.9656 -4.0364 15.2413 12.6856 -10.3681 6.0445
# 2 -4.0364 97.0855 57.2636 25.5193 7.8920 10.9819
# 3 15.2413 57.2636 168.4903 28.7385 -24.7490 11.8458
# 4 12.6856 25.5193 28.7385 37.9635 1.9366 -2.6460
# 5 -10.3681 7.8920 -24.7490 1.9366 47.1078 -2.0826
# 6 6.0445 10.9819 11.8458 -2.6460 -2.0826 30.7903
#
#
#
# Elastic Compliance Matrix: (Units=1/GPa)
#
#
# Indices 1 2 3 4 5 6 
#
# 1 0.036942 0.007530 -0.001213 -0.017554 0.006488 -0.010541
# 2 0.007530 0.017377 -0.004767 -0.010893 -0.003621 -0.007023
# 3 -0.001213 -0.004767 0.009217 -0.003755 0.005459 -0.001561
# 4 -0.017554 -0.010893 -0.003755 0.043487 -0.005261 0.012157
# 5 0.006488 -0.003621 0.005459 -0.005261 0.026313 -0.000755
# 6 -0.010541 -0.007023 -0.001561 0.012157 -0.000755 0.038646
#
#
# Mechanical properties :
#
#
# Convention : Reuss Voigt Hill
#
# Bulk Modulus (GPa) = 15.00664 48.94205 31.97435
# Shear Modulus (GPa) = 26.16493 38.84387 32.50440
#
# Velocity S-wave (km/s) = 3.34164 4.07157 3.72453
# Velocity P-wave (km/s) = 4.61446 6.55674 5.66940
#
# Compressibility (1/GPa) = 0.06663716
#
# Stress axis : x y z
#
# Youngs Moduli (GPa) = 27.06921 57.54668 108.49462
#
# Poissons Ratio (x) = -0.43335 0.13160
# Poissons Ratio (y) = -0.20384 0.51721
# Poissons Ratio (z) = 0.03283 0.27433
#
# Static dielectric constant tensor:
#      x y z
#    x 2.088050 -0.002440 0.027090 
#    y -0.002440 1.953900 0.124520 
#    z 0.027090 0.124520 2.054410 
# 
# From -- ./inp_files/332755.got.cif
#   From: 2010.05.17/outbox.cif.g08.bks.cpg/sg2_167_cif.got.tgz:332755.got - 2010.06.03 11:33:40.
