data_PCOD9017933
_publ_section_title
;
Structure prediction by ZEFSAII (Michael W. Deem and Ramdas Pophale) SiO2 
 PCOD9017933
Probable space group: P -1
;
_chemical_formula_sum "Si O2"
_cell_formula_units_Z 16
_cell_length_a 10.197088
_cell_length_b 19.719400
_cell_length_c 11.018430
_cell_angle_alpha 135.974067
_cell_angle_beta 44.144079
_cell_angle_gamma 155.156433
_cell_volume 630.648725
_symmetry_space_group_name_H-M "P -1"
_symmetry_group_IT_number 2
_symmetry_cell_setting 'triclinic'
loop_
_space_group_symop_operation_xyz
x,y,z
-x,-y,-z
loop_
_atom_site_type_symbol
_atom_site_label
_atom_site_fract_x
_atom_site_fract_y
_atom_site_fract_z
Si Si1 0.295551 0.762448 0.110080
Si Si2 0.900047 0.112770 0.477288
Si Si3 0.265590 0.371965 0.377447
Si Si4 0.662990 0.399440 0.969089
Si Si5 0.281266 0.948086 0.969433
Si Si6 0.690793 0.807858 0.504221
Si Si7 0.721289 0.234005 0.441272
Si Si8 0.603255 0.652559 0.149886
O O1 0.165289 0.810880 0.311701
O O2 0.014979 0.584049 0.003675
O O3 0.554420 0.895318 0.007702
O O4 0.413165 0.738411 0.104470
O O5 0.998276 0.186557 0.373257
O O6 0.202421 0.180686 0.419701
O O7 0.583753 0.916877 0.463458
O O8 0.500000 0.500000 0.500000
O O9 0.445480 0.387778 0.171778
O O10 0.058229 0.377210 0.473129
O O11 0.636578 0.386741 0.824536
O O12 0.239081 0.846787 0.768862
O O13 0.939652 0.825411 0.093341
O O14 0.500000 0.000000 0.000000
O O15 0.388733 0.737703 0.556226
O O16 0.651822 0.690832 0.307105
O O17 0.000000 0.000000 0.500000
O O18 0.500000 0.500000 0.000000
#
# Coordination Sequence:
#
# PCOD9017933 Si02
#       8
#     2   2   2   2   2   2   2   2
#     4  10  23  42  67  95 140 176 236 280 352 421
#     4  10  21  43  67  94 136 179 225 286 348 410
#     4  12  24  41  65  93 140 178 225 284 346 416
#     4  11  24  43  64 102 133 186 230 289 353 414
#     4  11  22  43  70  98 138 183 231 291 353 420
#     4  10  23  44  71 103 138 182 235 288 353 423
#     4  10  23  42  65 102 132 179 236 277 348 422
#     4  12  25  43  72  99 144 178 234 295 351 415
#
# _framework density 25.370699999999999
#
# number of rings (size 3 to 8) (size 9 to 14) (size 15 to 20)
#    0.000    1.250    2.500    4.125    1.750    3.500 
#    2.250    2.500    0.000    0.000    0.000    0.000 
#    0.000    0.000    0.000    0.000    0.000    0.000 
#
# Total GULP energy -89479.575217 kJ/mol
# GULP energy per Si atom -5592.473451 kJ/mol
# Density = 2.531296 g / cm^3
# Si number density = 25.370700 Si / 1000 Ang^3
#
#
#
# Elastic Constant Matrix: (Units=GPa)
#
#
# Indices 1 2 3 4 5 6 
#
# 1 159.3122 23.8483 13.3912 2.9449 -12.5171 12.1851
# 2 23.8483 78.2781 17.0932 1.2649 -8.3522 -7.9768
# 3 13.3912 17.0932 65.3553 12.3674 -0.4286 7.8680
# 4 2.9449 1.2649 12.3674 31.7277 -2.0627 -0.7150
# 5 -12.5171 -8.3522 -0.4286 -2.0627 36.8970 8.4313
# 6 12.1851 -7.9768 7.8680 -0.7150 8.4313 48.9160
#
#
#
# Elastic Compliance Matrix: (Units=1/GPa)
#
#
# Indices 1 2 3 4 5 6 
#
# 1 0.007004 -0.001990 -0.000562 -0.000246 0.002455 -0.002405
# 2 -0.001990 0.014796 -0.004105 0.001396 0.001962 0.003251
# 3 -0.000562 -0.004105 0.018230 -0.007001 -0.000505 -0.003477
# 4 -0.000246 0.001396 -0.007001 0.034362 0.001701 0.001624
# 5 0.002455 0.001962 -0.000505 0.001701 0.029680 -0.005301
# 6 -0.002405 0.003251 -0.003477 0.001624 -0.005301 0.023069
#
#
# Mechanical properties :
#
#
# Convention : Reuss Voigt Hill
#
# Bulk Modulus (GPa) = 37.43193 45.73454 41.58324
# Shear Modulus (GPa) = 33.47646 40.08234 36.77940
#
# Velocity S-wave (km/s) = 3.63642 3.97907 3.81160
# Velocity P-wave (km/s) = 5.69363 6.25910 5.98305
#
# Compressibility (1/GPa) = 0.02671516
#
# Stress axis : x y z
#
# Youngs Moduli (GPa) = 142.78444 67.58766 54.85518
#
# Poissons Ratio (x) = 0.13451 0.03084
# Poissons Ratio (y) = 0.28416 0.22515
# Poissons Ratio (z) = 0.08028 0.27741
#
# Static dielectric constant tensor:
#      x y z
#    x 1.871990 0.060910 -0.138970 
#    y 0.060910 1.966980 -0.003150 
#    z -0.138970 -0.003150 2.016350 
# 
# From -- ./inp_files/403197.got.cif
#   From: 2010.05.17/outbox.cif.g08.bks.cpg/sg2_202_cif.got.tgz:403197.got - 2010.06.03 11:33:40.
