data_PCOD9017185
_publ_section_title
;
Structure prediction by ZEFSAII (Michael W. Deem and Ramdas Pophale) SiO2 
 PCOD9017185
Probable space group: P -1
;
_chemical_formula_sum "Si O2"
_cell_formula_units_Z 14
_cell_length_a 9.283368
_cell_length_b 19.048600
_cell_length_c 7.846131
_cell_angle_alpha 57.755811
_cell_angle_beta 92.818728
_cell_angle_gamma 44.345912
_cell_volume 561.862707
_symmetry_space_group_name_H-M "P -1"
_symmetry_group_IT_number 2
_symmetry_cell_setting 'triclinic'
loop_
_space_group_symop_operation_xyz
x,y,z
-x,-y,-z
loop_
_atom_site_type_symbol
_atom_site_label
_atom_site_fract_x
_atom_site_fract_y
_atom_site_fract_z
Si Si1 0.508083 0.088683 0.138054
Si Si2 0.691956 0.763234 0.693584
Si Si3 0.850424 0.882943 0.968662
Si Si4 0.656526 0.652000 0.327892
Si Si5 0.359689 0.392123 0.217527
Si Si6 0.439538 0.594124 0.218247
Si Si7 0.855542 0.265565 0.472649
O O1 0.404470 0.149626 0.246653
O O2 0.252273 0.159834 0.946503
O O3 0.521557 0.173334 0.948575
O O4 0.829851 0.881603 0.413080
O O5 0.647985 0.686177 0.794659
O O6 0.457314 0.913921 0.345985
O O7 0.045223 0.597406 0.901025
O O8 0.076407 0.776655 0.959178
O O9 0.027081 0.825833 0.216892
O O10 0.642416 0.632934 0.549879
O O11 0.550162 0.628792 0.235470
O O12 0.000000 0.500000 0.500000
O O13 0.655536 0.296499 0.332881
O O14 0.500000 0.500000 0.500000
O O15 0.632137 0.454101 0.261860
#
# Coordination Sequence:
#
# PCOD9017185 Si02
#       7
#     2   2   2   2   2   2   2
#     4  12  26  43  69 113 139 178 235 295 341 409
#     4  11  26  45  69  99 149 190 220 284 361 422
#     4  11  23  47  73  99 140 187 232 284 354 411
#     4  12  22  42  77 103 135 176 243 290 330 406
#     4  11  24  47  70 101 140 191 230 279 358 414
#     4  10  21  42  72 101 132 180 232 283 342 405
#     4  11  24  44  74 103 137 178 248 283 334 412
#
# _framework density 24.917121000000002
#
# number of rings (size 3 to 8) (size 9 to 14) (size 15 to 20)
#    0.000    0.857    4.286    4.286    2.000    2.857 
#    0.000    1.429    0.000    0.000    0.000    0.000 
#    0.000    0.000    0.000    0.000    0.000    0.000 
#
# Total GULP energy -78440.472177 kJ/mol
# GULP energy per Si atom -5602.890870 kJ/mol
# Density = 2.486041 g / cm^3
# Si number density = 24.917121 Si / 1000 Ang^3
#
#
#
# Elastic Constant Matrix: (Units=GPa)
#
#
# Indices 1 2 3 4 5 6 
#
# 1 138.7636 25.4185 32.5046 -32.6551 25.6741 1.2274
# 2 25.4185 81.6977 -2.4879 -33.3899 11.3809 -0.9412
# 3 32.5046 -2.4879 110.8878 -17.5204 3.5157 1.9416
# 4 -32.6551 -33.3899 -17.5204 41.6716 -7.6996 -2.4544
# 5 25.6741 11.3809 3.5157 -7.6996 52.0408 -3.8577
# 6 1.2274 -0.9412 1.9416 -2.4544 -3.8577 32.6794
#
#
#
# Elastic Compliance Matrix: (Units=1/GPa)
#
#
# Indices 1 2 3 4 5 6 
#
# 1 0.009788 -0.000052 -0.001771 0.006166 -0.003804 -0.000250
# 2 -0.000052 0.019383 0.003097 0.016528 -0.001874 0.001396
# 3 -0.001771 0.003097 0.010475 0.005554 0.000310 -0.000013
# 4 0.006166 0.016528 0.005554 0.044561 -0.000199 0.003238
# 5 -0.003804 -0.001874 0.000310 -0.000199 0.021645 0.002611
# 6 -0.000250 0.001396 -0.000013 0.003238 0.002611 0.031202
#
#
# Mechanical properties :
#
#
# Convention : Reuss Voigt Hill
#
# Bulk Modulus (GPa) = 23.70107 49.13550 36.41828
# Shear Modulus (GPa) = 33.65383 43.67263 38.66323
#
# Velocity S-wave (km/s) = 3.67908 4.19109 3.94340
# Velocity P-wave (km/s) = 5.25168 6.57135 5.94823
#
# Compressibility (1/GPa) = 0.04219219
#
# Stress axis : x y z
#
# Youngs Moduli (GPa) = 102.16543 51.59217 95.46861
#
# Poissons Ratio (x) = 0.00269 0.16908
# Poissons Ratio (y) = 0.00532 -0.29562
# Poissons Ratio (z) = 0.18094 -0.15976
#
# Static dielectric constant tensor:
#      x y z
#    x 1.945910 -0.041280 -0.042990 
#    y -0.041280 2.008810 0.001490 
#    z -0.042990 0.001490 1.975350 
# 
# From -- ./inp_files/206010.got.cif
#   From: 2010.05.17/outbox.cif.g08.bks.cpg/sg2_104_cif.got.tgz:206010.got - 2010.06.03 11:33:40.
