data_PCOD9017323
_publ_section_title
;
Structure prediction by ZEFSAII (Michael W. Deem and Ramdas Pophale) SiO2 
 PCOD9017323
Probable space group: P -1
;
_chemical_formula_sum "Si O2"
_cell_formula_units_Z 13
_cell_length_a 6.208247
_cell_length_b 6.989919
_cell_length_c 14.101033
_cell_angle_alpha 120.495181
_cell_angle_beta 82.729078
_cell_angle_gamma 112.175948
_cell_volume 486.646517
_symmetry_space_group_name_H-M "P -1"
_symmetry_group_IT_number 2
_symmetry_cell_setting 'triclinic'
loop_
_space_group_symop_operation_xyz
x,y,z
-x,-y,-z
loop_
_atom_site_type_symbol
_atom_site_label
_atom_site_fract_x
_atom_site_fract_y
_atom_site_fract_z
Si Si1 0.500000 0.000000 0.500000
Si Si2 0.997050 0.624932 0.432295
Si Si3 0.062535 0.192889 0.232108
Si Si4 0.573617 0.487993 0.298163
Si Si5 0.132832 0.702108 0.907642
Si Si6 0.651408 0.335723 0.926627
Si Si7 0.616171 0.947694 0.305526
O O1 0.203156 0.878265 0.477958
O O2 0.530492 0.115383 0.416844
O O3 0.057957 0.455945 0.310712
O O4 0.000000 0.500000 0.500000
O O5 0.733364 0.569225 0.401253
O O6 0.333999 0.260208 0.253610
O O7 0.941518 0.128170 0.118483
O O8 0.884529 0.030793 0.278977
O O9 0.719976 0.427798 0.190461
O O10 0.541365 0.735677 0.335362
O O11 0.891990 0.511210 0.911938
O O12 0.285999 0.790258 0.016814
O O13 0.519681 0.150458 0.807000
O O14 0.500000 0.500000 0.000000
#
# Coordination Sequence:
#
# PCOD9017323 Si02
#       7
#     1   2   2   2   2   2   2
#     4  12  24  46  70  98 140 180 232 276 342 408
#     4  11  24  44  67  95 135 181 226 283 335 401
#     4  11  23  44  66 103 139 176 232 279 342 408
#     4  11  23  45  68  98 143 174 226 284 340 410
#     4  10  21  42  73  99 138 182 217 292 344 397
#     4  11  21  43  75 101 137 181 229 280 345 403
#     4  12  24  43  71 100 137 186 227 281 343 404
#
# _framework density 26.713432000000001
#
# number of rings (size 3 to 8) (size 9 to 14) (size 15 to 20)
#    0.000    0.923    6.154    0.923    0.000    3.077 
#    5.538    3.077    0.000    0.000    0.000    0.000 
#    0.000    0.000    0.000    0.000    0.000    0.000 
#
# Total GULP energy -72423.260646 kJ/mol
# GULP energy per Si atom -5571.020050 kJ/mol
# Density = 2.665263 g / cm^3
# Si number density = 26.713432 Si / 1000 Ang^3
#
#
#
# Elastic Constant Matrix: (Units=GPa)
#
#
# Indices 1 2 3 4 5 6 
#
# 1 141.5838 72.0409 54.9770 -11.7611 29.0976 34.5193
# 2 72.0409 139.1817 37.1046 -20.8430 21.0755 42.0559
# 3 54.9770 37.1046 150.6493 -12.3162 40.9788 19.7272
# 4 -11.7611 -20.8430 -12.3162 42.6926 -4.9729 -4.7050
# 5 29.0976 21.0755 40.9788 -4.9729 54.2387 -1.3467
# 6 34.5193 42.0559 19.7272 -4.7050 -1.3467 53.1897
#
#
#
# Elastic Compliance Matrix: (Units=1/GPa)
#
#
# Indices 1 2 3 4 5 6 
#
# 1 0.011250 -0.003695 -0.001790 -0.000030 -0.003344 -0.003803
# 2 -0.003695 0.012151 0.000374 0.003912 -0.002839 -0.007074
# 3 -0.001790 0.000374 0.009337 0.001373 -0.006178 -0.002632
# 4 -0.000030 0.003912 0.001373 0.025548 -0.000232 -0.001329
# 5 -0.003344 -0.002839 -0.006178 -0.000232 0.026163 0.007348
# 6 -0.003803 -0.007074 -0.002632 -0.001329 0.007348 0.027907
#
#
# Mechanical properties :
#
#
# Convention : Reuss Voigt Hill
#
# Bulk Modulus (GPa) = 44.41374 84.40664 64.41019
# Shear Modulus (GPa) = 38.43721 47.84368 43.14045
#
# Velocity S-wave (km/s) = 3.79736 4.23661 4.02298
# Velocity P-wave (km/s) = 5.99072 7.45637 6.76336
#
# Compressibility (1/GPa) = 0.02251556
#
# Stress axis : x y z
#
# Youngs Moduli (GPa) = 88.88777 82.29918 107.10493
#
# Poissons Ratio (x) = 0.30407 0.19175
# Poissons Ratio (y) = 0.32841 -0.04005
# Poissons Ratio (z) = 0.15913 -0.03078
#
# Static dielectric constant tensor:
#      x y z
#    x 2.016420 0.077480 0.336260 
#    y 0.077480 1.950540 -0.181280 
#    z 0.336260 -0.181280 1.942390 
# 
# From -- ./inp_files/32742.got.cif
#   From: 2010.05.17/outbox.cif.g08.bks.cpg/sg2_17_cif.got.tgz:32742.got - 2010.06.03 11:33:40.
