data_PCOD9017441
_publ_section_title
;
Structure prediction by ZEFSAII (Michael W. Deem and Ramdas Pophale) SiO2 
 PCOD9017441
Probable space group: P -1
;
_chemical_formula_sum "Si O2"
_cell_formula_units_Z 12
_cell_length_a 11.045558
_cell_length_b 8.963362
_cell_length_c 13.613634
_cell_angle_alpha 71.962492
_cell_angle_beta 30.291801
_cell_angle_gamma 89.576354
_cell_volume 543.234134
_symmetry_space_group_name_H-M "P -1"
_symmetry_group_IT_number 2
_symmetry_cell_setting 'triclinic'
loop_
_space_group_symop_operation_xyz
x,y,z
-x,-y,-z
loop_
_atom_site_type_symbol
_atom_site_label
_atom_site_fract_x
_atom_site_fract_y
_atom_site_fract_z
Si Si1 0.261437 0.834935 0.267121
Si Si2 0.410742 0.941705 0.842314
Si Si3 0.087879 0.009760 0.821761
Si Si4 0.834478 0.486994 0.863476
Si Si5 0.314404 0.807519 0.585127
Si Si6 0.302434 0.493635 0.274375
O O1 0.320100 0.670529 0.273336
O O2 0.940974 0.711901 0.475181
O O3 0.302127 0.939979 0.318598
O O4 0.500000 0.000000 0.000000
O O5 0.516147 0.016020 0.643890
O O6 0.266486 0.723666 0.000992
O O7 0.173154 0.981611 0.041064
O O8 0.420387 0.184074 0.547621
O O9 0.119395 0.847408 0.784388
O O10 0.000000 0.000000 0.000000
O O11 0.792582 0.506179 0.772621
O O12 0.132020 0.630879 0.678204
O O13 0.604623 0.521887 0.064032
#
# Coordination Sequence:
#
# PCOD9017441 Si02
#       6
#     2   2   2   2   2   2
#     4  11  21  39  60  87 125 165 205 244 295 359
#     4  11  22  38  62  94 119 164 205 244 303 362
#     4   9  21  42  67  87 117 157 204 252 311 362
#     4  11  22  38  59  89 124 159 204 248 300 357
#     4  10  21  43  63  88 123 157 198 260 305 357
#     4  10  23  37  56  89 125 164 203 247 294 355
#
# _framework density 22.089922999999999
#
# number of rings (size 3 to 8) (size 9 to 14) (size 15 to 20)
#    0.000    1.667    3.333    1.000    0.000    4.000 
#    0.000    7.500    0.000    0.000    0.000    0.000 
#    0.000    0.000    0.000    0.000    0.000    0.000 
#
# Total GULP energy -66848.378498 kJ/mol
# GULP energy per Si atom -5570.698208 kJ/mol
# Density = 2.203965 g / cm^3
# Si number density = 22.089923 Si / 1000 Ang^3
#
#
#
# Elastic Constant Matrix: (Units=GPa)
#
#
# Indices 1 2 3 4 5 6 
#
# 1 38.9385 6.3350 14.7833 -15.9833 -11.1547 18.6320
# 2 6.3350 76.8000 33.8456 -5.5819 -7.6973 15.7162
# 3 14.7833 33.8456 94.5308 -16.7358 -2.5483 -0.0267
# 4 -15.9833 -5.5819 -16.7358 50.9629 8.9490 -10.2016
# 5 -11.1547 -7.6973 -2.5483 8.9490 35.4648 -1.4201
# 6 18.6320 15.7162 -0.0267 -10.2016 -1.4201 24.3040
#
#
#
# Elastic Compliance Matrix: (Units=1/GPa)
#
#
# Indices 1 2 3 4 5 6 
#
# 1 0.060006 0.013824 -0.013487 0.002087 0.018256 -0.053014
# 2 0.013824 0.022460 -0.010580 -0.003345 0.008263 -0.026055
# 3 -0.013487 -0.010580 0.017226 0.005094 -0.005825 0.018998
# 4 0.002087 -0.003345 0.005094 0.024672 -0.005505 0.010604
# 5 0.018256 0.008263 -0.005825 -0.005505 0.035920 -0.019557
# 6 -0.053014 -0.026055 0.018998 0.010604 -0.019557 0.101964
#
#
# Mechanical properties :
#
#
# Convention : Reuss Voigt Hill
#
# Bulk Modulus (GPa) = 12.62538 35.57745 24.10142
# Shear Modulus (GPa) = 16.17403 32.50002 24.33702
#
# Velocity S-wave (km/s) = 2.70884 3.83986 3.32283
# Velocity P-wave (km/s) = 3.93848 5.98332 5.06516
#
# Compressibility (1/GPa) = 0.07920553
#
# Stress axis : x y z
#
# Youngs Moduli (GPa) = 16.66496 44.52335 58.05148
#
# Poissons Ratio (x) = -0.61549 0.78294
# Poissons Ratio (y) = -0.23037 0.61420
# Poissons Ratio (z) = 0.22476 0.47107
#
# Static dielectric constant tensor:
#      x y z
#    x 1.941260 -0.006240 0.014590 
#    y -0.006240 1.786960 0.043590 
#    z 0.014590 0.043590 1.853710 
# 
# From -- ./inp_files/30147.got.cif
#   From: 2010.05.17/outbox.cif.g08.bks.cpg/sg2_16_cif.got.tgz:30147.got - 2010.06.03 11:33:40.
