data_PCOD9017740
_publ_section_title
;
Structure prediction by ZEFSAII (Michael W. Deem and Ramdas Pophale) SiO2 
 PCOD9017740
Probable space group: P -1
;
_chemical_formula_sum "Si O2"
_cell_formula_units_Z 16
_cell_length_a 8.736901
_cell_length_b 15.842986
_cell_length_c 12.969613
_cell_angle_alpha 45.253138
_cell_angle_beta 110.985546
_cell_angle_gamma 73.302172
_cell_volume 692.331914
_symmetry_space_group_name_H-M "P -1"
_symmetry_group_IT_number 2
_symmetry_cell_setting 'triclinic'
loop_
_space_group_symop_operation_xyz
x,y,z
-x,-y,-z
loop_
_atom_site_type_symbol
_atom_site_label
_atom_site_fract_x
_atom_site_fract_y
_atom_site_fract_z
Si Si1 0.798977 0.120953 0.947661
Si Si2 0.307583 0.228982 0.745049
Si Si3 0.261299 0.743253 0.535011
Si Si4 0.141276 0.551559 0.731970
Si Si5 0.702722 0.860407 0.515190
Si Si6 0.750991 0.747883 0.053247
Si Si7 0.738337 0.018591 0.559880
Si Si8 0.787605 0.372895 0.842888
O O1 0.511336 0.218993 0.777562
O O2 0.733166 0.294110 0.820208
O O3 0.978044 0.946207 0.229608
O O4 0.000000 0.000000 0.000000
O O5 0.191152 0.306022 0.766874
O O6 0.081747 0.337090 0.510032
O O7 0.500000 0.000000 0.000000
O O8 0.255843 0.615266 0.690292
O O9 0.285226 0.828059 0.556671
O O10 0.515835 0.589604 0.645554
O O11 0.342515 0.321862 0.959467
O O12 0.980447 0.639295 0.725741
O O13 0.536327 0.874960 0.541371
O O14 0.760543 0.948513 0.513415
O O15 0.492265 0.014506 0.237327
O O16 0.027872 0.635747 0.161435
O O17 0.006857 0.807016 0.867593
#
# Coordination Sequence:
#
# PCOD9017740 Si02
#       8
#     2   2   2   2   2   2   2   2
#     4  11  24  39  62  89 122 162 202 250 298 353
#     4  12  22  42  61  87 127 162 203 245 297 362
#     4  11  23  41  60  91 125 159 201 252 304 356
#     4  12  25  39  63  89 125 164 200 249 301 362
#     4  10  21  43  66  90 117 158 207 252 306 357
#     4  11  23  40  63  91 122 164 203 246 299 362
#     4   9  22  42  67  89 119 156 203 260 302 356
#     4  10  23  40  63  91 124 158 204 250 301 358
#
# _framework density 23.110302999999998
#
# number of rings (size 3 to 8) (size 9 to 14) (size 15 to 20)
#    0.000    1.250    2.500    2.625    5.250    3.000 
#    0.000    5.000    0.000    0.000    0.000    0.000 
#    0.000    0.000    0.000    0.000    0.000    0.000 
#
# Total GULP energy -89527.209276 kJ/mol
# GULP energy per Si atom -5595.450580 kJ/mol
# Density = 2.305770 g / cm^3
# Si number density = 23.110303 Si / 1000 Ang^3
#
#
#
# Elastic Constant Matrix: (Units=GPa)
#
#
# Indices 1 2 3 4 5 6 
#
# 1 75.3809 11.0564 2.1906 3.9853 0.7721 23.0567
# 2 11.0564 104.7588 1.0764 -2.0994 5.0783 9.7112
# 3 2.1906 1.0764 34.6324 -4.3184 -1.8241 1.5802
# 4 3.9853 -2.0994 -4.3184 28.5544 5.0614 -2.0191
# 5 0.7721 5.0783 -1.8241 5.0614 23.3650 -6.6342
# 6 23.0567 9.7112 1.5802 -2.0191 -6.6342 42.4520
#
#
#
# Elastic Compliance Matrix: (Units=1/GPa)
#
#
# Indices 1 2 3 4 5 6 
#
# 1 0.016397 -0.000802 -0.001062 -0.002720 -0.002473 -0.009199
# 2 -0.000802 0.010016 -0.000168 0.001206 -0.003070 -0.002272
# 3 -0.001062 -0.000168 0.029567 0.004351 0.001421 -0.000056
# 4 -0.002720 0.001206 0.004351 0.037595 -0.007507 0.001654
# 5 -0.002473 -0.003070 0.001421 -0.007507 0.047874 0.009117
# 6 -0.009199 -0.002272 -0.000056 0.001654 0.009117 0.030577
#
#
# Mechanical properties :
#
#
# Convention : Reuss Voigt Hill
#
# Bulk Modulus (GPa) = 19.26174 27.04654 23.15414
# Shear Modulus (GPa) = 25.85387 32.23754 29.04570
#
# Velocity S-wave (km/s) = 3.34835 3.73894 3.54902
# Velocity P-wave (km/s) = 4.82715 5.51074 5.18023
#
# Compressibility (1/GPa) = 0.05191640
#
# Stress axis : x y z
#
# Youngs Moduli (GPa) = 60.98638 99.84362 33.82133
#
# Poissons Ratio (x) = 0.08003 0.03592
# Poissons Ratio (y) = 0.04889 0.00569
# Poissons Ratio (z) = 0.06477 0.01679
#
# Static dielectric constant tensor:
#      x y z
#    x 1.853650 0.000930 0.001240 
#    y 0.000930 1.897270 -0.023180 
#    z 0.001240 -0.023180 1.874980 
# 
# From -- ./inp_files/272604.got.cif
#   From: 2010.05.17/outbox.cif.g08.bks.cpg/sg2_137_cif.got.tgz:272604.got - 2010.06.03 11:33:40.
