data_PCOD9017497
_publ_section_title
;
Structure prediction by ZEFSAII (Michael W. Deem and Ramdas Pophale) SiO2 
 PCOD9017497
Probable space group: P -1
;
_chemical_formula_sum "Si O2"
_cell_formula_units_Z 16
_cell_length_a 12.347804
_cell_length_b 5.417730
_cell_length_c 12.043091
_cell_angle_alpha 114.418308
_cell_angle_beta 118.445784
_cell_angle_gamma 70.712475
_cell_volume 636.000417
_symmetry_space_group_name_H-M "P -1"
_symmetry_group_IT_number 2
_symmetry_cell_setting 'triclinic'
loop_
_space_group_symop_operation_xyz
x,y,z
-x,-y,-z
loop_
_atom_site_type_symbol
_atom_site_label
_atom_site_fract_x
_atom_site_fract_y
_atom_site_fract_z
Si Si1 0.342847 0.357164 0.189998
Si Si2 0.371754 0.837932 0.976579
Si Si3 0.108188 0.844377 0.881648
Si Si4 0.540970 0.600861 0.212723
Si Si5 0.980349 0.119206 0.388663
Si Si6 0.080728 0.359155 0.112991
Si Si7 0.779129 0.645947 0.461867
Si Si8 0.575148 0.747861 0.559820
O O1 0.431589 0.571060 0.240583
O O2 0.206909 0.485277 0.193681
O O3 0.397224 0.169088 0.285719
O O4 0.331597 0.160425 0.042171
O O5 0.482100 0.736393 0.097237
O O6 0.250434 0.697105 0.915696
O O7 0.411322 0.724011 0.854136
O O8 0.070609 0.992257 0.772309
O O9 0.004603 0.655504 0.823778
O O10 0.115189 0.044831 0.027229
O O11 0.661307 0.720079 0.335193
O O12 0.872914 0.385527 0.408989
O O13 0.122306 0.151911 0.434908
O O14 0.000000 0.000000 0.500000
O O15 0.000000 0.500000 0.000000
O O16 0.702911 0.626670 0.534784
O O17 0.500000 0.500000 0.500000
O O18 0.500000 0.000000 0.500000
#
# Coordination Sequence:
#
# PCOD9017497 Si02
#       8
#     2   2   2   2   2   2   2   2
#     4  11  23  40  65  99 134 176 233 279 362 423
#     4  10  22  39  65  96 129 174 217 293 356 417
#     4  10  21  43  63  97 134 167 235 288 352 435
#     4  11  21  41  66  97 133 169 223 290 356 432
#     4  11  26  45  70  98 140 192 241 304 360 436
#     4  10  22  40  67  98 131 178 223 293 362 429
#     4  11  25  46  67 103 136 187 246 292 367 433
#     4  12  27  47  74 106 148 195 242 303 365 444
#
# _framework density 25.157214
#
# number of rings (size 3 to 8) (size 9 to 14) (size 15 to 20)
#    0.000    1.250    2.500    2.625    1.750    4.000 
#    9.000    0.000    0.000    0.000    0.000    0.000 
#    0.000    0.000    0.000    0.000    0.000    0.000 
#
# Total GULP energy -89246.685103 kJ/mol
# GULP energy per Si atom -5577.917819 kJ/mol
# Density = 2.509996 g / cm^3
# Si number density = 25.157214 Si / 1000 Ang^3
#
#
#
# Elastic Constant Matrix: (Units=GPa)
#
#
# Indices 1 2 3 4 5 6 
#
# 1 182.8821 19.5070 18.7203 8.0012 30.4457 17.5577
# 2 19.5070 45.1365 5.1370 -8.9242 7.3609 9.3400
# 3 18.7203 5.1370 107.5667 -7.3415 15.1668 -2.3513
# 4 8.0012 -8.9242 -7.3415 37.3048 -12.8541 -4.6075
# 5 30.4457 7.3609 15.1668 -12.8541 47.4566 -5.0708
# 6 17.5577 9.3400 -2.3513 -4.6075 -5.0708 19.5711
#
#
#
# Elastic Compliance Matrix: (Units=1/GPa)
#
#
# Indices 1 2 3 4 5 6 
#
# 1 0.008203 -0.001303 -0.000948 -0.006108 -0.007506 -0.010234
# 2 -0.001303 0.026460 -0.000559 0.003973 -0.003234 -0.011428
# 3 -0.000948 -0.000559 0.009902 0.001684 -0.001774 0.002244
# 4 -0.006108 0.003973 0.001684 0.036312 0.014314 0.016043
# 5 -0.007506 -0.003234 -0.001774 0.014314 0.032967 0.019975
# 6 -0.010234 -0.011428 0.002244 0.016043 0.019975 0.074953
#
#
# Mechanical properties :
#
#
# Convention : Reuss Voigt Hill
#
# Bulk Modulus (GPa) = 25.67759 46.92376 36.30067
# Shear Modulus (GPa) = 24.10805 40.34788 32.22797
#
# Velocity S-wave (km/s) = 3.09899 4.00913 3.58308
# Velocity P-wave (km/s) = 4.79938 6.33431 5.61950
#
# Compressibility (1/GPa) = 0.03894447
#
# Stress axis : x y z
#
# Youngs Moduli (GPa) = 121.90209 37.79327 100.98634
#
# Poissons Ratio (x) = 0.04926 0.09570
# Poissons Ratio (y) = 0.15888 0.05649
# Poissons Ratio (z) = 0.11553 0.02114
#
# Static dielectric constant tensor:
#      x y z
#    x 2.062570 -0.035170 -0.042960 
#    y -0.035170 2.111420 0.107020 
#    z -0.042960 0.107020 2.105600 
# 
# From -- ./inp_files/78804.got.cif
#   From: 2010.05.17/outbox.cif.g08.bks.cpg/sg2_40_cif.got.tgz:78804.got - 2010.06.03 11:33:40.
