data_PCOD9017493
_publ_section_title
;
Structure prediction by ZEFSAII (Michael W. Deem and Ramdas Pophale) SiO2 
 PCOD9017493
Probable space group: P -1
;
_chemical_formula_sum "Si O2"
_cell_formula_units_Z 16
_cell_length_a 14.428454
_cell_length_b 9.775054
_cell_length_c 11.779625
_cell_angle_alpha 64.452580
_cell_angle_beta 30.907002
_cell_angle_gamma 57.483862
_cell_volume 717.868490
_symmetry_space_group_name_H-M "P -1"
_symmetry_group_IT_number 2
_symmetry_cell_setting 'triclinic'
loop_
_space_group_symop_operation_xyz
x,y,z
-x,-y,-z
loop_
_atom_site_type_symbol
_atom_site_label
_atom_site_fract_x
_atom_site_fract_y
_atom_site_fract_z
Si Si1 0.836020 0.384921 0.953545
Si Si2 0.584754 0.544590 0.569230
Si Si3 0.906281 0.965708 0.777104
Si Si4 0.926188 0.767479 0.465450
Si Si5 0.529720 0.245101 0.600832
Si Si6 0.948030 0.131063 0.105970
Si Si7 0.027527 0.625742 0.643197
Si Si8 0.497605 0.957064 0.885601
O O1 0.970234 0.289282 0.743041
O O2 0.855373 0.559671 0.872919
O O3 0.620054 0.382016 0.175320
O O4 0.919749 0.300255 0.015131
O O5 0.564601 0.383938 0.591038
O O6 0.591163 0.661974 0.415637
O O7 0.773250 0.492450 0.468221
O O8 0.906809 0.914954 0.925899
O O9 0.977939 0.802991 0.686059
O O10 0.694431 0.081042 0.920603
O O11 0.047181 0.065442 0.585980
O O12 0.031511 0.640115 0.498347
O O13 0.695811 0.814276 0.693285
O O14 0.741087 0.143562 0.366294
O O15 0.468789 0.118646 0.783014
O O16 0.000000 0.000000 0.000000
O O17 0.500000 0.000000 0.000000
#
# Coordination Sequence:
#
# PCOD9017493 Si02
#       8
#     2   2   2   2   2   2   2   2
#     4  11  26  44  68  99 142 178 220 287 343 390
#     4  10  23  41  67  96 132 181 219 274 337 402
#     4  12  25  42  74 100 131 188 227 275 347 403
#     4  12  26  48  65 100 144 177 225 289 336 404
#     4  10  21  43  63  96 141 167 221 284 329 398
#     4  11  21  45  71  98 141 177 223 288 341 396
#     4  12  25  42  71 100 135 180 233 272 334 414
#     4  12  25  41  70 102 133 175 233 282 333 403
#
# _framework density 22.288205999999999
#
# number of rings (size 3 to 8) (size 9 to 14) (size 15 to 20)
#    0.000    0.750    5.000    1.500    3.500    2.000 
#    0.000    1.250    0.000    0.000    0.000    0.000 
#    0.000    0.000    0.000    0.000    0.000    0.000 
#
# Total GULP energy -89496.767580 kJ/mol
# GULP energy per Si atom -5593.547974 kJ/mol
# Density = 2.223748 g / cm^3
# Si number density = 22.288206 Si / 1000 Ang^3
#
#
#
# Elastic Constant Matrix: (Units=GPa)
#
#
# Indices 1 2 3 4 5 6 
#
# 1 95.9928 13.3366 29.5215 8.9991 0.2060 -38.5982
# 2 13.3366 52.0779 6.1583 -5.5161 1.0345 -17.5016
# 3 29.5215 6.1583 82.3411 20.4693 7.1093 -18.5529
# 4 8.9991 -5.5161 20.4693 45.4333 -3.4075 4.6572
# 5 0.2060 1.0345 7.1093 -3.4075 34.9883 4.6575
# 6 -38.5982 -17.5016 -18.5529 4.6572 4.6575 50.3492
#
#
#
# Elastic Compliance Matrix: (Units=1/GPa)
#
#
# Indices 1 2 3 4 5 6 
#
# 1 0.016324 -0.000204 -0.002020 -0.003724 -0.001666 0.012198
# 2 -0.000204 0.021987 -0.000299 0.001992 -0.001368 0.007319
# 3 -0.002020 -0.000299 0.016591 -0.008058 -0.004889 0.005659
# 4 -0.003724 0.001992 -0.008058 0.027867 0.005407 -0.008209
# 5 -0.001666 -0.001368 -0.004889 0.005407 0.031074 -0.006929
# 6 0.012198 0.007319 0.005659 -0.008209 -0.006929 0.035242
#
#
# Mechanical properties :
#
#
# Convention : Reuss Voigt Hill
#
# Bulk Modulus (GPa) = 20.05707 36.49383 28.27545
# Shear Modulus (GPa) = 29.28264 38.24720 33.76492
#
# Velocity S-wave (km/s) = 3.62859 4.14699 3.89642
# Velocity P-wave (km/s) = 5.15501 6.27210 5.74079
#
# Compressibility (1/GPa) = 0.04985774
#
# Stress axis : x y z
#
# Youngs Moduli (GPa) = 61.25889 45.48077 60.27235
#
# Poissons Ratio (x) = 0.00926 0.12172
# Poissons Ratio (y) = 0.01247 0.01804
# Poissons Ratio (z) = 0.12371 0.01362
#
# Static dielectric constant tensor:
#      x y z
#    x 1.797290 -0.018860 0.009310 
#    y -0.018860 1.891690 -0.007060 
#    z 0.009310 -0.007060 1.846250 
# 
# From -- ./inp_files/451214.got.cif
#   From: 2010.05.17/outbox.cif.g08.bks.cpg/sg2_226_cif.got.tgz:451214.got - 2010.06.03 11:33:40.
