data_PCOD9017831
_publ_section_title
;
Structure prediction by ZEFSAII (Michael W. Deem and Ramdas Pophale) SiO2 
 PCOD9017831
Probable space group: P -1
;
_chemical_formula_sum "Si O2"
_cell_formula_units_Z 12
_cell_length_a 6.164507
_cell_length_b 22.444533
_cell_length_c 5.302140
_cell_angle_alpha 128.224283
_cell_angle_beta 106.949003
_cell_angle_gamma 64.189674
_cell_volume 518.566571
_symmetry_space_group_name_H-M "P -1"
_symmetry_group_IT_number 2
_symmetry_cell_setting 'triclinic'
loop_
_space_group_symop_operation_xyz
x,y,z
-x,-y,-z
loop_
_atom_site_type_symbol
_atom_site_label
_atom_site_fract_x
_atom_site_fract_y
_atom_site_fract_z
Si Si1 0.414622 0.682298 0.472104
Si Si2 0.114041 0.698237 0.909215
Si Si3 0.359341 0.181524 0.105966
Si Si4 0.738440 0.927275 0.791389
Si Si5 0.084696 0.447021 0.640108
Si Si6 0.811296 0.039667 0.751986
O O1 0.285459 0.706117 0.760607
O O2 0.539039 0.747191 0.608332
O O3 0.627633 0.597263 0.359847
O O4 0.237153 0.681988 0.181763
O O5 0.879765 0.778810 0.036798
O O6 0.029623 0.623764 0.606119
O O7 0.293904 0.145456 0.249277
O O8 0.570949 0.116255 0.849950
O O9 0.736381 0.963306 0.606879
O O10 0.012102 0.926391 0.934415
O O11 0.500000 0.000000 0.000000
O O12 0.000000 0.500000 0.500000
O O13 0.000000 0.500000 0.000000
O O14 0.000000 0.000000 0.500000
#
# Coordination Sequence:
#
# PCOD9017831 Si02
#       6
#     2   2   2   2   2   2
#     4  11  25  47  69 104 145 189 235 282 352 422
#     4  11  25  47  69 102 146 190 231 288 350 417
#     4  10  23  45  65  99 136 186 239 293 354 430
#     4   9  20  42  61  92 127 168 227 292 358 417
#     4  11  24  43  75 111 143 183 233 286 341 416
#     4  10  21  43  66  97 127 174 237 302 364 414
#
# _framework density 23.140712000000001
#
# number of rings (size 3 to 8) (size 9 to 14) (size 15 to 20)
#    0.000    1.667    0.000    3.000    0.000   10.667 
#   39.000    0.000    0.000    0.000    0.000    0.000 
#    0.000    0.000    0.000    0.000    0.000    0.000 
#
# Total GULP energy -66934.313815 kJ/mol
# GULP energy per Si atom -5577.859485 kJ/mol
# Density = 2.308804 g / cm^3
# Si number density = 23.140712 Si / 1000 Ang^3
#
#
#
# Elastic Constant Matrix: (Units=GPa)
#
#
# Indices 1 2 3 4 5 6 
#
# 1 129.4547 76.3573 23.1648 3.4042 -19.4822 -12.6364
# 2 76.3573 185.0733 52.8286 3.0436 -14.4787 -20.0327
# 3 23.1648 52.8286 60.0037 -4.9711 -17.0223 -20.2976
# 4 3.4042 3.0436 -4.9711 38.7335 3.7152 2.8594
# 5 -19.4822 -14.4787 -17.0223 3.7152 44.5904 0.9340
# 6 -12.6364 -20.0327 -20.2976 2.8594 0.9340 70.2923
#
#
#
# Elastic Compliance Matrix: (Units=1/GPa)
#
#
# Indices 1 2 3 4 5 6 
#
# 1 0.010773 -0.004300 0.000935 -0.000918 0.003724 0.000969
# 2 -0.004300 0.009014 -0.006816 -0.001057 -0.001464 -0.000110
# 3 0.000935 -0.006816 0.026756 0.002690 0.008065 0.005735
# 4 -0.000918 -0.001057 0.002690 0.026565 -0.001915 -0.000744
# 5 0.003724 -0.001464 0.008065 -0.001915 0.026768 0.002303
# 6 0.000969 -0.000110 0.005735 -0.000744 0.002303 0.016025
#
#
# Mechanical properties :
#
#
# Convention : Reuss Voigt Hill
#
# Bulk Modulus (GPa) = 38.19480 75.47035 56.83257
# Shear Modulus (GPa) = 34.48491 45.53532 40.01012
#
# Velocity S-wave (km/s) = 3.86453 4.44075 4.16263
# Velocity P-wave (km/s) = 6.03772 7.67973 6.90769
#
# Compressibility (1/GPa) = 0.02618157
#
# Stress axis : x y z
#
# Youngs Moduli (GPa) = 92.82470 110.93747 37.37416
#
# Poissons Ratio (x) = 0.47708 -0.03496
# Poissons Ratio (y) = 0.39918 0.25474
# Poissons Ratio (z) = -0.08682 0.75614
#
# Static dielectric constant tensor:
#      x y z
#    x 1.594460 0.093230 -0.268780 
#    y 0.093230 1.786000 0.069230 
#    z -0.268780 0.069230 1.641350 
# 
# From -- ./inp_files/7102.got.cif
#   From: 2010.05.17/outbox.cif.g08.bks.cpg/sg2_4_cif.got.tgz:7102.got - 2010.06.03 11:33:40.
