data_PCOD9017561
_publ_section_title
;
Structure prediction by ZEFSAII (Michael W. Deem and Ramdas Pophale) SiO2 
 PCOD9017561
Probable space group: P -1
;
_chemical_formula_sum "Si O2"
_cell_formula_units_Z 15
_cell_length_a 6.148451
_cell_length_b 16.978143
_cell_length_c 7.003895
_cell_angle_alpha 68.207760
_cell_angle_beta 63.358113
_cell_angle_gamma 70.015633
_cell_volume 593.113791
_symmetry_space_group_name_H-M "P -1"
_symmetry_group_IT_number 2
_symmetry_cell_setting 'triclinic'
loop_
_space_group_symop_operation_xyz
x,y,z
-x,-y,-z
loop_
_atom_site_type_symbol
_atom_site_label
_atom_site_fract_x
_atom_site_fract_y
_atom_site_fract_z
Si Si1 0.314187 0.434329 0.107694
Si Si2 0.769588 0.781231 0.218455
Si Si3 0.667178 0.299630 0.532508
Si Si4 0.947038 0.868757 0.443460
Si Si5 0.485326 0.103136 0.124508
Si Si6 0.774828 0.475245 0.317379
Si Si7 0.685420 0.271668 0.999084
Si Si8 0.000000 0.000000 0.000000
O O1 0.229201 0.451638 0.905723
O O2 0.500000 0.500000 0.000000
O O3 0.479249 0.337770 0.137046
O O4 0.057095 0.458375 0.306811
O O5 0.615582 0.707420 0.379108
O O6 0.831971 0.821293 0.357459
O O7 0.615492 0.855652 0.075562
O O8 0.027829 0.743036 0.042778
O O9 0.762486 0.379154 0.333622
O O10 0.835270 0.207220 0.491959
O O11 0.689498 0.306750 0.747988
O O12 0.750094 0.903348 0.650668
O O13 0.049733 0.943063 0.229472
O O14 0.614726 0.178234 0.096245
O O15 0.697164 0.017667 0.133549
O O16 0.500000 0.500000 0.500000
#
# Coordination Sequence:
#
# PCOD9017561 Si02
#       8
#     2   2   2   2   2   2   2   1
#     4  11  26  40  64 103 132 174 231 278 333 409
#     4  10  22  43  71  96 129 184 227 273 337 417
#     4  10  21  43  67  93 130 177 226 272 335 405
#     4  11  24  44  68  98 134 175 224 277 339 402
#     4  11  24  44  70  95 138 178 217 282 340 400
#     4  11  24  42  64  91 135 176 216 282 339 390
#     4  10  21  43  64  95 137 169 226 281 325 404
#     4  12  22  48  64 106 140 164 224 292 326 412
#
# _framework density 25.290254000000001
#
# number of rings (size 3 to 8) (size 9 to 14) (size 15 to 20)
#    0.000    1.333    5.333    1.200    1.867    7.467 
#    0.000    1.333    0.000    0.000    0.000    0.000 
#    0.000    0.000    0.000    0.000    0.000    0.000 
#
# Total GULP energy -83628.713486 kJ/mol
# GULP energy per Si atom -5575.247566 kJ/mol
# Density = 2.523269 g / cm^3
# Si number density = 25.290254 Si / 1000 Ang^3
#
#
#
# Elastic Constant Matrix: (Units=GPa)
#
#
# Indices 1 2 3 4 5 6 
#
# 1 81.1521 39.7534 16.4951 22.6866 -29.5006 -19.1534
# 2 39.7534 77.4129 30.9562 5.6610 -31.7270 -28.7972
# 3 16.4951 30.9562 94.1334 1.8924 -16.6003 2.5009
# 4 22.6866 5.6610 1.8924 42.0312 -13.0756 -10.9241
# 5 -29.5006 -31.7270 -16.6003 -13.0756 40.0637 6.1462
# 6 -19.1534 -28.7972 2.5009 -10.9241 6.1462 36.7859
#
#
#
# Elastic Compliance Matrix: (Units=1/GPa)
#
#
# Indices 1 2 3 4 5 6 
#
# 1 0.020724 -0.005722 -0.000305 -0.007225 0.007802 0.002883
# 2 -0.005722 0.036969 -0.008312 0.012060 0.021486 0.026518
# 3 -0.000305 -0.008312 0.013571 -0.001543 -0.000465 -0.007969
# 4 -0.007225 0.012060 -0.001543 0.033562 0.012447 0.013671
# 5 0.007802 0.021486 -0.000465 0.012447 0.049072 0.016411
# 6 0.002883 0.026518 -0.007969 0.013671 0.016411 0.051304
#
#
# Mechanical properties :
#
#
# Convention : Reuss Voigt Hill
#
# Bulk Modulus (GPa) = 23.48298 47.45641 35.46970
# Shear Modulus (GPa) = 20.15513 34.80908 27.48210
#
# Velocity S-wave (km/s) = 2.82610 3.71399 3.30004
# Velocity P-wave (km/s) = 4.46706 6.09894 5.34564
#
# Compressibility (1/GPa) = 0.04258403
#
# Stress axis : x y z
#
# Youngs Moduli (GPa) = 48.25356 27.04993 73.68661
#
# Poissons Ratio (x) = 0.15478 0.02249
# Poissons Ratio (y) = 0.27611 0.61252
# Poissons Ratio (z) = 0.01473 0.22485
#
# Static dielectric constant tensor:
#      x y z
#    x 2.031490 0.000770 0.033740 
#    y 0.000770 2.036970 0.021470 
#    z 0.033740 0.021470 2.001350 
# 
# From -- ./inp_files/141212.got.cif
#   From: 2010.05.17/outbox.cif.g08.bks.cpg/sg2_71_cif.got.tgz:141212.got - 2010.06.03 11:33:40.
