data_PCOD9017229
_publ_section_title
;
Structure prediction by ZEFSAII (Michael W. Deem and Ramdas Pophale) SiO2 
 PCOD9017229
Probable space group: P -1
;
_chemical_formula_sum "Si O2"
_cell_formula_units_Z 14
_cell_length_a 7.982110
_cell_length_b 11.253382
_cell_length_c 11.372900
_cell_angle_alpha 76.302452
_cell_angle_beta 40.968215
_cell_angle_gamma 62.631524
_cell_volume 584.043763
_symmetry_space_group_name_H-M "P -1"
_symmetry_group_IT_number 2
_symmetry_cell_setting 'triclinic'
loop_
_space_group_symop_operation_xyz
x,y,z
-x,-y,-z
loop_
_atom_site_type_symbol
_atom_site_label
_atom_site_fract_x
_atom_site_fract_y
_atom_site_fract_z
Si Si1 0.365006 0.393135 0.387936
Si Si2 0.309588 0.697800 0.989830
Si Si3 0.057883 0.445182 0.848723
Si Si4 0.853592 0.331529 0.673240
Si Si5 0.249191 0.159829 0.865029
Si Si6 0.942199 0.282426 0.242310
Si Si7 0.163408 0.092155 0.393317
O O1 0.319616 0.548000 0.355074
O O2 0.632963 0.312979 0.347364
O O3 0.085942 0.382729 0.583718
O O4 0.442690 0.328790 0.228569
O O5 0.324842 0.696250 0.122268
O O6 0.213040 0.577883 0.042117
O O7 0.026311 0.827534 0.065298
O O8 0.300724 0.288218 0.758413
O O9 0.087859 0.568162 0.742309
O O10 0.000000 0.500000 0.000000
O O11 0.046367 0.190605 0.542690
O O12 0.505866 0.012967 0.754631
O O13 0.148699 0.208920 0.039470
O O14 0.070010 0.184645 0.306139
O O15 0.000000 0.000000 0.500000
#
# Coordination Sequence:
#
# PCOD9017229 Si02
#       7
#     2   2   2   2   2   2   2
#     4  10  23  44  66 103 125 174 222 273 337 384
#     4   9  20  42  69  95 133 173 213 275 336 383
#     4   8  16  35  72  97 122 167 224 273 310 387
#     4  11  26  41  65  98 140 166 221 278 329 400
#     4   8  20  42  65  96 127 169 223 261 330 389
#     4  10  21  42  72  92 128 176 227 273 317 391
#     4  12  28  43  60  99 136 177 217 273 336 393
#
# _framework density 23.970806
#
# number of rings (size 3 to 8) (size 9 to 14) (size 15 to 20)
#    0.857    1.429    1.429    0.857    8.000    1.143 
#    5.143    1.429    0.000    0.000    0.000    0.000 
#    0.000    0.000    0.000    0.000    0.000    0.000 
#
# Total GULP energy -78202.539234 kJ/mol
# GULP energy per Si atom -5585.895660 kJ/mol
# Density = 2.391625 g / cm^3
# Si number density = 23.970806 Si / 1000 Ang^3
#
#
#
# Elastic Constant Matrix: (Units=GPa)
#
#
# Indices 1 2 3 4 5 6 
#
# 1 34.8857 25.2759 10.8468 9.5123 5.1785 -13.8267
# 2 25.2759 133.2114 17.8651 15.6317 5.7797 -32.7454
# 3 10.8468 17.8651 78.3999 3.0876 8.2555 -14.3147
# 4 9.5123 15.6317 3.0876 46.8622 -3.8605 -5.3998
# 5 5.1785 5.7797 8.2555 -3.8605 30.2859 4.4434
# 6 -13.8267 -32.7454 -14.3147 -5.3998 4.4434 38.8255
#
#
#
# Elastic Compliance Matrix: (Units=1/GPa)
#
#
# Indices 1 2 3 4 5 6 
#
# 1 0.038567 -0.003557 -0.001614 -0.005999 -0.007736 0.010191
# 2 -0.003557 0.010401 -0.000147 -0.002100 -0.002700 0.007468
# 3 -0.001614 -0.000147 0.014417 -0.000352 -0.004415 0.005073
# 4 -0.005999 -0.002100 -0.000352 0.023518 0.004712 -0.001305
# 5 -0.007736 -0.002700 -0.004415 0.004712 0.038183 -0.010374
# 6 0.010191 0.007468 0.005073 -0.001305 -0.010374 0.038560
#
#
# Mechanical properties :
#
#
# Convention : Reuss Voigt Hill
#
# Bulk Modulus (GPa) = 18.95784 39.38585 29.17185
# Shear Modulus (GPa) = 26.06012 36.02867 31.04439
#
# Velocity S-wave (km/s) = 3.30079 3.88109 3.60264
# Velocity P-wave (km/s) = 4.73844 6.04568 5.43153
#
# Compressibility (1/GPa) = 0.05274862
#
# Stress axis : x y z
#
# Youngs Moduli (GPa) = 25.92899 96.14700 69.36285
#
# Poissons Ratio (x) = 0.34197 0.11194
# Poissons Ratio (y) = 0.09222 0.01023
# Poissons Ratio (z) = 0.04184 0.01418
#
# Static dielectric constant tensor:
#      x y z
#    x 1.946140 -0.020240 -0.027230 
#    y -0.020240 1.908760 -0.021760 
#    z -0.027230 -0.021760 1.946270 
# 
# From -- ./inp_files/392434.got.cif
#   From: 2010.05.17/outbox.cif.g08.bks.cpg/sg2_197_cif.got.tgz:392434.got - 2010.06.03 11:33:40.
