data_PCOD9017131
_publ_section_title
;
Structure prediction by ZEFSAII (Michael W. Deem and Ramdas Pophale) SiO2 
 PCOD9017131
Probable space group: P -1
;
_chemical_formula_sum "Si O2"
_cell_formula_units_Z 16
_cell_length_a 9.390026
_cell_length_b 10.407542
_cell_length_c 9.310180
_cell_angle_alpha 79.210063
_cell_angle_beta 59.905311
_cell_angle_gamma 72.304846
_cell_volume 749.292650
_symmetry_space_group_name_H-M "P -1"
_symmetry_group_IT_number 2
_symmetry_cell_setting 'triclinic'
loop_
_space_group_symop_operation_xyz
x,y,z
-x,-y,-z
loop_
_atom_site_type_symbol
_atom_site_label
_atom_site_fract_x
_atom_site_fract_y
_atom_site_fract_z
Si Si1 0.870928 0.250877 0.375082
Si Si2 0.318513 0.291846 0.472511
Si Si3 0.569317 0.175776 0.605453
Si Si4 0.365988 0.414151 0.128012
Si Si5 0.010811 0.491910 0.670767
Si Si6 0.371731 0.142937 0.992041
Si Si7 0.020944 0.052104 0.136788
Si Si8 0.881701 0.914521 0.484599
O O1 0.683052 0.285039 0.528381
O O2 0.954260 0.373531 0.310595
O O3 0.873920 0.182819 0.232344
O O4 0.991459 0.134501 0.437240
O O5 0.468758 0.195249 0.503791
O O6 0.381591 0.375736 0.297831
O O7 0.184207 0.380283 0.633893
O O8 0.203089 0.207915 0.471676
O O9 0.441183 0.183018 0.797795
O O10 0.716254 0.037287 0.566739
O O11 0.175769 0.510866 0.182711
O O12 0.500000 0.500000 0.000000
O O13 0.374134 0.270605 0.069800
O O14 0.000000 0.500000 0.500000
O O15 0.192273 0.102289 0.068531
O O16 0.500000 0.000000 0.000000
O O17 0.989484 0.937230 0.285971
O O18 0.000000 0.000000 0.000000
#
# Coordination Sequence:
#
# PCOD9017131 Si02
#       8
#     2   2   2   2   2   2   2   2
#     4  11  21  43  67  96 131 184 229 272 327 427
#     4  11  23  44  69  98 135 180 232 284 336 419
#     4  11  25  38  67 102 137 173 225 284 353 398
#     4  11  25  45  72 102 139 182 237 288 349 418
#     4  10  21  42  71  90 132 182 237 268 334 423
#     4  12  24  43  68 105 142 174 229 294 346 409
#     4  11  23  39  64  97 138 173 218 284 351 395
#     4  11  21  43  71  97 132 182 232 276 345 420
#
# _framework density 21.353470999999999
#
# number of rings (size 3 to 8) (size 9 to 14) (size 15 to 20)
#    0.000    1.000    3.750    4.875    3.500    4.500 
#    0.000    3.125    0.000    0.000    0.000    0.000 
#    0.000    0.000    0.000    0.000    0.000    0.000 
#
# Total GULP energy -89213.645586 kJ/mol
# GULP energy per Si atom -5575.852849 kJ/mol
# Density = 2.130487 g / cm^3
# Si number density = 21.353471 Si / 1000 Ang^3
#
#
#
# Elastic Constant Matrix: (Units=GPa)
#
#
# Indices 1 2 3 4 5 6 
#
# 1 69.7050 29.5710 52.0619 -5.9005 -13.3208 11.1394
# 2 29.5710 72.7799 31.5200 11.9049 -9.2762 11.0784
# 3 52.0619 31.5200 136.6379 -9.2807 -22.6593 18.5825
# 4 -5.9005 11.9049 -9.2807 28.7003 12.3466 -9.4899
# 5 -13.3208 -9.2762 -22.6593 12.3466 45.1974 -5.4770
# 6 11.1394 11.0784 18.5825 -9.4899 -5.4770 32.2191
#
#
#
# Elastic Compliance Matrix: (Units=1/GPa)
#
#
# Indices 1 2 3 4 5 6 
#
# 1 0.022912 -0.007281 -0.006614 0.005412 0.000473 0.000071
# 2 -0.007281 0.021709 -0.001404 -0.015698 0.004934 -0.007922
# 3 -0.006614 -0.001404 0.011069 0.000628 0.002782 -0.002956
# 4 0.005412 -0.015698 0.000628 0.054279 -0.014109 0.016754
# 5 0.000473 0.004934 0.002782 -0.014109 0.028183 -0.002829
# 6 0.000071 -0.007922 -0.002956 0.016754 -0.002829 0.039896
#
#
# Mechanical properties :
#
#
# Convention : Reuss Voigt Hill
#
# Bulk Modulus (GPa) = 39.85418 56.15874 48.00646
# Shear Modulus (GPa) = 23.04039 32.28801 27.66420
#
# Velocity S-wave (km/s) = 3.28838 3.89276 3.60326
# Velocity P-wave (km/s) = 5.75521 6.82359 6.31205
#
# Compressibility (1/GPa) = 0.02509147
#
# Stress axis : x y z
#
# Youngs Moduli (GPa) = 43.64539 46.06388 90.34437
#
# Poissons Ratio (x) = 0.33537 0.59755
# Poissons Ratio (y) = 0.31776 0.12689
# Poissons Ratio (z) = 0.28867 0.06470
#
# Static dielectric constant tensor:
#      x y z
#    x 1.798920 0.043380 -0.019740 
#    y 0.043380 1.933020 0.032690 
#    z -0.019740 0.032690 1.837540 
# 
# From -- ./inp_files/178670.got.cif
#   From: 2010.05.17/outbox.cif.g08.bks.cpg/sg2_90_cif.got.tgz:178670.got - 2010.06.03 11:33:40.
