data_PCOD9017338
_publ_section_title
;
Structure prediction by ZEFSAII (Michael W. Deem and Ramdas Pophale) SiO2 
 PCOD9017338
Probable space group: P -1
;
_chemical_formula_sum "Si O2"
_cell_formula_units_Z 14
_cell_length_a 13.131083
_cell_length_b 19.322944
_cell_length_c 9.111411
_cell_angle_alpha 137.123643
_cell_angle_beta 30.018263
_cell_angle_gamma 152.694888
_cell_volume 523.771285
_symmetry_space_group_name_H-M "P -1"
_symmetry_group_IT_number 2
_symmetry_cell_setting 'triclinic'
loop_
_space_group_symop_operation_xyz
x,y,z
-x,-y,-z
loop_
_atom_site_type_symbol
_atom_site_label
_atom_site_fract_x
_atom_site_fract_y
_atom_site_fract_z
Si Si1 0.416968 0.203472 0.721963
Si Si2 0.492659 0.986903 0.664439
Si Si3 0.636722 0.856506 0.766986
Si Si4 0.862788 0.720065 0.976315
Si Si5 0.196914 0.417187 0.451671
Si Si6 0.113111 0.608479 0.811278
Si Si7 0.437784 0.338273 0.204970
O O1 0.328017 0.051208 0.586259
O O2 0.189418 0.188347 0.886856
O O3 0.744363 0.347538 0.460929
O O4 0.439180 0.258858 0.943058
O O5 0.500000 0.000000 0.500000
O O6 0.146982 0.827359 0.894253
O O7 0.507413 0.103188 0.897987
O O8 0.398638 0.762196 0.782016
O O9 0.625784 0.748774 0.706339
O O10 0.000000 0.000000 0.500000
O O11 0.551491 0.568182 0.200994
O O12 0.937364 0.677495 0.677904
O O13 0.066269 0.478354 0.736624
O O14 0.195096 0.332709 0.448620
O O15 0.766435 0.515710 0.089412
#
# Coordination Sequence:
#
# PCOD9017338 Si02
#       7
#     2   2   2   2   2   2   2
#     4  10  21  42  74 105 131 180 234 289 338 408
#     4  12  24  44  69  97 137 186 235 276 331 415
#     4  12  28  48  65 102 151 186 224 287 349 413
#     4   9  19  38  65 106 134 167 223 292 340 396
#     4   9  19  38  70 100 135 170 221 288 349 399
#     4  11  23  43  70 104 140 175 229 292 347 406
#     4  11  22  44  73 104 133 183 236 283 341 415
#
# _framework density 26.729223999999999
#
# number of rings (size 3 to 8) (size 9 to 14) (size 15 to 20)
#    0.000    1.429    1.429    5.143    0.000    1.714 
#    5.143    2.857    0.000    0.000    0.000    0.000 
#    0.000    0.000    0.000    0.000    0.000    0.000 
#
# Total GULP energy -78407.932545 kJ/mol
# GULP energy per Si atom -5600.566610 kJ/mol
# Density = 2.666839 g / cm^3
# Si number density = 26.729224 Si / 1000 Ang^3
#
#
#
# Elastic Constant Matrix: (Units=GPa)
#
#
# Indices 1 2 3 4 5 6 
#
# 1 96.6805 22.3087 19.2468 6.8290 -11.3862 -13.2116
# 2 22.3087 84.8354 27.6414 -4.5523 -9.2299 -3.4894
# 3 19.2468 27.6414 91.1884 11.9261 4.8080 -0.0562
# 4 6.8290 -4.5523 11.9261 66.8909 -3.6987 -4.7895
# 5 -11.3862 -9.2299 4.8080 -3.6987 34.9478 4.6675
# 6 -13.2116 -3.4894 -0.0562 -4.7895 4.6675 41.3017
#
#
#
# Elastic Compliance Matrix: (Units=1/GPa)
#
#
# Indices 1 2 3 4 5 6 
#
# 1 0.012083 -0.002078 -0.002005 -0.000609 0.003164 0.003259
# 2 -0.002078 0.014324 -0.004398 0.002212 0.003898 0.000355
# 3 -0.002005 -0.004398 0.013281 -0.002737 -0.003814 -0.000881
# 4 -0.000609 0.002212 -0.002737 0.015887 0.002233 0.001578
# 5 0.003164 0.003898 -0.003814 0.002233 0.031701 -0.001987
# 6 0.003259 0.000355 -0.000881 0.001578 -0.001987 0.025691
#
#
# Mechanical properties :
#
#
# Convention : Reuss Voigt Hill
#
# Bulk Modulus (GPa) = 44.00445 45.67756 44.84101
# Shear Modulus (GPa) = 36.36199 42.19522 39.27861
#
# Velocity S-wave (km/s) = 3.69234 3.97749 3.83757
# Velocity P-wave (km/s) = 5.88868 6.18223 6.03724
#
# Compressibility (1/GPa) = 0.02272497
#
# Stress axis : x y z
#
# Youngs Moduli (GPa) = 82.75990 69.81065 75.29446
#
# Poissons Ratio (x) = 0.14510 0.15100
# Poissons Ratio (y) = 0.17201 0.33115
# Poissons Ratio (z) = 0.16597 0.30703
#
# Static dielectric constant tensor:
#      x y z
#    x 2.052320 -0.000570 -0.013710 
#    y -0.000570 2.147020 0.017260 
#    z -0.013710 0.017260 2.129700 
# 
# From -- ./inp_files/279771.got.cif
#   From: 2010.05.17/outbox.cif.g08.bks.cpg/sg2_140_cif.got.tgz:279771.got - 2010.06.03 11:33:40.
