data_PCOD9017675
_publ_section_title
;
Structure prediction by ZEFSAII (Michael W. Deem and Ramdas Pophale) SiO2 
 PCOD9017675
Probable space group: P -1
;
_chemical_formula_sum "Si O2"
_cell_formula_units_Z 16
_cell_length_a 11.807692
_cell_length_b 13.729222
_cell_length_c 9.228970
_cell_angle_alpha 106.959110
_cell_angle_beta 126.601017
_cell_angle_gamma 35.057635
_cell_volume 624.219783
_symmetry_space_group_name_H-M "P -1"
_symmetry_group_IT_number 2
_symmetry_cell_setting 'triclinic'
loop_
_space_group_symop_operation_xyz
x,y,z
-x,-y,-z
loop_
_atom_site_type_symbol
_atom_site_label
_atom_site_fract_x
_atom_site_fract_y
_atom_site_fract_z
Si Si1 0.233861 0.494608 0.241792
Si Si2 0.541703 0.644712 0.324147
Si Si3 0.015604 0.249103 0.343763
Si Si4 0.838117 0.182882 0.365489
Si Si5 0.844065 0.968818 0.227160
Si Si6 0.320036 0.239770 0.011447
Si Si7 0.723238 0.720132 0.347955
Si Si8 0.125282 0.729790 0.065453
O O1 0.375114 0.405757 0.465309
O O2 0.285921 0.357585 0.140303
O O3 0.316710 0.534670 0.212429
O O4 0.921227 0.686020 0.101207
O O5 0.760342 0.453742 0.313177
O O6 0.526576 0.768788 0.308551
O O7 0.288912 0.729614 0.149092
O O8 0.996452 0.147062 0.349490
O O9 0.252589 0.178212 0.536480
O O10 0.978143 0.265122 0.151146
O O11 0.698137 0.171212 0.179385
O O12 0.000000 0.000000 0.500000
O O13 0.880376 0.227741 0.560662
O O14 0.626069 0.032630 0.167958
O O15 0.910239 0.895925 0.084936
O O16 0.292129 0.274824 0.833785
O O17 0.000000 0.500000 0.500000
#
# Coordination Sequence:
#
# PCOD9017675 Si02
#       8
#     2   2   2   2   2   2   2   2
#     4  11  24  40  70 101 127 172 226 276 325 394
#     4  11  24  40  70  99 138 169 218 283 327 385
#     4  11  22  43  66  98 136 172 225 273 323 395
#     4   8  22  42  64  90 132 177 216 268 333 380
#     4   9  24  43  65  93 134 174 217 269 330 395
#     4  11  23  42  69  95 134 172 221 272 334 385
#     4  10  21  43  65  97 137 171 213 273 335 378
#     4  12  26  40  68 102 133 174 227 261 339 395
#
# _framework density 25.631996000000001
#
# number of rings (size 3 to 8) (size 9 to 14) (size 15 to 20)
#    0.750    0.750    2.500    3.000    8.750    1.000 
#    0.000    0.625    0.000    0.000    0.000    0.000 
#    0.000    0.000    0.000    0.000    0.000    0.000 
#
# Total GULP energy -89077.114103 kJ/mol
# GULP energy per Si atom -5567.319631 kJ/mol
# Density = 2.557366 g / cm^3
# Si number density = 25.631996 Si / 1000 Ang^3
#
#
#
# Elastic Constant Matrix: (Units=GPa)
#
#
# Indices 1 2 3 4 5 6 
#
# 1 108.8625 10.7514 31.7370 13.0059 8.4846 8.9286
# 2 10.7514 60.1208 33.9635 18.3135 0.7311 -9.0318
# 3 31.7370 33.9635 152.5389 35.9965 -11.6960 -7.5197
# 4 13.0059 18.3135 35.9965 32.4619 -6.5793 -8.2541
# 5 8.4846 0.7311 -11.6960 -6.5793 49.1597 4.3500
# 6 8.9286 -9.0318 -7.5197 -8.2541 4.3500 27.7359
#
#
#
# Elastic Compliance Matrix: (Units=1/GPa)
#
#
# Indices 1 2 3 4 5 6 
#
# 1 0.010760 -0.000516 -0.001612 -0.003944 -0.002329 -0.004877
# 2 -0.000516 0.021444 -0.002676 -0.008303 -0.002360 0.004323
# 3 -0.001612 -0.002676 0.009518 -0.008205 0.001524 -0.000453
# 4 -0.003944 -0.008303 -0.008205 0.049749 0.004588 0.010427
# 5 -0.002329 -0.002360 0.001524 0.004588 0.021904 -0.001676
# 6 -0.004877 0.004323 -0.000453 0.010427 -0.001676 0.042275
#
#
# Mechanical properties :
#
#
# Convention : Reuss Voigt Hill
#
# Bulk Modulus (GPa) = 31.13952 52.71400 41.92676
# Shear Modulus (GPa) = 28.41511 38.20951 33.31231
#
# Velocity S-wave (km/s) = 3.33315 3.86514 3.60896
# Velocity P-wave (km/s) = 5.19502 6.36627 5.81024
#
# Compressibility (1/GPa) = 0.03211354
#
# Stress axis : x y z
#
# Youngs Moduli (GPa) = 92.94013 46.63207 105.06895
#
# Poissons Ratio (x) = 0.02408 0.16936
# Poissons Ratio (y) = 0.04800 0.28113
# Poissons Ratio (z) = 0.14981 0.12477
#
# Static dielectric constant tensor:
#      x y z
#    x 1.972540 0.005200 -0.034920 
#    y 0.005200 2.030510 -0.148500 
#    z -0.034920 -0.148500 1.808230 
# 
# From -- ./inp_files/273899.got.cif
#   From: 2010.05.17/outbox.cif.g08.bks.cpg/sg2_137_cif.got.tgz:273899.got - 2010.06.03 11:33:40.
