data_PCOD9017849
_publ_section_title
;
Structure prediction by ZEFSAII (Michael W. Deem and Ramdas Pophale) SiO2 
 PCOD9017849
Probable space group: P -1
;
_chemical_formula_sum "Si O2"
_cell_formula_units_Z 16
_cell_length_a 5.201857
_cell_length_b 6.744690
_cell_length_c 19.972363
_cell_angle_alpha 98.899849
_cell_angle_beta 74.501390
_cell_angle_gamma 108.182302
_cell_volume 639.581962
_symmetry_space_group_name_H-M "P -1"
_symmetry_group_IT_number 2
_symmetry_cell_setting 'triclinic'
loop_
_space_group_symop_operation_xyz
x,y,z
-x,-y,-z
loop_
_atom_site_type_symbol
_atom_site_label
_atom_site_fract_x
_atom_site_fract_y
_atom_site_fract_z
Si Si1 0.047914 0.402797 0.764375
Si Si2 0.490105 0.378100 0.343610
Si Si3 0.165177 0.049705 0.092335
Si Si4 0.811358 0.305436 0.587212
Si Si5 0.603642 0.812104 0.064097
Si Si6 0.028156 0.992166 0.331266
Si Si7 0.520932 0.527752 0.845879
Si Si8 0.295928 0.736087 0.556840
O O1 0.198279 0.558489 0.702166
O O2 0.248281 0.489686 0.817638
O O3 0.050512 0.168625 0.732681
O O4 0.735499 0.411024 0.795020
O O5 0.403114 0.590199 0.357011
O O6 0.452125 0.303836 0.420086
O O7 0.292156 0.188529 0.307091
O O8 0.297363 0.235585 0.143601
O O9 0.312779 0.868573 0.086764
O O10 0.269976 0.140776 0.016102
O O11 0.833409 0.962360 0.105270
O O12 0.893235 0.143548 0.621260
O O13 0.687615 0.211625 0.519511
O O14 0.073187 0.506649 0.565457
O O15 0.568418 0.581355 0.081886
O O16 0.803179 0.096657 0.383182
#
# Coordination Sequence:
#
# PCOD9017849 Si02
#       8
#     2   2   2   2   2   2   2   2
#     4  12  28  46  65  95 141 181 236 274 319 405
#     4  11  25  43  65  93 130 177 219 285 347 405
#     4  10  22  43  72 106 142 173 219 284 333 389
#     4  10  21  43  66  99 128 157 225 287 355 422
#     4  10  22  43  72 107 139 174 223 277 338 390
#     4  11  25  43  66  92 130 178 219 282 347 410
#     4  12  26  45  69  99 136 188 227 274 325 395
#     4  10  22  40  70  95 125 167 218 286 356 415
#
# _framework density 25.016338999999999
#
# number of rings (size 3 to 8) (size 9 to 14) (size 15 to 20)
#    0.000    1.250    1.250    3.375    5.250    3.500 
#    0.000    5.000    0.000    0.000    0.000    0.000 
#    0.000    0.000    0.000    0.000    0.000    0.000 
#
# Total GULP energy -89622.162892 kJ/mol
# GULP energy per Si atom -5601.385181 kJ/mol
# Density = 2.495940 g / cm^3
# Si number density = 25.016339 Si / 1000 Ang^3
#
#
#
# Elastic Constant Matrix: (Units=GPa)
#
#
# Indices 1 2 3 4 5 6 
#
# 1 81.8054 2.0764 7.4115 0.4982 12.5527 -2.0521
# 2 2.0764 59.2422 2.9639 15.6115 5.0673 -9.1321
# 3 7.4115 2.9639 53.6741 -0.7015 26.4671 -7.3421
# 4 0.4982 15.6115 -0.7015 42.1541 3.6707 14.6338
# 5 12.5527 5.0673 26.4671 3.6707 41.3459 -2.2933
# 6 -2.0521 -9.1321 -7.3421 14.6338 -2.2933 41.0040
#
#
#
# Elastic Compliance Matrix: (Units=1/GPa)
#
#
# Indices 1 2 3 4 5 6 
#
# 1 0.012832 -0.000076 0.000292 0.000090 -0.004058 0.000419
# 2 -0.000076 0.021094 0.000638 -0.010620 -0.001556 0.008512
# 3 0.000292 0.000638 0.027909 0.000383 -0.017844 0.004019
# 4 0.000090 -0.010620 0.000383 0.032805 -0.002668 -0.014149
# 5 -0.004058 -0.001556 -0.017844 -0.002668 0.037229 -0.000710
# 6 0.000419 0.008512 0.004019 -0.014149 -0.000710 0.032034
#
#
# Mechanical properties :
#
#
# Convention : Reuss Voigt Hill
#
# Bulk Modulus (GPa) = 15.73733 24.40283 20.07008
# Shear Modulus (GPa) = 27.26626 37.05211 32.15919
#
# Velocity S-wave (km/s) = 3.30500 3.85270 3.58931
# Velocity P-wave (km/s) = 4.56821 5.43756 5.02173
#
# Compressibility (1/GPa) = 0.06354318
#
# Stress axis : x y z
#
# Youngs Moduli (GPa) = 77.92843 47.40623 35.83071
#
# Poissons Ratio (x) = 0.00362 -0.01045
# Poissons Ratio (y) = 0.00595 -0.02287
# Poissons Ratio (z) = -0.02274 -0.03026
#
# Static dielectric constant tensor:
#      x y z
#    x 1.975780 0.015320 0.033420 
#    y 0.015320 1.946250 -0.017650 
#    z 0.033420 -0.017650 2.017190 
# 
# From -- ./inp_files/120414.got.cif
#   From: 2010.05.17/outbox.cif.g08.bks.cpg/sg2_61_cif.got.tgz:120414.got - 2010.06.03 11:33:40.
