data_PCOD9017061
_publ_section_title
;
Structure prediction by ZEFSAII (Michael W. Deem and Ramdas Pophale) SiO2 
 PCOD9017061
Probable space group: P -1
;
_chemical_formula_sum "Si O2"
_cell_formula_units_Z 16
_cell_length_a 10.930208
_cell_length_b 13.827610
_cell_length_c 11.651603
_cell_angle_alpha 131.607525
_cell_angle_beta 142.202890
_cell_angle_gamma 37.710571
_cell_volume 656.592706
_symmetry_space_group_name_H-M "P -1"
_symmetry_group_IT_number 2
_symmetry_cell_setting 'triclinic'
loop_
_space_group_symop_operation_xyz
x,y,z
-x,-y,-z
loop_
_atom_site_type_symbol
_atom_site_label
_atom_site_fract_x
_atom_site_fract_y
_atom_site_fract_z
Si Si1 0.484340 0.008721 0.238459
Si Si2 0.793248 0.143897 0.038709
Si Si3 0.204120 0.304811 0.430941
Si Si4 0.720221 0.594507 0.211349
Si Si5 0.956741 0.189633 0.434742
Si Si6 0.440334 0.442053 0.569693
Si Si7 0.581693 0.186020 0.273877
Si Si8 0.228052 0.444722 0.045542
O O1 0.338169 0.141947 0.333848
O O2 0.492881 0.088672 0.191034
O O3 0.765948 0.893743 0.392001
O O4 0.352415 0.922450 0.068598
O O5 0.915256 0.175180 0.258256
O O6 0.575417 0.307365 0.942596
O O7 0.000000 0.000000 0.000000
O O8 0.337957 0.384888 0.546066
O O9 0.917545 0.420680 0.275768
O O10 0.757744 0.701074 0.409553
O O11 0.810889 0.568883 0.127267
O O12 0.779349 0.376677 0.480454
O O13 0.856802 0.105665 0.369932
O O14 0.517324 0.321519 0.426901
O O15 0.664087 0.450200 0.780786
O O16 0.428710 0.277363 0.119712
O O17 0.000000 0.500000 0.000000
#
# Coordination Sequence:
#
# PCOD9017061 Si02
#       8
#     2   2   2   2   2   2   2   2
#     4  11  25  46  69 101 150 180 231 299 344 423
#     4  12  27  46  70 104 141 193 239 280 356 425
#     4  10  24  45  70 102 129 185 233 287 363 394
#     4  11  23  46  68  97 138 176 236 292 342 410
#     4  11  22  45  70 104 141 188 232 280 363 419
#     4  10  21  42  70  99 136 175 236 283 341 426
#     4  10  22  45  68 104 136 182 236 285 356 414
#     4  11  21  39  64 102 138 172 222 286 345 413
#
# _framework density 24.368228999999999
#
# number of rings (size 3 to 8) (size 9 to 14) (size 15 to 20)
#    0.000    1.250    2.500    4.875    0.000    6.000 
#   13.500    0.000    0.000    0.000    0.000    0.000 
#    0.000    0.000    0.000    0.000    0.000    0.000 
#
# Total GULP energy -89565.165179 kJ/mol
# GULP energy per Si atom -5597.822824 kJ/mol
# Density = 2.431277 g / cm^3
# Si number density = 24.368229 Si / 1000 Ang^3
#
#
#
# Elastic Constant Matrix: (Units=GPa)
#
#
# Indices 1 2 3 4 5 6 
#
# 1 141.3681 32.1655 67.5944 -2.0373 -14.2819 -17.6483
# 2 32.1655 44.7007 33.5391 -2.8426 11.0370 -14.8401
# 3 67.5944 33.5391 135.3320 3.7569 6.0338 5.3004
# 4 -2.0373 -2.8426 3.7569 18.6942 7.4203 4.3738
# 5 -14.2819 11.0370 6.0338 7.4203 53.8074 -3.3575
# 6 -17.6483 -14.8401 5.3004 4.3738 -3.3575 47.7357
#
#
#
# Elastic Compliance Matrix: (Units=1/GPa)
#
#
# Indices 1 2 3 4 5 6 
#
# 1 0.011412 -0.004574 -0.004899 -0.001318 0.004936 0.003809
# 2 -0.004574 0.036464 -0.006947 0.007641 -0.008399 0.009126
# 3 -0.004899 -0.006947 0.011878 -0.002287 -0.001214 -0.005166
# 4 -0.001318 0.007641 -0.002287 0.059965 -0.010184 -0.004068
# 5 0.004936 -0.008399 -0.001214 -0.010184 0.023278 0.001919
# 6 0.003809 0.009126 -0.005166 -0.004068 0.001919 0.026275
#
#
# Mechanical properties :
#
#
# Convention : Reuss Voigt Hill
#
# Bulk Modulus (GPa) = 37.15640 65.33322 51.24481
# Shear Modulus (GPa) = 23.68720 36.58756 30.13738
#
# Velocity S-wave (km/s) = 3.12116 3.87905 3.52056
# Velocity P-wave (km/s) = 5.31694 6.85068 6.13195
#
# Compressibility (1/GPa) = 0.02691326
#
# Stress axis : x y z
#
# Youngs Moduli (GPa) = 87.62563 27.42411 84.18982
#
# Poissons Ratio (x) = 0.12544 0.41246
# Poissons Ratio (y) = 0.40080 0.58490
# Poissons Ratio (z) = 0.42929 0.19052
#
# Static dielectric constant tensor:
#      x y z
#    x 2.021630 0.010670 0.088310 
#    y 0.010670 1.973570 0.007440 
#    z 0.088310 0.007440 1.996610 
# 
# From -- ./inp_files/434233.got.cif
#   From: 2010.05.17/outbox.cif.g08.bks.cpg/sg2_218_cif.got.tgz:434233.got - 2010.06.03 11:33:40.
