data_PCOD9017462
_publ_section_title
;
Structure prediction by ZEFSAII (Michael W. Deem and Ramdas Pophale) SiO2 
 PCOD9017462
Probable space group: P -1
;
_chemical_formula_sum "Si O2"
_cell_formula_units_Z 15
_cell_length_a 6.901486
_cell_length_b 12.742531
_cell_length_c 12.799855
_cell_angle_alpha 45.245797
_cell_angle_beta 101.150067
_cell_angle_gamma 81.203398
_cell_volume 713.581193
_symmetry_space_group_name_H-M "P -1"
_symmetry_group_IT_number 2
_symmetry_cell_setting 'triclinic'
loop_
_space_group_symop_operation_xyz
x,y,z
-x,-y,-z
loop_
_atom_site_type_symbol
_atom_site_label
_atom_site_fract_x
_atom_site_fract_y
_atom_site_fract_z
Si Si1 0.000000 0.000000 0.500000
Si Si2 0.999286 0.570602 0.064029
Si Si3 0.296417 0.504555 0.620652
Si Si4 0.183232 0.968628 0.127153
Si Si5 0.100583 0.274702 0.438908
Si Si6 0.124790 0.856131 0.843280
Si Si7 0.429773 0.334347 0.551751
Si Si8 0.601369 0.787175 0.003248
O O1 0.062883 0.890460 0.691967
O O2 0.926081 0.867243 0.527117
O O3 0.080892 0.422464 0.257228
O O4 0.757291 0.691253 0.990778
O O5 0.135348 0.679744 0.999422
O O6 0.000000 0.500000 0.000000
O O7 0.265669 0.454921 0.534225
O O8 0.488589 0.564523 0.588530
O O9 0.360028 0.346873 0.809707
O O10 0.091845 0.647498 0.551445
O O11 0.359292 0.784916 0.279675
O O12 0.063072 0.017397 0.192065
O O13 0.310658 0.081977 0.041867
O O14 0.000000 0.000000 0.000000
O O15 0.325841 0.229440 0.554420
O O16 0.352682 0.861138 0.890838
#
# Coordination Sequence:
#
# PCOD9017462 Si02
#       8
#     1   2   2   2   2   2   2   2
#     4  12  24  40  64  92 138 176 212 268 316 388
#     4  10  21  43  63  92 127 168 217 270 309 374
#     4  10  23  42  67  99 127 164 224 273 324 388
#     4  11  25  43  66  96 133 168 216 276 324 389
#     4  11  23  42  65  96 134 172 216 267 325 389
#     4  11  23  43  63  96 132 170 222 264 324 389
#     4  11  23  42  68  98 130 173 211 272 337 381
#     4  10  23  42  68  94 124 175 217 261 329 384
#
# _framework density 21.020731999999999
#
# number of rings (size 3 to 8) (size 9 to 14) (size 15 to 20)
#    0.000    1.333    1.333    3.600    0.000   10.133 
#    4.800    4.000    0.000    0.000    0.000    0.000 
#    0.000    0.000    0.000    0.000    0.000    0.000 
#
# Total GULP energy -83617.052722 kJ/mol
# GULP energy per Si atom -5574.470181 kJ/mol
# Density = 2.097289 g / cm^3
# Si number density = 21.020732 Si / 1000 Ang^3
#
#
#
# Elastic Constant Matrix: (Units=GPa)
#
#
# Indices 1 2 3 4 5 6 
#
# 1 117.6450 58.5658 49.7736 7.0328 -13.0774 26.5748
# 2 58.5658 104.0988 27.3947 -5.3695 -13.3112 36.1304
# 3 49.7736 27.3947 81.0906 -9.5946 -21.1188 10.1349
# 4 7.0328 -5.3695 -9.5946 32.6224 5.7414 -3.3902
# 5 -13.0774 -13.3112 -21.1188 5.7414 29.5455 0.1632
# 6 26.5748 36.1304 10.1349 -3.3902 0.1632 27.5666
#
#
#
# Elastic Compliance Matrix: (Units=1/GPa)
#
#
# Indices 1 2 3 4 5 6 
#
# 1 0.016765 -0.004863 -0.008413 -0.007822 0.000779 -0.007662
# 2 -0.004863 0.021367 0.000934 0.000966 0.008085 -0.023590
# 3 -0.008413 0.000934 0.020566 0.006226 0.010188 0.000030
# 4 -0.007822 0.000966 0.006226 0.036207 -0.005659 0.008472
# 5 0.000779 0.008085 0.010188 -0.005659 0.046304 -0.016063
# 6 -0.007662 -0.023590 0.000030 0.008472 -0.016063 0.075707
#
#
# Mechanical properties :
#
#
# Convention : Reuss Voigt Hill
#
# Bulk Modulus (GPa) = 29.39721 63.81140 46.60430
# Shear Modulus (GPa) = 19.76769 29.08693 24.42731
#
# Velocity S-wave (km/s) = 3.06990 3.72388 3.41260
# Velocity P-wave (km/s) = 5.15567 6.99371 6.14382
#
# Compressibility (1/GPa) = 0.03401684
#
# Stress axis : x y z
#
# Youngs Moduli (GPa) = 59.64729 46.80034 48.62323
#
# Poissons Ratio (x) = 0.22757 0.40906
# Poissons Ratio (y) = 0.29004 -0.04543
# Poissons Ratio (z) = 0.50180 -0.04373
#
# Static dielectric constant tensor:
#      x y z
#    x 1.758140 -0.004920 -0.016340 
#    y -0.004920 1.736290 -0.013590 
#    z -0.016340 -0.013590 1.750890 
# 
# From -- ./inp_files/363716.got.cif
#   From: 2010.05.17/outbox.cif.g08.bks.cpg/sg2_182_cif.got.tgz:363716.got - 2010.06.03 11:33:40.
