data_PCOD9017419
_publ_section_title
;
Structure prediction by ZEFSAII (Michael W. Deem and Ramdas Pophale) SiO2 
 PCOD9017419
Probable space group: P -1
;
_chemical_formula_sum "Si O2"
_cell_formula_units_Z 12
_cell_length_a 10.320898
_cell_length_b 12.237454
_cell_length_c 5.298903
_cell_angle_alpha 65.780245
_cell_angle_beta 92.979792
_cell_angle_gamma 123.693059
_cell_volume 494.039960
_symmetry_space_group_name_H-M "P -1"
_symmetry_group_IT_number 2
_symmetry_cell_setting 'triclinic'
loop_
_space_group_symop_operation_xyz
x,y,z
-x,-y,-z
loop_
_atom_site_type_symbol
_atom_site_label
_atom_site_fract_x
_atom_site_fract_y
_atom_site_fract_z
Si Si1 0.210382 0.234442 0.723792
Si Si2 0.981946 0.685436 0.699016
Si Si3 0.058121 0.930721 0.760699
Si Si4 0.469675 0.847471 0.713699
Si Si5 0.493794 0.729384 0.333751
Si Si6 0.828966 0.417103 0.316537
O O1 0.149743 0.297064 0.452303
O O2 0.400354 0.327381 0.678231
O O3 0.167231 0.069281 0.822974
O O4 0.097182 0.199074 0.981378
O O5 0.112226 0.848212 0.676616
O O6 0.054180 0.630084 0.556061
O O7 0.915402 0.566844 0.028187
O O8 0.000000 0.000000 0.500000
O O9 0.549276 0.806850 0.542736
O O10 0.285790 0.710508 0.781063
O O11 0.500000 0.000000 0.500000
O O12 0.514350 0.837173 0.011187
O O13 0.302299 0.608975 0.470244
#
# Coordination Sequence:
#
# PCOD9017419 Si02
#       6
#     2   2   2   2   2   2
#     4  10  22  38  65  95 125 166 216 268 321 380
#     4  10  21  43  62  92 127 173 208 270 315 390
#     4   9  21  37  60  90 127 161 209 259 324 376
#     4  10  23  42  65  95 131 167 213 266 321 378
#     4  10  24  41  67  97 127 164 219 266 322 377
#     4   9  24  40  64  94 129 169 221 256 326 382
#
# _framework density 24.289534
#
# number of rings (size 3 to 8) (size 9 to 14) (size 15 to 20)
#    1.000    1.333    0.000    0.500    7.000    6.000 
#    0.000    5.000    0.000    0.000    0.000    0.000 
#    0.000    0.000    0.000    0.000    0.000    0.000 
#
# Total GULP energy -66888.848322 kJ/mol
# GULP energy per Si atom -5574.070694 kJ/mol
# Density = 2.423425 g / cm^3
# Si number density = 24.289534 Si / 1000 Ang^3
#
#
#
# Elastic Constant Matrix: (Units=GPa)
#
#
# Indices 1 2 3 4 5 6 
#
# 1 131.9981 5.5745 35.6900 -16.5531 -2.7442 -21.7580
# 2 5.5745 93.6199 7.0847 -27.0570 1.3291 -14.1672
# 3 35.6900 7.0847 125.7392 -4.7923 9.7260 -4.5064
# 4 -16.5531 -27.0570 -4.7923 27.9891 -7.3970 3.2280
# 5 -2.7442 1.3291 9.7260 -7.3970 31.9406 1.3284
# 6 -21.7580 -14.1672 -4.5064 3.2280 1.3284 25.9143
#
#
#
# Elastic Compliance Matrix: (Units=1/GPa)
#
#
# Indices 1 2 3 4 5 6 
#
# 1 0.010997 0.003638 -0.002901 0.009356 0.003454 0.009375
# 2 0.003638 0.017372 -0.001250 0.018623 0.003875 0.009816
# 3 -0.002901 -0.001250 0.008987 -0.002151 -0.003386 -0.001115
# 4 0.009356 0.018623 -0.002151 0.061686 0.014586 0.009231
# 5 0.003454 0.003875 -0.003386 0.014586 0.035820 0.000776
# 6 0.009375 0.009816 -0.001115 0.009231 0.000776 0.050443
#
#
# Mechanical properties :
#
#
# Convention : Reuss Voigt Hill
#
# Bulk Modulus (GPa) = 27.52443 49.78394 38.65419
# Shear Modulus (GPa) = 25.19643 37.36935 31.28289
#
# Velocity S-wave (km/s) = 3.22427 3.92662 3.59265
# Velocity P-wave (km/s) = 5.02171 6.41080 5.75830
#
# Compressibility (1/GPa) = 0.03633136
#
# Stress axis : x y z
#
# Youngs Moduli (GPa) = 90.93384 57.56313 111.27511
#
# Poissons Ratio (x) = -0.20943 0.32280
# Poissons Ratio (y) = -0.33085 0.13906
# Poissons Ratio (z) = 0.26380 0.07193
#
# Static dielectric constant tensor:
#      x y z
#    x 2.113650 0.075410 -0.016220 
#    y 0.075410 2.019030 0.039010 
#    z -0.016220 0.039010 1.888670 
# 
# From -- ./inp_files/26171.got.cif
#   From: 2010.05.17/outbox.cif.g08.bks.cpg/sg2_14_cif.got.tgz:26171.got - 2010.06.03 11:33:40.
