data_PCOD9017767
_publ_section_title
;
Structure prediction by ZEFSAII (Michael W. Deem and Ramdas Pophale) SiO2 
 PCOD9017767
Probable space group: P -1
;
_chemical_formula_sum "Si O2"
_cell_formula_units_Z 14
_cell_length_a 8.586054
_cell_length_b 10.315731
_cell_length_c 11.219924
_cell_angle_alpha 110.272006
_cell_angle_beta 61.895326
_cell_angle_gamma 137.166887
_cell_volume 595.961059
_symmetry_space_group_name_H-M "P -1"
_symmetry_group_IT_number 2
_symmetry_cell_setting 'triclinic'
loop_
_space_group_symop_operation_xyz
x,y,z
-x,-y,-z
loop_
_atom_site_type_symbol
_atom_site_label
_atom_site_fract_x
_atom_site_fract_y
_atom_site_fract_z
Si Si1 0.268655 0.798506 0.127719
Si Si2 0.731981 0.723084 0.991795
Si Si3 0.352340 0.227808 0.460922
Si Si4 0.123587 0.407560 0.606294
Si Si5 0.776031 0.104498 0.450677
Si Si6 0.760527 0.033114 0.168496
Si Si7 0.623622 0.845083 0.846124
O O1 0.506201 0.948166 0.177904
O O2 0.037797 0.629536 0.235228
O O3 0.229443 0.932449 0.139781
O O4 0.365777 0.751916 0.972211
O O5 0.731973 0.798848 0.887685
O O6 0.500000 0.500000 0.000000
O O7 0.713096 0.842082 0.126220
O O8 0.997205 0.801904 0.941749
O O9 0.231791 0.310871 0.559556
O O10 0.636762 0.377458 0.441670
O O11 0.218414 0.034433 0.519087
O O12 0.367158 0.211561 0.307528
O O13 0.942149 0.297968 0.526014
O O14 0.842031 0.125702 0.297153
O O15 0.500000 0.000000 0.500000
#
# Coordination Sequence:
#
# PCOD9017767 Si02
#       7
#     2   2   2   2   2   2   2
#     4  10  21  43  66  93 129 169 216 266 324 378
#     4  10  23  43  66  96 127 165 213 263 321 387
#     4  11  25  42  66  99 128 174 221 261 323 387
#     4  11  24  42  63  97 130 170 223 263 317 387
#     4  12  23  42  68  93 131 172 209 270 321 379
#     4  10  22  42  65  94 128 168 210 262 325 377
#     4  10  21  43  66  93 126 168 212 266 320 382
#
# _framework density 23.491465999999999
#
# number of rings (size 3 to 8) (size 9 to 14) (size 15 to 20)
#    0.000    1.429    2.857    1.286    2.000    4.571 
#   18.000    0.000    0.000    0.000    0.000    0.000 
#    0.000    0.000    0.000    0.000    0.000    0.000 
#
# Total GULP energy -78205.206662 kJ/mol
# GULP energy per Si atom -5586.086190 kJ/mol
# Density = 2.343800 g / cm^3
# Si number density = 23.491466 Si / 1000 Ang^3
#
#
#
# Elastic Constant Matrix: (Units=GPa)
#
#
# Indices 1 2 3 4 5 6 
#
# 1 64.3237 6.3457 12.7473 -9.7592 4.8655 10.6237
# 2 6.3457 82.4897 -10.6803 -15.7989 -4.1006 25.0051
# 3 12.7473 -10.6803 87.6553 0.9689 -3.2055 10.4127
# 4 -9.7592 -15.7989 0.9689 24.9805 11.3230 -3.8624
# 5 4.8655 -4.1006 -3.2055 11.3230 38.8532 -2.2316
# 6 10.6237 25.0051 10.4127 -3.8624 -2.2316 30.4735
#
#
#
# Elastic Compliance Matrix: (Units=1/GPa)
#
#
# Indices 1 2 3 4 5 6 
#
# 1 0.018828 0.001966 -0.002035 0.010232 -0.005679 -0.006601
# 2 0.001966 0.019674 0.003911 0.011423 -0.002145 -0.016875
# 3 -0.002035 0.003911 0.013066 -0.000588 0.001519 -0.006928
# 4 0.010232 0.011423 -0.000588 0.058160 -0.017456 -0.006646
# 5 -0.005679 -0.002145 0.001519 -0.017456 0.031626 0.003325
# 6 -0.006601 -0.016875 -0.006928 -0.006646 0.003325 0.050732
#
#
# Mechanical properties :
#
#
# Convention : Reuss Voigt Hill
#
# Bulk Modulus (GPa) = 16.87682 27.92156 22.39919
# Shear Modulus (GPa) = 24.49158 33.93184 29.21171
#
# Velocity S-wave (km/s) = 3.23239 3.80469 3.53016
# Velocity P-wave (km/s) = 4.59685 5.58682 5.11583
#
# Compressibility (1/GPa) = 0.05925287
#
# Stress axis : x y z
#
# Youngs Moduli (GPa) = 53.11291 50.82781 76.53558
#
# Poissons Ratio (x) = -0.09995 0.15575
# Poissons Ratio (y) = -0.10444 -0.29934
# Poissons Ratio (z) = 0.10809 -0.19879
#
# Static dielectric constant tensor:
#      x y z
#    x 1.456350 0.031610 1.390180 
#    y 0.031610 1.865990 -0.061800 
#    z 1.390180 -0.061800 -2.357630 
# 
# From -- ./inp_files/307077.got.cif
#   From: 2010.05.17/outbox.cif.g08.bks.cpg/sg2_154_cif.got.tgz:307077.got - 2010.06.03 11:33:40.
