data_PCOD9017911
_publ_section_title
;
Structure prediction by ZEFSAII (Michael W. Deem and Ramdas Pophale) SiO2 
 PCOD9017911
Probable space group: P -1
;
_chemical_formula_sum "Si O2"
_cell_formula_units_Z 16
_cell_length_a 11.305877
_cell_length_b 23.816057
_cell_length_c 5.291189
_cell_angle_alpha 110.584702
_cell_angle_beta 111.527519
_cell_angle_gamma 30.504706
_cell_volume 670.851324
_symmetry_space_group_name_H-M "P -1"
_symmetry_group_IT_number 2
_symmetry_cell_setting 'triclinic'
loop_
_space_group_symop_operation_xyz
x,y,z
-x,-y,-z
loop_
_atom_site_type_symbol
_atom_site_label
_atom_site_fract_x
_atom_site_fract_y
_atom_site_fract_z
Si Si1 0.173602 0.902336 0.278120
Si Si2 0.424098 0.993452 0.675851
Si Si3 0.026444 0.080718 0.254570
Si Si4 0.886384 0.641117 0.008055
Si Si5 0.621973 0.552109 0.134025
Si Si6 0.491706 0.717749 0.593966
Si Si7 0.179453 0.258333 0.390959
Si Si8 0.693633 0.405091 0.291512
O O1 0.422262 0.785157 0.401114
O O2 0.182524 0.956746 0.188930
O O3 0.000000 0.000000 0.500000
O O4 0.039371 0.896499 0.057934
O O5 0.577398 0.872474 0.614134
O O6 0.500000 0.000000 0.500000
O O7 0.162380 0.075750 0.518285
O O8 0.500000 0.000000 0.000000
O O9 0.759252 0.183377 0.309204
O O10 0.698229 0.665299 0.831734
O O11 0.844740 0.708019 0.861901
O O12 0.158287 0.516073 0.973530
O O13 0.851865 0.677962 0.322063
O O14 0.570645 0.621938 0.410288
O O15 0.678573 0.466078 0.176290
O O16 0.390955 0.626194 0.915028
O O17 0.971725 0.295132 0.379182
O O18 0.500000 0.500000 0.500000
#
# Coordination Sequence:
#
# PCOD9017911 Si02
#       8
#     2   2   2   2   2   2   2   2
#     4   9  21  40  67  92 129 176 220 276 332 408
#     4  12  29  45  68 102 138 176 227 286 332 398
#     4  10  24  43  65  97 132 176 228 271 341 409
#     4  11  24  45  67 102 129 181 221 274 342 406
#     4  10  23  41  64  98 135 168 226 276 329 403
#     4  11  24  39  69  95 136 170 220 283 337 391
#     4  11  25  45  72  91 139 179 224 273 342 403
#     4  10  21  43  67  92 128 181 222 268 333 400
#
# _framework density 23.850290000000001
#
# number of rings (size 3 to 8) (size 9 to 14) (size 15 to 20)
#    0.000    1.500    1.250    1.875   12.250    2.000 
#    0.000    1.875    0.000    0.000    0.000    0.000 
#    0.000    0.000    0.000    0.000    0.000    0.000 
#
# Total GULP energy -89245.755339 kJ/mol
# GULP energy per Si atom -5577.859709 kJ/mol
# Density = 2.379601 g / cm^3
# Si number density = 23.850290 Si / 1000 Ang^3
#
#
#
# Elastic Constant Matrix: (Units=GPa)
#
#
# Indices 1 2 3 4 5 6 
#
# 1 62.5355 23.3603 18.5211 -11.6061 7.8264 -30.4882
# 2 23.3603 62.3565 24.3628 1.7441 24.0448 -22.5183
# 3 18.5211 24.3628 121.2206 -15.4148 23.7979 -32.7681
# 4 -11.6061 1.7441 -15.4148 31.0963 -10.9195 8.9436
# 5 7.8264 24.0448 23.7979 -10.9195 48.6444 -17.0394
# 6 -30.4882 -22.5183 -32.7681 8.9436 -17.0394 45.9757
#
#
#
# Elastic Compliance Matrix: (Units=1/GPa)
#
#
# Indices 1 2 3 4 5 6 
#
# 1 0.026985 -0.007657 0.001620 0.008922 0.006211 0.015865
# 2 -0.007657 0.025852 -0.002042 -0.010492 -0.011539 0.003893
# 3 0.001620 -0.002042 0.010963 0.003738 -0.001456 0.006621
# 4 0.008922 -0.010492 0.003738 0.042016 0.011143 -0.000601
# 5 0.006211 -0.011539 -0.001456 0.011143 0.030816 0.006683
# 6 0.015865 0.003893 0.006621 -0.000601 0.006683 0.041491
#
#
# Mechanical properties :
#
#
# Convention : Reuss Voigt Hill
#
# Bulk Modulus (GPa) = 20.99048 42.06677 31.52863
# Shear Modulus (GPa) = 23.79102 37.13451 30.46276
#
# Velocity S-wave (km/s) = 3.16177 3.95014 3.57774
# Velocity P-wave (km/s) = 4.70628 6.20330 5.50591
#
# Compressibility (1/GPa) = 0.04764064
#
# Stress axis : x y z
#
# Youngs Moduli (GPa) = 37.05767 38.68132 91.21268
#
# Poissons Ratio (x) = 0.29620 -0.14775
# Poissons Ratio (y) = 0.28377 0.18629
# Poissons Ratio (z) = -0.06003 0.07900
#
# Static dielectric constant tensor:
#      x y z
#    x 2.050600 0.069500 -0.086410 
#    y 0.069500 1.966070 -0.153210 
#    z -0.086410 -0.153210 2.067830 
# 
# From -- ./inp_files/85187.got.cif
#   From: 2010.05.17/outbox.cif.g08.bks.cpg/sg2_43_cif.got.tgz:85187.got - 2010.06.03 11:33:40.
