data_PCOD9017230
_publ_section_title
;
Structure prediction by ZEFSAII (Michael W. Deem and Ramdas Pophale) SiO2 
 PCOD9017230
Probable space group: P -1
;
_chemical_formula_sum "Si O2"
_cell_formula_units_Z 16
_cell_length_a 25.259907
_cell_length_b 10.100518
_cell_length_c 6.397804
_cell_angle_alpha 118.234714
_cell_angle_beta 47.500177
_cell_angle_gamma 146.253973
_cell_volume 652.691129
_symmetry_space_group_name_H-M "P -1"
_symmetry_group_IT_number 2
_symmetry_cell_setting 'triclinic'
loop_
_space_group_symop_operation_xyz
x,y,z
-x,-y,-z
loop_
_atom_site_type_symbol
_atom_site_label
_atom_site_fract_x
_atom_site_fract_y
_atom_site_fract_z
Si Si1 0.385860 0.826903 0.821950
Si Si2 0.362987 0.263069 0.236291
Si Si3 0.721668 0.601094 0.908640
Si Si4 0.876938 0.357779 0.291775
Si Si5 0.068847 0.233213 0.628822
Si Si6 0.841911 0.979150 0.215683
Si Si7 0.305972 0.921218 0.801138
Si Si8 0.463501 0.209814 0.228539
O O1 0.500000 0.000000 0.500000
O O2 0.295125 0.761028 0.861914
O O3 0.326142 0.591121 0.925887
O O4 0.424659 0.008406 0.034549
O O5 0.268959 0.240460 0.504363
O O6 0.385133 0.219672 0.371342
O O7 0.500000 0.500000 0.000000
O O8 0.316078 0.079774 0.041634
O O9 0.808270 0.646938 0.564740
O O10 0.795700 0.852617 0.015165
O O11 0.601313 0.461167 0.027277
O O12 0.897510 0.564775 0.449452
O O13 0.843680 0.163166 0.381415
O O14 0.793185 0.231841 0.221266
O O15 0.000000 0.500000 0.000000
O O16 0.000000 0.000000 0.500000
O O17 0.973720 0.130028 0.980929
O O18 0.425649 0.110425 0.489823
#
# Coordination Sequence:
#
# PCOD9017230 Si02
#       8
#     2   2   2   2   2   2   2   2
#     4  11  24  38  62 104 140 174 231 282 339 413
#     4  11  25  40  66 104 144 174 227 284 339 412
#     4  11  22  39  70  96 139 187 226 280 346 404
#     4  10  21  42  72  92 129 177 229 278 334 409
#     4   9  21  41  69  95 126 179 227 276 340 405
#     4  10  22  42  67  97 135 176 233 281 336 409
#     4  11  23  41  67  99 136 184 225 280 353 398
#     4  11  23  40  66  97 140 183 226 281 345 407
#
# _framework density 24.513891000000001
#
# number of rings (size 3 to 8) (size 9 to 14) (size 15 to 20)
#    0.000    1.500    2.500    1.875    7.000    1.000 
#    0.000    2.500    0.000    4.500    0.000    0.000 
#    0.000    0.000    0.000    0.000    0.000    0.000 
#
# Total GULP energy -89214.311524 kJ/mol
# GULP energy per Si atom -5575.894470 kJ/mol
# Density = 2.445810 g / cm^3
# Si number density = 24.513891 Si / 1000 Ang^3
#
#
#
# Elastic Constant Matrix: (Units=GPa)
#
#
# Indices 1 2 3 4 5 6 
#
# 1 68.3425 18.8734 41.0039 -14.9195 -13.6735 1.6290
# 2 18.8734 88.1708 29.2805 -7.2035 -12.4856 4.2474
# 3 41.0039 29.2805 165.3555 -27.1768 -28.1162 15.0993
# 4 -14.9195 -7.2035 -27.1768 48.1276 8.7472 -15.7788
# 5 -13.6735 -12.4856 -28.1162 8.7472 39.3801 -7.3858
# 6 1.6290 4.2474 15.0993 -15.7788 -7.3858 28.4252
#
#
#
# Elastic Compliance Matrix: (Units=1/GPa)
#
#
# Indices 1 2 3 4 5 6 
#
# 1 0.018798 -0.002294 -0.003379 0.004416 0.003222 0.004349
# 2 -0.002294 0.012579 -0.001249 -0.000127 0.002220 -0.000578
# 3 -0.003379 -0.001249 0.008224 0.002160 0.003468 -0.001888
# 4 0.004416 -0.000127 0.002160 0.028055 -0.000562 0.014046
# 5 0.003222 0.002220 0.003468 -0.000562 0.030818 0.005337
# 6 0.004349 -0.000578 -0.001888 0.014046 0.005337 0.045204
#
#
# Mechanical properties :
#
#
# Convention : Reuss Voigt Hill
#
# Bulk Modulus (GPa) = 38.82440 55.57605 47.20023
# Shear Modulus (GPa) = 30.10100 38.70064 34.40082
#
# Velocity S-wave (km/s) = 3.50796 3.97763 3.75015
# Velocity P-wave (km/s) = 5.68154 6.61935 6.16829
#
# Compressibility (1/GPa) = 0.02575700
#
# Stress axis : x y z
#
# Youngs Moduli (GPa) = 53.19742 79.49527 121.59888
#
# Poissons Ratio (x) = 0.18238 0.41083
# Poissons Ratio (y) = 0.12205 0.15191
# Poissons Ratio (z) = 0.17973 0.09931
#
# Static dielectric constant tensor:
#      x y z
#    x 1.958890 -0.078300 -0.003130 
#    y -0.078300 2.039490 -0.148780 
#    z -0.003130 -0.148780 2.159440 
# 
# From -- ./inp_files/126902.got.cif
#   From: 2010.05.17/outbox.cif.g08.bks.cpg/sg2_64_cif.got.tgz:126902.got - 2010.06.03 11:33:40.
