data_PCOD9017568
_publ_section_title
;
Structure prediction by ZEFSAII (Michael W. Deem and Ramdas Pophale) SiO2 
 PCOD9017568
Probable space group: P -1
;
_chemical_formula_sum "Si O2"
_cell_formula_units_Z 16
_cell_length_a 13.803487
_cell_length_b 14.187208
_cell_length_c 9.160248
_cell_angle_alpha 46.882099
_cell_angle_beta 101.910985
_cell_angle_gamma 138.026666
_cell_volume 688.386748
_symmetry_space_group_name_H-M "P -1"
_symmetry_group_IT_number 2
_symmetry_cell_setting 'triclinic'
loop_
_space_group_symop_operation_xyz
x,y,z
-x,-y,-z
loop_
_atom_site_type_symbol
_atom_site_label
_atom_site_fract_x
_atom_site_fract_y
_atom_site_fract_z
Si Si1 0.370118 0.797086 0.366564
Si Si2 0.728831 0.812031 0.250826
Si Si3 0.220015 0.807842 0.809597
Si Si4 0.467105 0.764434 0.139072
Si Si5 0.573644 0.790900 0.727345
Si Si6 0.968483 0.695612 0.045339
Si Si7 0.757034 0.455069 0.970677
Si Si8 0.546493 0.530186 0.223850
O O1 0.372640 0.726040 0.289155
O O2 0.197061 0.560753 0.655922
O O3 0.567068 0.977987 0.305387
O O4 0.390768 0.972303 0.159289
O O5 0.590949 0.779006 0.202787
O O6 0.700760 0.689821 0.230433
O O7 0.641954 0.668170 0.529326
O O8 0.928712 0.088327 0.051223
O O9 0.237651 0.934288 0.554252
O O10 0.116622 0.753907 0.972473
O O11 0.164979 0.604220 0.957809
O O12 0.301801 0.559550 0.189796
O O13 0.483320 0.619116 0.741013
O O14 0.438694 0.752211 0.787901
O O15 0.587178 0.698639 0.956327
O O16 0.890396 0.673031 0.894880
#
# Coordination Sequence:
#
# PCOD9017568 Si02
#       8
#     2   2   2   2   2   2   2   2
#     4  10  22  40  68  98 138 178 213 268 340 399
#     4  11  22  44  66  95 131 179 224 278 331 382
#     4  11  22  43  69  99 141 174 212 272 342 403
#     4  10  21  43  64  96 139 179 213 267 336 405
#     4  11  20  42  71  95 126 179 225 268 326 394
#     4  12  24  41  68 104 136 172 222 277 327 399
#     4  11  24  40  67 103 135 173 215 269 340 399
#     4  10  23  40  73  93 125 186 231 268 331 391
#
# _framework density 23.242747999999999
#
# number of rings (size 3 to 8) (size 9 to 14) (size 15 to 20)
#    0.000    1.250    5.000    0.750    1.750    0.500 
#    2.250    1.250    0.000    0.000    0.000    0.000 
#    0.000    0.000    0.000    0.000    0.000    0.000 
#
# Total GULP energy -89364.413963 kJ/mol
# GULP energy per Si atom -5585.275873 kJ/mol
# Density = 2.318985 g / cm^3
# Si number density = 23.242748 Si / 1000 Ang^3
#
#
#
# Elastic Constant Matrix: (Units=GPa)
#
#
# Indices 1 2 3 4 5 6 
#
# 1 46.7883 6.6149 18.5546 4.3094 -0.5133 -8.5200
# 2 6.6149 127.4530 8.6021 9.8404 4.3198 -18.8356
# 3 18.5546 8.6021 96.4782 1.4150 2.4787 2.7439
# 4 4.3094 9.8404 1.4150 35.2017 0.4108 -4.2147
# 5 -0.5133 4.3198 2.4787 0.4108 37.7110 5.9657
# 6 -8.5200 -18.8356 2.7439 -4.2147 5.9657 26.5434
#
#
#
# Elastic Compliance Matrix: (Units=1/GPa)
#
#
# Indices 1 2 3 4 5 6 
#
# 1 0.025086 0.000518 -0.005073 -0.001949 -0.000756 0.008804
# 2 0.000518 0.009115 -0.001032 -0.001716 -0.002047 0.006928
# 3 -0.005073 -0.001032 0.011536 0.000027 -0.000154 -0.003514
# 4 -0.001949 -0.001716 0.000027 0.029489 -0.000624 0.002976
# 5 -0.000756 -0.002047 -0.000154 -0.000624 0.028037 -0.008079
# 6 0.008804 0.006928 -0.003514 0.002976 -0.008079 0.048068
#
#
# Mechanical properties :
#
#
# Convention : Reuss Voigt Hill
#
# Bulk Modulus (GPa) = 28.93285 37.58475 33.25880
# Shear Modulus (GPa) = 28.73153 35.68773 32.20963
#
# Velocity S-wave (km/s) = 3.51971 3.92271 3.72666
# Velocity P-wave (km/s) = 5.38451 6.05991 5.73217
#
# Compressibility (1/GPa) = 0.03456279
#
# Stress axis : x y z
#
# Youngs Moduli (GPa) = 39.86300 109.71507 86.68403
#
# Poissons Ratio (x) = -0.05680 0.43975
# Poissons Ratio (y) = -0.02064 0.08942
# Poissons Ratio (z) = 0.20223 0.11317
#
# Static dielectric constant tensor:
#      x y z
#    x 1.906870 0.007950 0.044950 
#    y 0.007950 1.947950 0.006120 
#    z 0.044950 0.006120 1.914760 
# 
# From -- ./inp_files/314691.got.cif
#   From: 2010.05.17/outbox.cif.g08.bks.cpg/sg2_158_cif.got.tgz:314691.got - 2010.06.03 11:33:40.
