data_PCOD9017288
_publ_section_title
;
Structure prediction by ZEFSAII (Michael W. Deem and Ramdas Pophale) SiO2 
 PCOD9017288
Probable space group: P -1
;
_chemical_formula_sum "Si O2"
_cell_formula_units_Z 13
_cell_length_a 19.548799
_cell_length_b 22.834705
_cell_length_c 4.845723
_cell_angle_alpha 58.795520
_cell_angle_beta 53.342505
_cell_angle_gamma 16.522100
_cell_volume 479.311057
_symmetry_space_group_name_H-M "P -1"
_symmetry_group_IT_number 2
_symmetry_cell_setting 'triclinic'
loop_
_space_group_symop_operation_xyz
x,y,z
-x,-y,-z
loop_
_atom_site_type_symbol
_atom_site_label
_atom_site_fract_x
_atom_site_fract_y
_atom_site_fract_z
Si Si1 0.607362 0.849053 0.251397
Si Si2 0.253910 0.824570 0.127641
Si Si3 0.333578 0.855970 0.340192
Si Si4 0.150362 0.675995 0.524101
Si Si5 0.500000 0.500000 0.500000
Si Si6 0.984888 0.717771 0.295042
Si Si7 0.157298 0.459646 0.878565
O O1 0.878108 0.660969 0.222897
O O2 0.722991 0.702281 0.132609
O O3 0.331721 0.032992 0.592817
O O4 0.500000 0.000000 0.000000
O O5 0.367003 0.801746 0.086539
O O6 0.402983 0.640332 0.222428
O O7 0.256487 0.853368 0.745062
O O8 0.000000 0.000000 0.500000
O O9 0.593844 0.697751 0.185218
O O10 0.086182 0.094111 0.379981
O O11 0.401770 0.523045 0.421293
O O12 0.110118 0.638733 0.893285
O O13 0.091342 0.695572 0.307289
O O14 0.067135 0.582868 0.559150
#
# Coordination Sequence:
#
# PCOD9017288 Si02
#       7
#     2   2   2   2   1   2   2
#     4   9  20  42  74 105 140 178 229 283 342 412
#     4  12  27  47  70 102 137 183 233 285 342 406
#     4  12  25  47  72 100 141 183 230 283 345 406
#     4  12  26  45  72 100 140 186 229 287 342 405
#     4  12  28  44  72 100 140 180 236 282 348 398
#     4  11  24  47  69 102 141 182 231 279 345 408
#     4  10  21  42  73 103 140 182 229 282 344 408
#
# _framework density 27.122263
#
# number of rings (size 3 to 8) (size 9 to 14) (size 15 to 20)
#    0.000    0.923    3.077    3.231    0.000    1.231 
#    0.000    9.231    0.000    0.000    0.000    0.000 
#    0.000    0.000    0.000    0.000    0.000    0.000 
#
# Total GULP energy -72531.816803 kJ/mol
# GULP energy per Si atom -5579.370523 kJ/mol
# Density = 2.706053 g / cm^3
# Si number density = 27.122263 Si / 1000 Ang^3
#
#
#
# Elastic Constant Matrix: (Units=GPa)
#
#
# Indices 1 2 3 4 5 6 
#
# 1 121.9288 46.3829 37.6172 8.6381 -3.0705 -1.2040
# 2 46.3829 120.7606 18.9463 -7.2685 -2.9153 15.5665
# 3 37.6172 18.9463 83.4924 -4.0659 20.7971 -1.5559
# 4 8.6381 -7.2685 -4.0659 41.5581 -1.6997 -22.1480
# 5 -3.0705 -2.9153 20.7971 -1.6997 30.4017 -4.0175
# 6 -1.2040 15.5665 -1.5559 -22.1480 -4.0175 76.5643
#
#
#
# Elastic Compliance Matrix: (Units=1/GPa)
#
#
# Indices 1 2 3 4 5 6 
#
# 1 0.011751 -0.003715 -0.005760 -0.003430 0.004589 0.000072
# 2 -0.003715 0.010173 -0.000849 0.001654 0.001061 -0.001610
# 3 -0.005760 -0.000849 0.018096 0.002572 -0.012829 0.000521
# 4 -0.003430 0.001654 0.002572 0.029784 0.000817 0.008321
# 5 0.004589 0.001061 -0.012829 0.000817 0.042553 0.002065
# 6 0.000072 -0.001610 0.000521 0.008321 0.002065 0.015915
#
#
# Mechanical properties :
#
#
# Convention : Reuss Voigt Hill
#
# Bulk Modulus (GPa) = 51.61777 59.11938 55.36857
# Shear Modulus (GPa) = 32.17983 44.58719 38.38351
#
# Velocity S-wave (km/s) = 3.44826 4.05894 3.76600
# Velocity P-wave (km/s) = 5.90989 6.61902 6.27448
#
# Compressibility (1/GPa) = 0.01937317
#
# Stress axis : x y z
#
# Youngs Moduli (GPa) = 85.09974 98.29548 55.26233
#
# Poissons Ratio (x) = 0.36513 0.31832
# Poissons Ratio (y) = 0.31611 0.04690
# Poissons Ratio (z) = 0.49018 0.08342
#
# Static dielectric constant tensor:
#      x y z
#    x 2.160630 -0.087630 -0.085550 
#    y -0.087630 2.136490 0.049380 
#    z -0.085550 0.049380 2.078920 
# 
# From -- ./inp_files/111784.got.cif
#   From: 2010.05.17/outbox.cif.g08.bks.cpg/sg2_56_cif.got.tgz:111784.got - 2010.06.03 11:33:40.
