data_PCOD9017728
_publ_section_title
;
Structure prediction by ZEFSAII (Michael W. Deem and Ramdas Pophale) SiO2 
 PCOD9017728
Probable space group: P -1
;
_chemical_formula_sum "Si O2"
_cell_formula_units_Z 12
_cell_length_a 9.871144
_cell_length_b 16.703360
_cell_length_c 5.021030
_cell_angle_alpha 120.708107
_cell_angle_beta 76.451508
_cell_angle_gamma 131.786072
_cell_volume 523.430138
_symmetry_space_group_name_H-M "P -1"
_symmetry_group_IT_number 2
_symmetry_cell_setting 'triclinic'
loop_
_space_group_symop_operation_xyz
x,y,z
-x,-y,-z
loop_
_atom_site_type_symbol
_atom_site_label
_atom_site_fract_x
_atom_site_fract_y
_atom_site_fract_z
Si Si1 0.520635 0.873299 0.969805
Si Si2 0.122214 0.697882 0.774275
Si Si3 0.150287 0.523431 0.173039
Si Si4 0.119712 0.856463 0.653091
Si Si5 0.059341 0.132381 0.744227
Si Si6 0.457669 0.249190 0.755425
O O1 0.561915 0.810320 0.054827
O O2 0.311580 0.816086 0.018717
O O3 0.329312 0.981312 0.812120
O O4 0.536254 0.832140 0.602733
O O5 0.170067 0.611505 0.539357
O O6 0.096676 0.743394 0.591390
O O7 0.937536 0.606520 0.875859
O O8 0.353101 0.609783 0.102671
O O9 0.000000 0.500000 0.000000
O O10 0.051343 0.851356 0.382807
O O11 0.997114 0.864400 0.927099
O O12 0.276886 0.231335 0.762496
O O13 0.000000 0.000000 0.500000
#
# Coordination Sequence:
#
# PCOD9017728 Si02
#       6
#     2   2   2   2   2   2
#     4  11  20  38  63  93 125 154 197 259 303 370
#     4  10  24  39  62  97 120 159 206 254 316 350
#     4  10  21  43  66  84 122 164 205 258 300 367
#     4  12  24  39  64  94 130 158 198 257 303 369
#     4  12  23  41  61  90 129 168 201 240 304 373
#     4  11  22  38  65  90 117 166 212 236 302 365
#
# _framework density 22.925694
#
# number of rings (size 3 to 8) (size 9 to 14) (size 15 to 20)
#    0.000    1.000    5.000    2.000    2.333    0.000 
#    0.000    5.833    0.000    0.000    0.000    0.000 
#    0.000    0.000    0.000    0.000    0.000    0.000 
#
# Total GULP energy -67142.927900 kJ/mol
# GULP energy per Si atom -5595.243992 kJ/mol
# Density = 2.287351 g / cm^3
# Si number density = 22.925694 Si / 1000 Ang^3
#
#
#
# Elastic Constant Matrix: (Units=GPa)
#
#
# Indices 1 2 3 4 5 6 
#
# 1 88.9716 48.4409 9.1594 20.6447 16.5746 8.8129
# 2 48.4409 171.1766 8.9986 26.2902 16.4740 14.4745
# 3 9.1594 8.9986 46.5953 3.5108 6.0259 8.8650
# 4 20.6447 26.2902 3.5108 26.7829 0.5985 9.5360
# 5 16.5746 16.4740 6.0259 0.5985 38.7098 -0.1982
# 6 8.8129 14.4745 8.8650 9.5360 -0.1982 47.5030
#
#
#
# Elastic Compliance Matrix: (Units=1/GPa)
#
#
# Indices 1 2 3 4 5 6 
#
# 1 0.015942 -0.002445 -0.001219 -0.009576 -0.005448 -0.000085
# 2 -0.002445 0.007616 -0.000175 -0.005240 -0.002090 -0.000791
# 3 -0.001219 -0.000175 0.022898 -0.000428 -0.002982 -0.003920
# 4 -0.009576 -0.005240 -0.000428 0.052294 0.005552 -0.007022
# 5 -0.005448 -0.002090 -0.002982 0.005552 0.029440 0.001212
# 6 -0.000085 -0.000791 -0.003920 -0.007022 0.001212 0.023455
#
#
# Mechanical properties :
#
#
# Convention : Reuss Voigt Hill
#
# Bulk Modulus (GPa) = 25.78743 48.88236 37.33489
# Shear Modulus (GPa) = 29.02797 38.60879 33.81838
#
# Velocity S-wave (km/s) = 3.56220 4.10821 3.84491
# Velocity P-wave (km/s) = 5.30958 6.62356 6.00263
#
# Compressibility (1/GPa) = 0.03877859
#
# Stress axis : x y z
#
# Youngs Moduli (GPa) = 62.72926 131.30600 43.67103
#
# Poissons Ratio (x) = 0.32103 0.05324
# Poissons Ratio (y) = 0.15337 0.00762
# Poissons Ratio (z) = 0.07648 0.02292
#
# Static dielectric constant tensor:
#      x y z
#    x 1.822150 0.033120 -0.017940 
#    y 0.033120 1.880930 0.006890 
#    z -0.017940 0.006890 1.917270 
# 
# From -- ./inp_files/32070.got.cif
#   From: 2010.05.17/outbox.cif.g08.bks.cpg/sg2_17_cif.got.tgz:32070.got - 2010.06.03 11:33:40.
