data_PCOD9017905
_publ_section_title
;
Structure prediction by ZEFSAII (Michael W. Deem and Ramdas Pophale) SiO2 
 PCOD9017905
Probable space group: P -1
;
_chemical_formula_sum "Si O2"
_cell_formula_units_Z 14
_cell_length_a 9.426975
_cell_length_b 12.176288
_cell_length_c 9.351973
_cell_angle_alpha 112.323163
_cell_angle_beta 131.463092
_cell_angle_gamma 63.614840
_cell_volume 714.760693
_symmetry_space_group_name_H-M "P -1"
_symmetry_group_IT_number 2
_symmetry_cell_setting 'triclinic'
loop_
_space_group_symop_operation_xyz
x,y,z
-x,-y,-z
loop_
_atom_site_type_symbol
_atom_site_label
_atom_site_fract_x
_atom_site_fract_y
_atom_site_fract_z
Si Si1 0.673419 0.699456 0.215136
Si Si2 0.327151 0.623460 0.856950
Si Si3 0.105831 0.330782 0.359928
Si Si4 0.036483 0.365856 0.880578
Si Si5 0.052308 0.152477 0.014360
Si Si6 0.713058 0.118220 0.957152
Si Si7 0.684219 0.474609 0.508370
O O1 0.829387 0.676126 0.435293
O O2 0.771445 0.672109 0.111565
O O3 0.522117 0.836373 0.199284
O O4 0.518654 0.615278 0.079540
O O5 0.368669 0.566446 0.701573
O O6 0.128197 0.599972 0.775396
O O7 0.258600 0.774457 0.865249
O O8 0.135766 0.200484 0.237514
O O9 0.233253 0.407688 0.403901
O O10 0.858969 0.376454 0.656685
O O11 0.038243 0.260610 0.945141
O O12 0.000000 0.500000 0.000000
O O13 0.193889 0.020510 0.999288
O O14 0.839796 0.135594 0.910303
O O15 0.500000 0.500000 0.500000
#
# Coordination Sequence:
#
# PCOD9017905 Si02
#       7
#     2   2   2   2   2   2   2
#     4  10  23  40  65  95 123 169 215 252 327 373
#     4   9  21  42  60  90 130 159 213 260 306 382
#     4  11  22  40  66  92 125 173 206 261 316 385
#     4  12  24  40  62  97 129 168 211 263 320 379
#     4  10  21  43  67  91 132 163 216 267 311 375
#     4   8  21  42  67  90 124 171 213 263 313 372
#     4  12  25  38  61  94 134 165 213 265 323 372
#
# _framework density 19.586974999999999
#
# number of rings (size 3 to 8) (size 9 to 14) (size 15 to 20)
#    0.857    0.857    2.857    1.286    2.000    1.714 
#    0.000    0.714    0.000    0.000    0.000    0.000 
#    0.000    0.000    0.000    0.000    0.000    0.000 
#
# Total GULP energy -78034.671766 kJ/mol
# GULP energy per Si atom -5573.905126 kJ/mol
# Density = 1.954239 g / cm^3
# Si number density = 19.586975 Si / 1000 Ang^3
#
#
#
# Elastic Constant Matrix: (Units=GPa)
#
#
# Indices 1 2 3 4 5 6 
#
# 1 122.6626 41.5643 24.4781 -6.0692 4.8318 -6.8530
# 2 41.5643 75.0281 9.3241 -3.7075 0.3130 9.8284
# 3 24.4781 9.3241 82.0855 -8.3839 1.3269 -0.0190
# 4 -6.0692 -3.7075 -8.3839 24.6051 -3.3706 0.3771
# 5 4.8318 0.3130 1.3269 -3.3706 28.7234 -6.1516
# 6 -6.8530 9.8284 -0.0190 0.3771 -6.1516 30.2292
#
#
#
# Elastic Compliance Matrix: (Units=1/GPa)
#
#
# Indices 1 2 3 4 5 6 
#
# 1 0.011134 -0.006401 -0.002503 0.000773 -0.000641 0.004463
# 2 -0.006401 0.017903 0.000000 0.001155 -0.000568 -0.007402
# 3 -0.002503 0.000000 0.013330 0.003954 0.000145 -0.000579
# 4 0.000773 0.001155 0.003954 0.043004 0.004772 0.000237
# 5 -0.000641 -0.000568 0.000145 0.004772 0.037094 0.007529
# 6 0.004463 -0.007402 -0.000579 0.000237 0.007529 0.038028
#
#
# Mechanical properties :
#
#
# Convention : Reuss Voigt Hill
#
# Bulk Modulus (GPa) = 40.71492 47.83437 44.27465
# Shear Modulus (GPa) = 26.81177 30.33886 28.57532
#
# Velocity S-wave (km/s) = 3.70382 3.93992 3.82369
# Velocity P-wave (km/s) = 6.25483 6.72100 6.49210
#
# Compressibility (1/GPa) = 0.02456102
#
# Stress axis : x y z
#
# Youngs Moduli (GPa) = 89.81851 55.85614 75.01885
#
# Poissons Ratio (x) = 0.35751 0.18775
# Poissons Ratio (y) = 0.57489 -0.00003
# Poissons Ratio (z) = 0.22479 -0.00002
#
# Static dielectric constant tensor:
#      x y z
#    x 1.735970 -0.028210 0.035830 
#    y -0.028210 1.769940 -0.004820 
#    z 0.035830 -0.004820 1.698490 
# 
# From -- ./inp_files/190482.got.cif
#   From: 2010.05.17/outbox.cif.g08.bks.cpg/sg2_96_cif.got.tgz:190482.got - 2010.06.03 11:33:40.
