data_PCOD9017572
_publ_section_title
;
Structure prediction by ZEFSAII (Michael W. Deem and Ramdas Pophale) SiO2 
 PCOD9017572
Probable space group: P -1
;
_chemical_formula_sum "Si O2"
_cell_formula_units_Z 16
_cell_length_a 24.548353
_cell_length_b 8.440361
_cell_length_c 9.437920
_cell_angle_alpha 60.166810
_cell_angle_beta 150.546903
_cell_angle_gamma 128.503765
_cell_volume 747.395568
_symmetry_space_group_name_H-M "P -1"
_symmetry_group_IT_number 2
_symmetry_cell_setting 'triclinic'
loop_
_space_group_symop_operation_xyz
x,y,z
-x,-y,-z
loop_
_atom_site_type_symbol
_atom_site_label
_atom_site_fract_x
_atom_site_fract_y
_atom_site_fract_z
Si Si1 0.765952 0.114069 0.811135
Si Si2 0.643020 0.638257 0.799566
Si Si3 0.934963 0.467321 0.213445
Si Si4 0.563033 0.275696 0.291333
Si Si5 0.145113 0.671008 0.366120
Si Si6 0.712981 0.905564 0.353902
Si Si7 0.266356 0.378886 0.679085
Si Si8 0.715628 0.572181 0.716956
O O1 0.648999 0.164221 0.508892
O O2 0.852864 0.209529 0.828003
O O3 0.701611 0.874609 0.787865
O O4 0.848204 0.231354 0.080892
O O5 0.500000 0.500000 0.500000
O O6 0.716269 0.561583 0.891591
O O7 0.673357 0.630744 0.033130
O O8 0.000000 0.500000 0.500000
O O9 0.028541 0.563024 0.252474
O O10 0.839765 0.566908 0.947699
O O11 0.623300 0.470205 0.238503
O O12 0.597900 0.372189 0.482894
O O13 0.421100 0.152401 0.990163
O O14 0.183900 0.496358 0.477588
O O15 0.234803 0.861580 0.582219
O O16 0.784881 0.833560 0.430450
O O17 0.705165 0.764561 0.535985
#
# Coordination Sequence:
#
# PCOD9017572 Si02
#       8
#     2   2   2   2   2   2   2   2
#     4  10  24  43  67  99 132 178 225 269 340 400
#     4  12  23  39  63 103 142 168 211 282 343 404
#     4  11  25  47  68  93 135 176 232 286 327 383
#     4   9  20  41  66  94 134 175 215 277 326 414
#     4  11  24  44  71  94 133 181 227 278 325 397
#     4  11  21  40  69  99 131 173 226 265 339 401
#     4  10  23  38  62  98 133 172 223 266 338 391
#     4  10  21  43  64  97 132 173 222 274 334 400
#
# _framework density 21.407674
#
# number of rings (size 3 to 8) (size 9 to 14) (size 15 to 20)
#    0.000    1.500    1.250    4.875    3.500    1.500 
#    2.250    3.125    0.000    0.000    0.000    0.000 
#    0.000    0.000    0.000    0.000    0.000    0.000 
#
# Total GULP energy -89239.657400 kJ/mol
# GULP energy per Si atom -5577.478587 kJ/mol
# Density = 2.135895 g / cm^3
# Si number density = 21.407674 Si / 1000 Ang^3
#
#
#
# Elastic Constant Matrix: (Units=GPa)
#
#
# Indices 1 2 3 4 5 6 
#
# 1 103.5670 26.3865 24.0661 13.0428 -12.1908 -19.7813
# 2 26.3865 63.0180 36.5038 24.7160 -7.2787 -4.0866
# 3 24.0661 36.5038 89.9328 19.9247 -15.1029 -6.2871
# 4 13.0428 24.7160 19.9247 20.8879 5.1395 -6.5636
# 5 -12.1908 -7.2787 -15.1029 5.1395 42.7292 1.7970
# 6 -19.7813 -4.0866 -6.2871 -6.5636 1.7970 22.1159
#
#
#
# Elastic Compliance Matrix: (Units=1/GPa)
#
#
# Indices 1 2 3 4 5 6 
#
# 1 0.013186 -0.004255 -0.000736 0.000302 0.002291 0.010703
# 2 -0.004255 0.037466 -0.003358 -0.044630 0.009849 -0.011883
# 3 -0.000736 -0.003358 0.016754 -0.013572 0.006819 -0.001097
# 4 0.000302 -0.044630 -0.013572 0.129735 -0.029139 0.029036
# 5 0.002291 0.009849 0.006819 -0.029139 0.031878 -0.005431
# 6 0.010703 -0.011883 -0.001097 0.029036 -0.005431 0.061340
#
#
# Mechanical properties :
#
#
# Convention : Reuss Voigt Hill
#
# Bulk Modulus (GPa) = 19.71981 47.82564 33.77272
# Shear Modulus (GPa) = 15.43394 28.45069 21.94232
#
# Velocity S-wave (km/s) = 2.68797 3.64949 3.20500
# Velocity P-wave (km/s) = 4.34340 6.33619 5.43196
#
# Compressibility (1/GPa) = 0.05071043
#
# Stress axis : x y z
#
# Youngs Moduli (GPa) = 75.83560 26.69051 59.68564
#
# Poissons Ratio (x) = 0.11357 0.04390
# Poissons Ratio (y) = 0.32269 0.20041
# Poissons Ratio (z) = 0.05578 0.08962
#
# Static dielectric constant tensor:
#      x y z
#    x 1.833880 -0.032040 -0.007510 
#    y -0.032040 1.840280 -0.003910 
#    z -0.007510 -0.003910 1.772410 
# 
# From -- ./inp_files/185709.got.cif
#   From: 2010.05.17/outbox.cif.g08.bks.cpg/sg2_93_cif.got.tgz:185709.got - 2010.06.03 11:33:40.
