data_PCOD9017150
_publ_section_title
;
Structure prediction by ZEFSAII (Michael W. Deem and Ramdas Pophale) SiO2 
 PCOD9017150
Probable space group: P -1
;
_chemical_formula_sum "Si O2"
_cell_formula_units_Z 16
_cell_length_a 11.725126
_cell_length_b 9.685260
_cell_length_c 8.735674
_cell_angle_alpha 68.177734
_cell_angle_beta 129.333583
_cell_angle_gamma 118.776194
_cell_volume 669.294218
_symmetry_space_group_name_H-M "P -1"
_symmetry_group_IT_number 2
_symmetry_cell_setting 'triclinic'
loop_
_space_group_symop_operation_xyz
x,y,z
-x,-y,-z
loop_
_atom_site_type_symbol
_atom_site_label
_atom_site_fract_x
_atom_site_fract_y
_atom_site_fract_z
Si Si1 0.950860 0.839144 0.157313
Si Si2 0.318090 0.469719 0.423110
Si Si3 0.798350 0.087864 0.874071
Si Si4 0.655463 0.962922 0.100761
Si Si5 0.216483 0.110994 0.453644
Si Si6 0.541743 0.199865 0.534271
Si Si7 0.520966 0.334038 0.129946
Si Si8 0.164929 0.473920 0.630291
O O1 0.051212 0.791698 0.130619
O O2 0.855783 0.685950 0.231494
O O3 0.074798 0.971307 0.315066
O O4 0.839267 0.926792 0.957127
O O5 0.500000 0.500000 0.500000
O O6 0.220742 0.291878 0.356533
O O7 0.331060 0.650563 0.327803
O O8 0.242256 0.457391 0.537771
O O9 0.644670 0.087654 0.654173
O O10 0.761833 0.092139 0.019377
O O11 0.765206 0.932619 0.337206
O O12 0.581621 0.801255 0.010492
O O13 0.500000 0.000000 0.000000
O O14 0.387238 0.123235 0.531178
O O15 0.498947 0.274486 0.312060
O O16 0.706406 0.373500 0.247150
O O17 0.500000 0.500000 0.000000
O O18 0.000000 0.500000 0.500000
#
# Coordination Sequence:
#
# PCOD9017150 Si02
#       8
#     2   2   2   2   2   2   2   2
#     4  11  25  43  70  99 141 184 229 280 361 429
#     4   9  20  40  66  97 131 177 230 286 344 407
#     4  11  24  44  66  98 139 186 232 286 342 425
#     4  12  25  40  68 106 138 172 237 295 345 407
#     4  11  23  42  69 103 140 183 224 292 360 415
#     4  10  21  42  71  95 135 185 242 284 334 420
#     4  11  24  45  72 100 136 189 242 288 347 427
#     4  11  24  43  70  99 136 186 237 285 346 428
#
# _framework density 23.905781000000001
#
# number of rings (size 3 to 8) (size 9 to 14) (size 15 to 20)
#    0.000    1.250    1.250    5.250    3.500    4.000 
#    0.000    0.625    0.000    0.000    0.000    0.000 
#    0.000    0.000    0.000    0.000    0.000    0.000 
#
# Total GULP energy -89162.893482 kJ/mol
# GULP energy per Si atom -5572.680843 kJ/mol
# Density = 2.385137 g / cm^3
# Si number density = 23.905781 Si / 1000 Ang^3
#
#
#
# Elastic Constant Matrix: (Units=GPa)
#
#
# Indices 1 2 3 4 5 6 
#
# 1 158.4361 16.3800 34.8508 -10.3246 -5.6840 16.4114
# 2 16.3800 81.2739 24.6490 5.7185 -15.9794 14.9037
# 3 34.8508 24.6490 103.9875 -7.7607 0.2044 4.3740
# 4 -10.3246 5.7185 -7.7607 31.8897 3.3810 2.7216
# 5 -5.6840 -15.9794 0.2044 3.3810 38.4327 -6.7765
# 6 16.4114 14.9037 4.3740 2.7216 -6.7765 44.4209
#
#
#
# Elastic Compliance Matrix: (Units=1/GPa)
#
#
# Indices 1 2 3 4 5 6 
#
# 1 0.007205 -0.000491 -0.002042 0.002099 0.000267 -0.002384
# 2 -0.000491 0.015705 -0.003740 -0.004246 0.006232 -0.003509
# 3 -0.002042 -0.003740 0.011397 0.002974 -0.002112 0.000382
# 4 0.002099 -0.004246 0.002974 0.034258 -0.004924 -0.002494
# 5 0.000267 0.006232 -0.002112 -0.004924 0.029594 0.002835
# 6 -0.002384 -0.003509 0.000382 -0.002494 0.002835 0.025117
#
#
# Mechanical properties :
#
#
# Convention : Reuss Voigt Hill
#
# Bulk Modulus (GPa) = 45.95147 55.05081 50.50114
# Shear Modulus (GPa) = 34.94663 40.80319 37.87491
#
# Velocity S-wave (km/s) = 3.82756 4.13587 3.98470
# Velocity P-wave (km/s) = 6.22874 6.77388 6.50702
#
# Compressibility (1/GPa) = 0.02176209
#
# Stress axis : x y z
#
# Youngs Moduli (GPa) = 138.79452 63.67565 87.73934
#
# Poissons Ratio (x) = 0.03125 0.17916
# Poissons Ratio (y) = 0.06811 0.32812
# Poissons Ratio (z) = 0.28341 0.23813
#
# Static dielectric constant tensor:
#      x y z
#    x 1.992140 -0.040760 -0.040100 
#    y -0.040760 1.993270 0.030800 
#    z -0.040100 0.030800 1.992090 
# 
# From -- ./inp_files/243188.got.cif
#   From: 2010.05.17/outbox.cif.g08.bks.cpg/sg2_122_cif.got.tgz:243188.got - 2010.06.03 11:33:40.
