data_PCOD9017096
_publ_section_title
;
Structure prediction by ZEFSAII (Michael W. Deem and Ramdas Pophale) SiO2 
 PCOD9017096
Probable space group: P -1
;
_chemical_formula_sum "Si O2"
_cell_formula_units_Z 16
_cell_length_a 5.288206
_cell_length_b 22.100981
_cell_length_c 19.201125
_cell_angle_alpha 160.829853
_cell_angle_beta 110.544716
_cell_angle_gamma 70.614432
_cell_volume 690.043352
_symmetry_space_group_name_H-M "P -1"
_symmetry_group_IT_number 2
_symmetry_cell_setting 'triclinic'
loop_
_space_group_symop_operation_xyz
x,y,z
-x,-y,-z
loop_
_atom_site_type_symbol
_atom_site_label
_atom_site_fract_x
_atom_site_fract_y
_atom_site_fract_z
Si Si1 0.866491 0.804267 0.292029
Si Si2 0.060506 0.912484 0.834978
Si Si3 0.446757 0.960846 0.798036
Si Si4 0.930000 0.513103 0.426760
Si Si5 0.392783 0.672670 0.013739
Si Si6 0.214424 0.464140 0.896376
Si Si7 0.056562 0.260417 0.050054
Si Si8 0.375882 0.558683 0.341614
O O1 0.573486 0.792978 0.214622
O O2 0.019406 0.629704 0.082054
O O3 0.867297 0.735775 0.298373
O O4 0.000000 0.000000 0.500000
O O5 0.769049 0.948134 0.809240
O O6 0.089906 0.694043 0.613492
O O7 0.315034 0.970517 0.874442
O O8 0.000000 0.000000 0.000000
O O9 0.333355 0.770029 0.549573
O O10 0.315209 0.132119 0.932509
O O11 0.992848 0.316237 0.183639
O O12 0.622894 0.551288 0.413398
O O13 0.000000 0.500000 0.500000
O O14 0.262643 0.509387 0.870073
O O15 0.183434 0.799354 0.088340
O O16 0.554299 0.565475 0.852891
O O17 0.500000 0.500000 0.000000
O O18 0.124430 0.462187 0.247183
#
# Coordination Sequence:
#
# PCOD9017096 Si02
#       8
#     2   2   2   2   2   2   2   2
#     4  10  21  42  71 102 139 170 220 277 340 411
#     4  11  23  42  64  99 134 172 229 296 356 422
#     4  11  25  43  65  94 133 180 230 290 348 416
#     4  10  22  39  65  95 126 176 226 289 350 407
#     4  10  22  42  67  96 135 182 227 275 344 413
#     4   9  20  41  66  99 134 174 214 270 337 400
#     4  11  23  42  66  88 135 178 227 285 338 417
#     4  10  23  44  62  91 135 175 230 285 339 417
#
# _framework density 23.186948999999998
#
# number of rings (size 3 to 8) (size 9 to 14) (size 15 to 20)
#    0.000    1.750    1.250    1.875    5.250    3.500 
#    0.000   16.250    0.000    0.000    0.000    0.000 
#    0.000    0.000    0.000    0.000    0.000    0.000 
#
# Total GULP energy -89267.094454 kJ/mol
# GULP energy per Si atom -5579.193403 kJ/mol
# Density = 2.313417 g / cm^3
# Si number density = 23.186949 Si / 1000 Ang^3
#
#
#
# Elastic Constant Matrix: (Units=GPa)
#
#
# Indices 1 2 3 4 5 6 
#
# 1 31.1908 6.6675 -2.1152 0.4101 0.8719 14.2114
# 2 6.6675 115.8981 38.9377 -1.7991 8.4239 5.2131
# 3 -2.1152 38.9377 74.7501 23.1088 16.2190 3.4859
# 4 0.4101 -1.7991 23.1088 33.0340 3.0187 -0.3109
# 5 0.8719 8.4239 16.2190 3.0187 33.1695 6.9456
# 6 14.2114 5.2131 3.4859 -0.3109 6.9456 38.6263
#
#
#
# Elastic Compliance Matrix: (Units=1/GPa)
#
#
# Indices 1 2 3 4 5 6 
#
# 1 0.039875 -0.003309 0.004596 -0.004124 0.001031 -0.014858
# 2 -0.003309 0.011644 -0.008271 0.006418 0.000517 0.000351
# 3 0.004596 -0.008271 0.025045 -0.017275 -0.008388 -0.001466
# 4 -0.004124 0.006418 -0.017275 0.042538 0.002619 0.002082
# 5 0.001031 0.000517 -0.008388 0.002619 0.035106 -0.005984
# 6 -0.014858 0.000351 -0.001466 0.002082 -0.005984 0.032533
#
#
# Mechanical properties :
#
#
# Convention : Reuss Voigt Hill
#
# Bulk Modulus (GPa) = 15.97558 34.31323 25.14441
# Shear Modulus (GPa) = 22.56581 32.85588 27.71084
#
# Velocity S-wave (km/s) = 3.12302 3.76839 3.46078
# Velocity P-wave (km/s) = 4.46197 5.81076 5.18045
#
# Compressibility (1/GPa) = 0.06259552
#
# Stress axis : x y z
#
# Youngs Moduli (GPa) = 25.07864 85.88269 39.92737
#
# Poissons Ratio (x) = 0.28416 -0.18350
# Poissons Ratio (y) = 0.08298 0.33026
# Poissons Ratio (z) = -0.11526 0.71037
#
# Static dielectric constant tensor:
#      x y z
#    x 1.958300 0.044110 -0.004740 
#    y 0.044110 1.976430 -0.045570 
#    z -0.004740 -0.045570 1.904570 
# 
# From -- ./inp_files/551043.got.cif
#   From: 2010.05.17/outbox.cif.g08.bks.cpg/sg2_276_cif.got.tgz:551043.got - 2010.06.03 11:33:40.
