data_PCOD9017915
_publ_section_title
;
Structure prediction by ZEFSAII (Michael W. Deem and Ramdas Pophale) SiO2 
 PCOD9017915
Probable space group: P -1
;
_chemical_formula_sum "Si O2"
_cell_formula_units_Z 14
_cell_length_a 8.470149
_cell_length_b 17.234894
_cell_length_c 11.120938
_cell_angle_alpha 139.337330
_cell_angle_beta 39.833258
_cell_angle_gamma 141.678452
_cell_volume 592.939099
_symmetry_space_group_name_H-M "P -1"
_symmetry_group_IT_number 2
_symmetry_cell_setting 'triclinic'
loop_
_space_group_symop_operation_xyz
x,y,z
-x,-y,-z
loop_
_atom_site_type_symbol
_atom_site_label
_atom_site_fract_x
_atom_site_fract_y
_atom_site_fract_z
Si Si1 0.792862 0.629520 0.729748
Si Si2 0.780476 0.951008 0.732297
Si Si3 0.674303 0.294806 0.638493
Si Si4 0.392517 0.016469 0.375773
Si Si5 0.726244 0.875266 0.950552
Si Si6 0.075964 0.267855 0.955817
Si Si7 0.190939 0.496907 0.988189
O O1 0.737884 0.741787 0.825908
O O2 0.043571 0.620956 0.504897
O O3 0.895712 0.681235 0.864981
O O4 0.479004 0.504434 0.779461
O O5 0.068578 0.953219 0.527081
O O6 0.863555 0.109077 0.886736
O O7 0.579783 0.909831 0.684183
O O8 0.709502 0.884255 0.826419
O O9 0.592136 0.136102 0.491259
O O10 0.382241 0.288026 0.762062
O O11 0.725412 0.369568 0.823113
O O12 0.479323 0.900659 0.176376
O O13 0.000000 0.000000 0.000000
O O14 0.976400 0.634710 0.985807
O O15 0.000000 0.500000 0.000000
#
# Coordination Sequence:
#
# PCOD9017915 Si02
#       7
#     2   2   2   2   2   2   2
#     4  11  23  42  66  96 127 172 210 259 319 374
#     4  10  22  40  64  97 132 171 209 255 318 376
#     4  10  21  43  67  93 124 168 216 257 315 382
#     4  10  22  40  63  97 132 173 208 255 316 381
#     4  12  22  38  64 100 136 164 207 260 320 380
#     4  10  22  43  67  89 128 174 212 256 313 379
#     4  11  27  46  66  93 124 166 218 269 320 371
#
# _framework density 23.611194000000001
#
# number of rings (size 3 to 8) (size 9 to 14) (size 15 to 20)
#    0.000    1.429    2.857    2.143    2.000    5.714 
#    5.143    0.000    0.000    0.000    0.000    0.000 
#    0.000    0.000    0.000    0.000    0.000    0.000 
#
# Total GULP energy -78327.412067 kJ/mol
# GULP energy per Si atom -5594.815148 kJ/mol
# Density = 2.355745 g / cm^3
# Si number density = 23.611194 Si / 1000 Ang^3
#
#
#
# Elastic Constant Matrix: (Units=GPa)
#
#
# Indices 1 2 3 4 5 6 
#
# 1 79.8213 29.7433 15.8853 11.9574 8.8307 -27.3819
# 2 29.7433 68.0903 5.6029 -4.8823 2.7646 -22.1951
# 3 15.8853 5.6029 101.8086 -28.4617 -5.6442 -4.1265
# 4 11.9574 -4.8823 -28.4617 35.6099 4.9940 -6.1676
# 5 8.8307 2.7646 -5.6442 4.9940 16.3766 -1.4414
# 6 -27.3819 -22.1951 -4.1265 -6.1676 -1.4414 45.4769
#
#
#
# Elastic Compliance Matrix: (Units=1/GPa)
#
#
# Indices 1 2 3 4 5 6 
#
# 1 0.021280 -0.006842 -0.006052 -0.010465 -0.008577 0.007233
# 2 -0.006842 0.020467 0.002572 0.008531 -0.000844 0.007233
# 3 -0.006052 0.002572 0.014727 0.013788 0.003783 0.000938
# 4 -0.010465 0.008531 0.013788 0.045289 -0.004406 0.005116
# 5 -0.008577 -0.000844 0.003783 -0.004406 0.068155 -0.003671
# 6 0.007233 0.007233 0.000938 0.005116 -0.003671 0.030537
#
#
# Mechanical properties :
#
#
# Convention : Reuss Voigt Hill
#
# Bulk Modulus (GPa) = 27.90804 39.13145 33.51975
# Shear Modulus (GPa) = 21.45548 32.72527 27.09037
#
# Velocity S-wave (km/s) = 3.01773 3.72695 3.39093
# Velocity P-wave (km/s) = 4.89773 5.92701 5.43678
#
# Compressibility (1/GPa) = 0.03583197
#
# Stress axis : x y z
#
# Youngs Moduli (GPa) = 46.99354 48.85912 67.90141
#
# Poissons Ratio (x) = 0.33428 0.41091
# Poissons Ratio (y) = 0.32151 -0.17467
# Poissons Ratio (z) = 0.28439 -0.12568
#
# Static dielectric constant tensor:
#      x y z
#    x 1.867980 0.010100 -0.003320 
#    y 0.010100 1.938870 -0.022820 
#    z -0.003320 -0.022820 1.901900 
# 
# From -- ./inp_files/403311.got.cif
#   From: 2010.05.17/outbox.cif.g08.bks.cpg/sg2_202_cif.got.tgz:403311.got - 2010.06.03 11:33:40.
