data_PCOD9017715
_publ_section_title
;
Structure prediction by ZEFSAII (Michael W. Deem and Ramdas Pophale) SiO2 
 PCOD9017715
Probable space group: P -1
;
_chemical_formula_sum "Si O2"
_cell_formula_units_Z 14
_cell_length_a 7.205926
_cell_length_b 11.225245
_cell_length_c 8.996594
_cell_angle_alpha 85.727415
_cell_angle_beta 57.732970
_cell_angle_gamma 72.320653
_cell_volume 582.796734
_symmetry_space_group_name_H-M "P -1"
_symmetry_group_IT_number 2
_symmetry_cell_setting 'triclinic'
loop_
_space_group_symop_operation_xyz
x,y,z
-x,-y,-z
loop_
_atom_site_type_symbol
_atom_site_label
_atom_site_fract_x
_atom_site_fract_y
_atom_site_fract_z
Si Si1 0.582822 0.843187 0.846510
Si Si2 0.180032 0.946882 0.792480
Si Si3 0.285524 0.774112 0.501094
Si Si4 0.181461 0.433449 0.139089
Si Si5 0.203635 0.558799 0.384884
Si Si6 0.202330 0.944176 0.247013
Si Si7 0.331783 0.448679 0.737755
O O1 0.428199 0.914947 0.767373
O O2 0.701223 0.694015 0.808322
O O3 0.764141 0.918277 0.789558
O O4 0.405021 0.864349 0.059200
O O5 0.216833 0.818141 0.693635
O O6 0.046279 0.048983 0.716281
O O7 0.000000 0.000000 0.000000
O O8 0.154654 0.693098 0.470425
O O9 0.551132 0.684201 0.381333
O O10 0.247460 0.891937 0.397228
O O11 0.228593 0.548662 0.196612
O O12 0.904610 0.466386 0.238713
O O13 0.275948 0.421364 0.933066
O O14 0.459896 0.490922 0.347549
O O15 0.000000 0.500000 0.500000
#
# Coordination Sequence:
#
# PCOD9017715 Si02
#       7
#     2   2   2   2   2   2   2
#     4  10  22  39  69 101 139 181 235 294 357 429
#     4  10  23  43  67 102 136 187 236 293 368 424
#     4  10  22  46  68 102 147 180 241 301 352 441
#     4  11  21  44  70 104 144 192 241 290 359 441
#     4  10  24  42  67 100 145 189 237 296 358 416
#     4  10  21  43  66 101 139 183 233 296 362 425
#     4   9  23  42  70 104 141 193 240 290 363 428
#
# _framework density 24.022096999999999
#
# number of rings (size 3 to 8) (size 9 to 14) (size 15 to 20)
#    0.857    1.143    1.429    0.857    2.000    3.429 
#    2.571    2.857    0.000    0.000    0.000    0.000 
#    0.000    0.000    0.000    0.000    0.000    0.000 
#
# Total GULP energy -78004.195443 kJ/mol
# GULP energy per Si atom -5571.728246 kJ/mol
# Density = 2.396742 g / cm^3
# Si number density = 24.022097 Si / 1000 Ang^3
#
#
#
# Elastic Constant Matrix: (Units=GPa)
#
#
# Indices 1 2 3 4 5 6 
#
# 1 145.0053 24.3393 34.6626 8.6644 -6.6478 -16.8065
# 2 24.3393 77.4530 51.9907 24.4222 0.8668 -6.3110
# 3 34.6626 51.9907 117.5475 31.6342 10.7802 0.4798
# 4 8.6644 24.4222 31.6342 45.7097 2.7948 15.2280
# 5 -6.6478 0.8668 10.7802 2.7948 32.4676 3.4576
# 6 -16.8065 -6.3110 0.4798 15.2280 3.4576 34.7316
#
#
#
# Elastic Compliance Matrix: (Units=1/GPa)
#
#
# Indices 1 2 3 4 5 6 
#
# 1 0.008132 -0.000391 -0.002022 -0.001506 0.002013 0.004352
# 2 -0.000391 0.021172 -0.007010 -0.008998 0.001654 0.007535
# 3 -0.002022 -0.007010 0.014088 -0.005481 -0.004475 0.000402
# 4 -0.001506 -0.008998 -0.005481 0.036901 0.000548 -0.018521
# 5 0.002013 0.001654 -0.004475 0.000548 0.032838 -0.002173
# 6 0.004352 0.007535 0.000402 -0.018521 -0.002173 0.040599
#
#
# Mechanical properties :
#
#
# Convention : Reuss Voigt Hill
#
# Bulk Modulus (GPa) = 40.74055 62.44346 51.59201
# Shear Modulus (GPa) = 27.66135 37.84931 32.75533
#
# Velocity S-wave (km/s) = 3.39705 3.97369 3.69663
# Velocity P-wave (km/s) = 5.69061 6.86325 6.30426
#
# Compressibility (1/GPa) = 0.02454557
#
# Stress axis : x y z
#
# Youngs Moduli (GPa) = 122.97148 47.23192 70.98303
#
# Poissons Ratio (x) = 0.01848 0.14353
# Poissons Ratio (y) = 0.04811 0.49758
# Poissons Ratio (z) = 0.24865 0.33109
#
# Static dielectric constant tensor:
#      x y z
#    x 1.919380 -0.005120 -0.031830 
#    y -0.005120 1.925690 0.043360 
#    z -0.031830 0.043360 2.030710 
# 
# From -- ./inp_files/153639.got.cif
#   From: 2010.05.17/outbox.cif.g08.bks.cpg/sg2_77_cif.got.tgz:153639.got - 2010.06.03 11:33:40.
