data_PCOD9017758
_publ_section_title
;
Structure prediction by ZEFSAII (Michael W. Deem and Ramdas Pophale) SiO2 
 PCOD9017758
Probable space group: P -1
;
_chemical_formula_sum "Si O2"
_cell_formula_units_Z 10
_cell_length_a 7.244062
_cell_length_b 9.488936
_cell_length_c 7.499286
_cell_angle_alpha 59.169243
_cell_angle_beta 109.874621
_cell_angle_gamma 90.372218
_cell_volume 407.199445
_symmetry_space_group_name_H-M "P -1"
_symmetry_group_IT_number 2
_symmetry_cell_setting 'triclinic'
loop_
_space_group_symop_operation_xyz
x,y,z
-x,-y,-z
loop_
_atom_site_type_symbol
_atom_site_label
_atom_site_fract_x
_atom_site_fract_y
_atom_site_fract_z
Si Si1 0.268714 0.980444 0.448275
Si Si2 0.164591 0.645772 0.513236
Si Si3 0.555809 0.450067 0.845585
Si Si4 0.850074 0.678333 0.676102
Si Si5 0.931021 0.223749 0.995369
O O1 0.196127 0.116461 0.493747
O O2 0.500000 0.000000 0.500000
O O3 0.253452 0.787839 0.561902
O O4 0.102089 0.056401 0.191471
O O5 0.340702 0.481972 0.661274
O O6 0.093561 0.723247 0.250069
O O7 0.989667 0.609715 0.603213
O O8 0.666927 0.588754 0.705953
O O9 0.702425 0.269769 0.970602
O O10 0.500000 0.500000 0.000000
O O11 0.965537 0.662670 0.913293
#
# Coordination Sequence:
#
# PCOD9017758 Si02
#       5
#     2   2   2   2   2
#     4  10  21  43  66  92 128 169 208 257 316 374
#     4  12  22  43  67  93 132 163 209 265 308 378
#     4  12  23  44  66  92 130 169 208 262 316 374
#     4  10  24  41  66  90 129 166 212 252 322 363
#     4  10  24  40  65  97 127 163 214 257 314 373
#
# _framework density 24.557991000000001
#
# number of rings (size 3 to 8) (size 9 to 14) (size 15 to 20)
#    1.200    0.000    4.000    2.400    0.000    0.800 
#    3.600    1.000    0.000    0.000    0.000    0.000 
#    0.000    0.000    0.000    0.000    0.000    0.000 
#
# Total GULP energy -55707.954538 kJ/mol
# GULP energy per Si atom -5570.795454 kJ/mol
# Density = 2.450210 g / cm^3
# Si number density = 24.557991 Si / 1000 Ang^3
#
#
#
# Elastic Constant Matrix: (Units=GPa)
#
#
# Indices 1 2 3 4 5 6 
#
# 1 184.0974 38.5416 68.4800 14.9841 7.5091 -22.9264
# 2 38.5416 79.5736 28.4728 -10.9190 3.8039 -1.7054
# 3 68.4800 28.4728 147.0817 7.8748 11.0211 -28.2312
# 4 14.9841 -10.9190 7.8748 41.2563 -17.7499 -3.2501
# 5 7.5091 3.8039 11.0211 -17.7499 49.1243 3.0702
# 6 -22.9264 -1.7054 -28.2312 -3.2501 3.0702 32.9757
#
#
#
# Elastic Compliance Matrix: (Units=1/GPa)
#
#
# Indices 1 2 3 4 5 6 
#
# 1 0.007681 -0.003413 -0.001901 -0.003984 -0.002132 0.003342
# 2 -0.003413 0.015928 -0.002712 0.006808 0.002572 -0.003439
# 3 -0.001901 -0.002712 0.009951 -0.002729 -0.003161 0.007083
# 4 -0.003984 0.006808 -0.002729 0.033353 0.012912 -0.002669
# 5 -0.002132 0.002572 -0.003161 0.012912 0.026184 -0.005220
# 6 0.003342 -0.003439 0.007083 -0.002669 -0.005220 0.038758
#
#
# Mechanical properties :
#
#
# Convention : Reuss Voigt Hill
#
# Bulk Modulus (GPa) = 57.11391 75.74904 66.43148
# Shear Modulus (GPa) = 32.52156 43.02180 37.77168
#
# Velocity S-wave (km/s) = 3.64301 4.19005 3.92607
# Velocity P-wave (km/s) = 6.40333 7.37025 6.90374
#
# Compressibility (1/GPa) = 0.01750887
#
# Stress axis : x y z
#
# Youngs Moduli (GPa) = 130.19082 62.78228 100.48861
#
# Poissons Ratio (x) = 0.21430 0.19102
# Poissons Ratio (y) = 0.44438 0.27248
# Poissons Ratio (z) = 0.24748 0.17024
#
# Static dielectric constant tensor:
#      x y z
#    x 1.960740 -0.079770 0.096050 
#    y -0.079770 2.103520 -0.149720 
#    z 0.096050 -0.149720 2.055290 
# 
# From -- ./inp_files/57212.got.cif
#   From: 2010.05.17/outbox.cif.g08.bks.cpg/sg2_29_cif.got.tgz:57212.got - 2010.06.03 11:33:40.
