data_PCOD9017726
_publ_section_title
;
Structure prediction by ZEFSAII (Michael W. Deem and Ramdas Pophale) SiO2 
 PCOD9017726
Probable space group: P -1
;
_chemical_formula_sum "Si O2"
_cell_formula_units_Z 16
_cell_length_a 11.867267
_cell_length_b 4.981077
_cell_length_c 12.122617
_cell_angle_alpha 117.698260
_cell_angle_beta 105.744035
_cell_angle_gamma 75.404770
_cell_volume 603.973114
_symmetry_space_group_name_H-M "P -1"
_symmetry_group_IT_number 2
_symmetry_cell_setting 'triclinic'
loop_
_space_group_symop_operation_xyz
x,y,z
-x,-y,-z
loop_
_atom_site_type_symbol
_atom_site_label
_atom_site_fract_x
_atom_site_fract_y
_atom_site_fract_z
Si Si1 0.675511 0.289970 0.726030
Si Si2 0.104650 0.381357 0.091673
Si Si3 0.218480 0.973576 0.876963
Si Si4 0.888112 0.746360 0.495109
Si Si5 0.325521 0.396057 0.444436
Si Si6 0.968372 0.758860 0.291077
Si Si7 0.571558 0.352174 0.266886
Si Si8 0.430924 0.221089 0.931520
O O1 0.794142 0.397913 0.826683
O O2 0.679458 0.361132 0.608824
O O3 0.556920 0.493833 0.777754
O O4 0.657188 0.939625 0.670187
O O5 0.032004 0.435949 0.197678
O O6 0.170028 0.049336 0.002901
O O7 0.000000 0.500000 0.000000
O O8 0.104580 0.031396 0.780489
O O9 0.292682 0.259259 0.930788
O O10 0.316635 0.698008 0.801059
O O11 0.790435 0.631574 0.520974
O O12 0.873666 0.745513 0.360037
O O13 0.000000 0.500000 0.500000
O O14 0.928441 0.065486 0.601977
O O15 0.408592 0.481883 0.581666
O O16 0.562530 0.993286 0.216071
O O17 0.500000 0.500000 0.000000
O O18 0.500000 0.000000 0.000000
#
# Coordination Sequence:
#
# PCOD9017726 Si02
#       8
#     2   2   2   2   2   2   2   2
#     4  12  26  48  75 111 153 199 245 311 378 444
#     4  10  21  44  75 103 148 192 253 306 375 433
#     4   9  22  42  73 103 144 189 250 296 372 437
#     4  11  23  39  72 101 146 191 249 294 378 429
#     4  12  27  46  76 113 153 195 248 310 378 444
#     4  10  21  43  66 104 142 190 240 313 360 444
#     4  10  25  45  75 109 155 192 252 300 377 448
#     4  10  23  43  68 101 139 188 239 294 356 432
#
# _framework density 26.491247000000001
#
# number of rings (size 3 to 8) (size 9 to 14) (size 15 to 20)
#    0.750    0.750    1.250    3.000    3.500    4.000 
#    0.000    0.625    8.250    0.000    0.000    0.000 
#    0.000    0.000    0.000    0.000    0.000    0.000 
#
# Total GULP energy -89357.945600 kJ/mol
# GULP energy per Si atom -5584.871600 kJ/mol
# Density = 2.643095 g / cm^3
# Si number density = 26.491247 Si / 1000 Ang^3
#
#
#
# Elastic Constant Matrix: (Units=GPa)
#
#
# Indices 1 2 3 4 5 6 
#
# 1 143.0334 19.6994 56.3615 7.7311 -2.0577 -12.3240
# 2 19.6994 54.5222 7.0385 6.6637 9.3340 8.4281
# 3 56.3615 7.0385 131.2918 3.8114 -0.2924 -6.5939
# 4 7.7311 6.6637 3.8114 33.1637 4.5339 -8.6760
# 5 -2.0577 9.3340 -0.2924 4.5339 61.2914 10.0640
# 6 -12.3240 8.4281 -6.5939 -8.6760 10.0640 44.0623
#
#
#
# Elastic Compliance Matrix: (Units=1/GPa)
#
#
# Indices 1 2 3 4 5 6 
#
# 1 0.009090 -0.003208 -0.003594 -0.000483 0.000413 0.002429
# 2 -0.003208 0.021250 0.000098 -0.004651 -0.002116 -0.005380
# 3 -0.003594 0.000098 0.009175 -0.000124 -0.000141 0.000357
# 4 -0.000483 -0.004651 -0.000124 0.033763 -0.003136 0.008100
# 5 0.000413 -0.002116 -0.000141 -0.003136 0.017561 -0.004129
# 6 0.002429 -0.005380 0.000357 0.008100 -0.004129 0.026995
#
#
# Mechanical properties :
#
#
# Convention : Reuss Voigt Hill
#
# Bulk Modulus (GPa) = 38.30111 55.00511 46.65311
# Shear Modulus (GPa) = 35.72859 44.08669 39.90764
#
# Velocity S-wave (km/s) = 3.67644 4.08388 3.88551
# Velocity P-wave (km/s) = 5.70185 6.56095 6.14643
#
# Compressibility (1/GPa) = 0.02610890
#
# Stress axis : x y z
#
# Youngs Moduli (GPa) = 110.00499 47.05913 108.98919
#
# Poissons Ratio (x) = 0.15096 0.39165
# Poissons Ratio (y) = 0.35288 -0.01068
# Poissons Ratio (z) = 0.39530 -0.00461
#
# Static dielectric constant tensor:
#      x y z
#    x 2.219090 0.105050 -0.130050 
#    y 0.105050 2.170250 -0.019670 
#    z -0.130050 -0.019670 2.286910 
# 
# From -- ./inp_files/411298.got.cif
#   From: 2010.05.17/outbox.cif.g08.bks.cpg/sg2_206_cif.got.tgz:411298.got - 2010.06.03 11:33:40.
