data_PCOD9017339
_publ_section_title
;
Structure prediction by ZEFSAII (Michael W. Deem and Ramdas Pophale) SiO2 
 PCOD9017339
Probable space group: P -1
;
_chemical_formula_sum "Si O2"
_cell_formula_units_Z 14
_cell_length_a 9.345742
_cell_length_b 8.692115
_cell_length_c 9.683540
_cell_angle_alpha 109.518496
_cell_angle_beta 75.936246
_cell_angle_gamma 134.138897
_cell_volume 532.028123
_symmetry_space_group_name_H-M "P -1"
_symmetry_group_IT_number 2
_symmetry_cell_setting 'triclinic'
loop_
_space_group_symop_operation_xyz
x,y,z
-x,-y,-z
loop_
_atom_site_type_symbol
_atom_site_label
_atom_site_fract_x
_atom_site_fract_y
_atom_site_fract_z
Si Si1 0.982928 0.258671 0.057501
Si Si2 0.353127 0.208697 0.098678
Si Si3 0.722601 0.592045 0.473732
Si Si4 0.508413 0.682453 0.215255
Si Si5 0.297708 0.752918 0.451216
Si Si6 0.924924 0.113244 0.344038
Si Si7 0.756198 0.433040 0.148615
O O1 0.867396 0.345188 0.116319
O O2 0.987339 0.197101 0.195423
O O3 0.859691 0.036139 0.926783
O O4 0.178174 0.438355 0.974097
O O5 0.110126 0.184000 0.411310
O O6 0.407041 0.433775 0.195368
O O7 0.519114 0.226491 0.143582
O O8 0.407280 0.247453 0.936122
O O9 0.500000 0.500000 0.500000
O O10 0.659875 0.302729 0.721130
O O11 0.703075 0.402206 0.495656
O O12 0.709864 0.863673 0.312900
O O13 0.200471 0.404165 0.693557
O O14 0.500000 0.000000 0.500000
O O15 0.126764 0.752827 0.527349
#
# Coordination Sequence:
#
# PCOD9017339 Si02
#       7
#     2   2   2   2   2   2   2
#     4  10  23  45  75 107 141 197 246 300 366 453
#     4  10  21  44  67 104 154 185 238 304 374 435
#     4  12  26  46  72 109 156 193 246 317 377 432
#     4   9  21  42  72 106 141 193 246 304 362 445
#     4  10  21  42  74 105 141 197 248 297 368 449
#     4  10  22  46  77 106 141 196 257 296 367 457
#     4  11  24  43  69 109 148 190 245 303 374 435
#
# _framework density 26.314395000000001
#
# number of rings (size 3 to 8) (size 9 to 14) (size 15 to 20)
#    0.000    1.714    1.429    1.714    2.000    1.143 
#   10.286    5.714    3.143    0.000    0.000    0.000 
#    0.000    0.000    0.000    0.000    0.000    0.000 
#
# Total GULP energy -78358.675569 kJ/mol
# GULP energy per Si atom -5597.048255 kJ/mol
# Density = 2.625450 g / cm^3
# Si number density = 26.314395 Si / 1000 Ang^3
#
#
#
# Elastic Constant Matrix: (Units=GPa)
#
#
# Indices 1 2 3 4 5 6 
#
# 1 144.1686 39.5049 40.2949 17.0958 1.8230 31.4072
# 2 39.5049 115.9605 42.5590 9.9894 -0.7721 23.5921
# 3 40.2949 42.5590 142.7723 21.1113 7.6203 10.4262
# 4 17.0958 9.9894 21.1113 40.8218 2.6587 3.9106
# 5 1.8230 -0.7721 7.6203 2.6587 33.9857 11.6199
# 6 31.4072 23.5921 10.4262 3.9106 11.6199 40.5226
#
#
#
# Elastic Compliance Matrix: (Units=1/GPa)
#
#
# Indices 1 2 3 4 5 6 
#
# 1 0.009378 -0.001017 -0.001632 -0.002344 0.002311 -0.006693
# 2 -0.001017 0.011219 -0.002707 -0.000553 0.002957 -0.005842
# 3 -0.001632 -0.002707 0.008748 -0.003181 -0.002210 0.001530
# 4 -0.002344 -0.000553 -0.003181 0.027287 -0.001573 0.000775
# 5 0.002311 0.002957 -0.002210 -0.001573 0.034304 -0.012629
# 6 -0.006693 -0.005842 0.001530 0.000775 -0.012629 0.036419
#
#
# Mechanical properties :
#
#
# Convention : Reuss Voigt Hill
#
# Bulk Modulus (GPa) = 53.66390 71.95765 62.81077
# Shear Modulus (GPa) = 34.65544 41.76886 38.21215
#
# Velocity S-wave (km/s) = 3.63295 3.98842 3.81483
# Velocity P-wave (km/s) = 6.16729 6.97242 6.58218
#
# Compressibility (1/GPa) = 0.01863450
#
# Stress axis : x y z
#
# Youngs Moduli (GPa) = 106.63444 89.13184 114.31044
#
# Poissons Ratio (x) = 0.09065 0.18650
# Poissons Ratio (y) = 0.10845 0.30942
# Poissons Ratio (z) = 0.17398 0.24127
#
# Static dielectric constant tensor:
#      x y z
#    x 2.102670 0.000210 -0.012370 
#    y 0.000210 2.036540 0.031480 
#    z -0.012370 0.031480 2.184100 
# 
# From -- ./inp_files/413139.got.cif
#   From: 2010.05.17/outbox.cif.g08.bks.cpg/sg2_207_cif.got.tgz:413139.got - 2010.06.03 11:33:40.
