data_PCOD9017509
_publ_section_title
;
Structure prediction by ZEFSAII (Michael W. Deem and Ramdas Pophale) SiO2 
 PCOD9017509
Probable space group: P -1
;
_chemical_formula_sum "Si O2"
_cell_formula_units_Z 16
_cell_length_a 11.053288
_cell_length_b 11.704144
_cell_length_c 14.594750
_cell_angle_alpha 150.060843
_cell_angle_beta 60.730339
_cell_angle_gamma 131.105046
_cell_volume 693.464062
_symmetry_space_group_name_H-M "P -1"
_symmetry_group_IT_number 2
_symmetry_cell_setting 'triclinic'
loop_
_space_group_symop_operation_xyz
x,y,z
-x,-y,-z
loop_
_atom_site_type_symbol
_atom_site_label
_atom_site_fract_x
_atom_site_fract_y
_atom_site_fract_z
Si Si1 0.757762 0.407539 0.474334
Si Si2 0.986013 0.552373 0.860600
Si Si3 0.128401 0.321738 0.181750
Si Si4 0.690820 0.843792 0.124877
Si Si5 0.322233 0.546431 0.008298
Si Si6 0.900522 0.964783 0.709044
Si Si7 0.195240 0.341417 0.725379
Si Si8 0.593633 0.742551 0.560198
O O1 0.813222 0.539362 0.645857
O O2 0.847537 0.663531 0.549937
O O3 0.561834 0.262190 0.427597
O O4 0.790434 0.163557 0.289263
O O5 0.947711 0.553171 0.769224
O O6 0.104621 0.454948 0.778233
O O7 0.806609 0.384961 0.857447
O O8 0.056393 0.847219 0.086336
O O9 0.280284 0.334131 0.082029
O O10 0.000000 0.000000 0.000000
O O11 0.729367 0.753489 0.143809
O O12 0.500646 0.736695 0.115387
O O13 0.314283 0.545238 0.901601
O O14 0.745379 0.959280 0.717614
O O15 0.047416 0.099250 0.672970
O O16 0.306678 0.290181 0.581767
O O17 0.500000 0.500000 0.500000
#
# Coordination Sequence:
#
# PCOD9017509 Si02
#       8
#     2   2   2   2   2   2   2   2
#     4  11  24  44  71 100 139 186 226 291 348 408
#     4  10  22  41  71  96 133 186 224 285 344 405
#     4  11  23  45  64 101 139 175 241 283 335 426
#     4  10  23  42  70  98 143 188 222 290 355 401
#     4   9  20  43  67 103 140 175 236 282 338 427
#     4  10  21  43  64 101 138 170 232 284 337 416
#     4  11  22  42  72  97 134 189 222 285 354 398
#     4  10  24  43  63 101 140 169 233 285 331 422
#
# _framework density 23.072573999999999
#
# number of rings (size 3 to 8) (size 9 to 14) (size 15 to 20)
#    0.000    1.750    1.250    2.625    3.500    2.500 
#    9.000    7.500    0.000    0.000    0.000    0.000 
#    0.000    0.000    0.000    0.000    0.000    0.000 
#
# Total GULP energy -89327.643581 kJ/mol
# GULP energy per Si atom -5582.977724 kJ/mol
# Density = 2.302006 g / cm^3
# Si number density = 23.072574 Si / 1000 Ang^3
#
#
#
# Elastic Constant Matrix: (Units=GPa)
#
#
# Indices 1 2 3 4 5 6 
#
# 1 150.2775 37.1315 45.7619 -3.4523 -1.5209 -25.3665
# 2 37.1315 92.1032 35.1988 8.2811 -14.1010 -16.5752
# 3 45.7619 35.1988 78.0075 0.5117 -16.8188 -20.2591
# 4 -3.4523 8.2811 0.5117 33.9367 -11.8630 -3.4982
# 5 -1.5209 -14.1010 -16.8188 -11.8630 40.5726 0.1891
# 6 -25.3665 -16.5752 -20.2591 -3.4982 0.1891 46.9282
#
#
#
# Elastic Compliance Matrix: (Units=1/GPa)
#
#
# Indices 1 2 3 4 5 6 
#
# 1 0.008769 -0.001920 -0.004026 0.001074 -0.001705 0.002411
# 2 -0.001920 0.014196 -0.004256 -0.002580 0.002334 0.001937
# 3 -0.004026 -0.004256 0.020102 0.003564 0.007721 0.005233
# 4 0.001074 -0.002580 0.003564 0.034246 0.010617 0.003718
# 5 -0.001705 0.002334 0.007721 0.010617 0.031681 0.003900
# 6 0.002411 0.001937 0.005233 0.003718 0.003900 0.025817
#
#
# Mechanical properties :
#
#
# Convention : Reuss Voigt Hill
#
# Bulk Modulus (GPa) = 44.12657 61.84141 52.98399
# Shear Modulus (GPa) = 30.71814 37.77392 34.24603
#
# Velocity S-wave (km/s) = 3.65275 4.05060 3.85681
# Velocity P-wave (km/s) = 6.07921 6.98123 6.54578
#
# Compressibility (1/GPa) = 0.02266209
#
# Stress axis : x y z
#
# Youngs Moduli (GPa) = 114.03446 70.44292 49.74652
#
# Poissons Ratio (x) = 0.13527 0.20030
# Poissons Ratio (y) = 0.21898 0.21170
# Poissons Ratio (z) = 0.45916 0.29978
#
# Static dielectric constant tensor:
#      x y z
#    x 1.851530 0.007780 -0.009460 
#    y 0.007780 1.935320 0.039960 
#    z -0.009460 0.039960 1.870760 
# 
# From -- ./inp_files/519364.got.cif
#   From: 2010.05.17/outbox.cif.g08.bks.cpg/sg2_260_cif.got.tgz:519364.got - 2010.06.03 11:33:40.
