data_PCOD9017865
_publ_section_title
;
Structure prediction by ZEFSAII (Michael W. Deem and Ramdas Pophale) SiO2 
 PCOD9017865
Probable space group: P -1
;
_chemical_formula_sum "Si O2"
_cell_formula_units_Z 15
_cell_length_a 11.552208
_cell_length_b 15.497455
_cell_length_c 5.142616
_cell_angle_alpha 108.709192
_cell_angle_beta 53.052962
_cell_angle_gamma 126.465323
_cell_volume 590.789638
_symmetry_space_group_name_H-M "P -1"
_symmetry_group_IT_number 2
_symmetry_cell_setting 'triclinic'
loop_
_space_group_symop_operation_xyz
x,y,z
-x,-y,-z
loop_
_atom_site_type_symbol
_atom_site_label
_atom_site_fract_x
_atom_site_fract_y
_atom_site_fract_z
Si Si1 0.896720 0.899278 0.351862
Si Si2 0.614731 0.865277 0.378619
Si Si3 0.336664 0.669711 0.819696
Si Si4 0.645692 0.521403 0.534009
Si Si5 0.130067 0.836980 0.662655
Si Si6 0.615386 0.701717 0.869869
Si Si7 0.962194 0.308046 0.856412
Si Si8 0.500000 0.000000 0.500000
O O1 0.773246 0.930390 0.410620
O O2 0.766496 0.783013 0.546936
O O3 0.000000 0.000000 0.500000
O O4 0.017534 0.881035 0.981765
O O5 0.440093 0.793384 0.702978
O O6 0.577912 0.924811 0.264242
O O7 0.650428 0.778609 0.132942
O O8 0.358403 0.588345 0.526113
O O9 0.436595 0.669788 0.942123
O O10 0.143729 0.639991 0.056017
O O11 0.500000 0.500000 0.500000
O O12 0.626457 0.599813 0.833958
O O13 0.842363 0.601832 0.260983
O O14 0.061351 0.775508 0.421740
O O15 0.331673 0.926118 0.467661
O O16 0.114786 0.754861 0.830613
#
# Coordination Sequence:
#
# PCOD9017865 Si02
#       8
#     2   2   2   2   2   2   2   1
#     4  11  25  43  69 103 142 194 243 308 369 441
#     4  11  24  44  70 102 145 189 252 307 369 443
#     4  10  23  43  69 104 143 190 242 304 370 439
#     4  10  22  45  75 105 145 193 249 303 377 436
#     4  12  28  47  78 108 152 196 251 302 376 445
#     4  10  21  43  67 101 144 182 248 304 364 439
#     4  12  25  50  72 111 151 194 245 311 364 450
#     4  12  26  46  72 106 144 200 246 302 380 434
#
# _framework density 25.389749999999999
#
# number of rings (size 3 to 8) (size 9 to 14) (size 15 to 20)
#    0.000    1.067    2.667    2.800    1.867    3.200 
#    4.800    1.333    0.000    0.000    0.000    0.000 
#    0.000    0.000    0.000    0.000    0.000    0.000 
#
# Total GULP energy -83568.872751 kJ/mol
# GULP energy per Si atom -5571.258183 kJ/mol
# Density = 2.533196 g / cm^3
# Si number density = 25.389750 Si / 1000 Ang^3
#
#
#
# Elastic Constant Matrix: (Units=GPa)
#
#
# Indices 1 2 3 4 5 6 
#
# 1 147.0389 50.3050 38.8424 -6.0546 -39.3989 29.2572
# 2 50.3050 81.7623 19.7941 7.4885 -14.3413 13.9820
# 3 38.8424 19.7941 57.7442 19.6725 -11.9110 4.0879
# 4 -6.0546 7.4885 19.6725 39.6000 -2.6190 -3.7034
# 5 -39.3989 -14.3413 -11.9110 -2.6190 51.9188 -1.8749
# 6 29.2572 13.9820 4.0879 -3.7034 -1.8749 43.2702
#
#
#
# Elastic Compliance Matrix: (Units=1/GPa)
#
#
# Indices 1 2 3 4 5 6 
#
# 1 0.014355 -0.005033 -0.008345 0.007210 0.007724 -0.006340
# 2 -0.005033 0.016238 -0.000741 -0.003651 0.000237 -0.002076
# 3 -0.008345 -0.000741 0.027958 -0.014897 -0.000805 0.001931
# 4 0.007210 -0.003651 -0.014897 0.034708 0.002825 0.000805
# 5 0.007724 0.000237 -0.000805 0.002825 0.025004 -0.003897
# 6 -0.006340 -0.002076 0.001931 0.000805 -0.003897 0.027786
#
#
# Mechanical properties :
#
#
# Convention : Reuss Voigt Hill
#
# Bulk Modulus (GPa) = 32.99094 56.04762 44.51928
# Shear Modulus (GPa) = 27.11615 38.79807 32.95711
#
# Velocity S-wave (km/s) = 3.27157 3.91333 3.60675
# Velocity P-wave (km/s) = 5.22426 6.52240 5.90909
#
# Compressibility (1/GPa) = 0.03031135
#
# Stress axis : x y z
#
# Youngs Moduli (GPa) = 69.66027 61.58549 35.76812
#
# Poissons Ratio (x) = 0.30999 0.29850
# Poissons Ratio (y) = 0.35063 0.02650
# Poissons Ratio (z) = 0.58135 0.04563
#
# Static dielectric constant tensor:
#      x y z
#    x 1.880780 0.043960 0.024000 
#    y 0.043960 2.042560 -0.092140 
#    z 0.024000 -0.092140 2.072680 
# 
# From -- ./inp_files/81553.got.cif
#   From: 2010.05.17/outbox.cif.g08.bks.cpg/sg2_41_cif.got.tgz:81553.got - 2010.06.03 11:33:40.
