data_PCOD9017242
_publ_section_title
;
Structure prediction by ZEFSAII (Michael W. Deem and Ramdas Pophale) SiO2 
 PCOD9017242
Probable space group: P -1
;
_chemical_formula_sum "Si O2"
_cell_formula_units_Z 16
_cell_length_a 9.321291
_cell_length_b 24.288193
_cell_length_c 15.956512
_cell_angle_alpha 16.450072
_cell_angle_beta 40.713702
_cell_angle_gamma 37.473331
_cell_volume 622.273490
_symmetry_space_group_name_H-M "P -1"
_symmetry_group_IT_number 2
_symmetry_cell_setting 'triclinic'
loop_
_space_group_symop_operation_xyz
x,y,z
-x,-y,-z
loop_
_atom_site_type_symbol
_atom_site_label
_atom_site_fract_x
_atom_site_fract_y
_atom_site_fract_z
Si Si1 0.041243 0.460074 0.903788
Si Si2 0.807493 0.926909 0.340304
Si Si3 0.250470 0.314604 0.715778
Si Si4 0.446944 0.654368 0.088035
Si Si5 0.611265 0.113314 0.519717
Si Si6 0.310564 0.700109 0.624348
Si Si7 0.747016 0.009476 0.937895
Si Si8 0.050571 0.703164 0.977296
O O1 0.318923 0.386131 0.900824
O O2 0.922930 0.686717 0.666593
O O3 0.959302 0.475034 0.821804
O O4 0.929548 0.305625 0.220957
O O5 0.602556 0.934807 0.355504
O O6 0.025042 0.985359 0.123187
O O7 0.305772 0.900037 0.790708
O O8 0.292850 0.529962 0.377628
O O9 0.497234 0.147506 0.887224
O O10 0.025997 0.328533 0.849550
O O11 0.238040 0.213288 0.778591
O O12 0.547552 0.524997 0.148659
O O13 0.554526 0.242366 0.442828
O O14 0.718914 0.241903 0.221650
O O15 0.829565 0.903289 0.750640
O O16 0.257704 0.863911 0.332651
#
# Coordination Sequence:
#
# PCOD9017242 Si02
#       8
#     2   2   2   2   2   2   2   2
#     4  11  23  44  69 102 143 176 225 288 345 398
#     4  12  25  45  68 111 136 171 240 289 331 403
#     4  10  21  44  71  93 138 191 227 265 350 416
#     4  11  24  43  70 100 138 184 227 282 341 405
#     4  10  22  43  72 103 138 173 231 283 343 410
#     4  10  21  44  71  99 138 185 219 277 353 406
#     4  10  22  42  74  99 135 182 229 283 340 406
#     4  10  21  42  72  96 136 192 218 269 356 414
#
# _framework density 25.712167999999998
#
# number of rings (size 3 to 8) (size 9 to 14) (size 15 to 20)
#    0.000    1.500    5.000    0.375    0.000    3.500 
#    4.500    2.500    0.000    0.000    0.000    0.000 
#    0.000    0.000    0.000    0.000    0.000    0.000 
#
# Total GULP energy -89618.179683 kJ/mol
# GULP energy per Si atom -5601.136230 kJ/mol
# Density = 2.565365 g / cm^3
# Si number density = 25.712168 Si / 1000 Ang^3
#
#
#
# Elastic Constant Matrix: (Units=GPa)
#
#
# Indices 1 2 3 4 5 6 
#
# 1 142.4763 31.5498 33.4632 -5.8970 -36.2923 -11.8838
# 2 31.5498 115.5452 42.6189 -15.5496 -14.2410 14.0820
# 3 33.4632 42.6189 88.7705 0.4119 -18.9117 -5.1811
# 4 -5.8970 -15.5496 0.4119 41.2282 -6.6868 0.5589
# 5 -36.2923 -14.2410 -18.9117 -6.6868 41.8094 -2.7916
# 6 -11.8838 14.0820 -5.1811 0.5589 -2.7916 39.4498
#
#
#
# Elastic Compliance Matrix: (Units=1/GPa)
#
#
# Indices 1 2 3 4 5 6 
#
# 1 0.010197 -0.001541 -0.001075 0.002206 0.008464 0.004049
# 2 -0.001541 0.012600 -0.005658 0.004792 0.000779 -0.005718
# 3 -0.001075 -0.005658 0.015513 -0.001827 0.004135 0.004052
# 4 0.002206 0.004792 -0.001827 0.027556 0.007049 -0.001178
# 5 0.008464 0.000779 0.004135 0.007049 0.034874 0.005182
# 6 0.004049 -0.005718 0.004052 -0.001178 0.005182 0.029525
#
#
# Mechanical properties :
#
#
# Convention : Reuss Voigt Hill
#
# Bulk Modulus (GPa) = 45.95350 62.45064 54.20207
# Shear Modulus (GPa) = 32.45316 40.44149 36.44733
#
# Velocity S-wave (km/s) = 3.55656 3.97023 3.76907
# Velocity P-wave (km/s) = 5.89717 6.73484 6.32987
#
# Compressibility (1/GPa) = 0.02176113
#
# Stress axis : x y z
#
# Youngs Moduli (GPa) = 98.06446 79.36218 64.46353
#
# Poissons Ratio (x) = 0.12233 0.06929
# Poissons Ratio (y) = 0.15115 0.36476
# Poissons Ratio (z) = 0.10541 0.44907
#
# Static dielectric constant tensor:
#      x y z
#    x 2.037540 -0.017360 0.001610 
#    y -0.017360 2.043540 -0.011960 
#    z 0.001610 -0.011960 2.026130 
# 
# From -- ./inp_files/391100.got.cif
#   From: 2010.05.17/outbox.cif.g08.bks.cpg/sg2_196_cif.got.tgz:391100.got - 2010.06.03 11:33:40.
