data_PCOD9017536
_publ_section_title
;
Structure prediction by ZEFSAII (Michael W. Deem and Ramdas Pophale) SiO2 
 PCOD9017536
Probable space group: P -1
;
_chemical_formula_sum "Si O2"
_cell_formula_units_Z 16
_cell_length_a 13.812633
_cell_length_b 6.985444
_cell_length_c 9.158360
_cell_angle_alpha 122.779438
_cell_angle_beta 82.086086
_cell_angle_gamma 88.832844
_cell_volume 731.080898
_symmetry_space_group_name_H-M "P -1"
_symmetry_group_IT_number 2
_symmetry_cell_setting 'triclinic'
loop_
_space_group_symop_operation_xyz
x,y,z
-x,-y,-z
loop_
_atom_site_type_symbol
_atom_site_label
_atom_site_fract_x
_atom_site_fract_y
_atom_site_fract_z
Si Si1 0.316316 0.956359 0.008415
Si Si2 0.063852 0.594439 0.153643
Si Si3 0.433153 0.727669 0.160001
Si Si4 0.104751 0.183524 0.560128
Si Si5 0.379627 0.097018 0.746798
Si Si6 0.225600 0.518925 0.859047
Si Si7 0.733994 0.232653 0.560150
Si Si8 0.150415 0.345142 0.311112
O O1 0.387730 0.866215 0.087208
O O2 0.231316 0.140090 0.163032
O O3 0.267007 0.736346 0.870608
O O4 0.369347 0.062772 0.907641
O O5 0.085943 0.422497 0.213988
O O6 0.997154 0.810709 0.326210
O O7 0.165030 0.612928 0.054985
O O8 0.000000 0.500000 0.000000
O O9 0.506534 0.877306 0.292443
O O10 0.343259 0.678568 0.261478
O O11 0.500000 0.500000 0.000000
O O12 0.158094 0.386194 0.712133
O O13 0.092957 0.261589 0.427245
O O14 0.181573 0.958167 0.473281
O O15 0.314033 0.330918 0.810736
O O16 0.330036 0.895972 0.593980
O O17 0.790516 0.438505 0.574381
#
# Coordination Sequence:
#
# PCOD9017536 Si02
#       8
#     2   2   2   2   2   2   2   2
#     4  12  23  41  68  96 128 170 217 267 319 378
#     4  10  22  43  68  95 129 170 215 261 322 383
#     4  12  23  43  67  95 130 171 217 266 320 379
#     4  10  23  43  65  94 132 168 213 267 317 381
#     4  11  23  42  66  94 132 171 213 266 317 380
#     4  10  21  43  64  92 131 170 213 264 321 376
#     4  11  25  44  65  96 132 172 210 266 327 373
#     4  12  23  42  67  95 133 166 217 265 319 384
#
# _framework density 21.885401999999999
#
# number of rings (size 3 to 8) (size 9 to 14) (size 15 to 20)
#    0.000    1.000    3.750    3.375    0.000    0.500 
#    2.250    2.500    0.000    0.000    0.000    0.000 
#    0.000    0.000    0.000    0.000    0.000    0.000 
#
# Total GULP energy -89495.025024 kJ/mol
# GULP energy per Si atom -5593.439064 kJ/mol
# Density = 2.183559 g / cm^3
# Si number density = 21.885402 Si / 1000 Ang^3
#
#
#
# Elastic Constant Matrix: (Units=GPa)
#
#
# Indices 1 2 3 4 5 6 
#
# 1 83.5919 9.8917 18.7734 3.5910 8.1686 -8.5204
# 2 9.8917 89.9136 27.0340 8.5862 -4.3323 -2.1966
# 3 18.7734 27.0340 93.6265 4.4960 -9.7940 -10.3553
# 4 3.5910 8.5862 4.4960 43.4175 3.5797 0.4487
# 5 8.1686 -4.3323 -9.7940 3.5797 42.8214 2.6227
# 6 -8.5204 -2.1966 -10.3553 0.4487 2.6227 41.9023
#
#
#
# Elastic Compliance Matrix: (Units=1/GPa)
#
#
# Indices 1 2 3 4 5 6 
#
# 1 0.013178 -0.000760 -0.002496 -0.000435 -0.003262 0.002232
# 2 -0.000760 0.012428 -0.003283 -0.002121 0.000850 -0.000345
# 3 -0.002496 -0.003283 0.012729 -0.000731 0.002976 0.002287
# 4 -0.000435 -0.002121 -0.000731 0.023754 -0.002254 -0.000494
# 5 -0.003262 0.000850 0.002976 -0.002254 0.025018 -0.001425
# 6 0.002232 -0.000345 0.002287 -0.000494 -0.001425 0.024961
#
#
# Mechanical properties :
#
#
# Convention : Reuss Voigt Hill
#
# Bulk Modulus (GPa) = 39.59641 42.05890 40.82766
# Shear Modulus (GPa) = 37.43469 39.72377 38.57923
#
# Velocity S-wave (km/s) = 4.14029 4.26500 4.20311
# Velocity P-wave (km/s) = 6.40218 6.59645 6.50004
#
# Compressibility (1/GPa) = 0.02525481
#
# Stress axis : x y z
#
# Youngs Moduli (GPa) = 75.88135 80.46525 78.56181
#
# Poissons Ratio (x) = 0.06118 0.19612
# Poissons Ratio (y) = 0.05769 0.25795
# Poissons Ratio (z) = 0.18943 0.26420
#
# Static dielectric constant tensor:
#      x y z
#    x 1.830160 0.028600 0.029490 
#    y 0.028600 1.736600 0.025760 
#    z 0.029490 0.025760 1.815660 
# 
# From -- ./inp_files/37243.got.cif
#   From: 2010.05.17/outbox.cif.g08.bks.cpg/sg2_19_cif.got.tgz:37243.got - 2010.06.03 11:33:40.
