data_PCOD9017430
_publ_section_title
;
Structure prediction by ZEFSAII (Michael W. Deem and Ramdas Pophale) SiO2 
 PCOD9017430
Probable space group: P -1
;
_chemical_formula_sum "Si O2"
_cell_formula_units_Z 16
_cell_length_a 15.721283
_cell_length_b 15.233904
_cell_length_c 14.177355
_cell_angle_alpha 151.069173
_cell_angle_beta 43.404500
_cell_angle_gamma 153.981009
_cell_volume 691.154195
_symmetry_space_group_name_H-M "P -1"
_symmetry_group_IT_number 2
_symmetry_cell_setting 'triclinic'
loop_
_space_group_symop_operation_xyz
x,y,z
-x,-y,-z
loop_
_atom_site_type_symbol
_atom_site_label
_atom_site_fract_x
_atom_site_fract_y
_atom_site_fract_z
Si Si1 0.169552 0.196260 0.694438
Si Si2 0.570302 0.149939 0.482026
Si Si3 0.193191 0.959908 0.608675
Si Si4 0.004726 0.790905 0.790802
Si Si5 0.261982 0.135811 0.253168
Si Si6 0.971949 0.366606 0.172940
Si Si7 0.410682 0.191929 0.384769
Si Si8 0.387976 0.781520 0.113404
O O1 0.226909 0.085192 0.484060
O O2 0.174492 0.133632 0.740112
O O3 0.345676 0.549306 0.871958
O O4 0.951982 0.029244 0.693044
O O5 0.793490 0.481540 0.625953
O O6 0.500000 0.000000 0.500000
O O7 0.407422 0.118262 0.558138
O O8 0.549722 0.980129 0.254751
O O9 0.173788 0.937147 0.715424
O O10 0.009804 0.623860 0.400346
O O11 0.026116 0.723505 0.811242
O O12 0.000000 0.000000 0.000000
O O13 0.373457 0.170609 0.283562
O O14 0.391881 0.460541 0.421591
O O15 0.205873 0.922859 0.018676
O O16 0.175485 0.551882 0.125576
O O17 0.419608 0.994846 0.224422
#
# Coordination Sequence:
#
# PCOD9017430 Si02
#       8
#     2   2   2   2   2   2   2   2
#     4  11  23  44  69  99 131 175 220 266 334 392
#     4  11  23  43  64  92 137 172 215 274 317 383
#     4  11  24  42  67  97 133 174 225 263 325 393
#     4  12  25  40  64  94 134 176 219 265 324 387
#     4  10  25  44  71  96 133 169 219 275 329 394
#     4  10  21  43  62  97 129 172 218 267 323 383
#     4  11  23  48  67 100 132 169 219 277 330 388
#     4  10  22  42  68  98 133 170 221 268 325 392
#
# _framework density 23.149683
#
# number of rings (size 3 to 8) (size 9 to 14) (size 15 to 20)
#    0.000    1.250    5.000    2.250    3.500    3.500 
#    2.250    1.250    0.000    0.000    0.000    0.000 
#    0.000    0.000    0.000    0.000    0.000    0.000 
#
# Total GULP energy -89514.609450 kJ/mol
# GULP energy per Si atom -5594.663091 kJ/mol
# Density = 2.309699 g / cm^3
# Si number density = 23.149683 Si / 1000 Ang^3
#
#
#
# Elastic Constant Matrix: (Units=GPa)
#
#
# Indices 1 2 3 4 5 6 
#
# 1 101.8396 14.7812 52.6093 20.7996 -7.9047 -19.6971
# 2 14.7812 69.6818 18.6949 11.4295 3.3798 -5.6465
# 3 52.6093 18.6949 118.7530 14.3853 -12.1215 -8.1657
# 4 20.7996 11.4295 14.3853 31.3354 -4.5788 -2.2998
# 5 -7.9047 3.3798 -12.1215 -4.5788 39.8506 7.1192
# 6 -19.6971 -5.6465 -8.1657 -2.2998 7.1192 36.2101
#
#
#
# Elastic Compliance Matrix: (Units=1/GPa)
#
#
# Indices 1 2 3 4 5 6 
#
# 1 0.015449 -0.000002 -0.005560 -0.007301 -0.000684 0.006820
# 2 -0.000002 0.016085 -0.002050 -0.005194 -0.002996 0.002304
# 3 -0.005560 -0.002050 0.011457 -0.000520 0.002734 -0.001331
# 4 -0.007301 -0.005194 -0.000520 0.039230 0.003909 -0.003175
# 5 -0.000684 -0.002996 0.002734 0.003909 0.027453 -0.005372
# 6 0.006820 0.002304 -0.001331 -0.003175 -0.005372 0.032240
#
#
# Mechanical properties :
#
#
# Convention : Reuss Voigt Hill
#
# Bulk Modulus (GPa) = 36.01299 51.38279 43.69789
# Shear Modulus (GPa) = 30.04906 35.09181 32.57043
#
# Velocity S-wave (km/s) = 3.60673 3.89764 3.75500
# Velocity P-wave (km/s) = 5.73891 6.51916 6.14144
#
# Compressibility (1/GPa) = 0.02776776
#
# Stress axis : x y z
#
# Youngs Moduli (GPa) = 64.72796 62.16896 87.28057
#
# Poissons Ratio (x) = 0.00012 0.48531
# Poissons Ratio (y) = 0.00013 0.17889
# Poissons Ratio (z) = 0.35991 0.12742
#
# Static dielectric constant tensor:
#      x y z
#    x 1.837960 0.011920 0.012000 
#    y 0.011920 1.935180 -0.051590 
#    z 0.012000 -0.051590 1.900780 
# 
# From -- ./inp_files/534578.got.cif
#   From: 2010.05.17/outbox.cif.g08.bks.cpg/sg2_268_cif.got.tgz:534578.got - 2010.06.03 11:33:40.
