data_PCOD9017421
_publ_section_title
;
Structure prediction by ZEFSAII (Michael W. Deem and Ramdas Pophale) SiO2 
 PCOD9017421
Probable space group: P -1
;
_chemical_formula_sum "Si O2"
_cell_formula_units_Z 14
_cell_length_a 7.837528
_cell_length_b 13.307649
_cell_length_c 12.071667
_cell_angle_alpha 52.507021
_cell_angle_beta 144.271607
_cell_angle_gamma 113.366656
_cell_volume 570.283884
_symmetry_space_group_name_H-M "P -1"
_symmetry_group_IT_number 2
_symmetry_cell_setting 'triclinic'
loop_
_space_group_symop_operation_xyz
x,y,z
-x,-y,-z
loop_
_atom_site_type_symbol
_atom_site_label
_atom_site_fract_x
_atom_site_fract_y
_atom_site_fract_z
Si Si1 0.107209 0.950612 0.440700
Si Si2 0.103426 0.016774 0.918352
Si Si3 0.382609 0.218232 0.664935
Si Si4 0.390785 0.835047 0.870502
Si Si5 0.018053 0.529752 0.663281
Si Si6 0.353562 0.535653 0.058218
Si Si7 0.526869 0.415756 0.456228
O O1 0.871983 0.862653 0.410508
O O2 0.384393 0.891959 0.703362
O O3 0.920362 0.089782 0.288435
O O4 0.146211 0.945573 0.333075
O O5 0.310618 0.879403 0.081331
O O6 0.326017 0.117722 0.960369
O O7 0.000000 0.000000 0.000000
O O8 0.444585 0.281685 0.537571
O O9 0.238632 0.342574 0.579368
O O10 0.384050 0.684869 0.970195
O O11 0.325227 0.542937 0.761786
O O12 0.880052 0.411386 0.625057
O O13 0.108966 0.517930 0.849515
O O14 0.337644 0.483816 0.208305
O O15 0.500000 0.500000 0.500000
#
# Coordination Sequence:
#
# PCOD9017421 Si02
#       7
#     2   2   2   2   2   2   2
#     4  10  22  44  69  92 124 168 216 260 315 381
#     4  11  26  42  68  96 125 166 210 268 325 370
#     4  10  21  43  62  94 127 164 212 257 312 377
#     4  10  22  41  70  94 123 170 212 258 319 375
#     4  10  23  42  62  95 128 169 215 253 316 369
#     4  11  23  41  67  96 129 170 213 258 314 381
#     4  10  24  38  63  95 129 168 209 257 317 369
#
# _framework density 24.549178000000001
#
# number of rings (size 3 to 8) (size 9 to 14) (size 15 to 20)
#    0.000    1.714    1.429    2.143   10.000    4.000 
#    0.000    1.429    0.000    0.000    0.000    0.000 
#    0.000    0.000    0.000    0.000    0.000    0.000 
#
# Total GULP energy -78167.691350 kJ/mol
# GULP energy per Si atom -5583.406525 kJ/mol
# Density = 2.449330 g / cm^3
# Si number density = 24.549178 Si / 1000 Ang^3
#
#
#
# Elastic Constant Matrix: (Units=GPa)
#
#
# Indices 1 2 3 4 5 6 
#
# 1 77.4498 14.8815 37.8196 5.2331 -27.9921 -5.5177
# 2 14.8815 59.7733 48.2245 -3.3974 -14.4049 3.7590
# 3 37.8196 48.2245 136.1642 20.1110 -41.0559 -9.4081
# 4 5.2331 -3.3974 20.1110 42.5316 -12.7291 -0.8173
# 5 -27.9921 -14.4049 -41.0559 -12.7291 48.8330 10.6894
# 6 -5.5177 3.7590 -9.4081 -0.8173 10.6894 20.6298
#
#
#
# Elastic Compliance Matrix: (Units=1/GPa)
#
#
# Indices 1 2 3 4 5 6 
#
# 1 0.016933 -0.000124 -0.002478 0.001500 0.008139 -0.000736
# 2 -0.000124 0.027298 -0.010474 0.008059 0.003776 -0.011421
# 3 -0.002478 -0.010474 0.014462 -0.005762 0.005053 0.004994
# 4 0.001500 0.008059 -0.005762 0.028750 0.007272 -0.006324
# 5 0.008139 0.003776 0.005053 0.007272 0.035539 -0.014333
# 6 -0.000736 -0.011421 0.004994 -0.006324 -0.014333 0.059812
#
#
# Mechanical properties :
#
#
# Convention : Reuss Voigt Hill
#
# Bulk Modulus (GPa) = 30.73091 52.80429 41.76760
# Shear Modulus (GPa) = 22.74881 33.89630 28.32256
#
# Velocity S-wave (km/s) = 3.04742 3.71988 3.40031
# Velocity P-wave (km/s) = 4.99276 6.32505 5.69798
#
# Compressibility (1/GPa) = 0.03254052
#
# Stress axis : x y z
#
# Youngs Moduli (GPa) = 59.05608 36.63323 69.14841
#
# Poissons Ratio (x) = 0.00454 0.17133
# Poissons Ratio (y) = 0.00731 0.72429
# Poissons Ratio (z) = 0.14632 0.38371
#
# Static dielectric constant tensor:
#      x y z
#    x 2.089920 -0.024690 -0.020130 
#    y -0.024690 2.024660 0.002780 
#    z -0.020130 0.002780 1.993870 
# 
# From -- ./inp_files/248009.got.cif
#   From: 2010.05.17/outbox.cif.g08.bks.cpg/sg2_125_cif.got.tgz:248009.got - 2010.06.03 11:33:40.
