data_PCOD9017183
_publ_section_title
;
Structure prediction by ZEFSAII (Michael W. Deem and Ramdas Pophale) SiO2 
 PCOD9017183
Probable space group: P -1
;
_chemical_formula_sum "Si O2"
_cell_formula_units_Z 14
_cell_length_a 10.954700
_cell_length_b 13.413361
_cell_length_c 10.447259
_cell_angle_alpha 104.088082
_cell_angle_beta 107.366855
_cell_angle_gamma 20.305898
_cell_volume 505.347000
_symmetry_space_group_name_H-M "P -1"
_symmetry_group_IT_number 2
_symmetry_cell_setting 'triclinic'
loop_
_space_group_symop_operation_xyz
x,y,z
-x,-y,-z
loop_
_atom_site_type_symbol
_atom_site_label
_atom_site_fract_x
_atom_site_fract_y
_atom_site_fract_z
Si Si1 0.073715 0.729022 0.040252
Si Si2 0.917714 0.654647 0.839409
Si Si3 0.899637 0.152928 0.128754
Si Si4 0.639267 0.805753 0.335492
Si Si5 0.202668 0.796637 0.618205
Si Si6 0.533760 0.194046 0.238949
Si Si7 0.915308 0.805243 0.483205
O O1 0.994113 0.821727 0.897005
O O2 0.063414 0.614600 0.987124
O O3 0.469273 0.474708 0.110631
O O4 0.795696 0.981805 0.133138
O O5 0.200972 0.418386 0.742375
O O6 0.576642 0.967737 0.768555
O O7 0.800388 0.628922 0.833948
O O8 0.037491 0.021286 0.269956
O O9 0.000000 0.000000 0.000000
O O10 0.952295 0.654080 0.425725
O O11 0.373616 0.980731 0.424098
O O12 0.236048 0.647585 0.562825
O O13 0.512656 0.649339 0.698234
O O14 0.000000 0.000000 0.500000
O O15 0.730592 0.996951 0.362455
#
# Coordination Sequence:
#
# PCOD9017183 Si02
#       7
#     2   2   2   2   2   2   2
#     4  11  25  43  70 102 140 192 236 295 363 429
#     4  11  25  43  72 102 143 189 239 293 363 424
#     4  11  24  44  72 100 141 181 242 297 350 434
#     4  10  23  44  68 104 139 184 246 297 350 433
#     4  10  21  42  72 100 139 184 233 297 362 421
#     4  10  22  43  63 105 142 181 238 296 352 434
#     4   9  21  40  68  98 143 184 237 298 360 418
#
# _framework density 27.703737
#
# number of rings (size 3 to 8) (size 9 to 14) (size 15 to 20)
#    0.000    1.714    1.429    1.286    4.000    7.429 
#    0.000   15.000    0.000    0.000    0.000    0.000 
#    0.000    0.000    0.000    0.000    0.000    0.000 
#
# Total GULP energy -78348.181368 kJ/mol
# GULP energy per Si atom -5596.298669 kJ/mol
# Density = 2.764068 g / cm^3
# Si number density = 27.703737 Si / 1000 Ang^3
#
#
#
# Elastic Constant Matrix: (Units=GPa)
#
#
# Indices 1 2 3 4 5 6 
#
# 1 177.9210 10.6859 63.3393 -13.5721 26.3449 -20.0378
# 2 10.6859 91.1819 21.5756 19.6647 4.7862 -1.9658
# 3 63.3393 21.5756 118.7997 11.3707 -3.8374 5.7668
# 4 -13.5721 19.6647 11.3707 29.4885 10.5369 0.2762
# 5 26.3449 4.7862 -3.8374 10.5369 91.4944 -2.5910
# 6 -20.0378 -1.9658 5.7668 0.2762 -2.5910 38.6456
#
#
#
# Elastic Compliance Matrix: (Units=1/GPa)
#
#
# Indices 1 2 3 4 5 6 
#
# 1 0.009866 -0.001322 -0.006303 0.009206 -0.003936 0.005659
# 2 -0.001322 0.013314 -0.000796 -0.009448 0.000745 0.000228
# 3 -0.006303 -0.000796 0.013086 -0.008530 0.003247 -0.004983
# 4 0.009206 -0.009448 -0.008530 0.050629 -0.008213 0.004653
# 5 -0.003936 0.000745 0.003247 -0.008213 0.013062 -0.001553
# 6 0.005659 0.000228 -0.004983 0.004653 -0.001553 0.029428
#
#
# Mechanical properties :
#
#
# Convention : Reuss Voigt Hill
#
# Bulk Modulus (GPa) = 51.48249 64.34491 57.91370
# Shear Modulus (GPa) = 32.74349 51.41250 42.07799
#
# Velocity S-wave (km/s) = 3.44163 4.31257 3.90148
# Velocity P-wave (km/s) = 5.86657 6.93355 6.42226
#
# Compressibility (1/GPa) = 0.01942408
#
# Stress axis : x y z
#
# Youngs Moduli (GPa) = 101.35577 75.11026 76.41822
#
# Poissons Ratio (x) = 0.09927 0.48168
# Poissons Ratio (y) = 0.13395 0.06083
# Poissons Ratio (z) = 0.63887 0.05979
#
# Static dielectric constant tensor:
#      x y z
#    x 2.295940 0.004590 0.030700 
#    y 0.004590 2.109440 -0.028480 
#    z 0.030700 -0.028480 2.266620 
# 
# From -- ./inp_files/433005.got.cif
#   From: 2010.05.17/outbox.cif.g08.bks.cpg/sg2_217_cif.got.tgz:433005.got - 2010.06.03 11:33:40.
