data_PCOD9017202
_publ_section_title
;
Structure prediction by ZEFSAII (Michael W. Deem and Ramdas Pophale) SiO2 
 PCOD9017202
Probable space group: P -1
;
_chemical_formula_sum "Si O2"
_cell_formula_units_Z 11
_cell_length_a 7.959044
_cell_length_b 9.508481
_cell_length_c 9.309624
_cell_angle_alpha 62.115210
_cell_angle_beta 133.639388
_cell_angle_gamma 94.604794
_cell_volume 417.035548
_symmetry_space_group_name_H-M "P -1"
_symmetry_group_IT_number 2
_symmetry_cell_setting 'triclinic'
loop_
_space_group_symop_operation_xyz
x,y,z
-x,-y,-z
loop_
_atom_site_type_symbol
_atom_site_label
_atom_site_fract_x
_atom_site_fract_y
_atom_site_fract_z
Si Si1 0.710944 0.602580 0.242832
Si Si2 0.678108 0.257227 0.429864
Si Si3 0.000000 0.000000 0.500000
Si Si4 0.134130 0.165926 0.965348
Si Si5 0.858796 0.704595 0.803070
Si Si6 0.626636 0.872640 0.306337
O O1 0.599299 0.456598 0.241866
O O2 0.734601 0.700742 0.066902
O O3 0.613724 0.729756 0.259371
O O4 0.000000 0.500000 0.500000
O O5 0.434015 0.243111 0.361753
O O6 0.894816 0.210350 0.701410
O O7 0.794036 0.132408 0.425689
O O8 0.762816 0.989421 0.262153
O O9 0.050293 0.201424 0.063877
O O10 0.358476 0.984701 0.158687
O O11 0.852372 0.783196 0.602744
O O12 0.000000 0.500000 0.000000
#
# Coordination Sequence:
#
# PCOD9017202 Si02
#       6
#     2   2   1   2   2   2
#     4  10  21  42  72 104 141 183 237 288 344 420
#     4  11  26  47  75 107 139 190 239 286 361 417
#     4  12  24  44  78 106 140 184 246 286 352 422
#     4  11  24  45  73 104 145 185 234 297 347 420
#     4  12  28  47  70 104 150 186 234 294 356 421
#     4  12  25  46  71 109 145 184 237 296 352 420
#
# _framework density 26.376646999999998
#
# number of rings (size 3 to 8) (size 9 to 14) (size 15 to 20)
#    0.000    0.727    5.455    3.273    0.000    5.818 
#    0.000    0.000    0.000    0.000    0.000    0.000 
#    0.000    0.000    0.000    0.000    0.000    0.000 
#
# Total GULP energy -61425.154662 kJ/mol
# GULP energy per Si atom -5584.104969 kJ/mol
# Density = 2.631661 g / cm^3
# Si number density = 26.376647 Si / 1000 Ang^3
#
#
#
# Elastic Constant Matrix: (Units=GPa)
#
#
# Indices 1 2 3 4 5 6 
#
# 1 51.2454 21.0545 19.6272 4.5817 13.0873 -15.0263
# 2 21.0545 152.1548 48.3267 -12.2437 3.3531 -19.6450
# 3 19.6272 48.3267 151.2128 -0.9544 -7.8039 -27.8860
# 4 4.5817 -12.2437 -0.9544 35.1181 -3.2619 8.4741
# 5 13.0873 3.3531 -7.8039 -3.2619 54.4421 -0.8454
# 6 -15.0263 -19.6450 -27.8860 8.4741 -0.8454 47.6929
#
#
#
# Elastic Compliance Matrix: (Units=1/GPa)
#
#
# Indices 1 2 3 4 5 6 
#
# 1 0.025469 -0.002490 -0.001571 -0.006556 -0.006476 0.007131
# 2 -0.002490 0.007892 -0.002039 0.002835 0.000002 0.000770
# 3 -0.001571 -0.002039 0.008229 -0.001016 0.001679 0.003687
# 4 -0.006556 0.002835 -0.001016 0.032310 0.003080 -0.007178
# 5 -0.006476 0.000002 0.001679 0.003080 0.020331 -0.001245
# 6 0.007131 0.000770 0.003687 -0.007178 -0.001245 0.026941
#
#
# Mechanical properties :
#
#
# Convention : Reuss Voigt Hill
#
# Bulk Modulus (GPa) = 34.02357 59.18109 46.60233
# Shear Modulus (GPa) = 34.92418 45.15758 40.04088
#
# Velocity S-wave (km/s) = 3.64271 4.14216 3.90043
# Velocity P-wave (km/s) = 5.53349 6.73515 6.16368
#
# Compressibility (1/GPa) = 0.02939139
#
# Stress axis : x y z
#
# Youngs Moduli (GPa) = 39.26276 126.71159 121.52268
#
# Poissons Ratio (x) = 0.31546 0.19090
# Poissons Ratio (y) = 0.09775 0.24778
# Poissons Ratio (z) = 0.06168 0.25836
#
# Static dielectric constant tensor:
#      x y z
#    x 1.775880 -0.183500 0.027540 
#    y -0.183500 1.867520 0.122150 
#    z 0.027540 0.122150 2.093770 
# 
# From -- ./inp_files/153599.got.cif
#   From: 2010.05.17/outbox.cif.g08.bks.cpg/sg2_77_cif.got.tgz:153599.got - 2010.06.03 11:33:40.
