data_PCOD9017552
_publ_section_title
;
Structure prediction by ZEFSAII (Michael W. Deem and Ramdas Pophale) SiO2 
 PCOD9017552
Probable space group: P -1
;
_chemical_formula_sum "Si O2"
_cell_formula_units_Z 14
_cell_length_a 7.766096
_cell_length_b 7.610047
_cell_length_c 14.821571
_cell_angle_alpha 79.778248
_cell_angle_beta 68.772622
_cell_angle_gamma 123.552895
_cell_volume 594.688445
_symmetry_space_group_name_H-M "P -1"
_symmetry_group_IT_number 2
_symmetry_cell_setting 'triclinic'
loop_
_space_group_symop_operation_xyz
x,y,z
-x,-y,-z
loop_
_atom_site_type_symbol
_atom_site_label
_atom_site_fract_x
_atom_site_fract_y
_atom_site_fract_z
Si Si1 0.961292 0.740612 0.550440
Si Si2 0.985657 0.631135 0.359577
Si Si3 0.528020 0.825098 0.554914
Si Si4 0.160414 0.069429 0.874183
Si Si5 0.727669 0.640586 0.873442
Si Si6 0.383985 0.824765 0.125932
Si Si7 0.497678 0.382974 0.263308
O O1 0.966584 0.546332 0.609293
O O2 0.692184 0.640747 0.631293
O O3 0.031887 0.765886 0.430423
O O4 0.174967 0.001626 0.530999
O O5 0.172666 0.790898 0.226742
O O6 0.686850 0.443452 0.417384
O O7 0.460860 0.775809 0.679318
O O8 0.500000 0.000000 0.500000
O O9 0.981256 0.873053 0.849650
O O10 0.389449 0.089438 0.858578
O O11 0.267052 0.334493 0.808568
O O12 0.000000 0.000000 0.000000
O O13 0.740271 0.442395 0.858661
O O14 0.634339 0.695436 0.800913
O O15 0.500000 0.500000 0.000000
O O16 0.500000 0.000000 0.000000
#
# Coordination Sequence:
#
# PCOD9017552 Si02
#       7
#     2   2   2   2   2   2   2
#     4  10  21  43  64  94 136 178 230 283 337 410
#     4  10  22  42  63  97 139 175 222 286 344 406
#     4  10  24  41  67  98 139 176 234 285 352 411
#     4  11  23  44  69  98 139 182 234 283 343 423
#     4  11  23  43  69  99 137 182 229 285 339 410
#     4  11  25  43  69 106 142 177 232 288 349 419
#     4  11  23  42  70 101 135 185 235 285 350 415
#
# _framework density 23.541739
#
# number of rings (size 3 to 8) (size 9 to 14) (size 15 to 20)
#    0.000    1.429    5.714    0.429    2.000    5.714 
#    0.000    0.000    0.000    0.000    0.000    0.000 
#    0.000    0.000    0.000    0.000    0.000    0.000 
#
# Total GULP energy -78199.546249 kJ/mol
# GULP energy per Si atom -5585.681875 kJ/mol
# Density = 2.348816 g / cm^3
# Si number density = 23.541739 Si / 1000 Ang^3
#
#
#
# Elastic Constant Matrix: (Units=GPa)
#
#
# Indices 1 2 3 4 5 6 
#
# 1 80.4620 49.2464 45.8913 -10.1872 20.1350 17.4305
# 2 49.2464 141.6806 42.8510 -17.5038 9.0685 35.0496
# 3 45.8913 42.8510 164.2731 -13.3802 14.3082 0.8124
# 4 -10.1872 -17.5038 -13.3802 35.5313 1.1141 -5.9273
# 5 20.1350 9.0685 14.3082 1.1141 60.3255 -2.0892
# 6 17.4305 35.0496 0.8124 -5.9273 -2.0892 41.6287
#
#
#
# Elastic Compliance Matrix: (Units=1/GPa)
#
#
# Indices 1 2 3 4 5 6 
#
# 1 0.019575 -0.003907 -0.003840 0.001594 -0.005234 -0.004868
# 2 -0.003907 0.010997 -0.001510 0.002528 -0.000289 -0.007248
# 3 -0.003840 -0.001510 0.007687 0.001547 -0.000241 0.002937
# 4 0.001594 0.002528 0.001547 0.030729 -0.001796 0.001459
# 5 -0.005234 -0.000289 -0.000241 -0.001796 0.018565 0.003115
# 6 -0.004868 -0.007248 0.002937 0.001459 0.003115 0.032469
#
#
# Mechanical properties :
#
#
# Convention : Reuss Voigt Hill
#
# Bulk Modulus (GPa) = 50.64473 73.59925 62.12199
# Shear Modulus (GPa) = 34.45486 44.05890 39.25688
#
# Velocity S-wave (km/s) = 3.82981 4.33080 4.08799
# Velocity P-wave (km/s) = 6.41218 7.50593 6.98051
#
# Compressibility (1/GPa) = 0.01974539
#
# Stress axis : x y z
#
# Youngs Moduli (GPa) = 51.08472 90.93653 130.09719
#
# Poissons Ratio (x) = 0.35525 0.49954
# Poissons Ratio (y) = 0.19957 0.19648
# Poissons Ratio (z) = 0.19615 0.13733
#
# Static dielectric constant tensor:
#      x y z
#    x 2.071690 -0.019430 0.134170 
#    y -0.019430 1.968660 -0.057540 
#    z 0.134170 -0.057540 1.960100 
# 
# From -- ./inp_files/492722.got.cif
#   From: 2010.05.17/outbox.cif.g08.bks.cpg/sg2_247_cif.got.tgz:492722.got - 2010.06.03 11:33:40.
