data_PCOD9017322
_publ_section_title
;
Structure prediction by ZEFSAII (Michael W. Deem and Ramdas Pophale) SiO2 
 PCOD9017322
Probable space group: P -1
;
_chemical_formula_sum "Si O2"
_cell_formula_units_Z 12
_cell_length_a 15.369087
_cell_length_b 9.401876
_cell_length_c 19.108665
_cell_angle_alpha 36.919362
_cell_angle_beta 160.275823
_cell_angle_gamma 143.808811
_cell_volume 539.179031
_symmetry_space_group_name_H-M "P -1"
_symmetry_group_IT_number 2
_symmetry_cell_setting 'triclinic'
loop_
_space_group_symop_operation_xyz
x,y,z
-x,-y,-z
loop_
_atom_site_type_symbol
_atom_site_label
_atom_site_fract_x
_atom_site_fract_y
_atom_site_fract_z
Si Si1 0.511172 0.474856 0.825818
Si Si2 0.192184 0.789533 0.068580
Si Si3 0.409501 0.688502 0.807447
Si Si4 0.397398 0.393986 0.309346
Si Si5 0.029967 0.065478 0.579403
Si Si6 0.109166 0.475396 0.270618
O O1 0.390307 0.588056 0.753986
O O2 0.529916 0.625335 0.708607
O O3 0.328359 0.203309 0.775645
O O4 0.816933 0.483215 0.072567
O O5 0.335722 0.660935 0.169920
O O6 0.159772 0.606783 0.182497
O O7 0.367467 0.053133 0.118935
O O8 0.891134 0.788993 0.819988
O O9 0.139398 0.742365 0.608427
O O10 0.500000 0.500000 0.000000
O O11 0.645680 0.390974 0.546826
O O12 0.908633 0.813574 0.628818
O O13 0.000000 0.000000 0.500000
#
# Coordination Sequence:
#
# PCOD9017322 Si02
#       6
#     2   2   2   2   2   2
#     4  11  25  43  67 105 139 178 223 276 350 403
#     4  10  23  44  69 104 129 179 236 275 337 396
#     4  12  27  46  67  99 146 179 220 282 345 410
#     4  10  21  42  73  99 133 175 231 285 323 397
#     4  12  23  45  73  99 133 180 233 277 332 400
#     4  11  22  42  78  98 133 176 232 288 323 396
#
# _framework density 22.256056999999998
#
# number of rings (size 3 to 8) (size 9 to 14) (size 15 to 20)
#    0.000    1.000    3.333    2.500    0.000    6.667 
#    3.000    1.667    0.000    0.000    0.000    0.000 
#    0.000    0.000    0.000    0.000    0.000    0.000 
#
# Total GULP energy -67153.853422 kJ/mol
# GULP energy per Si atom -5596.154452 kJ/mol
# Density = 2.220540 g / cm^3
# Si number density = 22.256057 Si / 1000 Ang^3
#
#
#
# Elastic Constant Matrix: (Units=GPa)
#
#
# Indices 1 2 3 4 5 6 
#
# 1 141.4425 34.5660 45.4415 -0.0919 4.7267 -27.5917
# 2 34.5660 87.5255 21.3887 20.7796 -8.3196 2.3039
# 3 45.4415 21.3887 142.7863 28.7400 4.6298 -4.6220
# 4 -0.0919 20.7796 28.7400 51.2213 -4.6972 -4.6707
# 5 4.7267 -8.3196 4.6298 -4.6972 23.4713 0.1374
# 6 -27.5917 2.3039 -4.6220 -4.6707 0.1374 39.2799
#
#
#
# Elastic Compliance Matrix: (Units=1/GPa)
#
#
# Indices 1 2 3 4 5 6 
#
# 1 0.011064 -0.005075 -0.003309 0.004453 -0.002531 0.008218
# 2 -0.005075 0.015534 0.000247 -0.006448 0.005219 -0.005232
# 3 -0.003309 0.000247 0.009158 -0.005619 -0.002166 -0.001922
# 4 0.004453 -0.006448 -0.005619 0.026128 0.003120 0.005941
# 5 -0.002531 0.005219 -0.002166 0.003120 0.046029 -0.002129
# 6 0.008218 -0.005232 -0.001922 0.005941 -0.002129 0.032026
#
#
# Mechanical properties :
#
#
# Convention : Reuss Voigt Hill
#
# Bulk Modulus (GPa) = 51.32583 63.83852 57.58217
# Shear Modulus (GPa) = 30.73031 40.81836 35.77433
#
# Velocity S-wave (km/s) = 3.71989 4.28721 4.01359
# Velocity P-wave (km/s) = 6.44684 7.29745 6.88529
#
# Compressibility (1/GPa) = 0.01948337
#
# Stress axis : x y z
#
# Youngs Moduli (GPa) = 90.38358 64.37642 109.18839
#
# Poissons Ratio (x) = 0.32670 0.36131
# Poissons Ratio (y) = 0.45868 -0.02702
# Poissons Ratio (z) = 0.29908 -0.01593
#
# Static dielectric constant tensor:
#      x y z
#    x 1.818290 0.011090 0.016650 
#    y 0.011090 1.798820 0.020650 
#    z 0.016650 0.020650 1.853860 
# 
# From -- ./inp_files/174649.got.cif
#   From: 2010.05.17/outbox.cif.g08.bks.cpg/sg2_88_cif.got.tgz:174649.got - 2010.06.03 11:33:40.
