data_PCOD9017246
_publ_section_title
;
Structure prediction by ZEFSAII (Michael W. Deem and Ramdas Pophale) SiO2 
 PCOD9017246
Probable space group: P -1
;
_chemical_formula_sum "Si O2"
_cell_formula_units_Z 14
_cell_length_a 18.345259
_cell_length_b 11.093577
_cell_length_c 8.603785
_cell_angle_alpha 31.939451
_cell_angle_beta 56.258070
_cell_angle_gamma 43.050473
_cell_volume 622.121534
_symmetry_space_group_name_H-M "P -1"
_symmetry_group_IT_number 2
_symmetry_cell_setting 'triclinic'
loop_
_space_group_symop_operation_xyz
x,y,z
-x,-y,-z
loop_
_atom_site_type_symbol
_atom_site_label
_atom_site_fract_x
_atom_site_fract_y
_atom_site_fract_z
Si Si1 0.164710 0.867984 0.979218
Si Si2 0.638492 0.227497 0.278233
Si Si3 0.976373 0.139520 0.112086
Si Si4 0.490967 0.277139 0.653191
Si Si5 0.534169 0.161999 0.183144
Si Si6 0.915807 0.421245 0.189449
Si Si7 0.297918 0.373017 0.612287
O O1 0.242589 0.582835 0.300053
O O2 0.235190 0.934350 0.721550
O O3 0.098122 0.826181 0.978108
O O4 0.079439 0.103462 0.946596
O O5 0.586723 0.139980 0.560398
O O6 0.595372 0.233756 0.150891
O O7 0.578110 0.551971 0.047042
O O8 0.909887 0.367981 0.073110
O O9 0.027922 0.852596 0.464643
O O10 0.500000 0.500000 0.500000
O O11 0.370474 0.453311 0.525630
O O12 0.500000 0.000000 0.000000
O O13 0.500000 0.000000 0.500000
O O14 0.617874 0.948052 0.191458
O O15 0.794692 0.608262 0.197216
O O16 0.000000 0.500000 0.000000
#
# Coordination Sequence:
#
# PCOD9017246 Si02
#       7
#     2   2   2   2   2   2   2
#     4  10  21  42  72  97 131 182 230 297 355 412
#     4  11  23  39  68  97 134 185 231 294 358 426
#     4   9  22  45  64  99 137 170 235 294 347 428
#     4  12  28  46  68 105 151 195 243 292 363 449
#     4  11  20  41  65  98 134 173 236 288 353 424
#     4  10  23  44  69  97 139 184 229 285 364 425
#     4  11  23  44  70 101 140 188 233 303 359 424
#
# _framework density 22.503641999999999
#
# number of rings (size 3 to 8) (size 9 to 14) (size 15 to 20)
#    0.000    1.429    2.857    1.714    4.000    1.143 
#    7.714    2.143    0.000    0.000    0.000    0.000 
#    0.000    0.000    0.000    0.000    0.000    0.000 
#
# Total GULP energy -78059.159245 kJ/mol
# GULP energy per Si atom -5575.654232 kJ/mol
# Density = 2.245242 g / cm^3
# Si number density = 22.503642 Si / 1000 Ang^3
#
#
#
# Elastic Constant Matrix: (Units=GPa)
#
#
# Indices 1 2 3 4 5 6 
#
# 1 115.8748 61.9931 15.8787 12.5717 4.2827 0.3102
# 2 61.9931 191.5195 48.9204 50.9964 -20.7296 -8.1229
# 3 15.8787 48.9204 90.3168 32.6245 -6.9495 -5.7697
# 4 12.5717 50.9964 32.6245 41.8681 -9.5699 -12.4749
# 5 4.2827 -20.7296 -6.9495 -9.5699 31.9551 9.1788
# 6 0.3102 -8.1229 -5.7697 -12.4749 9.1788 38.3642
#
#
#
# Elastic Compliance Matrix: (Units=1/GPa)
#
#
# Indices 1 2 3 4 5 6 
#
# 1 0.010940 -0.004215 -0.000419 0.001372 -0.003983 0.000355
# 2 -0.004215 0.009745 -0.000884 -0.009552 0.004469 -0.002211
# 3 -0.000419 -0.000884 0.015668 -0.011489 -0.000109 -0.001537
# 4 0.001372 -0.009552 -0.011489 0.047935 0.002233 0.011291
# 5 -0.003983 0.004469 -0.000109 0.002233 0.037461 -0.007275
# 6 0.000355 -0.002211 -0.001537 0.011291 -0.007275 0.030776
#
#
# Mechanical properties :
#
#
# Convention : Reuss Voigt Hill
#
# Bulk Modulus (GPa) = 39.50113 72.36619 55.93366
# Shear Modulus (GPa) = 29.06935 40.49875 34.78405
#
# Velocity S-wave (km/s) = 3.59801 4.24683 3.93581
# Velocity P-wave (km/s) = 5.90358 7.50165 6.75008
#
# Compressibility (1/GPa) = 0.02531573
#
# Stress axis : x y z
#
# Youngs Moduli (GPa) = 91.40619 102.61441 63.82292
#
# Poissons Ratio (x) = 0.43256 0.02677
# Poissons Ratio (y) = 0.38531 0.05644
# Poissons Ratio (z) = 0.03833 0.09074
#
# Static dielectric constant tensor:
#      x y z
#    x 1.943040 -0.005080 0.017480 
#    y -0.005080 1.882150 0.014950 
#    z 0.017480 0.014950 1.888160 
# 
# From -- ./inp_files/27593.got.cif
#   From: 2010.05.17/outbox.cif.g08.bks.cpg/sg2_14_cif.got.tgz:27593.got - 2010.06.03 11:33:40.
