data_PCOD9017160
_publ_section_title
;
Structure prediction by ZEFSAII (Michael W. Deem and Ramdas Pophale) SiO2 
 PCOD9017160
Probable space group: P -1
;
_chemical_formula_sum "Si O2"
_cell_formula_units_Z 16
_cell_length_a 19.865717
_cell_length_b 17.273741
_cell_length_c 5.764794
_cell_angle_alpha 68.582899
_cell_angle_beta 108.210631
_cell_angle_gamma 159.302508
_cell_volume 648.343440
_symmetry_space_group_name_H-M "P -1"
_symmetry_group_IT_number 2
_symmetry_cell_setting 'triclinic'
loop_
_space_group_symop_operation_xyz
x,y,z
-x,-y,-z
loop_
_atom_site_type_symbol
_atom_site_label
_atom_site_fract_x
_atom_site_fract_y
_atom_site_fract_z
Si Si1 0.618674 0.880549 0.931054
Si Si2 0.060392 0.608254 0.701248
Si Si3 0.860855 0.565079 0.437740
Si Si4 0.450066 0.039355 0.460334
Si Si5 0.786823 0.802807 0.951249
Si Si6 0.541341 0.663321 0.707699
Si Si7 0.732709 0.554733 0.692993
Si Si8 0.090892 0.925292 0.906836
O O1 0.653862 0.015746 0.782952
O O2 0.614343 0.826416 0.737317
O O3 0.409082 0.643721 0.066985
O O4 0.771006 0.996688 0.125869
O O5 0.000000 0.500000 0.500000
O O6 0.978110 0.611709 0.588110
O O7 0.290877 0.862834 0.679918
O O8 0.000000 0.500000 0.000000
O O9 0.650777 0.302698 0.432789
O O10 0.819884 0.582535 0.582894
O O11 0.971157 0.739916 0.171439
O O12 0.500000 0.000000 0.500000
O O13 0.620409 0.553995 0.059690
O O14 0.714076 0.788567 0.691747
O O15 0.000000 0.000000 0.000000
O O16 0.771124 0.854153 0.083336
O O17 0.404705 0.532493 0.489198
O O18 0.925139 0.797442 0.746313
#
# Coordination Sequence:
#
# PCOD9017160 Si02
#       8
#     2   2   2   2   2   2   2   2
#     4  11  24  45  68 102 143 188 244 300 373 440
#     4  12  30  51  75 113 153 195 259 323 386 460
#     4  12  26  46  71 103 145 191 246 301 378 449
#     4  12  25  47  77 103 145 194 248 306 375 449
#     4  10  21  42  71  97 142 189 237 297 371 439
#     4  10  23  44  66 102 141 186 239 301 365 448
#     4  12  24  41  73 102 139 190 242 303 367 450
#     4  11  25  44  70 103 144 190 240 307 366 451
#
# _framework density 24.678279
#
# number of rings (size 3 to 8) (size 9 to 14) (size 15 to 20)
#    0.000    0.750    5.000    1.500    3.500    6.000 
#    0.000   10.000    0.000    0.000    0.000    0.000 
#    0.000    0.000    0.000    0.000    0.000    0.000 
#
# Total GULP energy -89284.288385 kJ/mol
# GULP energy per Si atom -5580.268024 kJ/mol
# Density = 2.462211 g / cm^3
# Si number density = 24.678279 Si / 1000 Ang^3
#
#
#
# Elastic Constant Matrix: (Units=GPa)
#
#
# Indices 1 2 3 4 5 6 
#
# 1 112.8386 28.7898 30.6144 6.0291 34.0101 34.3292
# 2 28.7898 137.7936 22.7968 3.1601 1.4215 28.8750
# 3 30.6144 22.7968 61.7506 10.9693 18.9135 10.0824
# 4 6.0291 3.1601 10.9693 33.4227 15.1559 4.1640
# 5 34.0101 1.4215 18.9135 15.1559 40.8849 7.9840
# 6 34.3292 28.8750 10.0824 4.1640 7.9840 56.7107
#
#
#
# Elastic Compliance Matrix: (Units=1/GPa)
#
#
# Indices 1 2 3 4 5 6 
#
# 1 0.015395 -0.001224 -0.003329 0.004527 -0.011572 -0.006807
# 2 -0.001224 0.008709 -0.002823 -0.000558 0.002924 -0.003562
# 3 -0.003329 -0.002823 0.021156 -0.003565 -0.005747 0.000762
# 4 0.004527 -0.000558 -0.003565 0.037701 -0.015605 -0.002394
# 5 -0.011572 0.002924 -0.005747 -0.015605 0.042084 0.001759
# 6 -0.006807 -0.003562 0.000762 -0.002394 0.001759 0.023360
#
#
# Mechanical properties :
#
#
# Convention : Reuss Voigt Hill
#
# Bulk Modulus (GPa) = 32.77805 52.97610 42.87708
# Shear Modulus (GPa) = 28.84757 41.54912 35.19835
#
# Velocity S-wave (km/s) = 3.42269 4.10766 3.78072
# Velocity P-wave (km/s) = 5.37873 6.63404 6.03909
#
# Compressibility (1/GPa) = 0.03050822
#
# Stress axis : x y z
#
# Youngs Moduli (GPa) = 64.95757 114.82219 47.26839
#
# Poissons Ratio (x) = 0.14051 0.15734
# Poissons Ratio (y) = 0.07949 0.13345
# Poissons Ratio (z) = 0.21623 0.32417
#
# Static dielectric constant tensor:
#      x y z
#    x 1.930080 0.041080 0.019060 
#    y 0.041080 1.931820 0.032980 
#    z 0.019060 0.032980 2.124290 
# 
# From -- ./inp_files/120023.got.cif
#   From: 2010.05.17/outbox.cif.g08.bks.cpg/sg2_61_cif.got.tgz:120023.got - 2010.06.03 11:33:40.
