data_PCOD9017977
_publ_section_title
;
Structure prediction by ZEFSAII (Michael W. Deem and Ramdas Pophale) SiO2 
 PCOD9017977
Probable space group: P -1
;
_chemical_formula_sum "Si O2"
_cell_formula_units_Z 16
_cell_length_a 14.927693
_cell_length_b 15.191188
_cell_length_c 5.785165
_cell_angle_alpha 51.127494
_cell_angle_beta 55.648107
_cell_angle_gamma 39.465282
_cell_volume 640.704196
_symmetry_space_group_name_H-M "P -1"
_symmetry_group_IT_number 2
_symmetry_cell_setting 'triclinic'
loop_
_space_group_symop_operation_xyz
x,y,z
-x,-y,-z
loop_
_atom_site_type_symbol
_atom_site_label
_atom_site_fract_x
_atom_site_fract_y
_atom_site_fract_z
Si Si1 0.467045 0.702758 0.193725
Si Si2 0.329234 0.595684 0.868091
Si Si3 0.230814 0.780856 0.095774
Si Si4 0.814953 0.642131 0.286763
Si Si5 0.494631 0.138280 0.768077
Si Si6 0.907501 0.687044 0.572869
Si Si7 0.964245 0.155036 0.336208
Si Si8 0.815229 0.965164 0.467831
O O1 0.411494 0.648228 0.552244
O O2 0.596571 0.561326 0.094636
O O3 0.507208 0.793170 0.100537
O O4 0.326666 0.797297 0.086455
O O5 0.332554 0.620608 0.091602
O O6 0.158680 0.713795 0.866457
O O7 0.158311 0.920663 0.805250
O O8 0.120529 0.786467 0.394840
O O9 0.647202 0.728914 0.379285
O O10 0.845984 0.683112 0.422428
O O11 0.927151 0.462831 0.418427
O O12 0.843454 0.681837 0.923127
O O13 0.646301 0.067234 0.558413
O O14 0.500000 0.000000 0.000000
O O15 0.878251 0.839696 0.390374
O O16 0.111821 0.114192 0.259868
O O17 0.000000 0.000000 0.500000
#
# Coordination Sequence:
#
# PCOD9017977 Si02
#       8
#     2   2   2   2   2   2   2   2
#     4  10  23  41  67  98 138 182 223 293 354 421
#     4  10  21  43  67  96 136 178 231 291 349 427
#     4  11  22  42  67 100 134 176 236 292 359 421
#     4  10  24  48  71  99 143 184 245 295 357 419
#     4  12  25  45  70 103 142 187 234 289 360 433
#     4  10  24  47  73 101 137 190 239 302 349 431
#     4  11  23  41  65  96 137 177 233 290 356 420
#     4  12  24  41  69 102 135 184 231 290 356 428
#
# _framework density 24.972525000000001
#
# number of rings (size 3 to 8) (size 9 to 14) (size 15 to 20)
#    0.000    1.250    3.750    1.500    3.500    2.500 
#    0.000    1.250    0.000    0.000    0.000    0.000 
#    0.000    0.000    0.000    0.000    0.000    0.000 
#
# Total GULP energy -89392.571118 kJ/mol
# GULP energy per Si atom -5587.035695 kJ/mol
# Density = 2.491569 g / cm^3
# Si number density = 24.972525 Si / 1000 Ang^3
#
#
#
# Elastic Constant Matrix: (Units=GPa)
#
#
# Indices 1 2 3 4 5 6 
#
# 1 150.0477 72.5483 20.8185 0.5582 23.9421 -11.3118
# 2 72.5483 156.3444 17.4912 21.2295 6.7135 13.1602
# 3 20.8185 17.4912 84.3074 7.2804 7.5592 3.7175
# 4 0.5582 21.2295 7.2804 21.7784 0.2871 8.1714
# 5 23.9421 6.7135 7.5592 0.2871 29.4680 1.4093
# 6 -11.3118 13.1602 3.7175 8.1714 1.4093 65.2788
#
#
#
# Elastic Compliance Matrix: (Units=1/GPa)
#
#
# Indices 1 2 3 4 5 6 
#
# 1 0.010823 -0.005388 -0.001403 0.004554 -0.007376 0.002631
# 2 -0.005388 0.010207 -0.000121 -0.009089 0.002263 -0.001896
# 3 -0.001403 -0.000121 0.012775 -0.003936 -0.002052 -0.000409
# 4 0.004554 -0.009089 -0.003936 0.057620 -0.000973 -0.004346
# 5 -0.007376 0.002263 -0.002052 -0.000973 0.040061 -0.002361
# 6 0.002631 -0.001896 -0.000409 -0.004346 -0.002361 0.016775
#
#
# Mechanical properties :
#
#
# Convention : Reuss Voigt Hill
#
# Bulk Modulus (GPa) = 50.05072 68.04616 59.04844
# Shear Modulus (GPa) = 29.63063 41.96115 35.79589
#
# Velocity S-wave (km/s) = 3.44834 4.10358 3.79015
# Velocity P-wave (km/s) = 5.99504 7.05408 6.54602
#
# Compressibility (1/GPa) = 0.01997973
#
# Stress axis : x y z
#
# Youngs Moduli (GPa) = 92.39851 97.97587 78.27929
#
# Poissons Ratio (x) = 0.52792 0.10979
# Poissons Ratio (y) = 0.49786 0.00950
# Poissons Ratio (z) = 0.12959 0.01190
#
# Static dielectric constant tensor:
#      x y z
#    x 2.050560 -0.031340 0.039240 
#    y -0.031340 1.972830 0.009880 
#    z 0.039240 0.009880 2.104240 
# 
# From -- ./inp_files/78551.got.cif
#   From: 2010.05.17/outbox.cif.g08.bks.cpg/sg2_40_cif.got.tgz:78551.got - 2010.06.03 11:33:40.
