data_PCOD9017571
_publ_section_title
;
Structure prediction by ZEFSAII (Michael W. Deem and Ramdas Pophale) SiO2 
 PCOD9017571
Probable space group: P -1
;
_chemical_formula_sum "Si O2"
_cell_formula_units_Z 14
_cell_length_a 7.466695
_cell_length_b 12.557598
_cell_length_c 11.380808
_cell_angle_alpha 44.570684
_cell_angle_beta 113.643243
_cell_angle_gamma 90.094303
_cell_volume 615.427276
_symmetry_space_group_name_H-M "P -1"
_symmetry_group_IT_number 2
_symmetry_cell_setting 'triclinic'
loop_
_space_group_symop_operation_xyz
x,y,z
-x,-y,-z
loop_
_atom_site_type_symbol
_atom_site_label
_atom_site_fract_x
_atom_site_fract_y
_atom_site_fract_z
Si Si1 0.864319 0.714040 0.128360
Si Si2 0.286842 0.156994 0.765987
Si Si3 0.336526 0.460883 0.408675
Si Si4 0.280718 0.476398 0.932333
Si Si5 0.814396 0.176575 0.353345
Si Si6 0.583665 0.029163 0.272935
Si Si7 0.438218 0.257893 0.359564
O O1 0.870451 0.750639 0.239630
O O2 0.776438 0.580171 0.163208
O O3 0.108118 0.629483 0.210664
O O4 0.671738 0.889604 0.893578
O O5 0.320602 0.307130 0.595088
O O6 0.251388 0.061301 0.719685
O O7 0.500000 0.000000 0.000000
O O8 0.500000 0.500000 0.500000
O O9 0.408136 0.388481 0.353975
O O10 0.114656 0.673781 0.750339
O O11 0.500000 0.500000 0.000000
O O12 0.279386 0.356079 0.132354
O O13 0.686757 0.186799 0.432866
O O14 0.629384 0.183010 0.207014
O O15 0.000000 0.000000 0.500000
O O16 0.606620 0.894436 0.484385
#
# Coordination Sequence:
#
# PCOD9017571 Si02
#       7
#     2   2   2   2   2   2   2
#     4  11  22  42  69  93 131 170 216 258 320 379
#     4   9  22  42  68  90 127 168 213 261 317 380
#     4  11  26  41  66  94 126 171 216 268 318 369
#     4  10  22  40  66  96 128 168 212 261 315 383
#     4  11  24  38  64  94 128 166 213 256 316 383
#     4  10  21  43  64  97 130 171 204 265 321 373
#     4  10  23  43  62  93 136 162 212 262 320 379
#
# _framework density 22.748422999999999
#
# number of rings (size 3 to 8) (size 9 to 14) (size 15 to 20)
#    0.000    1.714    2.857    0.857    8.000    2.857 
#    0.000    6.429    0.000    0.000    0.000    0.000 
#    0.000    0.000    0.000    0.000    0.000    0.000 
#
# Total GULP energy -77962.767088 kJ/mol
# GULP energy per Si atom -5568.769078 kJ/mol
# Density = 2.269665 g / cm^3
# Si number density = 22.748423 Si / 1000 Ang^3
#
#
#
# Elastic Constant Matrix: (Units=GPa)
#
#
# Indices 1 2 3 4 5 6 
#
# 1 55.4302 37.9540 17.3991 -2.3391 17.6815 -28.5618
# 2 37.9540 178.1313 12.8524 -7.2848 -6.0709 -34.7114
# 3 17.3991 12.8524 68.9271 -9.0504 1.7386 -14.1153
# 4 -2.3391 -7.2848 -9.0504 31.3983 1.1793 3.4645
# 5 17.6815 -6.0709 1.7386 1.1793 40.9312 -4.3633
# 6 -28.5618 -34.7114 -14.1153 3.4645 -4.3633 45.3418
#
#
#
# Elastic Compliance Matrix: (Units=1/GPa)
#
#
# Indices 1 2 3 4 5 6 
#
# 1 0.035291 -0.004584 -0.004547 -0.000989 -0.013994 0.016035
# 2 -0.004584 0.007317 0.000479 0.001026 0.003347 0.003107
# 3 -0.004547 0.000479 0.016594 0.004226 0.001474 0.002487
# 4 -0.000989 0.001026 0.004226 0.033383 -0.000683 -0.001139
# 5 -0.013994 0.003347 0.001474 -0.000683 0.030632 -0.002794
# 6 0.016035 0.003107 0.002487 -0.001139 -0.002794 0.035126
#
#
# Mechanical properties :
#
#
# Convention : Reuss Voigt Hill
#
# Bulk Modulus (GPa) = 23.86701 48.76662 36.31681
# Shear Modulus (GPa) = 26.36951 39.15313 32.76132
#
# Velocity S-wave (km/s) = 3.40837 4.15316 3.79906
# Velocity P-wave (km/s) = 5.09939 6.66950 5.93658
#
# Compressibility (1/GPa) = 0.04189884
#
# Stress axis : x y z
#
# Youngs Moduli (GPa) = 28.33563 136.65918 60.26453
#
# Poissons Ratio (x) = 0.62646 0.27401
# Poissons Ratio (y) = 0.12989 -0.02888
# Poissons Ratio (z) = 0.12884 -0.06550
#
# Static dielectric constant tensor:
#      x y z
#    x 1.936950 -0.034830 0.126030 
#    y -0.034830 1.939670 -0.043200 
#    z 0.126030 -0.043200 2.046530 
# 
# From -- ./inp_files/384197.got.cif
#   From: 2010.05.17/outbox.cif.g08.bks.cpg/sg2_193_cif.got.tgz:384197.got - 2010.06.03 11:33:40.
