data_PCOD9017267
_publ_section_title
;
Structure prediction by ZEFSAII (Michael W. Deem and Ramdas Pophale) SiO2 
 PCOD9017267
Probable space group: P -1
;
_chemical_formula_sum "Si O2"
_cell_formula_units_Z 14
_cell_length_a 9.117760
_cell_length_b 18.502539
_cell_length_c 7.250194
_cell_angle_alpha 57.019528
_cell_angle_beta 96.405069
_cell_angle_gamma 138.586066
_cell_volume 573.554419
_symmetry_space_group_name_H-M "P -1"
_symmetry_group_IT_number 2
_symmetry_cell_setting 'triclinic'
loop_
_space_group_symop_operation_xyz
x,y,z
-x,-y,-z
loop_
_atom_site_type_symbol
_atom_site_label
_atom_site_fract_x
_atom_site_fract_y
_atom_site_fract_z
Si Si1 0.415503 0.555805 0.338621
Si Si2 0.184388 0.702752 0.278590
Si Si3 0.072880 0.949213 0.475334
Si Si4 0.688553 0.855997 0.103581
Si Si5 0.542036 0.621314 0.839317
Si Si6 0.017087 0.435723 0.936030
Si Si7 0.759629 0.140226 0.230559
O O1 0.500000 0.500000 0.500000
O O2 0.575994 0.706947 0.257751
O O3 0.096701 0.413578 0.503525
O O4 0.499620 0.617534 0.055044
O O5 0.454892 0.793601 0.271075
O O6 0.887574 0.391546 0.781238
O O7 0.257074 0.828488 0.017208
O O8 0.122562 0.897713 0.700467
O O9 0.815469 0.785875 0.571744
O O10 0.000000 0.000000 0.500000
O O11 0.292213 0.078972 0.176645
O O12 0.000000 0.000000 0.000000
O O13 0.319742 0.562233 0.778873
O O14 0.500000 0.500000 0.000000
O O15 0.000000 0.500000 0.000000
O O16 0.906033 0.285892 0.167459
O O17 0.500000 0.000000 0.500000
#
# Coordination Sequence:
#
# PCOD9017267 Si02
#       7
#     2   2   2   2   2   2   2
#     4  12  26  48  73 105 152 196 243 306 376 442
#     4  10  24  49  73 104 149 190 247 299 373 438
#     4  12  24  45  72 106 146 189 249 306 367 432
#     4  12  28  46  72 105 149 197 238 307 373 438
#     4  12  24  44  74 105 136 191 246 303 360 444
#     4  10  22  39  70 104 134 183 245 295 352 426
#     4  10  21  42  72  99 140 188 235 303 363 423
#
# _framework density 24.409192999999998
#
# number of rings (size 3 to 8) (size 9 to 14) (size 15 to 20)
#    0.857    0.000    4.286    3.000    6.000    0.000 
#    0.000    0.714    0.000    0.000    0.000    0.000 
#    0.000    0.000    0.000    0.000    0.000    0.000 
#
# Total GULP energy -78096.990502 kJ/mol
# GULP energy per Si atom -5578.356464 kJ/mol
# Density = 2.435364 g / cm^3
# Si number density = 24.409193 Si / 1000 Ang^3
#
#
#
# Elastic Constant Matrix: (Units=GPa)
#
#
# Indices 1 2 3 4 5 6 
#
# 1 147.8361 30.2841 57.1500 -29.8164 14.8953 13.6396
# 2 30.2841 47.6813 24.2202 -2.6159 7.5694 7.6412
# 3 57.1500 24.2202 171.9001 -15.7551 12.6051 1.5921
# 4 -29.8164 -2.6159 -15.7551 26.8717 -4.6290 -2.3749
# 5 14.8953 7.5694 12.6051 -4.6290 56.6268 -8.9907
# 6 13.6396 7.6412 1.5921 -2.3749 -8.9907 45.4203
#
#
#
# Elastic Compliance Matrix: (Units=1/GPa)
#
#
# Indices 1 2 3 4 5 6 
#
# 1 0.010831 -0.004827 -0.001887 0.010032 -0.001298 -0.002107
# 2 -0.004827 0.025925 -0.002272 -0.004943 -0.002669 -0.003619
# 3 -0.001887 -0.002272 0.006954 0.001739 -0.000495 0.000698
# 4 0.010032 -0.004943 0.001739 0.049249 0.001769 0.000683
# 5 -0.001298 -0.002669 -0.000495 0.001769 0.019372 0.004783
# 6 -0.002107 -0.003619 0.000698 0.000683 0.004783 0.024216
#
#
# Mechanical properties :
#
#
# Convention : Reuss Voigt Hill
#
# Bulk Modulus (GPa) = 38.85154 65.63625 52.24390
# Shear Modulus (GPa) = 30.65684 42.83465 36.74574
#
# Velocity S-wave (km/s) = 3.54779 4.19365 3.88417
# Velocity P-wave (km/s) = 5.72134 7.09910 6.44713
#
# Compressibility (1/GPa) = 0.02573901
#
# Stress axis : x y z
#
# Youngs Moduli (GPa) = 92.32981 38.57346 143.80472
#
# Poissons Ratio (x) = 0.18618 0.27130
# Poissons Ratio (y) = 0.44564 0.32671
# Poissons Ratio (z) = 0.17419 0.08764
#
# Static dielectric constant tensor:
#      x y z
#    x 2.152630 0.062810 -0.010660 
#    y 0.062810 2.083440 0.068480 
#    z -0.010660 0.068480 1.986600 
# 
# From -- ./inp_files/223047.got.cif
#   From: 2010.05.17/outbox.cif.g08.bks.cpg/sg2_112_cif.got.tgz:223047.got - 2010.06.03 11:33:40.
