data_PCOD9017004
_publ_section_title
;
Structure prediction by ZEFSAII (Michael W. Deem and Ramdas Pophale) SiO2 
 PCOD9017004
Probable space group: P -1
;
_chemical_formula_sum "Si O2"
_cell_formula_units_Z 16
_cell_length_a 5.190985
_cell_length_b 28.979956
_cell_length_c 27.271972
_cell_angle_alpha 10.402484
_cell_angle_beta 58.649023
_cell_angle_gamma 59.505500
_cell_volume 632.381451
_symmetry_space_group_name_H-M "P -1"
_symmetry_group_IT_number 2
_symmetry_cell_setting 'triclinic'
loop_
_space_group_symop_operation_xyz
x,y,z
-x,-y,-z
loop_
_atom_site_type_symbol
_atom_site_label
_atom_site_fract_x
_atom_site_fract_y
_atom_site_fract_z
Si Si1 0.334947 0.003145 0.336657
Si Si2 0.180993 0.606131 0.021384
Si Si3 0.251124 0.070842 0.860521
Si Si4 0.635787 0.470861 0.570902
Si Si5 0.232658 0.767217 0.496478
Si Si6 0.077824 0.811773 0.963704
Si Si7 0.148743 0.261571 0.568038
Si Si8 0.837027 0.458277 0.111019
O O1 0.359836 0.790038 0.514585
O O2 0.302340 0.831046 0.567901
O O3 0.622261 0.180829 0.108477
O O4 0.023263 0.147505 0.209625
O O5 0.540540 0.631160 0.963264
O O6 0.074024 0.508669 0.079447
O O7 0.062204 0.407333 0.282922
O O8 0.449318 0.299729 0.624905
O O9 0.089737 0.165547 0.728980
O O10 0.429312 0.811268 0.106545
O O11 0.000000 0.000000 0.000000
O O12 0.500000 0.500000 0.500000
O O13 0.000000 0.500000 0.500000
O O14 0.491392 0.664617 0.544177
O O15 0.169025 0.051546 0.187563
O O16 0.013251 0.526303 0.286942
O O17 0.110756 0.019566 0.787972
O O18 0.000000 0.500000 0.000000
#
# Coordination Sequence:
#
# PCOD9017004 Si02
#       8
#     2   2   2   2   2   2   2   2
#     4  10  23  38  66  91 132 179 226 284 353 409
#     4  11  23  41  69  91 133 180 229 284 349 412
#     4  10  22  44  67  95 141 178 232 283 354 424
#     4  10  21  42  70  95 130 181 227 274 333 413
#     4  10  23  39  63  97 129 175 230 290 348 415
#     4  11  23  41  68  96 138 174 238 290 353 413
#     4  11  24  43  65 101 134 180 232 293 356 417
#     4  11  25  42  63 100 136 177 230 285 344 418
#
# _framework density 25.301182000000001
#
# number of rings (size 3 to 8) (size 9 to 14) (size 15 to 20)
#    0.000    1.500    2.500    1.500    3.500    1.000 
#   13.500    0.000    0.000    0.000    0.000    0.000 
#    0.000    0.000    0.000    0.000    0.000    0.000 
#
# Total GULP energy -89500.193597 kJ/mol
# GULP energy per Si atom -5593.762100 kJ/mol
# Density = 2.524360 g / cm^3
# Si number density = 25.301182 Si / 1000 Ang^3
#
#
#
# Elastic Constant Matrix: (Units=GPa)
#
#
# Indices 1 2 3 4 5 6 
#
# 1 108.1459 26.2699 43.8550 1.2477 13.0407 0.5335
# 2 26.2699 102.4901 75.7372 22.3567 -5.8792 9.6542
# 3 43.8550 75.7372 176.2263 -2.3551 15.1527 7.8030
# 4 1.2477 22.3567 -2.3551 56.5792 4.1746 -3.5299
# 5 13.0407 -5.8792 15.1527 4.1746 40.1250 -0.1133
# 6 0.5335 9.6542 7.8030 -3.5299 -0.1133 37.9865
#
#
#
# Elastic Compliance Matrix: (Units=1/GPa)
#
#
# Indices 1 2 3 4 5 6 
#
# 1 0.010753 -0.002063 -0.001528 0.000805 -0.003301 0.000752
# 2 -0.002063 0.019077 -0.008271 -0.008632 0.007476 -0.003900
# 3 -0.001528 -0.008271 0.010071 0.004112 -0.004945 0.000422
# 4 0.000805 -0.008632 0.004112 0.021842 -0.005342 0.003351
# 5 -0.003301 0.007476 -0.004945 -0.005342 0.029510 -0.001246
# 6 0.000752 -0.003900 0.000422 0.003351 -0.001246 0.027527
#
#
# Mechanical properties :
#
#
# Convention : Reuss Voigt Hill
#
# Bulk Modulus (GPa) = 61.81589 75.39849 68.60719
# Shear Modulus (GPa) = 33.80793 43.00482 38.40637
#
# Velocity S-wave (km/s) = 3.65940 4.12723 3.90034
# Velocity P-wave (km/s) = 6.50692 7.25101 6.88902
#
# Compressibility (1/GPa) = 0.01617707
#
# Stress axis : x y z
#
# Youngs Moduli (GPa) = 93.00112 52.41984 99.29688
#
# Poissons Ratio (x) = 0.10812 0.15173
# Poissons Ratio (y) = 0.19183 0.82127
# Poissons Ratio (z) = 0.14211 0.43356
#
# Static dielectric constant tensor:
#      x y z
#    x 2.052200 0.025980 -0.049170 
#    y 0.025980 1.996470 -0.057900 
#    z -0.049170 -0.057900 2.052140 
# 
# From -- ./inp_files/12815.got.cif
#   From: 2010.05.17/outbox.cif.g08.bks.cpg/sg2_7_cif.got.tgz:12815.got - 2010.06.03 11:33:40.
