data_PCOD9017610
_publ_section_title
;
Structure prediction by ZEFSAII (Michael W. Deem and Ramdas Pophale) SiO2 
 PCOD9017610
Probable space group: P -1
;
_chemical_formula_sum "Si O2"
_cell_formula_units_Z 15
_cell_length_a 7.979024
_cell_length_b 9.074027
_cell_length_c 13.582786
_cell_angle_alpha 81.071393
_cell_angle_beta 113.856947
_cell_angle_gamma 53.626076
_cell_volume 611.115714
_symmetry_space_group_name_H-M "P -1"
_symmetry_group_IT_number 2
_symmetry_cell_setting 'triclinic'
loop_
_space_group_symop_operation_xyz
x,y,z
-x,-y,-z
loop_
_atom_site_type_symbol
_atom_site_label
_atom_site_fract_x
_atom_site_fract_y
_atom_site_fract_z
Si Si1 0.512299 0.678272 0.632327
Si Si2 0.248475 0.730944 0.957253
Si Si3 0.007383 0.432069 0.654601
Si Si4 0.025616 0.625885 0.063630
Si Si5 0.709211 0.092003 0.709311
Si Si6 0.443062 0.891418 0.102295
Si Si7 0.753376 0.848297 0.457035
Si Si8 0.500000 0.500000 0.500000
O O1 0.743943 0.542981 0.783217
O O2 0.343158 0.638734 0.561801
O O3 0.716084 0.533457 0.598556
O O4 0.331343 0.930927 0.572428
O O5 0.500000 0.500000 0.000000
O O6 0.143814 0.699050 0.027847
O O7 0.328239 0.845767 0.000730
O O8 0.017310 0.869308 0.808015
O O9 0.237657 0.284077 0.804700
O O10 0.124982 0.275695 0.605729
O O11 0.937709 0.646554 0.597316
O O12 0.000000 0.500000 0.000000
O O13 0.719378 0.861156 0.978589
O O14 0.620130 0.138267 0.799254
O O15 0.530814 0.071788 0.616909
O O16 0.676320 0.266279 0.628602
#
# Coordination Sequence:
#
# PCOD9017610 Si02
#       8
#     2   2   2   2   2   2   2   1
#     4  12  24  42  70  97 139 174 221 283 339 395
#     4  11  24  42  66  97 130 178 225 268 335 409
#     4  10  22  40  70  98 125 178 232 266 330 411
#     4  11  24  46  69  98 134 176 225 283 338 389
#     4  10  21  43  65  88 134 172 216 272 336 398
#     4  10  22  42  67  90 133 176 218 276 335 398
#     4  10  22  44  67  95 133 176 223 269 333 410
#     4  12  24  38  66 102 128 180 220 272 348 396
#
# _framework density 24.545266999999999
#
# number of rings (size 3 to 8) (size 9 to 14) (size 15 to 20)
#    0.000    1.333    1.333    6.000    3.733    0.533 
#    7.200    0.667    0.000    0.000    0.000    0.000 
#    0.000    0.000    0.000    0.000    0.000    0.000 
#
# Total GULP energy -83633.571691 kJ/mol
# GULP energy per Si atom -5575.571446 kJ/mol
# Density = 2.448940 g / cm^3
# Si number density = 24.545267 Si / 1000 Ang^3
#
#
#
# Elastic Constant Matrix: (Units=GPa)
#
#
# Indices 1 2 3 4 5 6 
#
# 1 45.7778 8.9308 26.5384 -18.3696 13.5880 0.9757
# 2 8.9308 172.7415 74.3305 -34.6588 17.1969 26.6851
# 3 26.5384 74.3305 189.1380 -31.4144 10.6444 -1.0197
# 4 -18.3696 -34.6588 -31.4144 48.9025 -1.1599 8.8643
# 5 13.5880 17.1969 10.6444 -1.1599 37.4672 -0.9681
# 6 0.9757 26.6851 -1.0197 8.8643 -0.9681 37.6039
#
#
#
# Elastic Compliance Matrix: (Units=1/GPa)
#
#
# Indices 1 2 3 4 5 6 
#
# 1 0.033197 0.005654 -0.003607 0.015467 -0.013362 -0.008961
# 2 0.005654 0.011072 -0.003252 0.009643 -0.006182 -0.010524
# 3 -0.003607 -0.003252 0.007116 0.000478 0.000859 0.002503
# 4 0.015467 0.009643 0.000478 0.036072 -0.009467 -0.015978
# 5 -0.013362 -0.006182 0.000859 -0.009467 0.034040 0.007865
# 6 -0.008961 -0.010524 0.002503 -0.015978 0.007865 0.038331
#
#
# Mechanical properties :
#
#
# Convention : Reuss Voigt Hill
#
# Bulk Modulus (GPa) = 20.41894 69.69516 45.05705
# Shear Modulus (GPa) = 28.00158 44.65190 36.32674
#
# Velocity S-wave (km/s) = 3.38126 4.26979 3.85124
# Velocity P-wave (km/s) = 4.85601 7.26391 6.17840
#
# Compressibility (1/GPa) = 0.04897414
#
# Stress axis : x y z
#
# Youngs Moduli (GPa) = 30.12351 90.31929 140.53308
#
# Poissons Ratio (x) = -0.51065 0.50692
# Poissons Ratio (y) = -0.17031 0.45697
# Poissons Ratio (z) = 0.10866 0.29369
#
# Static dielectric constant tensor:
#      x y z
#    x 2.106720 0.002140 0.011620 
#    y 0.002140 1.907180 0.059060 
#    z 0.011620 0.059060 1.981570 
# 
# From -- ./inp_files/190493.got.cif
#   From: 2010.05.17/outbox.cif.g08.bks.cpg/sg2_96_cif.got.tgz:190493.got - 2010.06.03 11:33:40.
