data_PCOD9017558
_publ_section_title
;
Structure prediction by ZEFSAII (Michael W. Deem and Ramdas Pophale) SiO2 
 PCOD9017558
Probable space group: P -1
;
_chemical_formula_sum "Si O2"
_cell_formula_units_Z 16
_cell_length_a 12.234161
_cell_length_b 14.352279
_cell_length_c 12.582735
_cell_angle_alpha 130.777130
_cell_angle_beta 144.714585
_cell_angle_gamma 30.128585
_cell_volume 629.855606
_symmetry_space_group_name_H-M "P -1"
_symmetry_group_IT_number 2
_symmetry_cell_setting 'triclinic'
loop_
_space_group_symop_operation_xyz
x,y,z
-x,-y,-z
loop_
_atom_site_type_symbol
_atom_site_label
_atom_site_fract_x
_atom_site_fract_y
_atom_site_fract_z
Si Si1 0.866565 0.258334 0.541986
Si Si2 0.090751 0.314582 0.949839
Si Si3 0.611457 0.637308 0.289100
Si Si4 0.015586 0.729950 0.580265
Si Si5 0.939842 0.241360 0.980805
Si Si6 0.785292 0.130376 0.028154
Si Si7 0.593280 0.849265 0.600456
Si Si8 0.409165 0.824228 0.642811
O O1 0.824058 0.347850 0.464225
O O2 0.609484 0.305421 0.425947
O O3 0.094199 0.036770 0.528793
O O4 0.013732 0.273685 0.755896
O O5 0.936384 0.327604 0.938569
O O6 0.427462 0.166356 0.138605
O O7 0.000000 0.500000 0.000000
O O8 0.903503 0.431559 0.410969
O O9 0.531712 0.696672 0.146740
O O10 0.552607 0.792107 0.419988
O O11 0.368280 0.658192 0.152423
O O12 0.126268 0.792356 0.781389
O O13 0.673681 0.923416 0.434109
O O14 0.106724 0.228932 0.199216
O O15 0.149376 0.020148 0.959623
O O16 0.000000 0.000000 0.000000
O O17 0.570865 0.761949 0.613454
#
# Coordination Sequence:
#
# PCOD9017558 Si02
#       8
#     2   2   2   2   2   2   2   2
#     4  10  22  38  63  90 124 168 212 257 317 372
#     4  11  24  38  61  95 134 166 209 254 316 380
#     4  11  23  43  69  93 133 166 220 272 323 380
#     4  11  23  41  68  99 127 167 221 272 317 386
#     4  10  23  42  67  92 132 179 209 263 327 386
#     4  10  21  45  70  89 126 175 213 267 336 382
#     4  10  21  43  64  95 133 171 214 264 326 378
#     4   9  21  39  61  87 127 171 210 253 312 385
#
# _framework density 25.402647000000002
#
# number of rings (size 3 to 8) (size 9 to 14) (size 15 to 20)
#    0.000    1.750    2.500    1.500    8.750    1.000 
#    2.250    0.625    0.000    0.000    0.000    0.000 
#    0.000    0.000    0.000    0.000    0.000    0.000 
#
# Total GULP energy -89609.851600 kJ/mol
# GULP energy per Si atom -5600.615725 kJ/mol
# Density = 2.534483 g / cm^3
# Si number density = 25.402647 Si / 1000 Ang^3
#
#
#
# Elastic Constant Matrix: (Units=GPa)
#
#
# Indices 1 2 3 4 5 6 
#
# 1 112.5651 32.7296 45.3041 4.7959 3.3588 34.8573
# 2 32.7296 92.3375 -9.2196 -9.6646 7.1327 22.5049
# 3 45.3041 -9.2196 109.4579 4.2843 -14.9404 3.6632
# 4 4.7959 -9.6646 4.2843 40.0235 4.7916 7.9201
# 5 3.3588 7.1327 -14.9404 4.7916 36.6685 0.5250
# 6 34.8573 22.5049 3.6632 7.9201 0.5250 30.1720
#
#
#
# Elastic Compliance Matrix: (Units=1/GPa)
#
#
# Indices 1 2 3 4 5 6 
#
# 1 0.018951 -0.002005 -0.008087 0.002636 -0.004699 -0.020027
# 2 -0.002005 0.015222 0.001869 0.006181 -0.002668 -0.010841
# 3 -0.008087 0.001869 0.013310 -0.002059 0.005972 0.006769
# 4 0.002636 0.006181 -0.002059 0.030109 -0.005999 -0.015205
# 5 -0.004699 -0.002668 0.005972 -0.005999 0.031328 0.007723
# 6 -0.020027 -0.010841 0.006769 -0.015205 0.007723 0.067401
#
#
# Mechanical properties :
#
#
# Convention : Reuss Voigt Hill
#
# Bulk Modulus (GPa) = 32.22000 50.22098 41.22049
# Shear Modulus (GPa) = 24.61695 37.74256 31.17975
#
# Velocity S-wave (km/s) = 3.11637 3.85875 3.50726
# Velocity P-wave (km/s) = 5.06559 6.29811 5.71517
#
# Compressibility (1/GPa) = 0.03103662
#
# Stress axis : x y z
#
# Youngs Moduli (GPa) = 52.76826 65.69340 75.13346
#
# Poissons Ratio (x) = 0.13170 0.60759
# Poissons Ratio (y) = 0.10579 -0.14039
# Poissons Ratio (z) = 0.42673 -0.12275
#
# Static dielectric constant tensor:
#      x y z
#    x 2.066190 -0.017180 0.059200 
#    y -0.017180 2.073010 -0.060640 
#    z 0.059200 -0.060640 1.980070 
# 
# From -- ./inp_files/534472.got.cif
#   From: 2010.05.17/outbox.cif.g08.bks.cpg/sg2_268_cif.got.tgz:534472.got - 2010.06.03 11:33:40.
