data_PCOD9017930
_publ_section_title
;
Structure prediction by ZEFSAII (Michael W. Deem and Ramdas Pophale) SiO2 
 PCOD9017930
Probable space group: P -1
;
_chemical_formula_sum "Si O2"
_cell_formula_units_Z 16
_cell_length_a 14.571368
_cell_length_b 11.432551
_cell_length_c 9.006382
_cell_angle_alpha 73.727921
_cell_angle_beta 85.791835
_cell_angle_gamma 32.252194
_cell_volume 728.344722
_symmetry_space_group_name_H-M "P -1"
_symmetry_group_IT_number 2
_symmetry_cell_setting 'triclinic'
loop_
_space_group_symop_operation_xyz
x,y,z
-x,-y,-z
loop_
_atom_site_type_symbol
_atom_site_label
_atom_site_fract_x
_atom_site_fract_y
_atom_site_fract_z
Si Si1 0.974180 0.242562 0.988375
Si Si2 0.456260 0.160438 0.784271
Si Si3 0.889974 0.119801 0.239050
Si Si4 0.090015 0.288958 0.473102
Si Si5 0.168497 0.646335 0.548185
Si Si6 0.140112 0.249660 0.149246
Si Si7 0.586159 0.753550 0.909175
Si Si8 0.713119 0.089785 0.178008
O O1 0.775384 0.526184 0.880162
O O2 0.932247 0.154798 0.080347
O O3 0.119796 0.100299 0.892355
O O4 0.065503 0.202627 0.134471
O O5 0.369432 0.359934 0.615360
O O6 0.662396 0.959418 0.866802
O O7 0.466449 0.008115 0.786255
O O8 0.360003 0.280415 0.913361
O O9 0.843432 0.256825 0.337743
O O10 0.726186 0.212700 0.193028
O O11 0.069984 0.836909 0.363911
O O12 0.157805 0.255812 0.318187
O O13 0.000000 0.500000 0.500000
O O14 0.946442 0.346702 0.432274
O O15 0.237280 0.054760 0.639949
O O16 0.000000 0.500000 0.000000
O O17 0.470360 0.761150 0.914724
#
# Coordination Sequence:
#
# PCOD9017930 Si02
#       8
#     2   2   2   2   2   2   2   2
#     4  12  22  44  71 100 132 182 226 273 339 404
#     4  11  22  40  68 102 133 171 227 279 333 411
#     4  10  22  42  70  91 136 180 229 272 329 398
#     4  11  23  41  66  97 136 171 218 279 339 396
#     4  10  21  43  67  94 132 181 220 277 336 392
#     4  12  23  41  70 100 133 178 221 270 344 408
#     4  11  23  39  68 103 136 169 227 281 336 403
#     4  11  25  43  66 100 136 180 224 278 336 388
#
# _framework density 21.967621000000001
#
# number of rings (size 3 to 8) (size 9 to 14) (size 15 to 20)
#    0.000    1.000    5.000    1.875    1.750    0.500 
#    4.500    1.875    2.750    0.000    0.000    0.000 
#    0.000    0.000    0.000    0.000    0.000    0.000 
#
# Total GULP energy -89349.299690 kJ/mol
# GULP energy per Si atom -5584.331231 kJ/mol
# Density = 2.191762 g / cm^3
# Si number density = 21.967621 Si / 1000 Ang^3
#
#
#
# Elastic Constant Matrix: (Units=GPa)
#
#
# Indices 1 2 3 4 5 6 
#
# 1 142.6734 27.0654 9.6882 -5.2182 10.1357 13.4442
# 2 27.0654 69.5955 18.6739 -10.7759 0.8227 0.7808
# 3 9.6882 18.6739 77.7810 -3.1628 -12.6722 11.4928
# 4 -5.2182 -10.7759 -3.1628 39.2283 10.7045 0.1164
# 5 10.1357 0.8227 -12.6722 10.7045 35.0727 -1.6104
# 6 13.4442 0.7808 11.4928 0.1164 -1.6104 37.5766
#
#
#
# Elastic Compliance Matrix: (Units=1/GPa)
#
#
# Indices 1 2 3 4 5 6 
#
# 1 0.008076 -0.002825 -0.000325 0.001055 -0.002838 -0.002856
# 2 -0.002825 0.017363 -0.004305 0.004724 -0.002504 0.001845
# 3 -0.000325 -0.004305 0.015487 -0.001627 0.006091 -0.004265
# 4 0.001055 0.004724 -0.001627 0.029541 -0.010043 -0.000500
# 5 -0.002838 -0.002504 0.006091 -0.010043 0.034690 0.000722
# 6 -0.002856 0.001845 -0.004265 -0.000500 0.000722 0.028933
#
#
# Mechanical properties :
#
#
# Convention : Reuss Voigt Hill
#
# Bulk Modulus (GPa) = 38.43741 44.54501 41.49121
# Shear Modulus (GPa) = 31.71140 38.01702 34.86421
#
# Velocity S-wave (km/s) = 3.80353 4.16455 3.98813
# Velocity P-wave (km/s) = 6.06831 6.59138 6.33525
#
# Compressibility (1/GPa) = 0.02601632
#
# Stress axis : x y z
#
# Youngs Moduli (GPa) = 123.81867 57.59456 64.56976
#
# Poissons Ratio (x) = 0.16268 0.02101
# Poissons Ratio (y) = 0.34973 0.27798
# Poissons Ratio (z) = 0.04028 0.24795
#
# Static dielectric constant tensor:
#      x y z
#    x 1.853870 0.020270 0.008360 
#    y 0.020270 1.872340 -0.012790 
#    z 0.008360 -0.012790 1.823440 
# 
# From -- ./inp_files/307033.got.cif
#   From: 2010.05.17/outbox.cif.g08.bks.cpg/sg2_154_cif.got.tgz:307033.got - 2010.06.03 11:33:40.
