data_PCOD9017449
_publ_section_title
;
Structure prediction by ZEFSAII (Michael W. Deem and Ramdas Pophale) SiO2 
 PCOD9017449
Probable space group: P -1
;
_chemical_formula_sum "Si O2"
_cell_formula_units_Z 14
_cell_length_a 7.867151
_cell_length_b 10.920567
_cell_length_c 12.126664
_cell_angle_alpha 144.740174
_cell_angle_beta 81.723249
_cell_angle_gamma 92.060359
_cell_volume 589.076607
_symmetry_space_group_name_H-M "P -1"
_symmetry_group_IT_number 2
_symmetry_cell_setting 'triclinic'
loop_
_space_group_symop_operation_xyz
x,y,z
-x,-y,-z
loop_
_atom_site_type_symbol
_atom_site_label
_atom_site_fract_x
_atom_site_fract_y
_atom_site_fract_z
Si Si1 0.658477 0.363386 0.324134
Si Si2 0.943977 0.634508 0.492940
Si Si3 0.062820 0.973177 0.849249
Si Si4 0.270472 0.680036 0.347290
Si Si5 0.571051 0.273435 0.036608
Si Si6 0.804496 0.450560 0.977953
Si Si7 0.675232 0.889572 0.217753
O O1 0.500000 0.500000 0.500000
O O2 0.780681 0.531729 0.391045
O O3 0.769207 0.209795 0.287859
O O4 0.607992 0.223977 0.124320
O O5 0.000000 0.500000 0.500000
O O6 0.920521 0.877350 0.718741
O O7 0.099746 0.622487 0.383562
O O8 0.150111 0.148142 0.903404
O O9 0.000000 0.000000 0.000000
O O10 0.425159 0.485860 0.208233
O O11 0.225594 0.691174 0.230486
O O12 0.316423 0.901390 0.555846
O O13 0.737872 0.338978 0.008381
O O14 0.486130 0.105240 0.846366
O O15 0.683524 0.678930 0.137227
O O16 0.000000 0.500000 0.000000
#
# Coordination Sequence:
#
# PCOD9017449 Si02
#       7
#     2   2   2   2   2   2   2
#     4  11  23  40  63  93 130 166 211 262 317 381
#     4   9  19  36  61  84 120 169 203 247 315 376
#     4  10  23  38  63  93 123 170 208 259 321 370
#     4  10  21  43  63  90 126 165 211 258 321 369
#     4  11  24  40  66  94 125 167 212 261 316 375
#     4  11  25  41  66  92 124 168 213 261 316 375
#     4  10  23  42  64  91 128 163 210 263 314 381
#
# _framework density 23.766007999999999
#
# number of rings (size 3 to 8) (size 9 to 14) (size 15 to 20)
#    0.000    1.714    0.000    5.143   12.000    3.429 
#    2.571    0.000    0.000    0.000    0.000    0.000 
#    0.000    0.000    0.000    0.000    0.000    0.000 
#
# Total GULP energy -78306.419985 kJ/mol
# GULP energy per Si atom -5593.315713 kJ/mol
# Density = 2.371192 g / cm^3
# Si number density = 23.766008 Si / 1000 Ang^3
#
#
#
# Elastic Constant Matrix: (Units=GPa)
#
#
# Indices 1 2 3 4 5 6 
#
# 1 96.8514 5.8758 42.8901 2.0786 15.7725 16.6022
# 2 5.8758 65.6185 22.2201 -4.8736 1.5500 13.8919
# 3 42.8901 22.2201 140.2618 -5.5237 20.8154 5.0619
# 4 2.0786 -4.8736 -5.5237 33.5810 4.5275 4.0772
# 5 15.7725 1.5500 20.8154 4.5275 49.3191 -4.2160
# 6 16.6022 13.8919 5.0619 4.0772 -4.2160 40.4092
#
#
#
# Elastic Compliance Matrix: (Units=1/GPa)
#
#
# Indices 1 2 3 4 5 6 
#
# 1 0.013380 0.001331 -0.003606 -0.000076 -0.003291 -0.005839
# 2 0.001331 0.017695 -0.002758 0.002927 -0.000655 -0.006648
# 3 -0.003606 -0.002758 0.009097 0.001576 -0.002671 0.000852
# 4 -0.000076 0.002927 0.001576 0.031593 -0.004042 -0.004782
# 5 -0.003291 -0.000655 -0.002671 -0.004042 0.023253 0.004746
# 6 -0.005839 -0.006648 0.000852 -0.004782 0.004746 0.030302
#
#
# Mechanical properties :
#
#
# Convention : Reuss Voigt Hill
#
# Bulk Modulus (GPa) = 33.21612 49.41153 41.31383
# Shear Modulus (GPa) = 34.38309 40.11157 37.24733
#
# Velocity S-wave (km/s) = 3.80772 4.11271 3.96315
# Velocity P-wave (km/s) = 5.77393 6.58699 6.19382
#
# Compressibility (1/GPa) = 0.03010586
#
# Stress axis : x y z
#
# Youngs Moduli (GPa) = 74.74006 56.51427 109.92833
#
# Poissons Ratio (x) = -0.07523 0.39641
# Poissons Ratio (y) = -0.09950 0.30316
# Poissons Ratio (z) = 0.26952 0.15586
#
# Static dielectric constant tensor:
#      x y z
#    x 1.942130 0.019580 0.021380 
#    y 0.019580 1.897880 0.058100 
#    z 0.021380 0.058100 1.976800 
# 
# From -- ./inp_files/391597.got.cif
#   From: 2010.05.17/outbox.cif.g08.bks.cpg/sg2_196_cif.got.tgz:391597.got - 2010.06.03 11:33:40.
