data_PCOD9017663
_publ_section_title
;
Structure prediction by ZEFSAII (Michael W. Deem and Ramdas Pophale) SiO2 
 PCOD9017663
Probable space group: P -1
;
_chemical_formula_sum "Si O2"
_cell_formula_units_Z 12
_cell_length_a 13.627708
_cell_length_b 13.606991
_cell_length_c 11.554413
_cell_angle_alpha 41.604102
_cell_angle_beta 148.359644
_cell_angle_gamma 149.242998
_cell_volume 573.747497
_symmetry_space_group_name_H-M "P -1"
_symmetry_group_IT_number 2
_symmetry_cell_setting 'triclinic'
loop_
_space_group_symop_operation_xyz
x,y,z
-x,-y,-z
loop_
_atom_site_type_symbol
_atom_site_label
_atom_site_fract_x
_atom_site_fract_y
_atom_site_fract_z
Si Si1 0.893263 0.724531 0.905979
Si Si2 0.669105 0.493567 0.467571
Si Si3 0.113137 0.086327 0.664187
Si Si4 0.267033 0.742325 0.110923
Si Si5 0.620417 0.173321 0.112275
Si Si6 0.985573 0.467542 0.649570
O O1 0.603297 0.582560 0.744204
O O2 0.989337 0.692119 0.147087
O O3 0.975333 0.928603 0.766723
O O4 0.026152 0.686945 0.977403
O O5 0.853730 0.723979 0.447928
O O6 0.696034 0.407919 0.684654
O O7 0.744783 0.419484 0.506148
O O8 0.381484 0.152771 0.875089
O O9 0.000000 0.000000 0.500000
O O10 0.501762 0.952331 0.209708
O O11 0.258825 0.765793 0.946215
O O12 0.793758 0.333843 0.239547
O O13 0.000000 0.500000 0.500000
#
# Coordination Sequence:
#
# PCOD9017663 Si02
#       6
#     2   2   2   2   2   2
#     4  10  23  44  63  99 134 165 220 268 328 391
#     4  11  24  42  69  96 134 172 213 271 334 392
#     4  11  24  39  67 106 137 165 210 266 342 405
#     4   9  22  39  67 101 129 173 206 270 344 394
#     4  10  21  43  65  95 143 168 216 271 324 392
#     4  11  26  46  67  92 130 183 230 266 314 378
#
# _framework density 20.915125
#
# number of rings (size 3 to 8) (size 9 to 14) (size 15 to 20)
#    0.000    1.667    1.667    1.000   11.667    3.333 
#    0.000    8.333    0.000    0.000    0.000    0.000 
#    0.000    0.000    0.000    0.000    0.000    0.000 
#
# Total GULP energy -67067.490961 kJ/mol
# GULP energy per Si atom -5588.957580 kJ/mol
# Density = 2.086752 g / cm^3
# Si number density = 20.915125 Si / 1000 Ang^3
#
#
#
# Elastic Constant Matrix: (Units=GPa)
#
#
# Indices 1 2 3 4 5 6 
#
# 1 79.7670 30.8778 59.3278 9.3358 -21.1540 21.4344
# 2 30.8778 108.1826 59.5002 -30.8791 -5.9659 14.1009
# 3 59.3278 59.5002 120.7174 -20.3396 -10.5569 12.7905
# 4 9.3358 -30.8791 -20.3396 50.4680 2.9803 4.4683
# 5 -21.1540 -5.9659 -10.5569 2.9803 31.2665 -2.2270
# 6 21.4344 14.1009 12.7905 4.4683 -2.2270 24.7482
#
#
#
# Elastic Compliance Matrix: (Units=1/GPa)
#
#
# Indices 1 2 3 4 5 6 
#
# 1 0.036664 -0.002540 -0.015573 -0.014150 0.019131 -0.017983
# 2 -0.002540 0.015685 -0.004461 0.008906 -0.001520 -0.006177
# 3 -0.015573 -0.004461 0.018419 0.007490 -0.005550 0.004658
# 4 -0.014150 0.008906 0.007490 0.031689 -0.008593 -0.003184
# 5 0.019131 -0.001520 -0.005550 -0.008593 0.043054 -0.007409
# 6 -0.017983 -0.006177 0.004658 -0.003184 -0.007409 0.057002
#
#
# Mechanical properties :
#
#
# Convention : Reuss Voigt Hill
#
# Bulk Modulus (GPa) = 39.02996 67.56429 53.29713
# Shear Modulus (GPa) = 19.51597 31.89396 25.70496
#
# Velocity S-wave (km/s) = 3.05799 3.90926 3.50953
# Velocity P-wave (km/s) = 5.58301 7.26296 6.47768
#
# Compressibility (1/GPa) = 0.02562134
#
# Stress axis : x y z
#
# Youngs Moduli (GPa) = 27.27470 63.75416 54.29170
#
# Poissons Ratio (x) = 0.16191 0.84548
# Poissons Ratio (y) = 0.06927 0.24219
# Poissons Ratio (z) = 0.42475 0.28440
#
# Static dielectric constant tensor:
#      x y z
#    x 1.725420 0.012990 0.039980 
#    y 0.012990 1.840790 -0.020960 
#    z 0.039980 -0.020960 1.771420 
# 
# From -- ./inp_files/301119.got.cif
#   From: 2010.05.17/outbox.cif.g08.bks.cpg/sg2_151_cif.got.tgz:301119.got - 2010.06.03 11:33:40.
