data_PCOD9017268
_publ_section_title
;
Structure prediction by ZEFSAII (Michael W. Deem and Ramdas Pophale) SiO2 
 PCOD9017268
Probable space group: P -1
;
_chemical_formula_sum "Si O2"
_cell_formula_units_Z 16
_cell_length_a 10.447461
_cell_length_b 8.573563
_cell_length_c 14.172273
_cell_angle_alpha 137.814939
_cell_angle_beta 53.753059
_cell_angle_gamma 104.527793
_cell_volume 645.082159
_symmetry_space_group_name_H-M "P -1"
_symmetry_group_IT_number 2
_symmetry_cell_setting 'triclinic'
loop_
_space_group_symop_operation_xyz
x,y,z
-x,-y,-z
loop_
_atom_site_type_symbol
_atom_site_label
_atom_site_fract_x
_atom_site_fract_y
_atom_site_fract_z
Si Si1 0.583490 0.633629 0.163314
Si Si2 0.845173 0.758902 0.447556
Si Si3 0.610689 0.172444 0.848126
Si Si4 0.779446 0.322578 0.201001
Si Si5 0.261675 0.851060 0.495341
Si Si6 0.107965 0.453701 0.337106
Si Si7 0.853311 0.905440 0.144820
Si Si8 0.625045 0.026041 0.036872
O O1 0.438855 0.697123 0.172681
O O2 0.464875 0.779998 0.365914
O O3 0.733679 0.738159 0.126611
O O4 0.650255 0.337181 0.986291
O O5 0.738516 0.589600 0.384765
O O6 0.016957 0.569990 0.331031
O O7 0.765748 0.926866 0.647916
O O8 0.839638 0.939735 0.443877
O O9 0.448591 0.094997 0.902384
O O10 0.807355 0.114770 0.176827
O O11 0.952974 0.263185 0.038734
O O12 0.636822 0.283501 0.179215
O O13 0.238710 0.591777 0.364525
O O14 0.182491 0.951698 0.675828
O O15 0.191492 0.162576 0.153301
O O16 0.000000 0.500000 0.500000
O O17 0.500000 0.000000 0.000000
#
# Coordination Sequence:
#
# PCOD9017268 Si02
#       8
#     2   2   2   2   2   2   2   2
#     4  10  21  42  72  99 143 190 240 294 358 423
#     4  11  26  43  71 108 147 188 241 300 365 426
#     4  10  22  43  66 104 136 187 237 292 354 426
#     4  11  25  45  69 106 144 192 237 297 372 429
#     4  11  24  43  69 112 145 192 242 297 363 436
#     4  12  24  46  73 105 146 190 243 301 361 431
#     4  11  23  44  75 102 146 192 240 300 366 432
#     4  12  25  45  73 101 140 188 242 295 358 432
#
# _framework density 24.803042999999999
#
# number of rings (size 3 to 8) (size 9 to 14) (size 15 to 20)
#    0.000    1.000    2.500    4.500    0.000    3.000 
#    4.500    0.000    0.000    0.000    0.000    0.000 
#    0.000    0.000    0.000    0.000    0.000    0.000 
#
# Total GULP energy -89445.546926 kJ/mol
# GULP energy per Si atom -5590.346683 kJ/mol
# Density = 2.474659 g / cm^3
# Si number density = 24.803043 Si / 1000 Ang^3
#
#
#
# Elastic Constant Matrix: (Units=GPa)
#
#
# Indices 1 2 3 4 5 6 
#
# 1 83.3320 33.3219 30.3631 2.5180 23.5615 8.1845
# 2 33.3219 86.1821 34.5778 -17.6727 3.5877 23.6233
# 3 30.3631 34.5778 95.8008 -10.0534 15.6261 -3.8490
# 4 2.5180 -17.6727 -10.0534 48.0096 6.7894 2.8209
# 5 23.5615 3.5877 15.6261 6.7894 36.0216 6.0444
# 6 8.1845 23.6233 -3.8490 2.8209 6.0444 46.3394
#
#
#
# Elastic Compliance Matrix: (Units=1/GPa)
#
#
# Indices 1 2 3 4 5 6 
#
# 1 0.018212 -0.006830 -0.001836 -0.002501 -0.010233 0.001600
# 2 -0.006830 0.020800 -0.006006 0.006612 0.005606 -0.011030
# 3 -0.001836 -0.006006 0.014461 0.001400 -0.005617 0.005235
# 4 -0.002501 0.006612 0.001400 0.024420 -0.003590 -0.003831
# 5 -0.010233 0.005606 -0.005617 -0.003590 0.038060 -0.006263
# 6 0.001600 -0.011030 0.005235 -0.003831 -0.006263 0.028405
#
#
# Mechanical properties :
#
#
# Convention : Reuss Voigt Hill
#
# Bulk Modulus (GPa) = 41.44483 51.31561 46.38022
# Shear Modulus (GPa) = 27.51069 37.21092 32.36080
#
# Velocity S-wave (km/s) = 3.33403 3.87752 3.61600
# Velocity P-wave (km/s) = 5.61844 6.38600 6.01448
#
# Compressibility (1/GPa) = 0.02412846
#
# Stress axis : x y z
#
# Youngs Moduli (GPa) = 54.90857 48.07669 69.14934
#
# Poissons Ratio (x) = 0.32839 0.12695
# Poissons Ratio (y) = 0.37505 0.41533
# Poissons Ratio (z) = 0.10080 0.28876
#
# Static dielectric constant tensor:
#      x y z
#    x 2.007290 -0.102230 -0.024410 
#    y -0.102230 2.271030 0.058430 
#    z -0.024410 0.058430 2.043540 
# 
# From -- ./inp_files/516350.got.cif
#   From: 2010.05.17/outbox.cif.g08.bks.cpg/sg2_259_cif.got.tgz:516350.got - 2010.06.03 11:33:40.
