data_PCOD9017300
_publ_section_title
;
Structure prediction by ZEFSAII (Michael W. Deem and Ramdas Pophale) SiO2 
 PCOD9017300
Probable space group: P -1
;
_chemical_formula_sum "Si O2"
_cell_formula_units_Z 13
_cell_length_a 5.337790
_cell_length_b 11.707233
_cell_length_c 17.610192
_cell_angle_alpha 151.243044
_cell_angle_beta 74.058560
_cell_angle_gamma 107.323116
_cell_volume 505.195920
_symmetry_space_group_name_H-M "P -1"
_symmetry_group_IT_number 2
_symmetry_cell_setting 'triclinic'
loop_
_space_group_symop_operation_xyz
x,y,z
-x,-y,-z
loop_
_atom_site_type_symbol
_atom_site_label
_atom_site_fract_x
_atom_site_fract_y
_atom_site_fract_z
Si Si1 0.460132 0.326915 0.248717
Si Si2 0.270879 0.653115 0.083711
Si Si3 0.920793 0.642035 0.356469
Si Si4 0.785441 0.182324 0.431323
Si Si5 0.000000 0.000000 0.000000
Si Si6 0.639150 0.017546 0.180619
Si Si7 0.323920 0.899205 0.375787
O O1 0.371601 0.587184 0.418718
O O2 0.510395 0.221248 0.264903
O O3 0.755531 0.380214 0.217186
O O4 0.252818 0.166813 0.121391
O O5 0.216377 0.815600 0.254181
O O6 0.400617 0.814343 0.099542
O O7 0.500000 0.500000 0.000000
O O8 0.000000 0.500000 0.000000
O O9 0.955793 0.716051 0.485120
O O10 0.206569 0.690893 0.321543
O O11 0.774140 0.846166 0.447680
O O12 0.776654 0.094648 0.294643
O O13 0.629794 0.971644 0.373197
O O14 0.149781 0.053517 0.937180
#
# Coordination Sequence:
#
# PCOD9017300 Si02
#       7
#     2   2   2   2   1   2   2
#     4  11  25  44  68 104 139 193 238 305 368 444
#     4  11  28  47  74 108 147 204 248 308 376 450
#     4  10  21  42  73 107 141 185 241 303 372 436
#     4  10  22  43  74 104 137 189 240 307 366 440
#     4  12  28  44  68 100 148 198 236 302 370 442
#     4  11  27  47  71 102 149 187 252 302 371 448
#     4   9  22  41  69 106 146 182 245 303 365 441
#
# _framework density 25.732590999999999
#
# number of rings (size 3 to 8) (size 9 to 14) (size 15 to 20)
#    0.000    1.538    0.000    2.308    8.615    7.385 
#    0.000    0.000    0.000    0.000    0.000    0.000 
#    0.000    0.000    0.000    0.000    0.000    0.000 
#
# Total GULP energy -72509.933099 kJ/mol
# GULP energy per Si atom -5577.687161 kJ/mol
# Density = 2.567402 g / cm^3
# Si number density = 25.732591 Si / 1000 Ang^3
#
#
#
# Elastic Constant Matrix: (Units=GPa)
#
#
# Indices 1 2 3 4 5 6 
#
# 1 109.4435 63.7937 57.6785 -0.4424 35.4039 10.3676
# 2 63.7937 219.4676 75.3096 7.7119 29.5771 24.5146
# 3 57.6785 75.3096 98.6373 0.6518 37.9756 35.3660
# 4 -0.4424 7.7119 0.6518 52.1955 2.8003 0.3285
# 5 35.4039 29.5771 37.9756 2.8003 58.4101 19.9178
# 6 10.3676 24.5146 35.3660 0.3285 19.9178 34.9313
#
#
#
# Elastic Compliance Matrix: (Units=1/GPa)
#
#
# Indices 1 2 3 4 5 6 
#
# 1 0.015975 -0.001824 -0.008799 0.000787 -0.006121 0.008931
# 2 -0.001824 0.006432 -0.003953 -0.000945 0.000560 -0.000281
# 3 -0.008799 -0.003953 0.026627 0.000477 -0.003279 -0.019707
# 4 0.000787 -0.000945 0.000477 0.019372 -0.001436 0.000583
# 5 -0.006121 0.000560 -0.003279 -0.001436 0.026225 -0.010196
# 6 0.008931 -0.000281 -0.019707 0.000583 -0.010196 0.051935
#
#
# Mechanical properties :
#
#
# Convention : Reuss Voigt Hill
#
# Bulk Modulus (GPa) = 50.29731 91.23467 70.76599
# Shear Modulus (GPa) = 27.42036 44.49181 35.95609
#
# Velocity S-wave (km/s) = 3.26788 4.16264 3.74210
# Velocity P-wave (km/s) = 5.81612 7.65737 6.79936
#
# Compressibility (1/GPa) = 0.01988178
#
# Stress axis : x y z
#
# Youngs Moduli (GPa) = 62.59674 155.46484 37.55632
#
# Poissons Ratio (x) = 0.28364 0.33046
# Poissons Ratio (y) = 0.11421 0.14845
# Poissons Ratio (z) = 0.55079 0.61451
#
# Static dielectric constant tensor:
#      x y z
#    x 1.933610 0.104650 0.022020 
#    y 0.104650 1.949330 -0.014610 
#    z 0.022020 -0.014610 1.984980 
# 
# From -- ./inp_files/63094.got.cif
#   From: 2010.05.17/outbox.cif.g08.bks.cpg/sg2_32_cif.got.tgz:63094.got - 2010.06.03 11:33:40.
