data_PCOD9017389
_publ_section_title
;
Structure prediction by ZEFSAII (Michael W. Deem and Ramdas Pophale) SiO2 
 PCOD9017389
Probable space group: P -1
;
_chemical_formula_sum "Si O2"
_cell_formula_units_Z 16
_cell_length_a 6.976118
_cell_length_b 19.582676
_cell_length_c 12.031084
_cell_angle_alpha 140.405810
_cell_angle_beta 92.331097
_cell_angle_gamma 59.805945
_cell_volume 703.372643
_symmetry_space_group_name_H-M "P -1"
_symmetry_group_IT_number 2
_symmetry_cell_setting 'triclinic'
loop_
_space_group_symop_operation_xyz
x,y,z
-x,-y,-z
loop_
_atom_site_type_symbol
_atom_site_label
_atom_site_fract_x
_atom_site_fract_y
_atom_site_fract_z
Si Si1 0.958774 0.542331 0.423645
Si Si2 0.980716 0.157389 0.003010
Si Si3 0.458361 0.796526 0.083286
Si Si4 0.523108 0.367512 0.936248
Si Si5 0.175948 0.153404 0.225894
Si Si6 0.597409 0.940620 0.653456
Si Si7 0.750411 0.435610 0.186822
Si Si8 0.034652 0.659595 0.162571
O O1 0.708781 0.570691 0.402668
O O2 0.000000 0.500000 0.500000
O O3 0.899734 0.690523 0.591326
O O4 0.250731 0.380366 0.172152
O O5 0.784525 0.145990 0.934631
O O6 0.305377 0.013853 0.787687
O O7 0.984298 0.169727 0.151670
O O8 0.865219 0.314013 0.136684
O O9 0.467588 0.919633 0.230308
O O10 0.399637 0.771744 0.172481
O O11 0.232137 0.490770 0.016387
O O12 0.509192 0.466118 0.156415
O O13 0.775210 0.308578 0.790079
O O14 0.188107 0.124370 0.320217
O O15 0.500000 0.000000 0.000000
O O16 0.745456 0.799531 0.394314
O O17 0.971427 0.356799 0.989568
#
# Coordination Sequence:
#
# PCOD9017389 Si02
#       8
#     2   2   2   2   2   2   2   2
#     4  12  21  40  68  93 121 169 214 255 314 380
#     4  10  21  43  60  93 128 164 213 260 310 371
#     4  11  23  40  65  92 126 169 213 250 318 376
#     4   8  19  41  61  91 129 159 214 256 310 374
#     4  10  22  41  61  88 132 158 204 268 310 365
#     4  11  22  41  63  92 132 166 207 265 311 369
#     4   9  18  39  65  90 123 162 208 257 307 371
#     4   9  19  40  67  89 133 163 203 275 308 362
#
# _framework density 22.747544999999999
#
# number of rings (size 3 to 8) (size 9 to 14) (size 15 to 20)
#    0.750    1.250    2.500    1.500    0.000    2.000 
#    6.750    2.500    0.000    0.000    0.000    0.000 
#    0.000    0.000    0.000    0.000    0.000    0.000 
#
# Total GULP energy -89326.297444 kJ/mol
# GULP energy per Si atom -5582.893590 kJ/mol
# Density = 2.269577 g / cm^3
# Si number density = 22.747545 Si / 1000 Ang^3
#
#
#
# Elastic Constant Matrix: (Units=GPa)
#
#
# Indices 1 2 3 4 5 6 
#
# 1 65.9019 13.0000 12.6224 -3.6926 -0.4205 -18.7566
# 2 13.0000 124.2589 9.6914 4.9466 7.1926 -9.9112
# 3 12.6224 9.6914 62.2745 5.6920 2.3940 -3.2149
# 4 -3.6926 4.9466 5.6920 26.3979 -3.2695 2.1465
# 5 -0.4205 7.1926 2.3940 -3.2695 13.9043 0.6602
# 6 -18.7566 -9.9112 -3.2149 2.1465 0.6602 24.3786
#
#
#
# Elastic Compliance Matrix: (Units=1/GPa)
#
#
# Indices 1 2 3 4 5 6 
#
# 1 0.020331 -0.000900 -0.003552 0.002804 0.001662 0.014516
# 2 -0.000900 0.008850 -0.000593 -0.002567 -0.005258 0.003196
# 3 -0.003552 -0.000593 0.017432 -0.004612 -0.003879 -0.000164
# 4 0.002804 -0.002567 -0.004612 0.041536 0.012139 -0.003481
# 5 0.001662 -0.005258 -0.003879 0.012139 0.078430 -0.004563
# 6 0.014516 0.003196 -0.000164 -0.003481 -0.004563 0.053896
#
#
# Mechanical properties :
#
#
# Convention : Reuss Voigt Hill
#
# Bulk Modulus (GPa) = 27.37939 35.89588 31.63763
# Shear Modulus (GPa) = 20.59829 27.41090 24.00459
#
# Velocity S-wave (km/s) = 3.01245 3.47508 3.25200
# Velocity P-wave (km/s) = 4.91550 5.64942 5.29519
#
# Compressibility (1/GPa) = 0.03652383
#
# Stress axis : x y z
#
# Youngs Moduli (GPa) = 49.18562 112.99940 57.36488
#
# Poissons Ratio (x) = 0.10170 0.20374
# Poissons Ratio (y) = 0.04427 0.03402
# Poissons Ratio (z) = 0.17469 0.06701
#
# Static dielectric constant tensor:
#      x y z
#    x 1.934720 -0.015480 -0.045890 
#    y -0.015480 1.841020 -0.016350 
#    z -0.045890 -0.016350 1.807620 
# 
# From -- ./inp_files/403231.got.cif
#   From: 2010.05.17/outbox.cif.g08.bks.cpg/sg2_202_cif.got.tgz:403231.got - 2010.06.03 11:33:40.
