data_PCOD9017644
_publ_section_title
;
Structure prediction by ZEFSAII (Michael W. Deem and Ramdas Pophale) SiO2 
 PCOD9017644
Probable space group: P -1
;
_chemical_formula_sum "Si O2"
_cell_formula_units_Z 16
_cell_length_a 9.756016
_cell_length_b 17.814787
_cell_length_c 7.281875
_cell_angle_alpha 124.528942
_cell_angle_beta 66.785106
_cell_angle_gamma 140.588331
_cell_volume 659.647245
_symmetry_space_group_name_H-M "P -1"
_symmetry_group_IT_number 2
_symmetry_cell_setting 'triclinic'
loop_
_space_group_symop_operation_xyz
x,y,z
-x,-y,-z
loop_
_atom_site_type_symbol
_atom_site_label
_atom_site_fract_x
_atom_site_fract_y
_atom_site_fract_z
Si Si1 0.487166 0.014508 0.747843
Si Si2 0.633379 0.467642 0.869510
Si Si3 0.074318 0.618831 0.007495
Si Si4 0.367467 0.531303 0.560559
Si Si5 0.097781 0.752113 0.486815
Si Si6 0.483506 0.775065 0.812460
Si Si7 0.686356 0.820306 0.373341
Si Si8 0.896742 0.095197 0.591353
O O1 0.719318 0.075932 0.771696
O O2 0.500000 0.000000 0.500000
O O3 0.226117 0.052817 0.600833
O O4 0.443792 0.097656 0.955438
O O5 0.649099 0.459238 0.633880
O O6 0.504592 0.323121 0.811856
O O7 0.500000 0.500000 0.000000
O O8 0.861540 0.577102 0.998283
O O9 0.202295 0.734780 0.249722
O O10 0.220964 0.666307 0.818313
O O11 0.000000 0.500000 0.000000
O O12 0.500000 0.500000 0.500000
O O13 0.494870 0.678711 0.765879
O O14 0.119518 0.397823 0.557126
O O15 0.277474 0.858283 0.688910
O O16 0.037530 0.818433 0.503082
O O17 0.599583 0.817724 0.613896
O O18 0.888735 0.841882 0.329483
#
# Coordination Sequence:
#
# PCOD9017644 Si02
#       8
#     2   2   2   2   2   2   2   2
#     4  10  22  40  68  95 136 183 237 285 352 429
#     4  11  26  45  70 106 142 190 242 293 368 429
#     4  12  24  41  74 104 142 188 239 299 359 419
#     4  11  24  46  73 105 147 186 238 307 361 433
#     4  11  22  43  68 100 139 184 236 290 353 429
#     4  11  23  43  71 102 139 184 243 295 360 420
#     4  10  24  42  67  97 144 183 233 296 360 433
#     4  10  21  43  65  93 141 185 226 285 366 421
#
# _framework density 24.255388
#
# number of rings (size 3 to 8) (size 9 to 14) (size 15 to 20)
#    0.000    1.250    3.750    3.000    1.750    3.500 
#    6.750    3.125    0.000    0.000    0.000    0.000 
#    0.000    0.000    0.000    0.000    0.000    0.000 
#
# Total GULP energy -89289.941276 kJ/mol
# GULP energy per Si atom -5580.621330 kJ/mol
# Density = 2.420018 g / cm^3
# Si number density = 24.255388 Si / 1000 Ang^3
#
#
#
# Elastic Constant Matrix: (Units=GPa)
#
#
# Indices 1 2 3 4 5 6 
#
# 1 87.3124 25.2743 35.5379 -2.1740 -21.8065 4.0056
# 2 25.2743 91.9733 42.0763 17.7496 -8.2212 -11.8598
# 3 35.5379 42.0763 119.4426 14.9025 -19.3547 -2.8327
# 4 -2.1740 17.7496 14.9025 35.1119 -10.8000 -7.0102
# 5 -21.8065 -8.2212 -19.3547 -10.8000 38.5254 2.1393
# 6 4.0056 -11.8598 -2.8327 -7.0102 2.1393 47.2886
#
#
#
# Elastic Compliance Matrix: (Units=1/GPa)
#
#
# Indices 1 2 3 4 5 6 
#
# 1 0.016199 -0.003845 -0.002892 0.006500 0.008826 -0.001945
# 2 -0.003845 0.015029 -0.003725 -0.006522 -0.002837 0.003033
# 3 -0.002892 -0.003725 0.011248 -0.002373 0.002580 -0.000484
# 4 0.006500 -0.006522 -0.002373 0.037222 0.011382 0.002675
# 5 0.008826 -0.002837 0.002580 0.011382 0.034900 -0.001196
# 6 -0.001945 0.003033 -0.000484 0.002675 -0.001196 0.022494
#
#
# Mechanical properties :
#
#
# Convention : Reuss Voigt Hill
#
# Bulk Modulus (GPa) = 46.39825 56.05614 51.22720
# Shear Modulus (GPa) = 30.26660 37.24118 33.75389
#
# Velocity S-wave (km/s) = 3.53630 3.92264 3.73447
# Velocity P-wave (km/s) = 5.98702 6.60887 6.30561
#
# Compressibility (1/GPa) = 0.02155254
#
# Stress axis : x y z
#
# Youngs Moduli (GPa) = 61.73381 66.53656 88.90832
#
# Poissons Ratio (x) = 0.25581 0.25715
# Poissons Ratio (y) = 0.23734 0.33114
# Poissons Ratio (z) = 0.17855 0.24782
#
# Static dielectric constant tensor:
#      x y z
#    x 1.975640 -0.057540 -0.049920 
#    y -0.057540 2.153080 0.214080 
#    z -0.049920 0.214080 2.498980 
# 
# From -- ./inp_files/222417.got.cif
#   From: 2010.05.17/outbox.cif.g08.bks.cpg/sg2_112_cif.got.tgz:222417.got - 2010.06.03 11:33:40.
