data_PCOD9017948
_publ_section_title
;
Structure prediction by ZEFSAII (Michael W. Deem and Ramdas Pophale) SiO2 
 PCOD9017948
Probable space group: P -1
;
_chemical_formula_sum "Si O2"
_cell_formula_units_Z 16
_cell_length_a 18.759941
_cell_length_b 6.691836
_cell_length_c 9.437724
_cell_angle_alpha 57.225387
_cell_angle_beta 61.906418
_cell_angle_gamma 55.753340
_cell_volume 799.557841
_symmetry_space_group_name_H-M "P -1"
_symmetry_group_IT_number 2
_symmetry_cell_setting 'triclinic'
loop_
_space_group_symop_operation_xyz
x,y,z
-x,-y,-z
loop_
_atom_site_type_symbol
_atom_site_label
_atom_site_fract_x
_atom_site_fract_y
_atom_site_fract_z
Si Si1 0.219250 0.640082 0.234830
Si Si2 0.143332 0.887404 0.904591
Si Si3 0.917061 0.923453 0.599725
Si Si4 0.502294 0.883113 0.387844
Si Si5 0.203840 0.089740 0.517166
Si Si6 0.032306 0.595510 0.070737
Si Si7 0.383038 0.631071 0.465591
Si Si8 0.574649 0.546718 0.827840
O O1 0.160459 0.857779 0.319495
O O2 0.209888 0.367386 0.383259
O O3 0.323124 0.581593 0.169526
O O4 0.182144 0.760440 0.068817
O O5 0.204468 0.986318 0.715849
O O6 0.114034 0.675984 0.939123
O O7 0.052570 0.147033 0.903845
O O8 0.883373 0.906450 0.480140
O O9 0.941644 0.638829 0.752419
O O10 0.000000 0.000000 0.500000
O O11 0.435273 0.750606 0.470943
O O12 0.599844 0.647913 0.371327
O O13 0.500000 0.000000 0.500000
O O14 0.462070 0.142015 0.235396
O O15 0.286106 0.856064 0.456613
O O16 0.000000 0.500000 0.000000
O O17 0.422710 0.547463 0.302417
O O18 0.500000 0.500000 0.000000
#
# Coordination Sequence:
#
# PCOD9017948 Si02
#       8
#     2   2   2   2   2   2   2   2
#     4  12  25  47  68 100 143 175 232 290 328 417
#     4  11  26  41  69 100 133 182 228 283 343 401
#     4  12  25  43  72 100 139 187 225 278 351 401
#     4   9  20  40  67  94 129 169 217 277 335 398
#     4  12  25  45  69 102 139 179 232 278 347 406
#     4  11  22  44  64  97 142 174 231 283 331 410
#     4  10  21  43  67  95 135 178 222 281 337 414
#     4  11  24  44  67  98 136 179 227 283 346 404
#
# _framework density 20.011060000000001
#
# number of rings (size 3 to 8) (size 9 to 14) (size 15 to 20)
#    0.000    1.000    5.000    1.500    1.750    4.500 
#    4.500    0.000    0.000    0.000    0.000    0.000 
#    0.000    0.000    0.000    0.000    0.000    0.000 
#
# Total GULP energy -89166.222159 kJ/mol
# GULP energy per Si atom -5572.888885 kJ/mol
# Density = 1.996551 g / cm^3
# Si number density = 20.011060 Si / 1000 Ang^3
#
#
#
# Elastic Constant Matrix: (Units=GPa)
#
#
# Indices 1 2 3 4 5 6 
#
# 1 105.4106 39.3275 31.3764 -8.5813 -1.6357 2.2465
# 2 39.3275 119.4846 51.0797 -28.7326 -5.3239 -6.1862
# 3 31.3764 51.0797 98.3758 -13.4280 -5.8512 -9.9991
# 4 -8.5813 -28.7326 -13.4280 34.0449 -1.0834 9.0624
# 5 -1.6357 -5.3239 -5.8512 -1.0834 29.6755 2.7369
# 6 2.2465 -6.1862 -9.9991 9.0624 2.7369 31.5816
#
#
#
# Elastic Compliance Matrix: (Units=1/GPa)
#
#
# Indices 1 2 3 4 5 6 
#
# 1 0.011283 -0.002795 -0.002355 0.000115 -0.000145 -0.002116
# 2 -0.002795 0.013661 -0.004977 0.009327 0.001797 -0.001533
# 3 -0.002355 -0.004977 0.013915 -0.000203 0.001387 0.003536
# 4 0.000115 0.009327 -0.000203 0.040003 0.004029 -0.010074
# 5 -0.000145 0.001797 0.001387 0.004029 0.034743 -0.003365
# 6 -0.002116 -0.001533 0.003536 -0.010074 -0.003365 0.035816
#
#
# Mechanical properties :
#
#
# Convention : Reuss Voigt Hill
#
# Bulk Modulus (GPa) = 53.75593 62.98202 58.36897
# Shear Modulus (GPa) = 28.42894 32.49292 30.46093
#
# Velocity S-wave (km/s) = 3.77326 4.03395 3.90578
# Velocity P-wave (km/s) = 6.77530 7.29650 7.04072
#
# Compressibility (1/GPa) = 0.01860260
#
# Stress axis : x y z
#
# Youngs Moduli (GPa) = 88.63029 73.20312 71.86535
#
# Poissons Ratio (x) = 0.20462 0.16926
# Poissons Ratio (y) = 0.24774 0.35770
# Poissons Ratio (z) = 0.20875 0.36436
#
# Static dielectric constant tensor:
#      x y z
#    x 1.714740 0.012960 0.007480 
#    y 0.012960 2.455860 -0.593470 
#    z 0.007480 -0.593470 2.188660 
# 
# From -- ./inp_files/53218.got.cif
#   From: 2010.05.17/outbox.cif.g08.bks.cpg/sg2_27_cif.got.tgz:53218.got - 2010.06.03 11:33:40.
