data_PCOD9017116
_publ_section_title
;
Structure prediction by ZEFSAII (Michael W. Deem and Ramdas Pophale) SiO2 
 PCOD9017116
Probable space group: P -1
;
_chemical_formula_sum "Si O2"
_cell_formula_units_Z 10
_cell_length_a 12.270035
_cell_length_b 8.402703
_cell_length_c 6.583159
_cell_angle_alpha 97.328012
_cell_angle_beta 109.039537
_cell_angle_gamma 134.946655
_cell_volume 383.621081
_symmetry_space_group_name_H-M "P -1"
_symmetry_group_IT_number 2
_symmetry_cell_setting 'triclinic'
loop_
_space_group_symop_operation_xyz
x,y,z
-x,-y,-z
loop_
_atom_site_type_symbol
_atom_site_label
_atom_site_fract_x
_atom_site_fract_y
_atom_site_fract_z
Si Si1 0.311508 0.903112 0.899585
Si Si2 0.131144 0.403225 0.603306
Si Si3 0.012074 0.994155 0.243103
Si Si4 0.522717 0.201613 0.445462
Si Si5 0.398495 0.282851 0.723035
O O1 0.135449 0.585722 0.727610
O O2 0.325039 0.039798 0.746592
O O3 0.500000 0.000000 0.000000
O O4 0.340838 0.017739 0.153891
O O5 0.297584 0.592344 0.564173
O O6 0.134048 0.293680 0.788367
O O7 0.976672 0.131707 0.336193
O O8 0.222329 0.173350 0.481735
O O9 0.000000 0.000000 0.000000
O O10 0.529804 0.353286 0.635858
O O11 0.500000 0.000000 0.500000
O O12 0.500000 0.500000 0.000000
#
# Coordination Sequence:
#
# PCOD9017116 Si02
#       5
#     2   2   2   2   2
#     4  10  21  42  71 106 148 187 248 309 371 437
#     4  10  24  46  73 103 155 200 249 306 385 448
#     4  11  28  47  72 106 160 205 242 313 387 448
#     4  11  23  42  78 111 145 198 252 312 372 448
#     4  12  26  47  77 115 148 196 259 314 375 451
#
# _framework density 26.067388000000001
#
# number of rings (size 3 to 8) (size 9 to 14) (size 15 to 20)
#    0.000    1.200    4.000    2.400    2.800    8.800 
#    0.000    3.000    0.000    0.000    0.000    0.000 
#    0.000    0.000    0.000    0.000    0.000    0.000 
#
# Total GULP energy -55838.201680 kJ/mol
# GULP energy per Si atom -5583.820168 kJ/mol
# Density = 2.600806 g / cm^3
# Si number density = 26.067388 Si / 1000 Ang^3
#
#
#
# Elastic Constant Matrix: (Units=GPa)
#
#
# Indices 1 2 3 4 5 6 
#
# 1 72.5468 2.5817 45.7343 -2.7815 0.0080 21.4168
# 2 2.5817 187.6235 45.5118 -25.6169 -6.2525 -13.6118
# 3 45.7343 45.5118 197.3918 -26.1743 -20.0370 0.9904
# 4 -2.7815 -25.6169 -26.1743 50.3076 -4.0698 -15.0614
# 5 0.0080 -6.2525 -20.0370 -4.0698 63.1225 -0.4951
# 6 21.4168 -13.6118 0.9904 -15.0614 -0.4951 33.6719
#
#
#
# Elastic Compliance Matrix: (Units=1/GPa)
#
#
# Indices 1 2 3 4 5 6 
#
# 1 0.023154 -0.001438 -0.006386 -0.008715 -0.002884 -0.019061
# 2 -0.001438 0.006568 -0.000487 0.004800 0.000851 0.005744
# 3 -0.006386 -0.000487 0.007627 0.005419 0.002771 0.006105
# 4 -0.008715 0.004800 0.005419 0.031437 0.004392 0.021450
# 5 -0.002884 0.000851 0.002771 0.004392 0.017123 0.004313
# 6 -0.019061 0.005744 0.006105 0.021450 0.004313 0.053623
#
#
# Mechanical properties :
#
#
# Convention : Reuss Voigt Hill
#
# Bulk Modulus (GPa) = 48.24575 71.69087 59.96831
# Shear Modulus (GPa) = 30.66281 53.66936 42.16608
#
# Velocity S-wave (km/s) = 3.43343 4.54240 4.02628
# Velocity P-wave (km/s) = 5.85373 7.42112 6.68353
#
# Compressibility (1/GPa) = 0.02072722
#
# Stress axis : x y z
#
# Youngs Moduli (GPa) = 43.18837 152.24835 131.11105
#
# Poissons Ratio (x) = 0.21900 0.83724
# Poissons Ratio (y) = 0.06212 0.06386
# Poissons Ratio (z) = 0.27579 0.07416
#
# Static dielectric constant tensor:
#      x y z
#    x 2.228270 0.057940 0.086230 
#    y 0.057940 2.318320 0.144820 
#    z 0.086230 0.144820 2.118610 
# 
# From -- ./inp_files/86531.got.cif
#   From: 2010.05.17/outbox.cif.g08.bks.cpg/sg2_44_cif.got.tgz:86531.got - 2010.06.03 11:33:40.
