data_PCOD9017607
_publ_section_title
;
Structure prediction by ZEFSAII (Michael W. Deem and Ramdas Pophale) SiO2 
 PCOD9017607
Probable space group: P -1
;
_chemical_formula_sum "Si O2"
_cell_formula_units_Z 12
_cell_length_a 14.387546
_cell_length_b 25.106965
_cell_length_c 6.959469
_cell_angle_alpha 138.413052
_cell_angle_beta 140.434092
_cell_angle_gamma 20.273311
_cell_volume 551.330958
_symmetry_space_group_name_H-M "P -1"
_symmetry_group_IT_number 2
_symmetry_cell_setting 'triclinic'
loop_
_space_group_symop_operation_xyz
x,y,z
-x,-y,-z
loop_
_atom_site_type_symbol
_atom_site_label
_atom_site_fract_x
_atom_site_fract_y
_atom_site_fract_z
Si Si1 0.242672 0.775140 0.285026
Si Si2 0.864927 0.043912 0.697961
Si Si3 0.390442 0.142502 0.092211
Si Si4 0.175271 0.172879 0.207091
Si Si5 0.986584 0.545651 0.809836
Si Si6 0.210730 0.510578 0.405962
O O1 0.275103 0.812851 0.245199
O O2 0.504483 0.605262 0.338383
O O3 0.125399 0.893272 0.573626
O O4 0.005218 0.819969 0.007666
O O5 0.638843 0.076473 0.419787
O O6 0.000000 0.000000 0.000000
O O7 0.172908 0.209945 0.084873
O O8 0.246238 0.276531 0.095186
O O9 0.512159 0.012474 0.807269
O O10 0.033733 0.308814 0.473098
O O11 0.891442 0.518531 0.718559
O O12 0.000000 0.500000 0.500000
O O13 0.243970 0.467570 0.121087
#
# Coordination Sequence:
#
# PCOD9017607 Si02
#       6
#     2   2   2   2   2   2
#     4  10  22  41  61  95 128 158 211 259 307 378
#     4  10  22  40  66  91 122 171 207 255 312 369
#     4  10  21  43  65  88 132 163 213 260 300 382
#     4  10  22  42  63  93 130 166 202 264 320 360
#     4  11  23  40  64  95 123 168 212 257 307 374
#     4  11  23  39  67  92 125 169 207 256 319 368
#
# _framework density 21.765509000000002
#
# number of rings (size 3 to 8) (size 9 to 14) (size 15 to 20)
#    0.000    1.667    3.333    0.500    2.333    0.667 
#    9.000    0.833    0.000    0.000    0.000    0.000 
#    0.000    0.000    0.000    0.000    0.000    0.000 
#
# Total GULP energy -66809.515266 kJ/mol
# GULP energy per Si atom -5567.459606 kJ/mol
# Density = 2.171597 g / cm^3
# Si number density = 21.765509 Si / 1000 Ang^3
#
#
#
# Elastic Constant Matrix: (Units=GPa)
#
#
# Indices 1 2 3 4 5 6 
#
# 1 71.6744 6.4800 67.8516 10.5426 10.3679 0.7184
# 2 6.4800 70.9118 53.5173 15.4484 -5.0295 20.3900
# 3 67.8516 53.5173 -29.2898 6.0917 -50.5509 65.2176
# 4 10.5426 15.4484 6.0917 31.3204 3.0942 9.4680
# 5 10.3679 -5.0295 -50.5509 3.0942 27.9663 11.6922
# 6 0.7184 20.3900 65.2176 9.4680 11.6922 16.5721
#
#
#
# Elastic Compliance Matrix: (Units=1/GPa)
#
#
# Indices 1 2 3 4 5 6 
#
# 1 0.012126 0.001161 0.001773 -0.002317 0.003341 -0.009966
# 2 0.001161 0.022863 -0.003066 -0.006706 0.005697 -0.016303
# 3 0.001773 -0.003066 -0.000453 -0.001679 -0.006430 0.010974
# 4 -0.002317 -0.006706 -0.001679 0.037516 -0.006843 -0.001649
# 5 0.003341 0.005697 -0.006430 -0.006843 0.021922 0.006592
# 6 -0.009966 -0.016303 0.010974 -0.001649 0.006592 0.033939
#
#
# Mechanical properties :
#
#
# Convention : Reuss Voigt Hill
#
# Bulk Modulus (GPa) = 29.17864 40.99936 35.08900
# Shear Modulus (GPa) = 35.81671 14.20158 25.00914
#
# Velocity S-wave (km/s) = 4.06097 2.55714 3.39341
# Velocity P-wave (km/s) = 5.95177 5.25323 5.61338
#
# Compressibility (1/GPa) = 0.03427165
#
# Stress axis : x y z
#
# Youngs Moduli (GPa) = 82.46875 43.73973 -2207.20971
#
# Poissons Ratio (x) = -0.05078 3.91361
# Poissons Ratio (y) = -0.09574 -6.76701
# Poissons Ratio (z) = -0.14623 0.13410
#
# Static dielectric constant tensor:
#      x y z
#    x 1.775490 -0.013170 -0.013170 
#    y -0.013170 1.863970 -0.025930 
#    z -0.013170 -0.025930 1.870310 
# 
# From -- ./inp_files/93556.got.cif
#   From: 2010.05.17/outbox.cif.g08.bks.cpg/sg2_47_cif.got.tgz:93556.got - 2010.06.03 11:33:40.
