data_PCOD9017752
_publ_section_title
;
Structure prediction by ZEFSAII (Michael W. Deem and Ramdas Pophale) SiO2 
 PCOD9017752
Probable space group: P -1
;
_chemical_formula_sum "Si O2"
_cell_formula_units_Z 14
_cell_length_a 14.171283
_cell_length_b 11.602825
_cell_length_c 10.665969
_cell_angle_alpha 54.086943
_cell_angle_beta 138.917627
_cell_angle_gamma 150.624845
_cell_volume 551.715576
_symmetry_space_group_name_H-M "P -1"
_symmetry_group_IT_number 2
_symmetry_cell_setting 'triclinic'
loop_
_space_group_symop_operation_xyz
x,y,z
-x,-y,-z
loop_
_atom_site_type_symbol
_atom_site_label
_atom_site_fract_x
_atom_site_fract_y
_atom_site_fract_z
Si Si1 0.594988 0.518474 0.716512
Si Si2 0.936985 0.569406 0.289021
Si Si3 0.799644 0.456532 0.795821
Si Si4 0.688744 0.155478 0.702073
Si Si5 0.983381 0.068083 0.758154
Si Si6 0.459860 0.265484 0.126064
Si Si7 0.193746 0.339658 0.562502
O O1 0.500000 0.500000 0.500000
O O2 0.706348 0.459059 0.824369
O O3 0.368951 0.350878 0.689263
O O4 0.800104 0.796921 0.784143
O O5 0.057239 0.820097 0.277077
O O6 0.655788 0.388007 0.135035
O O7 0.000000 0.500000 0.500000
O O8 0.054645 0.604101 0.258823
O O9 0.605127 0.203502 0.689223
O O10 0.873158 0.629936 0.650933
O O11 0.000000 0.500000 0.000000
O O12 0.500000 0.000000 0.500000
O O13 0.696314 0.003056 0.858632
O O14 0.976921 0.109208 0.578963
O O15 0.260812 0.231475 0.945098
O O16 0.635186 0.428908 0.319583
#
# Coordination Sequence:
#
# PCOD9017752 Si02
#       7
#     2   2   2   2   2   2   2
#     4  10  24  42  65  90 129 181 220 261 324 395
#     4  11  22  38  66 101 129 172 214 273 331 392
#     4  11  24  41  63  96 131 170 224 267 317 395
#     4  12  22  41  69  93 133 176 213 271 336 377
#     4  11  24  41  67 101 133 166 225 274 327 393
#     4  11  23  40  66 104 130 166 221 277 327 393
#     4  10  21  43  66  91 131 172 213 271 334 384
#
# _framework density 25.375392999999999
#
# number of rings (size 3 to 8) (size 9 to 14) (size 15 to 20)
#    0.000    1.143    2.857    4.286    2.000    8.000 
#    0.000    1.429    0.000    6.857    0.000    0.000 
#    0.000    0.000    0.000    0.000    0.000    0.000 
#
# Total GULP energy -78299.363636 kJ/mol
# GULP energy per Si atom -5592.811688 kJ/mol
# Density = 2.531764 g / cm^3
# Si number density = 25.375393 Si / 1000 Ang^3
#
#
#
# Elastic Constant Matrix: (Units=GPa)
#
#
# Indices 1 2 3 4 5 6 
#
# 1 153.4607 29.8262 8.7648 -18.7456 19.8420 -0.2075
# 2 29.8262 54.7556 -3.1712 -8.4569 6.2549 -11.3381
# 3 8.7648 -3.1712 112.2355 -5.2605 23.0212 -2.1091
# 4 -18.7456 -8.4569 -5.2605 32.5567 -5.6701 8.8132
# 5 19.8420 6.2549 23.0212 -5.6701 43.2436 -7.5727
# 6 -0.2075 -11.3381 -2.1091 8.8132 -7.5727 41.5163
#
#
#
# Elastic Compliance Matrix: (Units=1/GPa)
#
#
# Indices 1 2 3 4 5 6 
#
# 1 0.008152 -0.004003 0.000017 0.003771 -0.003099 -0.002418
# 2 -0.004003 0.022060 0.001302 0.002005 -0.000822 0.005495
# 3 0.000017 0.001302 0.010119 0.001126 -0.005501 -0.000373
# 4 0.003771 0.002005 0.001126 0.035572 0.000859 -0.006771
# 5 -0.003099 -0.000822 -0.005501 0.000859 0.028494 0.004496
# 6 -0.002418 0.005495 -0.000373 -0.006771 0.004496 0.027814
#
#
# Mechanical properties :
#
#
# Convention : Reuss Voigt Hill
#
# Bulk Modulus (GPa) = 28.60179 43.47684 36.03931
# Shear Modulus (GPa) = 33.50428 42.46547 37.98487
#
# Velocity S-wave (km/s) = 3.63760 4.09527 3.87320
# Velocity P-wave (km/s) = 5.37948 6.28747 5.85111
#
# Compressibility (1/GPa) = 0.03496285
#
# Stress axis : x y z
#
# Youngs Moduli (GPa) = 122.67640 45.32993 98.82025
#
# Poissons Ratio (x) = 0.18147 -0.00171
# Poissons Ratio (y) = 0.49112 -0.12864
# Poissons Ratio (z) = -0.00213 -0.05901
#
# Static dielectric constant tensor:
#      x y z
#    x 2.024700 -0.054080 -0.040760 
#    y -0.054080 2.087380 0.002530 
#    z -0.040760 0.002530 2.112960 
# 
# From -- ./inp_files/451138.got.cif
#   From: 2010.05.17/outbox.cif.g08.bks.cpg/sg2_226_cif.got.tgz:451138.got - 2010.06.03 11:33:40.
