data_PCOD9017789
_publ_section_title
;
Structure prediction by ZEFSAII (Michael W. Deem and Ramdas Pophale) SiO2 
 PCOD9017789
Probable space group: P -1
;
_chemical_formula_sum "Si O2"
_cell_formula_units_Z 16
_cell_length_a 9.565988
_cell_length_b 11.495932
_cell_length_c 14.830557
_cell_angle_alpha 152.747148
_cell_angle_beta 86.193241
_cell_angle_gamma 81.412589
_cell_volume 663.201899
_symmetry_space_group_name_H-M "P -1"
_symmetry_group_IT_number 2
_symmetry_cell_setting 'triclinic'
loop_
_space_group_symop_operation_xyz
x,y,z
-x,-y,-z
loop_
_atom_site_type_symbol
_atom_site_label
_atom_site_fract_x
_atom_site_fract_y
_atom_site_fract_z
Si Si1 0.689261 0.683819 0.305219
Si Si2 0.989668 0.781372 0.080156
Si Si3 0.445865 0.452991 0.320128
Si Si4 0.636559 0.755746 0.564125
Si Si5 0.093072 0.732869 0.245175
Si Si6 0.699861 0.923162 0.845820
Si Si7 0.050509 0.796526 0.770825
Si Si8 0.641372 0.260246 0.663786
O O1 0.841977 0.386576 0.092340
O O2 0.648175 0.802627 0.490335
O O3 0.539394 0.662718 0.259086
O O4 0.720082 0.916358 0.409899
O O5 0.920208 0.554534 0.928515
O O6 0.030105 0.825004 0.210483
O O7 0.901073 0.061581 0.217079
O O8 0.495024 0.668720 0.518395
O O9 0.358042 0.303455 0.272651
O O10 0.350841 0.600645 0.335413
O O11 0.613137 0.199711 0.103146
O O12 0.626312 0.997254 0.799624
O O13 0.802599 0.493445 0.405207
O O14 0.272529 0.666034 0.209319
O O15 0.000000 0.000000 0.500000
O O16 0.887466 0.790165 0.748230
O O17 0.000000 0.000000 0.000000
#
# Coordination Sequence:
#
# PCOD9017789 Si02
#       8
#     2   2   2   2   2   2   2   2
#     4  10  21  43  66  94 132 162 219 266 315 388
#     4  11  25  44  66  97 131 169 219 265 322 384
#     4  10  23  44  63  94 134 163 221 264 319 392
#     4  11  23  43  66  97 130 169 214 273 318 385
#     4  11  25  45  67  94 131 173 211 267 322 385
#     4  11  24  41  67  95 129 175 212 266 331 374
#     4  12  23  42  68  96 131 169 217 271 320 382
#     4  10  22  41  67  93 127 172 208 267 320 376
#
# _framework density 24.125382999999999
#
# number of rings (size 3 to 8) (size 9 to 14) (size 15 to 20)
#    0.000    1.250    3.750    1.500    3.500    1.500 
#    6.750    0.000    0.000    0.000    0.000    0.000 
#    0.000    0.000    0.000    0.000    0.000    0.000 
#
# Total GULP energy -89573.133886 kJ/mol
# GULP energy per Si atom -5598.320868 kJ/mol
# Density = 2.407047 g / cm^3
# Si number density = 24.125383 Si / 1000 Ang^3
#
#
#
# Elastic Constant Matrix: (Units=GPa)
#
#
# Indices 1 2 3 4 5 6 
#
# 1 120.7108 38.5726 28.0369 -11.6153 31.1353 -11.7707
# 2 38.5726 123.6929 16.7888 -2.9732 12.3235 -1.0746
# 3 28.0369 16.7888 51.2939 -11.7141 16.5270 -7.7552
# 4 -11.6153 -2.9732 -11.7141 37.5527 -15.8829 -2.1139
# 5 31.1353 12.3235 16.5270 -15.8829 30.7409 -9.4309
# 6 -11.7707 -1.0746 -7.7552 -2.1139 -9.4309 27.0203
#
#
#
# Elastic Compliance Matrix: (Units=1/GPa)
#
#
# Indices 1 2 3 4 5 6 
#
# 1 0.012388 -0.002444 -0.002810 -0.001769 -0.010790 0.000589
# 2 -0.002444 0.009188 -0.001766 -0.001318 -0.001502 -0.001833
# 3 -0.002810 -0.001766 0.025330 0.004328 -0.006598 0.004012
# 4 -0.001769 -0.001318 0.004328 0.037674 0.022948 0.011376
# 5 -0.010790 -0.001502 -0.006598 0.022948 0.064926 0.017803
# 6 0.000589 -0.001833 0.004012 0.011376 0.017803 0.045448
#
#
# Mechanical properties :
#
#
# Convention : Reuss Voigt Hill
#
# Bulk Modulus (GPa) = 30.42521 51.38821 40.90671
# Shear Modulus (GPa) = 22.73253 33.21607 27.97430
#
# Velocity S-wave (km/s) = 3.07297 3.71456 3.40889
# Velocity P-wave (km/s) = 5.02290 6.30429 5.69972
#
# Compressibility (1/GPa) = 0.03286748
#
# Stress axis : x y z
#
# Youngs Moduli (GPa) = 80.72201 108.83257 39.47915
#
# Poissons Ratio (x) = 0.26601 0.11092
# Poissons Ratio (y) = 0.19730 0.06971
# Poissons Ratio (z) = 0.22680 0.19216
#
# Static dielectric constant tensor:
#      x y z
#    x 1.926930 0.015220 -0.021580 
#    y 0.015220 1.912270 0.008830 
#    z -0.021580 0.008830 1.971570 
# 
# From -- ./inp_files/501185.got.cif
#   From: 2010.05.17/outbox.cif.g08.bks.cpg/sg2_251_cif.got.tgz:501185.got - 2010.06.03 11:33:40.
