data_PCOD9017100
_publ_section_title
;
Structure prediction by ZEFSAII (Michael W. Deem and Ramdas Pophale) SiO2 
 PCOD9017100
Probable space group: P -1
;
_chemical_formula_sum "Si O2"
_cell_formula_units_Z 12
_cell_length_a 9.152242
_cell_length_b 12.358246
_cell_length_c 7.443739
_cell_angle_alpha 76.621046
_cell_angle_beta 71.621326
_cell_angle_gamma 37.270396
_cell_volume 483.568121
_symmetry_space_group_name_H-M "P -1"
_symmetry_group_IT_number 2
_symmetry_cell_setting 'triclinic'
loop_
_space_group_symop_operation_xyz
x,y,z
-x,-y,-z
loop_
_atom_site_type_symbol
_atom_site_label
_atom_site_fract_x
_atom_site_fract_y
_atom_site_fract_z
Si Si1 0.234596 0.514608 0.422461
Si Si2 0.249310 0.098765 0.644553
Si Si3 0.855684 0.474633 0.132089
Si Si4 0.005145 0.156872 0.026945
Si Si5 0.747425 0.136483 0.398151
Si Si6 0.674584 0.287804 0.755973
O O1 0.151209 0.528773 0.648520
O O2 0.464841 0.304818 0.365106
O O3 0.366845 0.560524 0.346087
O O4 0.974436 0.683626 0.354190
O O5 0.257457 0.039041 0.863150
O O6 0.500000 0.000000 0.500000
O O7 0.177648 0.034972 0.570370
O O8 0.572441 0.635106 0.116510
O O9 0.954771 0.301912 0.085906
O O10 0.000000 0.500000 0.000000
O O11 0.828387 0.221742 0.904269
O O12 0.936805 0.101465 0.218131
O O13 0.734933 0.191986 0.581361
#
# Coordination Sequence:
#
# PCOD9017100 Si02
#       6
#     2   2   2   2   2   2
#     4  10  22  45  72  95 136 187 223 285 338 409
#     4  11  28  44  65 108 143 177 231 290 346 406
#     4  11  22  39  70 109 138 177 230 285 352 402
#     4  11  23  43  73 101 138 183 237 278 335 426
#     4  11  22  46  73  98 137 182 234 281 342 407
#     4  10  21  42  71 103 133 180 234 282 330 418
#
# _framework density 24.815534
#
# number of rings (size 3 to 8) (size 9 to 14) (size 15 to 20)
#    0.000    1.333    3.333    2.000    7.000    4.667 
#    3.000    0.833    0.000    0.000    0.000    0.000 
#    0.000    0.000    0.000    0.000    0.000    0.000 
#
# Total GULP energy -66997.757730 kJ/mol
# GULP energy per Si atom -5583.146477 kJ/mol
# Density = 2.475905 g / cm^3
# Si number density = 24.815534 Si / 1000 Ang^3
#
#
#
# Elastic Constant Matrix: (Units=GPa)
#
#
# Indices 1 2 3 4 5 6 
#
# 1 91.7763 5.9739 51.9147 -8.6462 -48.9235 9.8047
# 2 5.9739 73.2912 27.8175 -7.6540 -8.2660 -2.6350
# 3 51.9147 27.8175 128.5927 -1.3884 -53.2372 -4.5327
# 4 -8.6462 -7.6540 -1.3884 34.4057 -3.2922 0.8206
# 5 -48.9235 -8.2660 -53.2372 -3.2922 44.2789 12.4263
# 6 9.8047 -2.6350 -4.5327 0.8206 12.4263 37.0179
#
#
#
# Elastic Compliance Matrix: (Units=1/GPa)
#
#
# Indices 1 2 3 4 5 6 
#
# 1 0.088758 0.002274 0.023716 0.039840 0.150094 -0.071710
# 2 0.002274 0.015394 -0.003599 0.004008 0.001510 -0.000543
# 3 0.023716 -0.003599 0.024065 0.012690 0.062371 -0.024810
# 4 0.039840 0.004008 0.012690 0.048311 0.073265 -0.034378
# 5 0.150094 0.001510 0.062371 0.073265 0.307553 -0.136875
# 6 -0.071710 -0.000543 -0.024810 -0.034378 -0.136875 0.089640
#
#
# Mechanical properties :
#
#
# Convention : Reuss Voigt Hill
#
# Bulk Modulus (GPa) = 5.78036 51.67472 28.72754
# Shear Modulus (GPa) = 8.52364 37.00409 22.76387
#
# Velocity S-wave (km/s) = 1.85533 3.86575 3.03202
# Velocity P-wave (km/s) = 2.63136 6.38703 4.88458
#
# Compressibility (1/GPa) = 0.17299963
#
# Stress axis : x y z
#
# Youngs Moduli (GPa) = 11.26662 64.95941 41.55476
#
# Poissons Ratio (x) = -0.14774 -0.98552
# Poissons Ratio (y) = -0.02562 0.14956
# Poissons Ratio (z) = -0.26720 0.23379
#
# Static dielectric constant tensor:
#      x y z
#    x 1.967020 -0.116370 -0.030640 
#    y -0.116370 2.178760 0.015850 
#    z -0.030640 0.015850 1.957950 
# 
# From -- ./inp_files/177470.got.cif
#   From: 2010.05.17/outbox.cif.g08.bks.cpg/sg2_89_cif.got.tgz:177470.got - 2010.06.03 11:33:40.
