data_PCOD9017914
_publ_section_title
;
Structure prediction by ZEFSAII (Michael W. Deem and Ramdas Pophale) SiO2 
 PCOD9017914
Probable space group: P -1
;
_chemical_formula_sum "Si O2"
_cell_formula_units_Z 16
_cell_length_a 14.375958
_cell_length_b 14.211130
_cell_length_c 11.327120
_cell_angle_alpha 67.770239
_cell_angle_beta 68.149121
_cell_angle_gamma 19.991613
_cell_volume 731.335944
_symmetry_space_group_name_H-M "P -1"
_symmetry_group_IT_number 2
_symmetry_cell_setting 'triclinic'
loop_
_space_group_symop_operation_xyz
x,y,z
-x,-y,-z
loop_
_atom_site_type_symbol
_atom_site_label
_atom_site_fract_x
_atom_site_fract_y
_atom_site_fract_z
Si Si1 0.423509 0.406856 0.310889
Si Si2 0.092559 0.724391 0.978424
Si Si3 0.442928 0.839092 0.858652
Si Si4 0.992009 0.982668 0.210972
Si Si5 0.936173 0.398454 0.152371
Si Si6 0.684665 0.789535 0.905269
Si Si7 0.818949 0.090341 0.611972
Si Si8 0.271542 0.519514 0.595767
O O1 0.481997 0.260715 0.262230
O O2 0.708252 0.200330 0.285435
O O3 0.316710 0.468582 0.458991
O O4 0.199767 0.694749 0.223890
O O5 0.082746 0.855815 0.919921
O O6 0.014012 0.752283 0.872974
O O7 0.386160 0.402218 0.026656
O O8 0.869714 0.888642 0.094312
O O9 0.526302 0.873600 0.842722
O O10 0.149843 0.896450 0.278313
O O11 0.705080 0.593952 0.266436
O O12 0.155054 0.260874 0.183092
O O13 0.870718 0.531378 0.007226
O O14 0.500000 0.000000 0.000000
O O15 0.503685 0.379198 0.592859
O O16 0.000000 0.000000 0.500000
O O17 0.968890 0.845524 0.614883
#
# Coordination Sequence:
#
# PCOD9017914 Si02
#       8
#     2   2   2   2   2   2   2   2
#     4  12  25  42  58  90 133 178 201 242 303 378
#     4  11  23  39  64  95 120 165 210 262 300 363
#     4  11  25  42  64  88 128 165 210 253 313 375
#     4  12  24  38  63  92 130 168 212 250 303 354
#     4  10  23  38  66  99 120 149 205 274 323 360
#     4  10  21  43  67  93 117 153 205 273 328 359
#     4  12  22  38  61  92 128 170 210 254 293 355
#     4  12  24  38  63  94 129 162 207 256 309 367
#
# _framework density 21.877770000000002
#
# number of rings (size 3 to 8) (size 9 to 14) (size 15 to 20)
#    0.000    0.750    5.000    2.625    5.250    3.000 
#    0.000    0.625    0.000    0.750    0.000    0.000 
#    0.000    0.000    0.000    0.000    0.000    0.000 
#
# Total GULP energy -89258.924881 kJ/mol
# GULP energy per Si atom -5578.682805 kJ/mol
# Density = 2.182797 g / cm^3
# Si number density = 21.877770 Si / 1000 Ang^3
#
#
#
# Elastic Constant Matrix: (Units=GPa)
#
#
# Indices 1 2 3 4 5 6 
#
# 1 111.9566 19.0869 49.3851 19.2038 14.9038 3.6164
# 2 19.0869 73.9491 -1.6775 9.6713 0.3600 0.8696
# 3 49.3851 -1.6775 73.7143 21.4551 10.6579 -2.2027
# 4 19.2038 9.6713 21.4551 26.6159 1.0952 2.6752
# 5 14.9038 0.3600 10.6579 1.0952 37.7993 10.9971
# 6 3.6164 0.8696 -2.2027 2.6752 10.9971 28.3362
#
#
#
# Elastic Compliance Matrix: (Units=1/GPa)
#
#
# Indices 1 2 3 4 5 6 
#
# 1 0.014034 -0.003581 -0.008662 -0.001615 -0.002671 -0.001165
# 2 -0.003581 0.015470 0.004876 -0.007071 -0.000231 0.001118
# 3 -0.008662 0.004876 0.025132 -0.016216 -0.005117 0.006426
# 4 -0.001615 -0.007071 -0.016216 0.054971 0.006129 -0.008406
# 5 -0.002671 -0.000231 -0.005117 0.006129 0.032645 -0.013298
# 6 -0.001165 0.001118 0.006426 -0.008406 -0.013298 0.041859
#
#
# Mechanical properties :
#
#
# Convention : Reuss Voigt Hill
#
# Bulk Modulus (GPa) = 25.06135 43.68988 34.37561
# Shear Modulus (GPa) = 23.56887 31.40530 27.48708
#
# Velocity S-wave (km/s) = 3.28578 3.79290 3.54841
# Velocity P-wave (km/s) = 5.08677 6.26057 5.70394
#
# Compressibility (1/GPa) = 0.03990209
#
# Stress axis : x y z
#
# Youngs Moduli (GPa) = 71.25774 64.63951 39.79051
#
# Poissons Ratio (x) = 0.23146 0.34466
# Poissons Ratio (y) = 0.25516 -0.19402
# Poissons Ratio (z) = 0.61723 -0.31518
#
# Static dielectric constant tensor:
#      x y z
#    x 1.965250 0.152660 -0.101310 
#    y 0.152660 1.981330 -0.158480 
#    z -0.101310 -0.158480 1.956450 
# 
# From -- ./inp_files/370126.got.cif
#   From: 2010.05.17/outbox.cif.g08.bks.cpg/sg2_186_cif.got.tgz:370126.got - 2010.06.03 11:33:40.
