data_PCOD9017347
_publ_section_title
;
Structure prediction by ZEFSAII (Michael W. Deem and Ramdas Pophale) SiO2 
 PCOD9017347
Probable space group: P -1
;
_chemical_formula_sum "Si O2"
_cell_formula_units_Z 15
_cell_length_a 9.038769
_cell_length_b 14.133299
_cell_length_c 8.974470
_cell_angle_alpha 134.701667
_cell_angle_beta 132.314865
_cell_angle_gamma 60.571003
_cell_volume 602.226111
_symmetry_space_group_name_H-M "P -1"
_symmetry_group_IT_number 2
_symmetry_cell_setting 'triclinic'
loop_
_space_group_symop_operation_xyz
x,y,z
-x,-y,-z
loop_
_atom_site_type_symbol
_atom_site_label
_atom_site_fract_x
_atom_site_fract_y
_atom_site_fract_z
Si Si1 0.565543 0.649147 0.248045
Si Si2 0.868647 0.580353 0.622256
Si Si3 0.216083 0.530768 0.251004
Si Si4 0.637301 0.048217 0.004411
Si Si5 0.000000 0.000000 0.000000
Si Si6 0.332567 0.266689 0.903593
Si Si7 0.888832 0.181679 0.556970
Si Si8 0.155535 0.813181 0.153603
O O1 0.683983 0.642603 0.474509
O O2 0.691233 0.701815 0.252502
O O3 0.370334 0.742284 0.215806
O O4 0.500000 0.500000 0.000000
O O5 0.806084 0.482106 0.601681
O O6 0.000000 0.500000 0.500000
O O7 0.997222 0.695015 0.911141
O O8 0.246401 0.680303 0.384594
O O9 0.360670 0.410621 0.159645
O O10 0.000000 0.500000 0.000000
O O11 0.825384 0.111275 0.286761
O O12 0.502753 0.159989 0.950460
O O13 0.500000 0.000000 0.000000
O O14 0.767669 0.959803 0.877207
O O15 0.886369 0.096322 0.914839
O O16 0.119707 0.214613 0.750166
O O17 0.852548 0.110377 0.609742
#
# Coordination Sequence:
#
# PCOD9017347 Si02
#       8
#     2   2   2   2   1   2   2   2
#     4  12  26  41  71 116 155 196 252 311 387 475
#     4  12  24  42  75 110 161 199 247 319 393 467
#     4  10  21  42  74 114 155 196 242 314 399 478
#     4  12  30  54  81 111 150 210 273 328 389 463
#     4  12  30  54  80 106 160 208 272 326 388 456
#     4  11  24  48  72 114 154 198 257 310 398 477
#     4  11  26  49  79 111 156 201 256 333 397 463
#     4  12  26  50  72 113 150 204 260 320 389 465
#
# _framework density 24.907586999999999
#
# number of rings (size 3 to 8) (size 9 to 14) (size 15 to 20)
#    0.000    0.533    5.333    3.200    7.467    2.667 
#    0.000    2.000    0.000    0.000    0.000    0.000 
#    0.000    0.000    0.000    0.000    0.000    0.000 
#
# Total GULP energy -83732.515984 kJ/mol
# GULP energy per Si atom -5582.167732 kJ/mol
# Density = 2.485090 g / cm^3
# Si number density = 24.907587 Si / 1000 Ang^3
#
#
#
# Elastic Constant Matrix: (Units=GPa)
#
#
# Indices 1 2 3 4 5 6 
#
# 1 119.1833 53.0513 -1.2613 -21.1421 -1.5001 -0.0657
# 2 53.0513 169.2817 20.3063 -46.4643 -2.3925 -4.4381
# 3 -1.2613 20.3063 56.0894 -18.8362 -2.2970 -6.4767
# 4 -21.1421 -46.4643 -18.8362 43.7836 2.4524 0.7952
# 5 -1.5001 -2.3925 -2.2970 2.4524 22.8320 -13.2074
# 6 -0.0657 -4.4381 -6.4767 0.7952 -13.2074 49.2362
#
#
#
# Elastic Compliance Matrix: (Units=1/GPa)
#
#
# Indices 1 2 3 4 5 6 
#
# 1 0.010115 -0.002584 0.002225 0.003077 0.000356 0.000119
# 2 -0.002584 0.009016 -0.000524 0.008068 0.000247 0.000676
# 3 0.002225 -0.000524 0.021864 0.009674 0.003314 0.003564
# 4 0.003077 0.008068 0.009674 0.037107 -0.001364 0.001039
# 5 0.000356 0.000247 0.003314 -0.001364 0.052798 0.014643
# 6 0.000119 0.000676 0.003564 0.001039 0.014643 0.024752
#
#
# Mechanical properties :
#
#
# Convention : Reuss Voigt Hill
#
# Bulk Modulus (GPa) = 25.49262 54.30522 39.89892
# Shear Modulus (GPa) = 29.32642 41.33422 35.33032
#
# Velocity S-wave (km/s) = 3.43506 4.07812 3.77033
# Velocity P-wave (km/s) = 5.09804 6.63512 5.91670
#
# Compressibility (1/GPa) = 0.03922705
#
# Stress axis : x y z
#
# Youngs Moduli (GPa) = 98.86794 110.91603 45.73626
#
# Poissons Ratio (x) = 0.28660 -0.10174
# Poissons Ratio (y) = 0.25547 0.02399
# Poissons Ratio (z) = -0.21993 0.05817
#
# Static dielectric constant tensor:
#      x y z
#    x 2.022310 -0.015270 0.035020 
#    y -0.015270 1.886750 0.066710 
#    z 0.035020 0.066710 1.963790 
# 
# From -- ./inp_files/204577.got.cif
#   From: 2010.05.17/outbox.cif.g08.bks.cpg/sg2_103_cif.got.tgz:204577.got - 2010.06.03 11:33:40.
