data_PCOD9017293
_publ_section_title
;
Structure prediction by ZEFSAII (Michael W. Deem and Ramdas Pophale) SiO2 
 PCOD9017293
Probable space group: P -1
;
_chemical_formula_sum "Si O2"
_cell_formula_units_Z 14
_cell_length_a 9.585633
_cell_length_b 16.630168
_cell_length_c 5.337395
_cell_angle_alpha 94.384701
_cell_angle_beta 84.448997
_cell_angle_gamma 137.529836
_cell_volume 571.780398
_symmetry_space_group_name_H-M "P -1"
_symmetry_group_IT_number 2
_symmetry_cell_setting 'triclinic'
loop_
_space_group_symop_operation_xyz
x,y,z
-x,-y,-z
loop_
_atom_site_type_symbol
_atom_site_label
_atom_site_fract_x
_atom_site_fract_y
_atom_site_fract_z
Si Si1 0.316931 0.402150 0.689040
Si Si2 0.183165 0.054069 0.780867
Si Si3 0.073012 0.487719 0.234865
Si Si4 0.462837 0.930108 0.233659
Si Si5 0.110302 0.198327 0.302480
Si Si6 0.038593 0.717813 0.000932
Si Si7 0.443474 0.306617 0.900860
O O1 0.500000 0.500000 0.500000
O O2 0.163571 0.281375 0.530262
O O3 0.409527 0.386373 0.883098
O O4 0.165265 0.399987 0.840536
O O5 0.376548 0.076604 0.817235
O O6 0.301133 0.186516 0.731589
O O7 0.048768 0.936815 0.606359
O O8 0.000000 0.000000 0.000000
O O9 0.321125 0.603001 0.194765
O O10 0.000000 0.500000 0.500000
O O11 0.000000 0.500000 0.000000
O O12 0.963823 0.352645 0.224424
O O13 0.229581 0.801489 0.179689
O O14 0.500000 0.000000 0.500000
O O15 0.500000 0.000000 0.000000
O O16 0.324804 0.248900 0.174820
O O17 0.004535 0.212320 0.107307
#
# Coordination Sequence:
#
# PCOD9017293 Si02
#       7
#     2   2   2   2   2   2   2
#     4  11  23  41  73 102 143 193 247 308 372 452
#     4  10  22  47  71 105 150 189 248 308 381 444
#     4  12  29  47  71 103 148 199 250 307 377 444
#     4  12  26  48  77 113 153 199 252 311 381 456
#     4  10  21  42  73 104 137 187 244 306 377 448
#     4  11  25  44  74 104 146 188 253 306 374 448
#     4  10  24  44  66 105 141 192 244 310 375 442
#
# _framework density 24.484925
#
# number of rings (size 3 to 8) (size 9 to 14) (size 15 to 20)
#    0.000    1.143    1.429    3.429    6.000    4.000 
#    5.143    0.000    0.000    0.000    0.000    0.000 
#    0.000    0.000    0.000    0.000    0.000    0.000 
#
# Total GULP energy -78027.759888 kJ/mol
# GULP energy per Si atom -5573.411421 kJ/mol
# Density = 2.442920 g / cm^3
# Si number density = 24.484925 Si / 1000 Ang^3
#
#
#
# Elastic Constant Matrix: (Units=GPa)
#
#
# Indices 1 2 3 4 5 6 
#
# 1 118.2784 50.7119 38.0757 -0.6814 -21.2955 22.1744
# 2 50.7119 178.6537 37.5298 18.3989 -10.4388 12.9709
# 3 38.0757 37.5298 107.9597 11.9268 -14.2340 8.9916
# 4 -0.6814 18.3989 11.9268 41.3403 -5.9658 -4.8827
# 5 -21.2955 -10.4388 -14.2340 -5.9658 28.3736 -3.1596
# 6 22.1744 12.9709 8.9916 -4.8827 -3.1596 54.2632
#
#
#
# Elastic Compliance Matrix: (Units=1/GPa)
#
#
# Indices 1 2 3 4 5 6 
#
# 1 0.012315 -0.002584 -0.002515 0.002729 0.007233 -0.003331
# 2 -0.002584 0.006895 -0.001194 -0.002951 -0.000700 -0.000701
# 3 -0.002515 -0.001194 0.011245 -0.002432 0.002735 -0.000610
# 4 0.002729 -0.002951 -0.002432 0.027420 0.005820 0.002799
# 5 0.007233 -0.000700 0.002735 0.005820 0.042987 -0.000215
# 6 -0.003331 -0.000701 -0.000610 0.002799 -0.000215 0.020298
#
#
# Mechanical properties :
#
#
# Convention : Reuss Voigt Hill
#
# Bulk Modulus (GPa) = 55.96191 73.05853 64.51022
# Shear Modulus (GPa) = 35.79054 43.36705 39.57880
#
# Velocity S-wave (km/s) = 3.82742 4.21310 4.02488
# Velocity P-wave (km/s) = 6.51440 7.31914 6.92847
#
# Compressibility (1/GPa) = 0.01786930
#
# Stress axis : x y z
#
# Youngs Moduli (GPa) = 81.20387 145.02222 88.92989
#
# Poissons Ratio (x) = 0.37470 0.22370
# Poissons Ratio (y) = 0.20981 0.10616
# Poissons Ratio (z) = 0.20426 0.17311
#
# Static dielectric constant tensor:
#      x y z
#    x 2.588130 0.365340 0.026720 
#    y 0.365340 2.440520 -0.041310 
#    z 0.026720 -0.041310 1.986750 
# 
# From -- ./inp_files/48225.got.cif
#   From: 2010.05.17/outbox.cif.g08.bks.cpg/sg2_25_cif.got.tgz:48225.got - 2010.06.03 11:33:40.
