data_PCOD9017595
_publ_section_title
;
Structure prediction by ZEFSAII (Michael W. Deem and Ramdas Pophale) SiO2 
 PCOD9017595
Probable space group: P -1
;
_chemical_formula_sum "Si O2"
_cell_formula_units_Z 15
_cell_length_a 11.662729
_cell_length_b 13.589851
_cell_length_c 6.334365
_cell_angle_alpha 115.641993
_cell_angle_beta 120.494073
_cell_angle_gamma 49.759987
_cell_volume 651.909226
_symmetry_space_group_name_H-M "P -1"
_symmetry_group_IT_number 2
_symmetry_cell_setting 'triclinic'
loop_
_space_group_symop_operation_xyz
x,y,z
-x,-y,-z
loop_
_atom_site_type_symbol
_atom_site_label
_atom_site_fract_x
_atom_site_fract_y
_atom_site_fract_z
Si Si1 0.928413 0.601993 0.216711
Si Si2 0.405544 0.350338 0.930279
Si Si3 0.104223 0.786499 0.983602
Si Si4 0.599459 0.043664 0.757878
Si Si5 0.840178 0.852944 0.115733
Si Si6 0.256686 0.542440 0.637094
Si Si7 0.500000 0.500000 0.500000
Si Si8 0.870341 0.999448 0.646176
O O1 0.779113 0.602169 0.165366
O O2 0.855315 0.746192 0.188730
O O3 0.081973 0.567127 0.467120
O O4 0.000000 0.500000 0.000000
O O5 0.509294 0.193652 0.883129
O O6 0.395006 0.403277 0.731477
O O7 0.465119 0.413348 0.211934
O O8 0.233689 0.647138 0.886438
O O9 0.030946 0.885155 0.806262
O O10 0.969297 0.783449 0.984934
O O11 0.156906 0.859320 0.253660
O O12 0.500000 0.000000 0.500000
O O13 0.736841 0.015900 0.696423
O O14 0.673755 0.946762 0.934966
O O15 0.867851 0.948186 0.368044
O O16 0.324108 0.557733 0.496401
#
# Coordination Sequence:
#
# PCOD9017595 Si02
#       8
#     2   2   2   2   2   2   1   2
#     4  12  25  47  75 108 138 189 246 297 363 421
#     4  12  28  48  74 106 148 196 237 299 360 428
#     4  10  22  40  72 104 137 179 234 293 356 417
#     4  11  27  44  67 103 145 188 241 288 357 427
#     4  11  24  44  72 103 141 188 234 299 349 427
#     4  12  26  48  75 107 146 184 242 303 359 430
#     4  12  28  50  72 110 146 194 242 290 372 430
#     4  10  21  43  65 102 138 182 233 288 355 418
#
# _framework density 23.009338
#
# number of rings (size 3 to 8) (size 9 to 14) (size 15 to 20)
#    0.000    0.800    2.667    3.600    3.733    4.267 
#    0.000    0.000    0.000    0.000    0.000    0.000 
#    0.000    0.000    0.000    0.000    0.000    0.000 
#
# Total GULP energy -83631.336897 kJ/mol
# GULP energy per Si atom -5575.422460 kJ/mol
# Density = 2.295697 g / cm^3
# Si number density = 23.009338 Si / 1000 Ang^3
#
#
#
# Elastic Constant Matrix: (Units=GPa)
#
#
# Indices 1 2 3 4 5 6 
#
# 1 58.5146 -2.2265 7.9282 2.8545 16.4037 -16.0289
# 2 -2.2265 89.4191 49.2596 2.8969 12.5173 -0.9362
# 3 7.9282 49.2596 128.4279 10.3102 16.4976 1.0624
# 4 2.8545 2.8969 10.3102 35.3796 -4.6054 -4.2201
# 5 16.4037 12.5173 16.4976 -4.6054 34.4960 11.5208
# 6 -16.0289 -0.9362 1.0624 -4.2201 11.5208 26.8480
#
#
#
# Elastic Compliance Matrix: (Units=1/GPa)
#
#
# Indices 1 2 3 4 5 6 
#
# 1 0.035359 0.005910 -0.000575 -0.003085 -0.030420 0.033908
# 2 0.005910 0.015523 -0.005243 -0.000399 -0.008634 0.007920
# 3 -0.000575 -0.005243 0.010490 -0.003005 -0.003233 -0.000026
# 4 -0.003085 -0.000399 -0.003005 0.030345 0.007105 -0.000016
# 5 -0.030420 -0.008634 -0.003233 0.007105 0.064005 -0.044683
# 6 0.033908 0.007920 -0.000026 -0.000016 -0.044683 0.076939
#
#
# Mechanical properties :
#
#
# Convention : Reuss Voigt Hill
#
# Bulk Modulus (GPa) = 16.24519 42.92047 29.58283
# Shear Modulus (GPa) = 19.76307 34.10474 26.93391
#
# Velocity S-wave (km/s) = 2.93390 3.85413 3.42506
# Velocity P-wave (km/s) = 4.30728 6.20482 5.34099
#
# Compressibility (1/GPa) = 0.06155668
#
# Stress axis : x y z
#
# Youngs Moduli (GPa) = 28.28121 64.41880 95.32985
#
# Poissons Ratio (x) = -0.38074 0.05481
# Poissons Ratio (y) = -0.16715 0.49985
# Poissons Ratio (z) = 0.01626 0.33777
#
# Static dielectric constant tensor:
#      x y z
#    x 1.832820 0.006490 0.009140 
#    y 0.006490 1.923630 -0.047300 
#    z 0.009140 -0.047300 1.852550 
# 
# From -- ./inp_files/76820.got.cif
#   From: 2010.05.17/outbox.cif.g08.bks.cpg/sg2_39_cif.got.tgz:76820.got - 2010.06.03 11:33:40.
