data_PCOD9017862
_publ_section_title
;
Structure prediction by ZEFSAII (Michael W. Deem and Ramdas Pophale) SiO2 
 PCOD9017862
Probable space group: P -1
;
_chemical_formula_sum "Si O2"
_cell_formula_units_Z 14
_cell_length_a 9.771487
_cell_length_b 9.135634
_cell_length_c 11.375055
_cell_angle_alpha 109.599665
_cell_angle_beta 91.275677
_cell_angle_gamma 141.269792
_cell_volume 524.472490
_symmetry_space_group_name_H-M "P -1"
_symmetry_group_IT_number 2
_symmetry_cell_setting 'triclinic'
loop_
_space_group_symop_operation_xyz
x,y,z
-x,-y,-z
loop_
_atom_site_type_symbol
_atom_site_label
_atom_site_fract_x
_atom_site_fract_y
_atom_site_fract_z
Si Si1 0.612066 0.440175 0.519094
Si Si2 0.202067 0.837817 0.367781
Si Si3 0.262213 0.717242 0.693725
Si Si4 0.123744 0.904100 0.786472
Si Si5 0.234879 0.561005 0.153481
Si Si6 0.697804 0.710246 0.939479
Si Si7 0.723476 0.441664 0.127044
O O1 0.500000 0.500000 0.500000
O O2 0.644202 0.346730 0.388813
O O3 0.878339 0.710331 0.656936
O O4 0.410476 0.145995 0.507433
O O5 0.293820 0.787111 0.268766
O O6 0.041591 0.596705 0.397888
O O7 0.998019 0.745103 0.266482
O O8 0.341944 0.761673 0.842139
O O9 0.284941 0.923016 0.732425
O O10 0.026995 0.726824 0.858090
O O11 0.272872 0.201734 0.901528
O O12 0.365101 0.519268 0.169646
O O13 0.229561 0.554374 0.008261
O O14 0.496399 0.644235 0.875076
O O15 0.000000 0.000000 0.000000
#
# Coordination Sequence:
#
# PCOD9017862 Si02
#       7
#     2   2   2   2   2   2   2
#     4  12  27  46  69  96 134 181 230 279 328 393
#     4   9  24  45  70  99 131 182 219 278 328 405
#     4   9  24  45  67  98 133 182 225 272 331 401
#     4  10  24  43  65 102 135 180 222 269 338 397
#     4  10  21  43  67 101 134 171 218 276 337 400
#     4  10  23  40  67 101 139 172 219 285 328 406
#     4  10  22  43  66 104 132 177 221 271 352 382
#
# _framework density 26.693489
#
# number of rings (size 3 to 8) (size 9 to 14) (size 15 to 20)
#    0.857    1.143    0.000    1.286    8.000    4.571 
#    2.571    0.000    0.000    0.000    0.000    0.000 
#    0.000    0.000    0.000    0.000    0.000    0.000 
#
# Total GULP energy -77992.882501 kJ/mol
# GULP energy per Si atom -5570.920179 kJ/mol
# Density = 2.663273 g / cm^3
# Si number density = 26.693489 Si / 1000 Ang^3
#
#
#
# Elastic Constant Matrix: (Units=GPa)
#
#
# Indices 1 2 3 4 5 6 
#
# 1 271.9358 53.7306 73.8591 14.3589 -8.0821 -11.6910
# 2 53.7306 53.6483 43.3582 9.7634 -21.2637 -20.8297
# 3 73.8591 43.3582 152.2270 18.3093 -10.9569 -23.8646
# 4 14.3589 9.7634 18.3093 52.1808 -5.4895 -17.5907
# 5 -8.0821 -21.2637 -10.9569 -5.4895 50.3792 -1.1789
# 6 -11.6910 -20.8297 -23.8646 -17.5907 -1.1789 42.3214
#
#
#
# Elastic Compliance Matrix: (Units=1/GPa)
#
#
# Indices 1 2 3 4 5 6 
#
# 1 0.005008 -0.005599 -0.001262 -0.000953 -0.001997 -0.002535
# 2 -0.005599 0.041291 -0.005547 0.003350 0.016098 0.017489
# 3 -0.001262 -0.005547 0.009109 -0.001390 -0.000680 0.001461
# 4 -0.000953 0.003350 -0.001390 0.023162 0.003725 0.010333
# 5 -0.001997 0.016098 -0.000680 0.003725 0.026799 0.009282
# 6 -0.002535 0.017489 0.001461 0.010333 0.009282 0.036913
#
#
# Mechanical properties :
#
#
# Convention : Reuss Voigt Hill
#
# Bulk Modulus (GPa) = 32.68719 91.07853 61.88286
# Shear Modulus (GPa) = 28.20164 49.43380 38.81772
#
# Velocity S-wave (km/s) = 3.25391 4.30805 3.81754
# Velocity P-wave (km/s) = 5.13704 7.67723 6.53181
#
# Compressibility (1/GPa) = 0.03059303
#
# Stress axis : x y z
#
# Youngs Moduli (GPa) = 199.67137 24.21835 109.78634
#
# Poissons Ratio (x) = 0.13559 0.13855
# Poissons Ratio (y) = 1.11786 0.60898
# Poissons Ratio (z) = 0.25198 0.13434
#
# Static dielectric constant tensor:
#      x y z
#    x 2.151650 0.209010 0.019100 
#    y 0.209010 2.439950 -0.000930 
#    z 0.019100 -0.000930 2.113200 
# 
# From -- ./inp_files/495620.got.cif
#   From: 2010.05.17/outbox.cif.g08.bks.cpg/sg2_248_cif.got.tgz:495620.got - 2010.06.03 11:33:40.
