data_PCOD9017887
_publ_section_title
;
Structure prediction by ZEFSAII (Michael W. Deem and Ramdas Pophale) SiO2 
 PCOD9017887
Probable space group: P -1
;
_chemical_formula_sum "Si O2"
_cell_formula_units_Z 16
_cell_length_a 5.688348
_cell_length_b 21.390849
_cell_length_c 5.665806
_cell_angle_alpha 98.506257
_cell_angle_beta 77.925593
_cell_angle_gamma 88.909694
_cell_volume 665.848907
_symmetry_space_group_name_H-M "P -1"
_symmetry_group_IT_number 2
_symmetry_cell_setting 'triclinic'
loop_
_space_group_symop_operation_xyz
x,y,z
-x,-y,-z
loop_
_atom_site_type_symbol
_atom_site_label
_atom_site_fract_x
_atom_site_fract_y
_atom_site_fract_z
Si Si1 0.352965 0.996863 0.275932
Si Si2 0.629537 0.271154 0.082790
Si Si3 0.256032 0.300015 0.606791
Si Si4 0.514439 0.604789 0.092070
Si Si5 0.028573 0.780632 0.655873
Si Si6 0.337633 0.183927 0.879607
Si Si7 0.994550 0.105992 0.573902
Si Si8 0.277735 0.498819 0.358074
O O1 0.209279 0.932514 0.276301
O O2 0.500000 0.000000 0.500000
O O3 0.149460 0.053830 0.359968
O O4 0.500000 0.000000 0.000000
O O5 0.433386 0.286466 0.340805
O O6 0.869784 0.258164 0.167121
O O7 0.614306 0.333855 0.966254
O O8 0.597024 0.201699 0.937421
O O9 0.303527 0.367998 0.737559
O O10 0.311017 0.248858 0.770456
O O11 0.007430 0.275695 0.551288
O O12 0.323761 0.560257 0.223693
O O13 0.664785 0.563177 0.847134
O O14 0.134988 0.839488 0.532927
O O15 0.798390 0.816590 0.842596
O O16 0.198505 0.135452 0.717573
O O17 0.500000 0.500000 0.500000
O O18 0.000000 0.500000 0.500000
#
# Coordination Sequence:
#
# PCOD9017887 Si02
#       8
#     2   2   2   2   2   2   2   2
#     4  11  28  48  76 108 144 203 263 319 387 452
#     4  10  21  43  67 109 142 184 241 295 388 456
#     4   9  20  43  60 104 140 182 238 290 369 454
#     4  10  23  46  75 105 146 196 242 316 375 468
#     4  10  22  41  70 104 145 185 231 308 379 463
#     4   9  21  40  65  98 142 183 232 296 370 459
#     4  10  25  46  71 104 148 189 252 312 377 459
#     4  11  26  53  74 110 146 199 262 318 384 452
#
# _framework density 24.029478000000001
#
# number of rings (size 3 to 8) (size 9 to 14) (size 15 to 20)
#    0.000    2.000    0.000    0.750    3.500   11.000 
#   29.250    0.000    0.000    0.000    0.000    0.000 
#    0.000    0.000    0.000    0.000    0.000    0.000 
#
# Total GULP energy -89135.456190 kJ/mol
# GULP energy per Si atom -5570.966012 kJ/mol
# Density = 2.397479 g / cm^3
# Si number density = 24.029478 Si / 1000 Ang^3
#
#
#
# Elastic Constant Matrix: (Units=GPa)
#
#
# Indices 1 2 3 4 5 6 
#
# 1 30.4040 41.7492 14.9211 -0.2137 -9.2433 -1.3548
# 2 41.7492 128.2454 52.7092 13.0215 -15.1320 6.4790
# 3 14.9211 52.7092 115.2946 4.0821 -29.2602 2.9133
# 4 -0.2137 13.0215 4.0821 39.7075 16.1432 12.6533
# 5 -9.2433 -15.1320 -29.2602 16.1432 52.5043 -1.5465
# 6 -1.3548 6.4790 2.9133 12.6533 -1.5465 18.7114
#
#
#
# Elastic Compliance Matrix: (Units=1/GPa)
#
#
# Indices 1 2 3 4 5 6 
#
# 1 0.064307 -0.022111 0.003208 0.000668 0.006882 0.011930
# 2 -0.022111 0.017620 -0.005121 -0.003671 -0.000672 -0.004478
# 3 0.003208 -0.005121 0.012472 -0.003467 0.007194 0.003003
# 4 0.000668 -0.003671 -0.003467 0.042616 -0.016810 -0.028349
# 5 0.006882 -0.000672 0.007194 -0.016810 0.029637 0.013428
# 6 0.011930 -0.004478 0.003003 -0.028349 0.013428 0.075670
#
#
# Mechanical properties :
#
#
# Convention : Reuss Voigt Hill
#
# Bulk Modulus (GPa) = 21.57515 54.74478 38.15997
# Shear Modulus (GPa) = 16.34935 33.15561 24.75248
#
# Velocity S-wave (km/s) = 2.61125 3.71858 3.21298
# Velocity P-wave (km/s) = 4.25319 6.42409 5.44787
#
# Compressibility (1/GPa) = 0.04634962
#
# Stress axis : x y z
#
# Youngs Moduli (GPa) = 15.55039 56.75290 80.17899
#
# Poissons Ratio (x) = 1.25489 -0.25719
# Poissons Ratio (y) = 0.34384 0.41061
# Poissons Ratio (z) = -0.04988 0.29064
#
# Static dielectric constant tensor:
#      x y z
#    x 2.124910 -0.011190 -0.007610 
#    y -0.011190 1.898730 0.028640 
#    z -0.007610 0.028640 2.098240 
# 
# From -- ./inp_files/11273.got.cif
#   From: 2010.05.17/outbox.cif.g08.bks.cpg/sg2_6_cif.got.tgz:11273.got - 2010.06.03 11:33:40.
