data_PCOD9017583
_publ_section_title
;
Structure prediction by ZEFSAII (Michael W. Deem and Ramdas Pophale) SiO2 
 PCOD9017583
Probable space group: P -1
;
_chemical_formula_sum "Si O2"
_cell_formula_units_Z 14
_cell_length_a 9.071156
_cell_length_b 4.972634
_cell_length_c 21.810667
_cell_angle_alpha 76.036217
_cell_angle_beta 146.205419
_cell_angle_gamma 100.931377
_cell_volume 530.940931
_symmetry_space_group_name_H-M "P -1"
_symmetry_group_IT_number 2
_symmetry_cell_setting 'triclinic'
loop_
_space_group_symop_operation_xyz
x,y,z
-x,-y,-z
loop_
_atom_site_type_symbol
_atom_site_label
_atom_site_fract_x
_atom_site_fract_y
_atom_site_fract_z
Si Si1 0.251545 0.646563 0.141055
Si Si2 0.806047 0.486099 0.233808
Si Si3 0.074081 0.870158 0.940599
Si Si4 0.294470 0.962145 0.680429
Si Si5 0.341220 0.235440 0.394222
Si Si6 0.199674 0.722856 0.530378
Si Si7 0.825359 0.081844 0.163076
O O1 0.178106 0.329986 0.145479
O O2 0.017964 0.831593 0.082492
O O3 0.509076 0.793606 0.248326
O O4 0.225757 0.714265 0.056456
O O5 0.679773 0.316325 0.254886
O O6 0.755357 0.807831 0.190805
O O7 0.127556 0.424446 0.347383
O O8 0.707266 0.340614 0.145289
O O9 0.220037 0.908574 0.925003
O O10 0.300828 0.889270 0.615065
O O11 0.997440 0.075151 0.586652
O O12 0.564106 0.391305 0.423740
O O13 0.500000 0.000000 0.500000
O O14 0.143086 0.101727 0.283422
O O15 0.000000 0.500000 0.500000
#
# Coordination Sequence:
#
# PCOD9017583 Si02
#       7
#     2   2   2   2   2   2   2
#     4  10  23  39  69  93 134 163 214 272 335 373
#     4  10  24  40  65  89 134 170 217 259 327 381
#     4  10  21  43  65 100 122 170 217 271 322 399
#     4  11  25  41  61  98 132 172 214 275 325 385
#     4  10  22  41  61  91 127 175 213 262 315 389
#     4  11  25  40  64  95 132 172 220 267 324 387
#     4  10  22  39  65  90 124 171 219 262 311 392
#
# _framework density 26.368279999999999
#
# number of rings (size 3 to 8) (size 9 to 14) (size 15 to 20)
#    0.857    0.857    1.429    1.714    8.000    2.857 
#    0.000    1.429    0.000    0.000    0.000    0.000 
#    0.000    0.000    0.000    0.000    0.000    0.000 
#
# Total GULP energy -78438.153289 kJ/mol
# GULP energy per Si atom -5602.725235 kJ/mol
# Density = 2.630826 g / cm^3
# Si number density = 26.368280 Si / 1000 Ang^3
#
#
#
# Elastic Constant Matrix: (Units=GPa)
#
#
# Indices 1 2 3 4 5 6 
#
# 1 90.7595 19.7183 18.8267 15.9927 3.3698 36.2480
# 2 19.7183 100.1702 17.5326 20.5749 -2.6850 13.7814
# 3 18.8267 17.5326 109.2352 13.3998 -9.3032 4.6393
# 4 15.9927 20.5749 13.3998 33.2016 0.3293 0.7465
# 5 3.3698 -2.6850 -9.3032 0.3293 41.9071 2.7439
# 6 36.2480 13.7814 4.6393 0.7465 2.7439 40.0082
#
#
#
# Elastic Compliance Matrix: (Units=1/GPa)
#
#
# Indices 1 2 3 4 5 6 
#
# 1 0.019997 0.000649 -0.001756 -0.008915 -0.000713 -0.017922
# 2 0.000649 0.012191 -0.000887 -0.007415 0.000892 -0.004607
# 3 -0.001756 -0.000887 0.010104 -0.002718 0.002308 0.000618
# 4 -0.008915 -0.007415 -0.002718 0.039887 -0.001349 0.010295
# 5 -0.000713 0.000892 0.002308 -0.001349 0.024604 -0.001591
# 6 -0.017922 -0.004607 0.000618 0.010295 -0.001591 0.042665
#
#
# Mechanical properties :
#
#
# Convention : Reuss Voigt Hill
#
# Bulk Modulus (GPa) = 26.10864 45.81334 35.96099
# Shear Modulus (GPa) = 30.08338 39.29586 34.68962
#
# Velocity S-wave (km/s) = 3.38137 3.86459 3.63103
# Velocity P-wave (km/s) = 5.01677 6.10946 5.58988
#
# Compressibility (1/GPa) = 0.03830150
#
# Stress axis : x y z
#
# Youngs Moduli (GPa) = 50.00830 82.02566 98.97526
#
# Poissons Ratio (x) = -0.05323 0.17385
# Poissons Ratio (y) = -0.03245 0.08783
# Poissons Ratio (z) = 0.08784 0.07279
#
# Static dielectric constant tensor:
#      x y z
#    x 2.083790 -0.027230 0.096490 
#    y -0.027230 2.014900 0.011320 
#    z 0.096490 0.011320 2.119220 
# 
# From -- ./inp_files/287699.got.cif
#   From: 2010.05.17/outbox.cif.g08.bks.cpg/sg2_144_cif.got.tgz:287699.got - 2010.06.03 11:33:40.
