data_PCOD9017540
_publ_section_title
;
Structure prediction by ZEFSAII (Michael W. Deem and Ramdas Pophale) SiO2 
 PCOD9017540
Probable space group: P -1
;
_chemical_formula_sum "Si O2"
_cell_formula_units_Z 12
_cell_length_a 4.815009
_cell_length_b 15.378601
_cell_length_c 23.268430
_cell_angle_alpha 18.675237
_cell_angle_beta 52.699087
_cell_angle_gamma 57.385634
_cell_volume 434.671758
_symmetry_space_group_name_H-M "P -1"
_symmetry_group_IT_number 2
_symmetry_cell_setting 'triclinic'
loop_
_space_group_symop_operation_xyz
x,y,z
-x,-y,-z
loop_
_atom_site_type_symbol
_atom_site_label
_atom_site_fract_x
_atom_site_fract_y
_atom_site_fract_z
Si Si1 0.210883 0.253514 0.172982
Si Si2 0.434768 0.418624 0.394047
Si Si3 0.363365 0.363415 0.963661
Si Si4 0.848749 0.191549 0.688297
Si Si5 0.254355 0.209840 0.424136
Si Si6 0.899551 0.758266 0.208356
O O1 0.863423 0.404781 0.129999
O O2 0.500000 0.500000 0.000000
O O3 0.361816 0.189142 0.131750
O O4 0.112422 0.986080 0.392535
O O5 0.454398 0.325664 0.384495
O O6 0.753509 0.505944 0.342745
O O7 0.140933 0.198169 0.597608
O O8 0.237937 0.692295 0.241393
O O9 0.708384 0.536108 0.784598
O O10 0.186738 0.131861 0.085685
O O11 0.426921 0.210528 0.728295
O O12 0.000000 0.500000 0.500000
O O13 0.500000 0.000000 0.500000
O O14 0.000000 0.000000 0.000000
#
# Coordination Sequence:
#
# PCOD9017540 Si02
#       6
#     2   2   2   2   2   2
#     4  10  22  41  66  98 128 180 230 288 349 409
#     4  11  23  45  66  98 139 183 228 293 345 419
#     4  10  21  43  64  92 138 172 230 283 349 411
#     4  10  22  42  68  97 135 184 231 283 350 418
#     4  10  22  44  66 100 135 180 235 285 352 416
#     4  11  24  43  68 100 136 182 236 286 353 414
#
# _framework density 27.607039
#
# number of rings (size 3 to 8) (size 9 to 14) (size 15 to 20)
#    0.000    1.667    1.667    2.000    0.000    4.667 
#   18.000    0.000    0.000    0.000    0.000    0.000 
#    0.000    0.000    0.000    0.000    0.000    0.000 
#
# Total GULP energy -66871.292388 kJ/mol
# GULP energy per Si atom -5572.607699 kJ/mol
# Density = 2.754420 g / cm^3
# Si number density = 27.607039 Si / 1000 Ang^3
#
#
#
# Elastic Constant Matrix: (Units=GPa)
#
#
# Indices 1 2 3 4 5 6 
#
# 1 59.6050 0.1517 18.9652 9.0080 -14.4796 0.6216
# 2 0.1517 143.1333 42.9465 8.0670 -15.1448 -5.3669
# 3 18.9652 42.9465 261.4817 33.4281 -16.7854 12.6117
# 4 9.0080 8.0670 33.4281 59.3053 -1.8497 -1.9755
# 5 -14.4796 -15.1448 -16.7854 -1.8497 32.2181 -5.1319
# 6 0.6216 -5.3669 12.6117 -1.9755 -5.1319 28.9267
#
#
#
# Elastic Compliance Matrix: (Units=1/GPa)
#
#
# Indices 1 2 3 4 5 6 
#
# 1 0.019605 0.001396 -0.000843 -0.002351 0.009159 0.001670
# 2 0.001396 0.007907 -0.001215 -0.000385 0.004114 0.002670
# 3 -0.000843 -0.001215 0.004546 -0.002312 0.000938 -0.002181
# 4 -0.002351 -0.000385 -0.002312 0.018611 -0.001044 0.002073
# 5 0.009159 0.004114 0.000938 -0.001044 0.038623 0.006938
# 6 0.001670 0.002670 -0.002181 0.002073 0.006938 0.037353
#
#
# Mechanical properties :
#
#
# Convention : Reuss Voigt Hill
#
# Bulk Modulus (GPa) = 32.53791 65.37188 48.95489
# Shear Modulus (GPa) = 36.17582 50.90046 43.53814
#
# Velocity S-wave (km/s) = 3.62385 4.29855 3.97554
# Velocity P-wave (km/s) = 5.41492 6.95468 6.23253
#
# Compressibility (1/GPa) = 0.03073338
#
# Stress axis : x y z
#
# Youngs Moduli (GPa) = 51.00810 126.47223 219.96498
#
# Poissons Ratio (x) = -0.17661 0.18550
# Poissons Ratio (y) = -0.07123 0.26734
# Poissons Ratio (z) = 0.04302 0.15371
#
# Static dielectric constant tensor:
#      x y z
#    x 2.289920 0.120190 0.045800 
#    y 0.120190 2.094970 0.000180 
#    z 0.045800 0.000180 2.119350 
# 
# From -- ./inp_files/25886.got.cif
#   From: 2010.05.17/outbox.cif.g08.bks.cpg/sg2_13_cif.got.tgz:25886.got - 2010.06.03 11:33:40.
