data_PCOD9017344
_publ_section_title
;
Structure prediction by ZEFSAII (Michael W. Deem and Ramdas Pophale) SiO2 
 PCOD9017344
Probable space group: P -1
;
_chemical_formula_sum "Si O2"
_cell_formula_units_Z 11
_cell_length_a 8.988164
_cell_length_b 6.377892
_cell_length_c 9.761882
_cell_angle_alpha 55.585540
_cell_angle_beta 82.501793
_cell_angle_gamma 105.995248
_cell_volume 413.869445
_symmetry_space_group_name_H-M "P -1"
_symmetry_group_IT_number 2
_symmetry_cell_setting 'triclinic'
loop_
_space_group_symop_operation_xyz
x,y,z
-x,-y,-z
loop_
_atom_site_type_symbol
_atom_site_label
_atom_site_fract_x
_atom_site_fract_y
_atom_site_fract_z
Si Si1 0.868730 0.935913 0.915988
Si Si2 0.436412 0.449218 0.369851
Si Si3 0.107721 0.500454 0.358615
Si Si4 0.607898 0.286745 0.179630
Si Si5 0.500000 0.000000 0.000000
Si Si6 0.919963 0.233096 0.212789
O O1 0.989091 0.960730 0.765589
O O2 0.795998 0.170429 0.829733
O O3 0.734268 0.618231 0.048476
O O4 0.000000 0.000000 0.000000
O O5 0.500000 0.500000 0.500000
O O6 0.242599 0.383338 0.409922
O O7 0.480428 0.254240 0.330365
O O8 0.517847 0.757224 0.178758
O O9 0.000000 0.500000 0.500000
O O10 0.979697 0.345410 0.313348
O O11 0.724994 0.129382 0.259294
O O12 0.455534 0.792076 0.937384
O O13 0.000000 0.500000 0.000000
#
# Coordination Sequence:
#
# PCOD9017344 Si02
#       6
#     2   2   2   2   1   2
#     4  11  23  44  83 108 147 196 262 320 379 459
#     4  12  28  48  78 117 160 204 261 326 394 467
#     4  12  26  47  74 114 154 200 255 324 393 458
#     4  11  25  47  79 118 151 210 257 323 393 461
#     4  12  28  50  78 110 164 204 260 308 398 474
#     4  10  21  42  74 107 139 195 256 304 378 451
#
# _framework density 26.578429
#
# number of rings (size 3 to 8) (size 9 to 14) (size 15 to 20)
#    0.000    0.727    3.636    4.909    2.545    2.909 
#    0.000    1.818    0.000    0.000    0.000    0.000 
#    0.000    0.000    0.000    0.000    0.000    0.000 
#
# Total GULP energy -61439.575281 kJ/mol
# GULP energy per Si atom -5585.415935 kJ/mol
# Density = 2.651794 g / cm^3
# Si number density = 26.578429 Si / 1000 Ang^3
#
#
#
# Elastic Constant Matrix: (Units=GPa)
#
#
# Indices 1 2 3 4 5 6 
#
# 1 176.9753 47.0370 63.1433 38.8566 17.0921 -12.8057
# 2 47.0370 138.9075 64.7809 46.2100 10.3552 15.3388
# 3 63.1433 64.7809 185.7335 62.2471 14.5945 7.8219
# 4 38.8566 46.2100 62.2471 77.8427 7.1725 8.4173
# 5 17.0921 10.3552 14.5945 7.1725 60.9058 8.3462
# 6 -12.8057 15.3388 7.8219 8.4173 8.3462 60.8768
#
#
#
# Elastic Compliance Matrix: (Units=1/GPa)
#
#
# Indices 1 2 3 4 5 6 
#
# 1 0.007236 -0.001366 -0.001343 -0.001851 -0.001603 0.002515
# 2 -0.001366 0.009881 -0.001671 -0.003609 -0.000192 -0.002037
# 3 -0.001343 -0.001671 0.008061 -0.004703 -0.000696 -0.000151
# 4 -0.001851 -0.003609 -0.004703 0.019837 0.000149 -0.001639
# 5 -0.001603 -0.000192 -0.000696 0.000149 0.017408 -0.002607
# 6 0.002515 -0.002037 -0.000151 -0.001639 -0.002607 0.018072
#
#
# Mechanical properties :
#
#
# Convention : Reuss Voigt Hill
#
# Bulk Modulus (GPa) = 60.91444 94.61541 77.76493
# Shear Modulus (GPa) = 52.78239 61.70208 57.24223
#
# Velocity S-wave (km/s) = 4.46119 4.82343 4.64584
# Velocity P-wave (km/s) = 7.03596 8.16679 7.62238
#
# Compressibility (1/GPa) = 0.01641647
#
# Stress axis : x y z
#
# Youngs Moduli (GPa) = 138.19683 101.20352 124.05831
#
# Poissons Ratio (x) = 0.13827 0.16661
# Poissons Ratio (y) = 0.18882 0.20735
# Poissons Ratio (z) = 0.18560 0.16915
#
# Static dielectric constant tensor:
#      x y z
#    x 2.104660 0.049900 -0.052240 
#    y 0.049900 2.250580 -0.156620 
#    z -0.052240 -0.156620 2.042820 
# 
# From -- ./inp_files/144896.got.cif
#   From: 2010.05.17/outbox.cif.g08.bks.cpg/sg2_73_cif.got.tgz:144896.got - 2010.06.03 11:33:40.
