data_PCOD9017111
_publ_section_title
;
Structure prediction by ZEFSAII (Michael W. Deem and Ramdas Pophale) SiO2 
 PCOD9017111
Probable space group: P -1
;
_chemical_formula_sum "Si O2"
_cell_formula_units_Z 16
_cell_length_a 13.680827
_cell_length_b 7.806489
_cell_length_c 11.518049
_cell_angle_alpha 72.770322
_cell_angle_beta 146.490918
_cell_angle_gamma 97.531973
_cell_volume 632.774663
_symmetry_space_group_name_H-M "P -1"
_symmetry_group_IT_number 2
_symmetry_cell_setting 'triclinic'
loop_
_space_group_symop_operation_xyz
x,y,z
-x,-y,-z
loop_
_atom_site_type_symbol
_atom_site_label
_atom_site_fract_x
_atom_site_fract_y
_atom_site_fract_z
Si Si1 0.385401 0.661069 0.433410
Si Si2 0.012035 0.389878 0.881550
Si Si3 0.495097 0.703662 0.788867
Si Si4 0.857589 0.103307 0.514944
Si Si5 0.127168 0.506507 0.734651
Si Si6 0.539245 0.120745 0.741812
Si Si7 0.795689 0.105488 0.205240
Si Si8 0.855892 0.773883 0.735679
O O1 0.500000 0.500000 0.500000
O O2 0.184348 0.646394 0.274859
O O3 0.494273 0.655128 0.662333
O O4 0.369543 0.836131 0.296931
O O5 0.005588 0.599229 0.875838
O O6 0.061846 0.390714 0.797128
O O7 0.149090 0.249791 0.126894
O O8 0.290485 0.716850 0.631250
O O9 0.525997 0.910277 0.780230
O O10 0.657777 0.578841 0.046029
O O11 0.759296 0.045779 0.311927
O O12 0.882204 0.967114 0.676679
O O13 0.063315 0.063193 0.680843
O O14 0.117376 0.716645 0.723206
O O15 0.000000 0.500000 0.500000
O O16 0.333979 0.237236 0.507369
O O17 0.635847 0.166858 0.943950
#
# Coordination Sequence:
#
# PCOD9017111 Si02
#       8
#     2   2   2   2   2   2   2   2
#     4  12  24  44  74 109 151 195 242 299 371 442
#     4  11  24  42  74 103 143 194 243 288 367 435
#     4  11  28  46  73 110 148 185 253 306 371 422
#     4  10  24  47  74 105 146 192 250 303 357 436
#     4  12  29  49  71 106 153 193 243 308 362 442
#     4  11  24  44  73 107 145 189 242 310 360 431
#     4  11  25  46  81 102 147 199 251 289 380 440
#     4  10  21  42  71 105 140 182 245 297 356 427
#
# _framework density 25.285464999999999
#
# number of rings (size 3 to 8) (size 9 to 14) (size 15 to 20)
#    0.000    1.000    2.500    2.625    8.750    4.500 
#    0.000    3.750    0.000    0.000    0.000    0.000 
#    0.000    0.000    0.000    0.000    0.000    0.000 
#
# Total GULP energy -89483.700922 kJ/mol
# GULP energy per Si atom -5592.731308 kJ/mol
# Density = 2.522791 g / cm^3
# Si number density = 25.285465 Si / 1000 Ang^3
#
#
#
# Elastic Constant Matrix: (Units=GPa)
#
#
# Indices 1 2 3 4 5 6 
#
# 1 120.2925 24.3062 59.2033 -12.1651 -19.6446 -11.2020
# 2 24.3062 61.8345 29.4166 -0.4613 -12.7619 -1.0812
# 3 59.2033 29.4166 197.0439 -0.8769 -43.0524 -8.6329
# 4 -12.1651 -0.4613 -0.8769 46.4520 -3.1260 -11.0215
# 5 -19.6446 -12.7619 -43.0524 -3.1260 52.6228 -0.8067
# 6 -11.2020 -1.0812 -8.6329 -11.0215 -0.8067 40.6149
#
#
#
# Elastic Compliance Matrix: (Units=1/GPa)
#
#
# Indices 1 2 3 4 5 6 
#
# 1 0.011026 -0.002760 -0.002332 0.003777 0.001817 0.003533
# 2 -0.002760 0.018391 -0.001474 -0.000588 0.002179 -0.000701
# 3 -0.002332 -0.001474 0.007027 0.000028 0.004536 0.000909
# 4 0.003777 -0.000588 0.000028 0.024543 0.002867 0.007749
# 5 0.001817 0.002179 0.004536 0.002867 0.024134 0.002781
# 6 0.003533 -0.000701 0.000909 0.007749 0.002781 0.027929
#
#
# Mechanical properties :
#
#
# Convention : Reuss Voigt Hill
#
# Bulk Modulus (GPa) = 42.89485 67.22478 55.05982
# Shear Modulus (GPa) = 37.32671 45.68760 41.50716
#
# Velocity S-wave (km/s) = 3.84632 4.25534 4.05599
# Velocity P-wave (km/s) = 6.06025 7.12657 6.61493
#
# Compressibility (1/GPa) = 0.02331282
#
# Stress axis : x y z
#
# Youngs Moduli (GPa) = 90.69260 54.37418 142.31042
#
# Poissons Ratio (x) = 0.15006 0.33190
# Poissons Ratio (y) = 0.25028 0.20973
# Poissons Ratio (z) = 0.21152 0.08013
#
# Static dielectric constant tensor:
#      x y z
#    x 2.043440 0.056000 0.010290 
#    y 0.056000 2.059050 0.008600 
#    z 0.010290 0.008600 2.001960 
# 
# From -- ./inp_files/447407.got.cif
#   From: 2010.05.17/outbox.cif.g08.bks.cpg/sg2_224_cif.got.tgz:447407.got - 2010.06.03 11:33:40.
