data_PCOD9017956
_publ_section_title
;
Structure prediction by ZEFSAII (Michael W. Deem and Ramdas Pophale) SiO2 
 PCOD9017956
Probable space group: P -1
;
_chemical_formula_sum "Si O2"
_cell_formula_units_Z 15
_cell_length_a 20.320406
_cell_length_b 9.681857
_cell_length_c 5.363803
_cell_angle_alpha 102.914664
_cell_angle_beta 89.840277
_cell_angle_gamma 143.760269
_cell_volume 578.497586
_symmetry_space_group_name_H-M "P -1"
_symmetry_group_IT_number 2
_symmetry_cell_setting 'triclinic'
loop_
_space_group_symop_operation_xyz
x,y,z
-x,-y,-z
loop_
_atom_site_type_symbol
_atom_site_label
_atom_site_fract_x
_atom_site_fract_y
_atom_site_fract_z
Si Si1 0.727016 0.574511 0.130329
Si Si2 0.941271 0.111646 0.109126
Si Si3 0.676704 0.208430 0.710435
Si Si4 0.000000 0.500000 0.500000
Si Si5 0.771559 0.227416 0.216466
Si Si6 0.895012 0.810740 0.616297
Si Si7 0.460400 0.658593 0.592826
Si Si8 0.395328 0.309089 0.121082
O O1 0.780044 0.580217 0.365621
O O2 0.613433 0.442356 0.199499
O O3 0.831535 0.869572 0.187167
O O4 0.702746 0.420942 0.846289
O O5 0.968292 0.322514 0.219129
O O6 0.058304 0.224432 0.205068
O O7 0.894720 0.966613 0.793288
O O8 0.715612 0.205776 0.449926
O O9 0.537502 0.930155 0.626458
O O10 0.740350 0.244595 0.960420
O O11 0.908559 0.451322 0.350542
O O12 0.713782 0.966436 0.107029
O O13 0.000000 0.000000 0.500000
O O14 0.382101 0.439805 0.298116
O O15 0.560114 0.719738 0.677958
O O16 0.500000 0.500000 0.000000
#
# Coordination Sequence:
#
# PCOD9017956 Si02
#       8
#     2   2   2   1   2   2   2   2
#     4  11  24  40  72  97 139 186 246 294 360 437
#     4  10  24  44  65  98 140 186 239 298 363 427
#     4  11  25  49  70 107 145 195 237 305 367 426
#     4  12  28  44  72 112 142 190 252 300 354 448
#     4  11  27  47  73 104 149 191 241 303 365 427
#     4   9  21  43  66  92 133 191 230 292 364 421
#     4  10  23  41  69 103 137 187 243 299 357 437
#     4  10  21  43  67  95 144 188 229 295 373 417
#
# _framework density 25.929234000000001
#
# number of rings (size 3 to 8) (size 9 to 14) (size 15 to 20)
#    0.000    1.600    1.333    1.200   11.200    0.533 
#    2.400    2.000    0.000    0.000    0.000    0.000 
#    0.000    0.000    0.000    0.000    0.000    0.000 
#
# Total GULP energy -83655.508588 kJ/mol
# GULP energy per Si atom -5577.033906 kJ/mol
# Density = 2.587022 g / cm^3
# Si number density = 25.929234 Si / 1000 Ang^3
#
#
#
# Elastic Constant Matrix: (Units=GPa)
#
#
# Indices 1 2 3 4 5 6 
#
# 1 89.4449 24.4988 41.4580 6.0811 -18.6006 7.1571
# 2 24.4988 43.8874 20.5567 -5.9569 -6.4856 -0.7056
# 3 41.4580 20.5567 152.9697 0.1046 -34.0872 -9.6141
# 4 6.0811 -5.9569 0.1046 46.3616 -5.6058 -6.1700
# 5 -18.6006 -6.4856 -34.0872 -5.6058 53.7485 9.5829
# 6 7.1571 -0.7056 -9.6141 -6.1700 9.5829 30.8942
#
#
#
# Elastic Compliance Matrix: (Units=1/GPa)
#
#
# Indices 1 2 3 4 5 6 
#
# 1 0.016194 -0.007707 -0.002965 -0.003560 0.003614 -0.006682
# 2 -0.007707 0.028542 -0.001618 0.005053 -0.000262 0.003024
# 3 -0.002965 -0.001618 0.008572 0.000939 0.003904 0.002294
# 4 -0.003560 0.005053 0.000939 0.023590 0.001454 0.005493
# 5 0.003614 -0.000262 0.003904 0.001454 0.023641 -0.006671
# 6 -0.006682 0.003024 0.002294 0.005493 -0.006671 0.037866
#
#
# Mechanical properties :
#
#
# Convention : Reuss Voigt Hill
#
# Bulk Modulus (GPa) = 34.81290 51.03655 42.92472
# Shear Modulus (GPa) = 28.97513 39.52008 34.24761
#
# Velocity S-wave (km/s) = 3.34648 3.90827 3.63824
# Velocity P-wave (km/s) = 5.32796 6.33182 5.85146
#
# Compressibility (1/GPa) = 0.02872498
#
# Stress axis : x y z
#
# Youngs Moduli (GPa) = 61.75220 35.03635 116.66107
#
# Poissons Ratio (x) = 0.27004 0.34595
# Poissons Ratio (y) = 0.47594 0.18881
# Poissons Ratio (z) = 0.18312 0.05670
#
# Static dielectric constant tensor:
#      x y z
#    x 2.414560 -0.139380 -0.042590 
#    y -0.139380 2.465130 -0.251740 
#    z -0.042590 -0.251740 2.337210 
# 
# From -- ./inp_files/123505.got.cif
#   From: 2010.05.17/outbox.cif.g08.bks.cpg/sg2_62_cif.got.tgz:123505.got - 2010.06.03 11:33:40.
