data_PCOD9017258
_publ_section_title
;
Structure prediction by ZEFSAII (Michael W. Deem and Ramdas Pophale) SiO2 
 PCOD9017258
Probable space group: P -1
;
_chemical_formula_sum "Si O2"
_cell_formula_units_Z 13
_cell_length_a 13.771850
_cell_length_b 8.121598
_cell_length_c 6.867238
_cell_angle_alpha 106.753197
_cell_angle_beta 46.234178
_cell_angle_gamma 119.430973
_cell_volume 481.482813
_symmetry_space_group_name_H-M "P -1"
_symmetry_group_IT_number 2
_symmetry_cell_setting 'triclinic'
loop_
_space_group_symop_operation_xyz
x,y,z
-x,-y,-z
loop_
_atom_site_type_symbol
_atom_site_label
_atom_site_fract_x
_atom_site_fract_y
_atom_site_fract_z
Si Si1 0.119598 0.715022 0.911063
Si Si2 0.424499 0.720572 0.848584
Si Si3 0.817540 0.656483 0.894562
Si Si4 0.000000 0.000000 0.000000
Si Si5 0.905176 0.118058 0.604777
Si Si6 0.420030 0.865533 0.321318
Si Si7 0.345800 0.253098 0.188230
O O1 0.273252 0.754335 0.607606
O O2 0.036205 0.827963 0.963600
O O3 0.000000 0.500000 0.000000
O O4 0.152171 0.804683 0.111356
O O5 0.511365 0.907528 0.664545
O O6 0.283467 0.534240 0.918829
O O7 0.376566 0.810148 0.134185
O O8 0.544015 0.651025 0.754071
O O9 0.984725 0.704276 0.609365
O O10 0.734493 0.648927 0.798345
O O11 0.849047 0.844520 0.037084
O O12 0.000000 0.000000 0.500000
O O13 0.776202 0.943195 0.617278
O O14 0.553493 0.800071 0.122445
#
# Coordination Sequence:
#
# PCOD9017258 Si02
#       7
#     2   2   2   1   2   2   2
#     4  12  26  48  71 109 145 194 241 299 367 428
#     4   9  20  41  69 108 139 188 234 298 366 426
#     4  11  22  43  72 105 139 196 238 291 368 426
#     4  12  28  46  68 106 152 180 248 300 344 436
#     4  10  21  42  72  98 144 192 236 292 365 422
#     4   9  22  41  71 107 146 175 243 307 357 427
#     4   9  19  40  68 100 138 185 232 295 358 417
#
# _framework density 26.999925000000001
#
# number of rings (size 3 to 8) (size 9 to 14) (size 15 to 20)
#    0.923    0.923    3.077    1.385    2.154    1.846 
#    2.769    3.077    0.000    0.000    0.000    0.000 
#    0.000    0.000    0.000    0.000    0.000    0.000 
#
# Total GULP energy -72442.413302 kJ/mol
# GULP energy per Si atom -5572.493331 kJ/mol
# Density = 2.693847 g / cm^3
# Si number density = 26.999925 Si / 1000 Ang^3
#
#
#
# Elastic Constant Matrix: (Units=GPa)
#
#
# Indices 1 2 3 4 5 6 
#
# 1 66.8947 17.2821 5.0639 -10.5105 -6.1625 -6.4368
# 2 17.2821 155.6154 49.6891 -57.4075 -16.9598 -1.8044
# 3 5.0639 49.6891 136.7939 -40.5652 -5.1835 14.5444
# 4 -10.5105 -57.4075 -40.5652 59.5433 15.1988 -9.8271
# 5 -6.1625 -16.9598 -5.1835 15.1988 23.8681 -2.6204
# 6 -6.4368 -1.8044 14.5444 -9.8271 -2.6204 43.6187
#
#
#
# Elastic Compliance Matrix: (Units=1/GPa)
#
#
# Indices 1 2 3 4 5 6 
#
# 1 0.015969 -0.000754 0.000043 0.001911 0.002698 0.002904
# 2 -0.000754 0.010528 -0.001314 0.009239 0.001440 0.002930
# 3 0.000043 -0.001314 0.009568 0.005578 -0.002631 -0.002140
# 4 0.001911 0.009239 0.005578 0.034044 -0.012782 0.005706
# 5 0.002698 0.001440 -0.002631 -0.012782 0.051354 0.001540
# 6 0.002904 0.002930 -0.002140 0.005706 0.001540 0.025567
#
#
# Mechanical properties :
#
#
# Convention : Reuss Voigt Hill
#
# Bulk Modulus (GPa) = 31.23525 55.93045 43.58285
# Shear Modulus (GPa) = 30.91167 44.55728 37.73448
#
# Velocity S-wave (km/s) = 3.38728 4.06676 3.74247
# Velocity P-wave (km/s) = 5.18575 6.54304 5.90353
#
# Compressibility (1/GPa) = 0.03201511
#
# Stress axis : x y z
#
# Youngs Moduli (GPa) = 62.62227 94.98037 104.51836
#
# Poissons Ratio (x) = 0.07165 -0.00452
# Poissons Ratio (y) = 0.04724 0.13731
# Poissons Ratio (z) = -0.00271 0.12478
#
# Static dielectric constant tensor:
#      x y z
#    x 2.239600 -0.013610 0.073190 
#    y -0.013610 2.047070 0.009490 
#    z 0.073190 0.009490 2.193580 
# 
# From -- ./inp_files/326390.got.cif
#   From: 2010.05.17/outbox.cif.g08.bks.cpg/sg2_164_cif.got.tgz:326390.got - 2010.06.03 11:33:40.
