data_PCOD9017898
_publ_section_title
;
Structure prediction by ZEFSAII (Michael W. Deem and Ramdas Pophale) SiO2 
 PCOD9017898
Probable space group: P -1
;
_chemical_formula_sum "Si O2"
_cell_formula_units_Z 12
_cell_length_a 18.409178
_cell_length_b 14.217983
_cell_length_c 11.705034
_cell_angle_alpha 32.132217
_cell_angle_beta 149.991325
_cell_angle_gamma 157.343405
_cell_volume 571.856193
_symmetry_space_group_name_H-M "P -1"
_symmetry_group_IT_number 2
_symmetry_cell_setting 'triclinic'
loop_
_space_group_symop_operation_xyz
x,y,z
-x,-y,-z
loop_
_atom_site_type_symbol
_atom_site_label
_atom_site_fract_x
_atom_site_fract_y
_atom_site_fract_z
Si Si1 0.710998 0.403921 0.166319
Si Si2 0.255298 0.613471 0.033059
Si Si3 0.642953 0.766888 0.979790
Si Si4 0.310987 0.061953 0.600009
Si Si5 0.157373 0.888146 0.323940
Si Si6 0.031654 0.080431 0.330901
O O1 0.783566 0.266247 0.425571
O O2 0.908465 0.691044 0.180724
O O3 0.679218 0.393831 0.997486
O O4 0.506432 0.260950 0.107207
O O5 0.446015 0.754383 0.234749
O O6 0.210176 0.783705 0.783401
O O7 0.071939 0.324952 0.118510
O O8 0.831894 0.852299 0.221043
O O9 0.500000 0.500000 0.000000
O O10 0.743831 0.963683 0.811814
O O11 0.252354 0.053742 0.397921
O O12 0.224779 0.141554 0.479871
O O13 0.000000 0.000000 0.500000
#
# Coordination Sequence:
#
# PCOD9017898 Si02
#       6
#     2   2   2   2   2   2
#     4  10  21  43  67  90 127 169 215 259 320 380
#     4  10  22  44  68  91 126 174 212 265 320 372
#     4  12  26  39  62 100 130 166 213 262 321 382
#     4  10  23  42  68  94 124 171 217 260 322 380
#     4  10  22  42  67  93 125 170 210 266 318 374
#     4  12  26  42  63  96 132 170 212 266 321 379
#
# _framework density 20.984297000000002
#
# number of rings (size 3 to 8) (size 9 to 14) (size 15 to 20)
#    0.000    1.333    1.667    3.000    4.667    2.000 
#    3.000    0.000    0.000    0.000    0.000    0.000 
#    0.000    0.000    0.000    0.000    0.000    0.000 
#
# Total GULP energy -67094.290113 kJ/mol
# GULP energy per Si atom -5591.190843 kJ/mol
# Density = 2.093654 g / cm^3
# Si number density = 20.984297 Si / 1000 Ang^3
#
#
#
# Elastic Constant Matrix: (Units=GPa)
#
#
# Indices 1 2 3 4 5 6 
#
# 1 63.1370 -0.4089 22.1249 -12.8289 -33.8850 6.3969
# 2 -0.4089 67.1441 19.7826 -3.1379 -21.2352 -3.6614
# 3 22.1249 19.7826 69.8837 1.9321 -24.7747 -0.4728
# 4 -12.8289 -3.1379 1.9321 25.2499 0.3998 -5.4476
# 5 -33.8850 -21.2352 -24.7747 0.3998 46.2482 4.1778
# 6 6.3969 -3.6614 -0.4728 -5.4476 4.1778 39.5910
#
#
#
# Elastic Compliance Matrix: (Units=1/GPa)
#
#
# Indices 1 2 3 4 5 6 
#
# 1 0.040253 0.012859 -0.005330 0.020639 0.032906 -0.006011
# 2 0.012859 0.022118 -0.004517 0.009222 0.017134 -0.000625
# 3 -0.005330 -0.004517 0.018908 -0.004880 0.004233 -0.000449
# 4 0.020639 0.009222 -0.004880 0.051986 0.016029 0.002921
# 5 0.032906 0.017134 0.004233 0.016029 0.056399 -0.007428
# 6 -0.006011 -0.000625 -0.000449 0.002921 -0.007428 0.027352
#
#
# Mechanical properties :
#
#
# Convention : Reuss Voigt Hill
#
# Bulk Modulus (GPa) = 11.45427 31.46244 21.45835
# Shear Modulus (GPa) = 20.82526 32.79557 26.81041
#
# Velocity S-wave (km/s) = 3.15369 3.95759 3.57829
# Velocity P-wave (km/s) = 4.32797 5.99243 5.22688
#
# Compressibility (1/GPa) = 0.08730372
#
# Stress axis : x y z
#
# Youngs Moduli (GPa) = 24.84310 45.21118 52.88784
#
# Poissons Ratio (x) = -0.58138 0.28187
# Poissons Ratio (y) = -0.31946 0.23891
# Poissons Ratio (z) = 0.13240 0.20423
#
# Static dielectric constant tensor:
#      x y z
#    x 1.741130 -0.008050 0.005750 
#    y -0.008050 1.898650 -0.011370 
#    z 0.005750 -0.011370 1.732970 
# 
# From -- ./inp_files/33680.got.cif
#   From: 2010.05.17/outbox.cif.g08.bks.cpg/sg2_17_cif.got.tgz:33680.got - 2010.06.03 11:33:40.
