data_PCOD9017861
_publ_section_title
;
Structure prediction by ZEFSAII (Michael W. Deem and Ramdas Pophale) SiO2 
 PCOD9017861
Probable space group: P -1
;
_chemical_formula_sum "Si O2"
_cell_formula_units_Z 15
_cell_length_a 20.138788
_cell_length_b 12.319887
_cell_length_c 9.575325
_cell_angle_alpha 139.329072
_cell_angle_beta 143.539786
_cell_angle_gamma 27.538609
_cell_volume 643.799897
_symmetry_space_group_name_H-M "P -1"
_symmetry_group_IT_number 2
_symmetry_cell_setting 'triclinic'
loop_
_space_group_symop_operation_xyz
x,y,z
-x,-y,-z
loop_
_atom_site_type_symbol
_atom_site_label
_atom_site_fract_x
_atom_site_fract_y
_atom_site_fract_z
Si Si1 0.358209 0.273668 0.560826
Si Si2 0.990439 0.390283 0.742920
Si Si3 0.000000 0.000000 0.500000
Si Si4 0.571775 0.472911 0.944860
Si Si5 0.629014 0.666355 0.940598
Si Si6 0.181357 0.860313 0.147991
Si Si7 0.264844 0.101053 0.696915
Si Si8 0.312513 0.526480 0.445249
O O1 0.336193 0.399010 0.502513
O O2 0.182228 0.392453 0.407836
O O3 0.500000 0.000000 0.500000
O O4 0.410099 0.348409 0.840343
O O5 0.131137 0.267703 0.751042
O O6 0.999238 0.190636 0.616457
O O7 0.000000 0.500000 0.000000
O O8 0.859567 0.206887 0.576094
O O9 0.747932 0.207300 0.956888
O O10 0.448493 0.524191 0.677932
O O11 0.500000 0.500000 0.000000
O O12 0.712077 0.408135 0.879371
O O13 0.658893 0.621936 0.780844
O O14 0.438584 0.879721 0.841497
O O15 0.710733 0.753415 0.206319
O O16 0.217649 0.993344 0.417061
O O17 0.000000 0.000000 0.000000
#
# Coordination Sequence:
#
# PCOD9017861 Si02
#       8
#     2   2   1   2   2   2   2   2
#     4  10  23  42  65 101 140 178 228 289 353 418
#     4  11  24  42  67 102 139 182 235 291 353 416
#     4  10  22  36  66  96 136 172 226 288 340 408
#     4  10  23  43  66  97 136 183 232 281 354 422
#     4  11  25  45  72 104 136 185 246 284 353 426
#     4  12  26  46  73 103 146 187 234 297 365 425
#     4  11  24  44  70 102 141 185 236 294 348 421
#     4  10  21  43  67 101 133 182 234 285 349 420
#
# _framework density 23.299167000000001
#
# number of rings (size 3 to 8) (size 9 to 14) (size 15 to 20)
#    0.000    1.333    1.333    3.600    3.733    4.800 
#    4.800    0.000    0.000    0.000    0.000    0.000 
#    0.000    0.000    0.000    0.000    0.000    0.000 
#
# Total GULP energy -83629.650919 kJ/mol
# GULP energy per Si atom -5575.310061 kJ/mol
# Density = 2.324614 g / cm^3
# Si number density = 23.299167 Si / 1000 Ang^3
#
#
#
# Elastic Constant Matrix: (Units=GPa)
#
#
# Indices 1 2 3 4 5 6 
#
# 1 81.4061 50.2553 33.5428 -0.1228 15.4697 -36.8030
# 2 50.2553 152.8867 69.3742 16.7227 14.0424 -55.3536
# 3 33.5428 69.3742 159.9082 16.1525 17.9860 -21.5529
# 4 -0.1228 16.7227 16.1525 33.7620 -10.8574 6.0090
# 5 15.4697 14.0424 17.9860 -10.8574 35.9193 0.6650
# 6 -36.8030 -55.3536 -21.5529 6.0090 0.6650 60.2630
#
#
#
# Elastic Compliance Matrix: (Units=1/GPa)
#
#
# Indices 1 2 3 4 5 6 
#
# 1 0.020296 -0.000453 -0.000846 -0.004616 -0.009762 0.012244
# 2 -0.000453 0.014570 -0.002426 -0.010971 -0.007851 0.013420
# 3 -0.000846 -0.002426 0.008517 -0.004398 -0.004296 0.000787
# 4 -0.004616 -0.010971 -0.004398 0.048138 0.023391 -0.019527
# 5 -0.009762 -0.007851 -0.004296 0.023391 0.044660 -0.017535
# 6 0.012244 0.013420 0.000787 -0.019527 -0.017535 0.038820
#
#
# Mechanical properties :
#
#
# Convention : Reuss Voigt Hill
#
# Bulk Modulus (GPa) = 27.82993 77.83839 52.83416
# Shear Modulus (GPa) = 25.71628 42.05743 33.88686
#
# Velocity S-wave (km/s) = 3.32587 4.25326 3.81783
# Velocity P-wave (km/s) = 5.16905 7.58954 6.49308
#
# Compressibility (1/GPa) = 0.03593254
#
# Stress axis : x y z
#
# Youngs Moduli (GPa) = 49.27070 68.63269 117.41133
#
# Poissons Ratio (x) = 0.03108 0.09937
# Poissons Ratio (y) = 0.02232 0.28486
# Poissons Ratio (z) = 0.04170 0.16652
#
# Static dielectric constant tensor:
#      x y z
#    x 2.059070 -0.019020 0.007070 
#    y -0.019020 1.877220 -0.007220 
#    z 0.007070 -0.007220 1.903970 
# 
# From -- ./inp_files/475223.got.cif
#   From: 2010.05.17/outbox.cif.g08.bks.cpg/sg2_238_cif.got.tgz:475223.got - 2010.06.03 11:33:40.
