data_PCOD9017553
_publ_section_title
;
Structure prediction by ZEFSAII (Michael W. Deem and Ramdas Pophale) SiO2 
 PCOD9017553
Probable space group: P -1
;
_chemical_formula_sum "Si O2"
_cell_formula_units_Z 16
_cell_length_a 21.544653
_cell_length_b 12.145367
_cell_length_c 8.110100
_cell_angle_alpha 71.669948
_cell_angle_beta 48.746173
_cell_angle_gamma 33.221633
_cell_volume 714.709187
_symmetry_space_group_name_H-M "P -1"
_symmetry_group_IT_number 2
_symmetry_cell_setting 'triclinic'
loop_
_space_group_symop_operation_xyz
x,y,z
-x,-y,-z
loop_
_atom_site_type_symbol
_atom_site_label
_atom_site_fract_x
_atom_site_fract_y
_atom_site_fract_z
Si Si1 0.876047 0.934737 0.410730
Si Si2 0.369540 0.127696 0.025565
Si Si3 0.473077 0.250305 0.320093
Si Si4 0.927019 0.622421 0.355455
Si Si5 0.492015 0.408609 0.691729
Si Si6 0.259168 0.502813 0.869455
Si Si7 0.701355 0.185206 0.942850
Si Si8 0.195088 0.154460 0.899426
O O1 0.793189 0.720077 0.657719
O O2 0.948386 0.714755 0.371921
O O3 0.815891 0.047262 0.644293
O O4 0.052663 0.785537 0.124708
O O5 0.312718 0.308096 0.930894
O O6 0.500000 0.000000 0.000000
O O7 0.475371 0.899168 0.844857
O O8 0.292291 0.469711 0.629300
O O9 0.608135 0.047121 0.324710
O O10 0.537083 0.301131 0.142550
O O11 0.862506 0.739005 0.230145
O O12 0.692719 0.152109 0.526134
O O13 0.091399 0.341615 0.144762
O O14 0.500000 0.500000 0.500000
O O15 0.388469 0.430684 0.776801
O O16 0.371860 0.605541 0.957364
O O17 0.803295 0.984826 0.000052
#
# Coordination Sequence:
#
# PCOD9017553 Si02
#       8
#     2   2   2   2   2   2   2   2
#     4  12  25  43  73 104 135 183 233 288 344 408
#     4  12  24  38  66 102 148 179 228 287 344 413
#     4  10  21  43  64  94 137 181 222 277 350 405
#     4  11  20  39  63 100 138 178 223 282 348 412
#     4  12  25  50  73  96 141 185 233 286 348 408
#     4  12  27  43  71 109 133 185 238 283 342 414
#     4  10  22  44  72  95 133 193 226 278 346 410
#     4   9  20  36  68  93 130 182 226 267 345 412
#
# _framework density 22.386725999999999
#
# number of rings (size 3 to 8) (size 9 to 14) (size 15 to 20)
#    0.750    0.250    2.500    5.250    0.000    4.500 
#    0.000    1.250    0.000    0.000    0.000    0.000 
#    0.000    0.000    0.000    0.000    0.000    0.000 
#
# Total GULP energy -89247.275744 kJ/mol
# GULP energy per Si atom -5577.954734 kJ/mol
# Density = 2.233577 g / cm^3
# Si number density = 22.386726 Si / 1000 Ang^3
#
#
#
# Elastic Constant Matrix: (Units=GPa)
#
#
# Indices 1 2 3 4 5 6 
#
# 1 96.2450 25.3857 57.3140 24.9600 9.8431 20.5966
# 2 25.3857 47.5230 35.2945 19.9111 4.1372 6.3311
# 3 57.3140 35.2945 197.4249 21.6810 26.0036 10.7595
# 4 24.9600 19.9111 21.6810 30.0946 9.8356 4.9128
# 5 9.8431 4.1372 26.0036 9.8356 39.9984 12.8555
# 6 20.5966 6.3311 10.7595 4.9128 12.8555 41.0180
#
#
#
# Elastic Compliance Matrix: (Units=1/GPa)
#
#
# Indices 1 2 3 4 5 6 
#
# 1 0.016673 -0.001335 -0.003497 -0.010294 0.003084 -0.006982
# 2 -0.001335 0.032382 -0.003852 -0.018726 0.004930 -0.002620
# 3 -0.003497 -0.003852 0.007076 0.001465 -0.004230 0.001645
# 4 -0.010294 -0.018726 0.001465 0.056197 -0.011792 0.004640
# 5 0.003084 0.004930 -0.004230 -0.011792 0.032597 -0.010004
# 6 -0.006982 -0.002620 0.001645 0.004640 -0.010004 0.030438
#
#
# Mechanical properties :
#
#
# Convention : Reuss Voigt Hill
#
# Bulk Modulus (GPa) = 25.79707 64.13125 44.96416
# Shear Modulus (GPa) = 24.31318 37.10211 30.70765
#
# Velocity S-wave (km/s) = 3.29911 4.07544 3.70765
# Velocity P-wave (km/s) = 5.10495 7.13126 6.20143
#
# Compressibility (1/GPa) = 0.03876409
#
# Stress axis : x y z
#
# Youngs Moduli (GPa) = 59.97683 30.88183 141.33126
#
# Poissons Ratio (x) = 0.04121 0.49422
# Poissons Ratio (y) = 0.08004 0.54436
# Poissons Ratio (z) = 0.20973 0.11895
#
# Static dielectric constant tensor:
#      x y z
#    x 1.866480 -0.028660 -0.042890 
#    y -0.028660 1.868690 0.020750 
#    z -0.042890 0.020750 1.892630 
# 
# From -- ./inp_files/353454.got.cif
#   From: 2010.05.17/outbox.cif.g08.bks.cpg/sg2_177_cif.got.tgz:353454.got - 2010.06.03 11:33:40.
