data_PCOD9017032
_publ_section_title
;
Structure prediction by ZEFSAII (Michael W. Deem and Ramdas Pophale) SiO2 
 PCOD9017032
Probable space group: P -1
;
_chemical_formula_sum "Si O2"
_cell_formula_units_Z 16
_cell_length_a 9.150160
_cell_length_b 18.893585
_cell_length_c 15.863487
_cell_angle_alpha 29.126058
_cell_angle_beta 142.247542
_cell_angle_gamma 142.238807
_cell_volume 769.987097
_symmetry_space_group_name_H-M "P -1"
_symmetry_group_IT_number 2
_symmetry_cell_setting 'triclinic'
loop_
_space_group_symop_operation_xyz
x,y,z
-x,-y,-z
loop_
_atom_site_type_symbol
_atom_site_label
_atom_site_fract_x
_atom_site_fract_y
_atom_site_fract_z
Si Si1 0.393608 0.238684 0.076916
Si Si2 0.567416 0.423416 0.694105
Si Si3 0.155513 0.187014 0.194724
Si Si4 0.620018 0.268621 0.424631
Si Si5 0.260765 0.975473 0.166874
Si Si6 0.734137 0.523652 0.337398
Si Si7 0.432511 0.924360 0.956915
Si Si8 0.838151 0.463093 0.155304
O O1 0.230211 0.149957 0.173910
O O2 0.430120 0.121887 0.146205
O O3 0.649804 0.357192 0.110030
O O4 0.239084 0.333613 0.860645
O O5 0.500000 0.500000 0.500000
O O6 0.402632 0.451058 0.667163
O O7 0.867684 0.501452 0.767321
O O8 0.522841 0.241101 0.852512
O O9 0.354339 0.160100 0.378401
O O10 0.862800 0.105846 0.163612
O O11 0.205120 0.372283 0.026849
O O12 0.569903 0.375334 0.363584
O O13 0.768098 0.374112 0.305151
O O14 0.777145 0.172074 0.638923
O O15 0.400944 0.969124 0.150732
O O16 0.000000 0.000000 0.000000
O O17 0.000000 0.500000 0.500000
O O18 0.500000 0.000000 0.000000
#
# Coordination Sequence:
#
# PCOD9017032 Si02
#       8
#     2   2   2   2   2   2   2   2
#     4  11  21  43  66  96 130 172 215 265 325 381
#     4  11  26  42  67  99 128 169 220 270 325 381
#     4  10  21  43  70  95 129 168 216 271 322 382
#     4  11  23  42  68  96 130 173 216 261 328 387
#     4  12  27  43  62  95 135 176 216 266 323 392
#     4  12  23  39  67  96 129 169 218 267 314 384
#     4  11  26  46  64  93 135 175 211 269 329 384
#     4  10  21  42  70  97 130 163 216 275 321 380
#
# _framework density 20.779568999999999
#
# number of rings (size 3 to 8) (size 9 to 14) (size 15 to 20)
#    0.000    1.000    3.750    3.000    5.250    4.000 
#    2.250    0.000    0.000    0.000    0.000    0.000 
#    0.000    0.000    0.000    0.000    0.000    0.000 
#
# Total GULP energy -89509.991975 kJ/mol
# GULP energy per Si atom -5594.374498 kJ/mol
# Density = 2.073227 g / cm^3
# Si number density = 20.779569 Si / 1000 Ang^3
#
#
#
# Elastic Constant Matrix: (Units=GPa)
#
#
# Indices 1 2 3 4 5 6 
#
# 1 129.6809 56.8639 27.6499 26.0120 5.3537 -10.1000
# 2 56.8639 77.1299 22.1247 10.4777 -4.4529 -8.0734
# 3 27.6499 22.1247 101.9418 21.1531 -1.7664 1.0469
# 4 26.0120 10.4777 21.1531 24.9178 -2.5978 3.2766
# 5 5.3537 -4.4529 -1.7664 -2.5978 25.1167 4.4378
# 6 -10.1000 -8.0734 1.0469 3.2766 4.4378 41.2778
#
#
#
# Elastic Compliance Matrix: (Units=1/GPa)
#
#
# Indices 1 2 3 4 5 6 
#
# 1 0.014938 -0.009391 0.000599 -0.013338 -0.006822 0.003595
# 2 -0.009391 0.020534 -0.002624 0.003877 0.005706 0.000864
# 3 0.000599 -0.002624 0.012289 -0.010065 -0.000806 0.000207
# 4 -0.013338 0.003877 -0.010065 0.063210 0.010850 -0.008434
# 5 -0.006822 0.005706 -0.000806 0.010850 0.044436 -0.006171
# 6 0.003595 0.000864 0.000207 -0.008434 -0.006171 0.026602
#
#
# Mechanical properties :
#
#
# Convention : Reuss Voigt Hill
#
# Bulk Modulus (GPa) = 40.11268 58.00327 49.05798
# Shear Modulus (GPa) = 23.45749 31.73674 27.59711
#
# Velocity S-wave (km/s) = 3.36352 3.91231 3.64825
# Velocity P-wave (km/s) = 5.86772 6.95575 6.43477
#
# Compressibility (1/GPa) = 0.02492977
#
# Stress axis : x y z
#
# Youngs Moduli (GPa) = 66.94218 48.69930 81.37291
#
# Poissons Ratio (x) = 0.45732 -0.04873
# Poissons Ratio (y) = 0.62863 0.21353
# Poissons Ratio (z) = -0.04009 0.12779
#
# Static dielectric constant tensor:
#      x y z
#    x 1.705100 -0.002010 0.001130 
#    y -0.002010 1.777170 -0.020960 
#    z 0.001130 -0.020960 1.743680 
# 
# From -- ./inp_files/205267.got.cif
#   From: 2010.05.17/outbox.cif.g08.bks.cpg/sg2_103_cif.got.tgz:205267.got - 2010.06.03 11:33:40.
