data_PCOD9017720
_publ_section_title
;
Structure prediction by ZEFSAII (Michael W. Deem and Ramdas Pophale) SiO2 
 PCOD9017720
Probable space group: P -1
;
_chemical_formula_sum "Si O2"
_cell_formula_units_Z 14
_cell_length_a 4.990231
_cell_length_b 17.858810
_cell_length_c 9.066062
_cell_angle_alpha 125.603206
_cell_angle_beta 55.705572
_cell_angle_gamma 108.180616
_cell_volume 542.570292
_symmetry_space_group_name_H-M "P -1"
_symmetry_group_IT_number 2
_symmetry_cell_setting 'triclinic'
loop_
_space_group_symop_operation_xyz
x,y,z
-x,-y,-z
loop_
_atom_site_type_symbol
_atom_site_label
_atom_site_fract_x
_atom_site_fract_y
_atom_site_fract_z
Si Si1 0.903494 0.796858 0.781206
Si Si2 0.623627 0.127867 0.505634
Si Si3 0.852279 0.702370 0.163691
Si Si4 0.646987 0.064301 0.751316
Si Si5 0.174317 0.944931 0.017613
Si Si6 0.373527 0.469452 0.844773
Si Si7 0.599233 0.643026 0.859520
O O1 0.607995 0.861440 0.010962
O O2 0.789616 0.694221 0.728861
O O3 0.188542 0.838002 0.844741
O O4 0.000000 0.000000 0.000000
O O5 0.324633 0.199560 0.667927
O O6 0.944403 0.174085 0.387728
O O7 0.712746 0.106881 0.621860
O O8 0.501730 0.035233 0.356189
O O9 0.647710 0.640385 0.271739
O O10 0.793804 0.664276 0.972717
O O11 0.237925 0.688412 0.048879
O O12 0.928069 0.054327 0.777062
O O13 0.500000 0.000000 0.000000
O O14 0.500000 0.500000 0.000000
O O15 0.550605 0.532666 0.742649
O O16 0.000000 0.500000 0.000000
#
# Coordination Sequence:
#
# PCOD9017720 Si02
#       7
#     2   2   2   2   2   2   2
#     4  12  24  45  72 103 140 190 241 295 355 419
#     4  11  24  46  73 108 141 194 240 299 356 424
#     4  10  21  43  66 102 139 183 239 285 354 432
#     4  11  25  48  71  99 147 190 245 289 358 418
#     4  12  24  47  71  94 133 189 241 290 349 416
#     4   8  16  35  66  96 131 183 230 279 352 427
#     4  10  22  40  69  99 141 183 234 293 354 419
#
# _framework density 25.803108999999999
#
# number of rings (size 3 to 8) (size 9 to 14) (size 15 to 20)
#    0.000    1.429    4.286    0.429    2.000    0.000 
#    7.714    5.000    0.000    0.000    0.000   12.000 
#    0.000    0.000    0.000    0.429    0.286    0.000 
#
# Total GULP energy -78136.009966 kJ/mol
# GULP energy per Si atom -5581.143569 kJ/mol
# Density = 2.574438 g / cm^3
# Si number density = 25.803109 Si / 1000 Ang^3
#
#
#
# Elastic Constant Matrix: (Units=GPa)
#
#
# Indices 1 2 3 4 5 6 
#
# 1 126.5943 36.9096 13.7943 -7.0064 27.6560 -5.0983
# 2 36.9096 267.4705 35.3026 -38.4170 13.5387 -15.5132
# 3 13.7943 35.3026 38.5227 -26.6924 10.9621 -16.6990
# 4 -7.0064 -38.4170 -26.6924 37.9069 -4.0545 1.0939
# 5 27.6560 13.5387 10.9621 -4.0545 31.9177 -6.1857
# 6 -5.0983 -15.5132 -16.6990 1.0939 -6.1857 36.9504
#
#
#
# Elastic Compliance Matrix: (Units=1/GPa)
#
#
# Indices 1 2 3 4 5 6 
#
# 1 0.010018 -0.000984 -0.001666 -0.001148 -0.008050 -0.001097
# 2 -0.000984 0.004617 -0.000128 0.004340 -0.000204 0.001582
# 3 -0.001666 -0.000128 0.084568 0.056659 -0.013769 0.033953
# 4 -0.001148 0.004340 0.056659 0.069033 -0.006870 0.024076
# 5 -0.008050 -0.000204 -0.013769 -0.006870 0.042220 -0.000148
# 6 -0.001097 0.001582 0.033953 0.024076 -0.000148 0.042183
#
#
# Mechanical properties :
#
#
# Convention : Reuss Voigt Hill
#
# Bulk Modulus (GPa) = 10.67835 67.17783 38.92809
# Shear Modulus (GPa) = 17.27652 44.46040 30.86846
#
# Velocity S-wave (km/s) = 2.59038 4.15548 3.46252
# Velocity P-wave (km/s) = 3.61858 7.00824 5.57716
#
# Compressibility (1/GPa) = 0.09364742
#
# Stress axis : x y z
#
# Youngs Moduli (GPa) = 99.81609 216.60356 11.82484
#
# Poissons Ratio (x) = 0.21305 0.01971
# Poissons Ratio (y) = 0.09818 0.00151
# Poissons Ratio (z) = 0.16634 0.02766
#
# Static dielectric constant tensor:
#      x y z
#    x 2.187840 0.031710 -0.065620 
#    y 0.031710 2.247950 -0.084790 
#    z -0.065620 -0.084790 2.133190 
# 
# From -- ./inp_files/142152.got.cif
#   From: 2010.05.17/outbox.cif.g08.bks.cpg/sg2_72_cif.got.tgz:142152.got - 2010.06.03 11:33:40.
