data_PCOD9017627
_publ_section_title
;
Structure prediction by ZEFSAII (Michael W. Deem and Ramdas Pophale) SiO2 
 PCOD9017627
Probable space group: P -1
;
_chemical_formula_sum "Si O2"
_cell_formula_units_Z 15
_cell_length_a 10.680539
_cell_length_b 13.779584
_cell_length_c 12.741848
_cell_angle_alpha 38.162593
_cell_angle_beta 112.486033
_cell_angle_gamma 141.326824
_cell_volume 579.625343
_symmetry_space_group_name_H-M "P -1"
_symmetry_group_IT_number 2
_symmetry_cell_setting 'triclinic'
loop_
_space_group_symop_operation_xyz
x,y,z
-x,-y,-z
loop_
_atom_site_type_symbol
_atom_site_label
_atom_site_fract_x
_atom_site_fract_y
_atom_site_fract_z
Si Si1 0.000000 0.500000 0.000000
Si Si2 0.910472 0.700287 0.105751
Si Si3 0.738688 0.218313 0.816481
Si Si4 0.621136 0.698315 0.977539
Si Si5 0.018035 0.308533 0.365740
Si Si6 0.264227 0.265742 0.421518
Si Si7 0.490799 0.165145 0.313290
Si Si8 0.509200 0.181983 0.587003
O O1 0.905918 0.536907 0.850011
O O2 0.287338 0.843685 0.778887
O O3 0.878962 0.855994 0.948904
O O4 0.781735 0.505743 0.123091
O O5 0.705532 0.435320 0.348042
O O6 0.165887 0.867914 0.077074
O O7 0.955187 0.529377 0.678014
O O8 0.674762 0.248960 0.665954
O O9 0.500000 0.000000 0.000000
O O10 0.459662 0.511496 0.187553
O O11 0.500000 0.500000 0.000000
O O12 0.615994 0.875793 0.795971
O O13 0.201443 0.342483 0.417960
O O14 0.728276 0.973505 0.563874
O O15 0.358059 0.193633 0.562207
O O16 0.000000 0.000000 0.500000
O O17 0.500000 0.000000 0.500000
#
# Coordination Sequence:
#
# PCOD9017627 Si02
#       8
#     1   2   2   2   2   2   2   2
#     4  12  22  40  72  96 130 166 234 270 328 396
#     4  10  21  43  65  91 132 179 223 269 329 403
#     4  12  26  42  64  98 138 175 221 279 345 399
#     4   9  21  37  64  97 131 173 218 275 333 388
#     4  12  25  41  66 104 132 175 220 278 342 393
#     4  11  22  41  67  97 135 173 225 278 330 399
#     4  11  21  38  66  99 132 166 225 275 325 393
#     4  11  24  43  69  98 132 180 224 276 337 401
#
# _framework density 25.878784
#
# number of rings (size 3 to 8) (size 9 to 14) (size 15 to 20)
#    0.000    1.067    5.333    2.000    1.867    3.733 
#    0.000    0.000    0.000    3.200    0.000    0.000 
#    0.000    0.000    0.000    0.000    0.000    0.000 
#
# Total GULP energy -83515.290563 kJ/mol
# GULP energy per Si atom -5567.686038 kJ/mol
# Density = 2.581988 g / cm^3
# Si number density = 25.878784 Si / 1000 Ang^3
#
#
#
# Elastic Constant Matrix: (Units=GPa)
#
#
# Indices 1 2 3 4 5 6 
#
# 1 112.3125 43.5739 20.3287 18.4005 21.3263 56.9788
# 2 43.5739 103.7293 28.4416 29.7942 15.7781 51.1896
# 3 20.3287 28.4416 125.4026 22.4301 9.7847 26.1224
# 4 18.4005 29.7942 22.4301 42.1247 19.6517 14.9478
# 5 21.3263 15.7781 9.7847 19.6517 32.2754 8.9593
# 6 56.9788 51.1896 26.1224 14.9478 8.9593 54.1562
#
#
#
# Elastic Compliance Matrix: (Units=1/GPa)
#
#
# Indices 1 2 3 4 5 6 
#
# 1 0.022787 0.005446 0.001746 0.000211 -0.010526 -0.028281
# 2 0.005446 0.021783 0.000899 -0.008508 -0.002689 -0.023961
# 3 0.001746 0.000899 0.009524 -0.004203 -0.000233 -0.006082
# 4 0.000211 -0.008508 -0.004203 0.040492 -0.019906 0.001964
# 5 -0.010526 -0.002689 -0.000233 -0.019906 0.048327 0.011228
# 6 -0.028281 -0.023961 -0.006082 0.001964 0.011228 0.071403
#
#
# Mechanical properties :
#
#
# Convention : Reuss Voigt Hill
#
# Bulk Modulus (GPa) = 14.22936 58.45920 36.34428
# Shear Modulus (GPa) = 22.56736 42.31793 32.44264
#
# Velocity S-wave (km/s) = 2.95624 4.04819 3.54452
# Velocity P-wave (km/s) = 4.14281 6.67002 5.55212
#
# Compressibility (1/GPa) = 0.07027721
#
# Stress axis : x y z
#
# Youngs Moduli (GPa) = 43.88536 45.90661 104.99480
#
# Poissons Ratio (x) = -0.25002 -0.18328
# Poissons Ratio (y) = -0.23901 -0.09444
# Poissons Ratio (z) = -0.07661 -0.04129
#
# Static dielectric constant tensor:
#      x y z
#    x 2.231890 -0.154640 0.075580 
#    y -0.154640 2.196710 -0.029850 
#    z 0.075580 -0.029850 2.038750 
# 
# From -- ./inp_files/274565.got.cif
#   From: 2010.05.17/outbox.cif.g08.bks.cpg/sg2_138_cif.got.tgz:274565.got - 2010.06.03 11:33:40.
