data_PCOD9017902
_publ_section_title
;
Structure prediction by ZEFSAII (Michael W. Deem and Ramdas Pophale) SiO2 
 PCOD9017902
Probable space group: P -1
;
_chemical_formula_sum "Si O2"
_cell_formula_units_Z 16
_cell_length_a 7.030888
_cell_length_b 10.927085
_cell_length_c 17.882127
_cell_angle_alpha 144.134108
_cell_angle_beta 83.522473
_cell_angle_gamma 94.864701
_cell_volume 799.724431
_symmetry_space_group_name_H-M "P -1"
_symmetry_group_IT_number 2
_symmetry_cell_setting 'triclinic'
loop_
_space_group_symop_operation_xyz
x,y,z
-x,-y,-z
loop_
_atom_site_type_symbol
_atom_site_label
_atom_site_fract_x
_atom_site_fract_y
_atom_site_fract_z
Si Si1 0.118931 0.021983 0.735107
Si Si2 0.596141 0.792746 0.859039
Si Si3 0.184132 0.504744 0.205394
Si Si4 0.513124 0.656586 0.357552
Si Si5 0.451101 0.713204 0.563965
Si Si6 0.306941 0.019773 0.207560
Si Si7 0.114421 0.151528 0.625657
Si Si8 0.391020 0.328902 0.966088
O O1 0.103941 0.069813 0.670877
O O2 0.249230 0.195495 0.855015
O O3 0.237418 0.804644 0.632852
O O4 0.912401 0.021773 0.783609
O O5 0.783344 0.706316 0.852451
O O6 0.451834 0.596265 0.774089
O O7 0.661667 0.829028 0.789347
O O8 0.500000 0.000000 0.000000
O O9 0.319242 0.669591 0.324331
O O10 0.984264 0.618689 0.261101
O O11 0.272958 0.444500 0.092605
O O12 0.479555 0.698118 0.466692
O O13 0.671172 0.804520 0.389338
O O14 0.500000 0.500000 0.500000
O O15 0.597747 0.879616 0.673748
O O16 0.440928 0.820935 0.083824
O O17 0.000000 0.000000 0.500000
O O18 0.500000 0.500000 0.000000
#
# Coordination Sequence:
#
# PCOD9017902 Si02
#       8
#     2   2   2   2   2   2   2   2
#     4  11  27  39  65 100 126 170 216 266 325 380
#     4  10  21  43  67  91 129 170 214 262 322 380
#     4  10  23  40  64  95 124 173 216 260 321 381
#     4  10  23  41  66  92 129 173 215 265 324 377
#     4  11  22  42  66  94 129 171 212 260 327 382
#     4  11  22  43  64  95 132 165 211 272 320 383
#     4  12  25  43  64  97 134 167 221 266 320 385
#     4  11  23  41  65  91 130 171 215 261 324 384
#
# _framework density 20.006892000000001
#
# number of rings (size 3 to 8) (size 9 to 14) (size 15 to 20)
#    0.750    0.500    2.500    3.000    0.000    9.500 
#    0.000    1.250    0.000    0.000    0.000    0.000 
#    0.000    0.000    0.000    0.000    0.000    0.000 
#
# Total GULP energy -89268.393392 kJ/mol
# GULP energy per Si atom -5579.274587 kJ/mol
# Density = 1.996136 g / cm^3
# Si number density = 20.006892 Si / 1000 Ang^3
#
#
#
# Elastic Constant Matrix: (Units=GPa)
#
#
# Indices 1 2 3 4 5 6 
#
# 1 95.9104 23.1791 19.1827 -0.2410 -7.5147 0.8656
# 2 23.1791 79.0343 18.9055 -13.5604 11.0664 -5.1728
# 3 19.1827 18.9055 67.6702 -12.2352 -7.9405 -4.2811
# 4 -0.2410 -13.5604 -12.2352 38.4234 -6.7037 1.6670
# 5 -7.5147 11.0664 -7.9405 -6.7037 27.9206 7.3771
# 6 0.8656 -5.1728 -4.2811 1.6670 7.3771 33.4094
#
#
#
# Elastic Compliance Matrix: (Units=1/GPa)
#
#
# Indices 1 2 3 4 5 6 
#
# 1 0.012208 -0.004049 -0.002135 -0.001138 0.004584 -0.002172
# 2 -0.004049 0.016822 -0.003854 0.002893 -0.009245 0.004113
# 3 -0.002135 -0.003854 0.018396 0.005822 0.007624 -0.000158
# 4 -0.001138 0.002893 0.005822 0.030387 0.008045 -0.002069
# 5 0.004584 -0.009245 0.007624 0.008045 0.047864 -0.011544
# 6 -0.002172 0.004113 -0.000158 -0.002069 -0.011544 0.033257
#
#
# Mechanical properties :
#
#
# Convention : Reuss Voigt Hill
#
# Bulk Modulus (GPa) = 36.56041 40.57217 38.56629
# Shear Modulus (GPa) = 26.57797 32.04050 29.30924
#
# Velocity S-wave (km/s) = 3.64873 4.00618 3.83163
# Velocity P-wave (km/s) = 6.00538 6.45929 6.23647
#
# Compressibility (1/GPa) = 0.02735199
#
# Stress axis : x y z
#
# Youngs Moduli (GPa) = 81.91491 59.44575 54.35817
#
# Poissons Ratio (x) = 0.24069 0.11604
# Poissons Ratio (y) = 0.33167 0.20947
# Poissons Ratio (z) = 0.17486 0.22908
#
# Static dielectric constant tensor:
#      x y z
#    x 1.702520 -0.043170 -0.020350 
#    y -0.043170 1.692390 0.028840 
#    z -0.020350 0.028840 1.732050 
# 
# From -- ./inp_files/583361.got.cif
#   From: 2010.05.17/outbox.cif.g08.bks.cpg/sg2_292_cif.got.tgz:583361.got - 2010.06.03 11:33:40.
