data_PCOD9017640
_publ_section_title
;
Structure prediction by ZEFSAII (Michael W. Deem and Ramdas Pophale) SiO2 
 PCOD9017640
Probable space group: P -1
;
_chemical_formula_sum "Si O2"
_cell_formula_units_Z 13
_cell_length_a 9.390484
_cell_length_b 13.831238
_cell_length_c 8.171115
_cell_angle_alpha 151.245920
_cell_angle_beta 96.301106
_cell_angle_gamma 77.487539
_cell_volume 491.086333
_symmetry_space_group_name_H-M "P -1"
_symmetry_group_IT_number 2
_symmetry_cell_setting 'triclinic'
loop_
_space_group_symop_operation_xyz
x,y,z
-x,-y,-z
loop_
_atom_site_type_symbol
_atom_site_label
_atom_site_fract_x
_atom_site_fract_y
_atom_site_fract_z
Si Si1 0.929087 0.507256 0.761948
Si Si2 0.822871 0.738618 0.756603
Si Si3 0.441379 0.281416 0.495298
Si Si4 0.409683 0.716251 0.020861
Si Si5 0.312458 0.185060 0.671475
Si Si6 0.000000 0.000000 0.000000
Si Si7 0.268893 0.784329 0.763386
O O1 0.857639 0.624633 0.763405
O O2 0.872300 0.293843 0.444305
O O3 0.099093 0.430509 0.624036
O O4 0.849993 0.659319 0.117713
O O5 0.652001 0.792525 0.769795
O O6 0.913638 0.913397 0.019123
O O7 0.401931 0.182005 0.508772
O O8 0.610056 0.229188 0.378935
O O9 0.392963 0.533075 0.865941
O O10 0.582857 0.714077 0.047022
O O11 0.325388 0.954772 0.399028
O O12 0.351651 0.677153 0.775056
O O13 0.842185 0.001314 0.876482
#
# Coordination Sequence:
#
# PCOD9017640 Si02
#       7
#     2   2   2   2   2   1   2
#     4  10  21  43  65  93 134 179 210 276 333 399
#     4  10  22  41  69  94 130 174 229 265 333 392
#     4  12  23  42  71 100 131 180 222 279 328 399
#     4  11  23  41  65  99 132 175 220 275 327 399
#     4  11  25  40  64 102 141 170 224 273 340 389
#     4  10  24  40  66 106 124 164 228 288 314 394
#     4  11  22  43  71  95 133 173 229 269 333 397
#
# _framework density 26.471924999999999
#
# number of rings (size 3 to 8) (size 9 to 14) (size 15 to 20)
#    0.000    1.231    3.077    2.769    0.000    5.538 
#    2.769    0.769    0.000    0.000    0.000    0.000 
#    0.000    0.000    0.000    0.000    0.000    0.000 
#
# Total GULP energy -72470.679424 kJ/mol
# GULP energy per Si atom -5574.667648 kJ/mol
# Density = 2.641167 g / cm^3
# Si number density = 26.471925 Si / 1000 Ang^3
#
#
#
# Elastic Constant Matrix: (Units=GPa)
#
#
# Indices 1 2 3 4 5 6 
#
# 1 147.9829 23.2224 14.8802 1.4572 -16.5472 14.5230
# 2 23.2224 111.3548 14.9224 8.1864 -2.1163 2.6975
# 3 14.8802 14.9224 91.8721 16.7507 8.3804 19.7524
# 4 1.4572 8.1864 16.7507 42.7181 13.2827 3.1951
# 5 -16.5472 -2.1163 8.3804 13.2827 41.7947 8.3900
# 6 14.5230 2.6975 19.7524 3.1951 8.3900 29.7133
#
#
#
# Elastic Compliance Matrix: (Units=1/GPa)
#
#
# Indices 1 2 3 4 5 6 
#
# 1 0.007960 -0.001357 -0.000289 -0.000906 0.004375 -0.004713
# 2 -0.001357 0.009536 -0.001238 -0.001513 0.000548 0.000629
# 3 -0.000289 -0.001238 0.013770 -0.004587 0.000219 -0.008468
# 4 -0.000906 -0.001513 -0.004587 0.028117 -0.009088 0.003172
# 5 0.004375 0.000548 0.000219 -0.009088 0.030534 -0.009978
# 6 -0.004713 0.000629 -0.008468 0.003172 -0.009978 0.044008
#
#
# Mechanical properties :
#
#
# Convention : Reuss Voigt Hill
#
# Bulk Modulus (GPa) = 39.22274 50.80667 45.01471
# Shear Modulus (GPa) = 33.73970 42.72419 38.23195
#
# Velocity S-wave (km/s) = 3.57395 4.02175 3.80445
# Velocity P-wave (km/s) = 5.64622 6.38751 6.02827
#
# Compressibility (1/GPa) = 0.02549541
#
# Stress axis : x y z
#
# Youngs Moduli (GPa) = 125.62345 104.86853 72.62297
#
# Poissons Ratio (x) = 0.14235 0.02102
# Poissons Ratio (y) = 0.17052 0.08993
# Poissons Ratio (z) = 0.03636 0.12986
#
# Static dielectric constant tensor:
#      x y z
#    x 2.033250 -0.153600 -0.201460 
#    y -0.153600 2.452290 0.657600 
#    z -0.201460 0.657600 3.548450 
# 
# From -- ./inp_files/153350.got.cif
#   From: 2010.05.17/outbox.cif.g08.bks.cpg/sg2_77_cif.got.tgz:153350.got - 2010.06.03 11:33:40.
