data_PCOD9017883
_publ_section_title
;
Structure prediction by ZEFSAII (Michael W. Deem and Ramdas Pophale) SiO2 
 PCOD9017883
Probable space group: P -1
;
_chemical_formula_sum "Si O2"
_cell_formula_units_Z 16
_cell_length_a 9.888021
_cell_length_b 13.234828
_cell_length_c 5.069095
_cell_angle_alpha 88.402897
_cell_angle_beta 82.397574
_cell_angle_gamma 108.981844
_cell_volume 620.004781
_symmetry_space_group_name_H-M "P -1"
_symmetry_group_IT_number 2
_symmetry_cell_setting 'triclinic'
loop_
_space_group_symop_operation_xyz
x,y,z
-x,-y,-z
loop_
_atom_site_type_symbol
_atom_site_label
_atom_site_fract_x
_atom_site_fract_y
_atom_site_fract_z
Si Si1 0.768482 0.704091 0.308736
Si Si2 0.706141 0.060081 0.274808
Si Si3 0.497119 0.274506 0.381500
Si Si4 0.348832 0.823630 0.238698
Si Si5 0.212446 0.623744 0.044275
Si Si6 0.289710 0.134125 0.055205
Si Si7 0.088499 0.394401 0.102914
Si Si8 0.964532 0.838774 0.632451
O O1 0.627434 0.671702 0.536898
O O2 0.705542 0.754282 0.081521
O O3 0.833262 0.616059 0.193491
O O4 0.903443 0.810226 0.354713
O O5 0.638871 0.082688 0.563125
O O6 0.874311 0.109153 0.313647
O O7 0.685046 0.946794 0.154995
O O8 0.658017 0.123917 0.048107
O O9 0.552254 0.237807 0.642248
O O10 0.637352 0.337183 0.163652
O O11 0.406341 0.167486 0.253407
O O12 0.209090 0.716479 0.243423
O O13 0.075110 0.609078 0.893806
O O14 0.182658 0.508021 0.189829
O O15 0.131391 0.093576 0.230315
O O16 0.081152 0.286126 0.258322
#
# Coordination Sequence:
#
# PCOD9017883 Si02
#       8
#     2   2   2   2   2   2   2   2
#     4  10  23  43  71 100 148 186 241 292 358 430
#     4  12  26  43  74 104 146 190 243 299 361 419
#     4  11  24  46  68 101 152 187 236 297 355 431
#     4  12  25  45  69 105 143 187 240 297 353 429
#     4  11  23  45  71 105 143 185 236 299 360 427
#     4  10  25  44  67 102 142 195 240 291 356 431
#     4  10  22  43  73 104 137 186 239 294 364 424
#     4  10  21  43  67 106 141 186 238 302 352 431
#
# _framework density 25.806253999999999
#
# number of rings (size 3 to 8) (size 9 to 14) (size 15 to 20)
#    0.000    1.250    2.500    1.875    5.250    3.000 
#    0.000   11.875    0.000    0.000    0.000    0.000 
#    0.000    0.000    0.000    0.000    0.000    0.000 
#
# Total GULP energy -89258.324978 kJ/mol
# GULP energy per Si atom -5578.645311 kJ/mol
# Density = 2.574752 g / cm^3
# Si number density = 25.806254 Si / 1000 Ang^3
#
#
#
# Elastic Constant Matrix: (Units=GPa)
#
#
# Indices 1 2 3 4 5 6 
#
# 1 128.1560 -6.9840 21.9591 -13.6121 -3.5530 9.4628
# 2 -6.9840 76.5109 -0.9920 8.9529 -4.3687 0.0240
# 3 21.9591 -0.9920 87.4911 2.5545 17.5214 -2.2499
# 4 -13.6121 8.9529 2.5545 21.1710 -12.4717 -3.7438
# 5 -3.5530 -4.3687 17.5214 -12.4717 40.9789 9.9636
# 6 9.4628 0.0240 -2.2499 -3.7438 9.9636 20.4931
#
#
#
# Elastic Compliance Matrix: (Units=1/GPa)
#
#
# Indices 1 2 3 4 5 6 
#
# 1 0.010517 0.000105 -0.004737 0.010699 0.007980 -0.007302
# 2 0.000105 0.013788 0.000343 -0.006158 -0.000297 -0.001007
# 3 -0.004737 0.000343 0.015604 -0.010917 -0.012284 0.007878
# 4 0.010699 -0.006158 -0.010917 0.073980 0.029099 -0.006764
# 5 0.007980 -0.000297 -0.012284 0.029099 0.044344 -0.021277
# 6 -0.007302 -0.001007 0.007878 -0.006764 -0.021277 0.062144
#
#
# Mechanical properties :
#
#
# Convention : Reuss Voigt Hill
#
# Bulk Modulus (GPa) = 31.91663 35.56934 33.74298
# Shear Modulus (GPa) = 20.88569 35.07361 27.97965
#
# Velocity S-wave (km/s) = 2.84795 3.69061 3.29632
# Velocity P-wave (km/s) = 4.81758 5.65455 5.25276
#
# Compressibility (1/GPa) = 0.03133162
#
# Stress axis : x y z
#
# Youngs Moduli (GPa) = 95.08350 72.52698 64.08708
#
# Poissons Ratio (x) = -0.00759 0.30356
# Poissons Ratio (y) = -0.00994 -0.02201
# Poissons Ratio (z) = 0.45038 -0.02491
#
# Static dielectric constant tensor:
#      x y z
#    x 2.099940 0.024130 -0.061920 
#    y 0.024130 2.030220 -0.071470 
#    z -0.061920 -0.071470 2.189910 
# 
# From -- ./inp_files/39358.got.cif
#   From: 2010.05.17/outbox.cif.g08.bks.cpg/sg2_20_cif.got.tgz:39358.got - 2010.06.03 11:33:40.
