data_PCOD9017870
_publ_section_title
;
Structure prediction by ZEFSAII (Michael W. Deem and Ramdas Pophale) SiO2 
 PCOD9017870
Probable space group: P -1
;
_chemical_formula_sum "Si O2"
_cell_formula_units_Z 14
_cell_length_a 8.020931
_cell_length_b 15.639008
_cell_length_c 19.140790
_cell_angle_alpha 19.723475
_cell_angle_beta 51.517295
_cell_angle_gamma 42.114943
_cell_volume 511.843116
_symmetry_space_group_name_H-M "P -1"
_symmetry_group_IT_number 2
_symmetry_cell_setting 'triclinic'
loop_
_space_group_symop_operation_xyz
x,y,z
-x,-y,-z
loop_
_atom_site_type_symbol
_atom_site_label
_atom_site_fract_x
_atom_site_fract_y
_atom_site_fract_z
Si Si1 0.127376 0.860503 0.351137
Si Si2 0.321300 0.749284 0.950688
Si Si3 0.062869 0.463968 0.300238
Si Si4 0.235161 0.312476 0.922563
Si Si5 0.802145 0.727705 0.815583
Si Si6 0.503245 0.564070 0.597492
Si Si7 0.056097 0.212610 0.777071
O O1 0.395317 0.563337 0.549700
O O2 0.925223 0.849553 0.465075
O O3 0.924573 0.031792 0.206084
O O4 0.248781 0.059135 0.161491
O O5 0.590122 0.650072 0.920462
O O6 0.294359 0.490437 0.193921
O O7 0.294399 0.969392 0.852229
O O8 0.961622 0.565818 0.328296
O O9 0.830732 0.723017 0.111548
O O10 0.460541 0.358499 0.819144
O O11 0.974804 0.634904 0.772355
O O12 0.664324 0.086308 0.596224
O O13 0.000000 0.500000 0.000000
O O14 0.806219 0.426214 0.627133
O O15 0.000000 0.000000 0.000000
#
# Coordination Sequence:
#
# PCOD9017870 Si02
#       7
#     2   2   2   2   2   2   2
#     4  10  21  43  67 103 136 179 230 270 347 403
#     4  10  24  45  68 100 139 178 227 287 337 403
#     4   9  21  42  68  98 132 179 224 277 341 393
#     4  10  23  45  66 100 142 177 224 280 336 405
#     4  12  25  44  71 104 139 179 228 281 343 412
#     4  11  24  44  70 102 137 183 227 280 345 397
#     4  10  23  45  73 101 135 179 233 283 339 406
#
# _framework density 27.352129999999999
#
# number of rings (size 3 to 8) (size 9 to 14) (size 15 to 20)
#    0.000    1.714    1.429    1.286    4.000    5.143 
#    2.571   25.000    0.000    0.000    0.000    0.000 
#    0.000    0.000    0.000    0.000    0.000    0.000 
#
# Total GULP energy -78022.133821 kJ/mol
# GULP energy per Si atom -5573.009559 kJ/mol
# Density = 2.728987 g / cm^3
# Si number density = 27.352130 Si / 1000 Ang^3
#
#
#
# Elastic Constant Matrix: (Units=GPa)
#
#
# Indices 1 2 3 4 5 6 
#
# 1 140.0382 39.3088 20.4639 10.2549 28.0031 -21.0888
# 2 39.3088 104.6198 33.2121 18.6726 -5.2179 -2.1612
# 3 20.4639 33.2121 135.1140 44.4057 -18.7704 -11.9992
# 4 10.2549 18.6726 44.4057 52.3349 -11.0977 -5.6584
# 5 28.0031 -5.2179 -18.7704 -11.0977 52.3315 15.7875
# 6 -21.0888 -2.1612 -11.9992 -5.6584 15.7875 34.9501
#
#
#
# Elastic Compliance Matrix: (Units=1/GPa)
#
#
# Indices 1 2 3 4 5 6 
#
# 1 0.012809 -0.004627 -0.000935 -0.001206 -0.011574 0.012155
# 2 -0.004627 0.012217 -0.001568 -0.001747 0.004195 -0.004753
# 3 -0.000935 -0.001568 0.010936 -0.007957 0.002355 0.000741
# 4 -0.001206 -0.001747 -0.007957 0.027411 0.003667 -0.000786
# 5 -0.011574 0.004195 0.002355 0.003667 0.033516 -0.020462
# 6 0.012155 -0.004753 0.000741 -0.000786 -0.020462 0.045023
#
#
# Mechanical properties :
#
#
# Convention : Reuss Voigt Hill
#
# Bulk Modulus (GPa) = 46.07357 62.86015 54.46686
# Shear Modulus (GPa) = 30.59846 47.04245 38.82045
#
# Velocity S-wave (km/s) = 3.34831 4.15165 3.77143
# Velocity P-wave (km/s) = 5.64175 6.78331 6.23869
#
# Compressibility (1/GPa) = 0.02170442
#
# Stress axis : x y z
#
# Youngs Moduli (GPa) = 78.06708 81.85067 91.43860
#
# Poissons Ratio (x) = 0.37873 0.08547
# Poissons Ratio (y) = 0.36122 0.14334
# Poissons Ratio (z) = 0.07297 0.12831
#
# Static dielectric constant tensor:
#      x y z
#    x 2.369850 0.157320 -0.125880 
#    y 0.157320 2.251140 -0.123680 
#    z -0.125880 -0.123680 2.147960 
# 
# From -- ./inp_files/590848.got.cif
#   From: 2010.05.17/outbox.cif.g08.bks.cpg/sg2_296_cif.got.tgz:590848.got - 2010.06.03 11:33:40.
