data_PCOD9017069
_publ_section_title
;
Structure prediction by ZEFSAII (Michael W. Deem and Ramdas Pophale) SiO2 
 PCOD9017069
Probable space group: P -1
;
_chemical_formula_sum "Si O2"
_cell_formula_units_Z 16
_cell_length_a 17.931425
_cell_length_b 9.014563
_cell_length_c 5.538818
_cell_angle_alpha 124.132872
_cell_angle_beta 98.199550
_cell_angle_gamma 88.419517
_cell_volume 732.007621
_symmetry_space_group_name_H-M "P -1"
_symmetry_group_IT_number 2
_symmetry_cell_setting 'triclinic'
loop_
_space_group_symop_operation_xyz
x,y,z
-x,-y,-z
loop_
_atom_site_type_symbol
_atom_site_label
_atom_site_fract_x
_atom_site_fract_y
_atom_site_fract_z
Si Si1 0.277702 0.610045 0.885064
Si Si2 0.989690 0.303214 0.695512
Si Si3 0.594240 0.191862 0.170550
Si Si4 0.156873 0.790524 0.745162
Si Si5 0.650710 0.721374 0.194433
Si Si6 0.729224 0.090332 0.476342
Si Si7 0.065433 0.006286 0.236343
Si Si8 0.565336 0.775956 0.694266
O O1 0.358147 0.684479 0.881404
O O2 0.212218 0.629362 0.675440
O O3 0.293514 0.433716 0.874380
O O4 0.250693 0.754370 0.188741
O O5 0.922762 0.300627 0.464649
O O6 0.958514 0.150943 0.730058
O O7 0.062225 0.206269 0.531067
O O8 0.000000 0.500000 0.000000
O O9 0.654394 0.151133 0.364106
O O10 0.521280 0.275775 0.324282
O O11 0.570566 0.994506 0.873359
O O12 0.202584 0.913031 0.680888
O O13 0.137732 0.935524 0.072847
O O14 0.592388 0.710567 0.385395
O O15 0.701780 0.904864 0.413224
O O16 0.613877 0.724062 0.908924
O O17 0.000000 0.000000 0.000000
#
# Coordination Sequence:
#
# PCOD9017069 Si02
#       8
#     2   2   2   2   2   2   2   2
#     4  11  23  41  63  89 131 177 220 273 331 399
#     4  10  21  42  71 100 133 165 212 272 327 394
#     4   9  21  38  67  89 129 173 220 283 340 399
#     4  10  22  42  65  93 134 177 218 264 335 397
#     4  11  25  41  65  93 134 172 235 281 334 402
#     4  10  22  43  62  88 131 177 219 273 333 397
#     4   9  20  41  66  97 130 165 209 264 317 397
#     4  10  22  41  64  98 127 174 228 285 348 395
#
# _framework density 21.857697000000002
#
# number of rings (size 3 to 8) (size 9 to 14) (size 15 to 20)
#    0.000    2.000    1.250    0.750    5.250    4.500 
#    0.000   16.250    0.000    0.000    0.000    0.000 
#    0.000    0.000    0.000    0.000    0.000    0.000 
#
# Total GULP energy -89216.105056 kJ/mol
# GULP energy per Si atom -5576.006566 kJ/mol
# Density = 2.180795 g / cm^3
# Si number density = 21.857697 Si / 1000 Ang^3
#
#
#
# Elastic Constant Matrix: (Units=GPa)
#
#
# Indices 1 2 3 4 5 6 
#
# 1 91.8660 31.5859 26.3418 20.5613 -17.0409 4.0702
# 2 31.5859 113.3195 25.8669 33.6879 -10.3843 18.4883
# 3 26.3418 25.8669 93.9949 9.5163 -36.2239 -8.2758
# 4 20.5613 33.6879 9.5163 26.1459 10.6716 -16.5083
# 5 -17.0409 -10.3843 -36.2239 10.6716 46.1081 12.7961
# 6 4.0702 18.4883 -8.2758 -16.5083 12.7961 -0.1005
#
#
#
# Elastic Compliance Matrix: (Units=1/GPa)
#
#
# Indices 1 2 3 4 5 6 
#
# 1 0.012630 -0.004127 -0.001506 -0.000200 0.000765 0.006618
# 2 -0.004127 0.007172 -0.002449 0.003816 -0.005628 0.010490
# 3 -0.001506 -0.002449 0.016852 -0.002874 0.011253 0.005563
# 4 -0.000200 0.003816 -0.002874 0.010329 0.005745 -0.034621
# 5 0.000765 -0.005628 0.011253 0.005745 0.022733 0.019748
# 6 0.006618 0.010490 0.005563 -0.034621 0.019748 -0.009210
#
#
# Mechanical properties :
#
#
# Convention : Reuss Voigt Hill
#
# Bulk Modulus (GPa) = 48.80346 51.86328 50.33337
# Shear Modulus (GPa) = 59.88021 28.78976 44.33499
#
# Velocity S-wave (km/s) = 5.23975 3.63319 4.50860
# Velocity P-wave (km/s) = 7.68003 6.43267 7.08386
#
# Compressibility (1/GPa) = 0.02049035
#
# Stress axis : x y z
#
# Youngs Moduli (GPa) = 79.17932 139.42737 59.33907
#
# Poissons Ratio (x) = 0.57537 0.08937
# Poissons Ratio (y) = 0.32675 0.14533
# Poissons Ratio (z) = 0.11925 0.34147
#
# Static dielectric constant tensor:
#      x y z
#    x 1.787170 -0.024840 -0.044020 
#    y -0.024840 1.809960 -0.031160 
#    z -0.044020 -0.031160 1.786080 
# 
# From -- ./inp_files/105786.got.cif
#   From: 2010.05.17/outbox.cif.g08.bks.cpg/sg2_53_cif.got.tgz:105786.got - 2010.06.03 11:33:40.
