data_PCOD9017750
_publ_section_title
;
Structure prediction by ZEFSAII (Michael W. Deem and Ramdas Pophale) SiO2 
 PCOD9017750
Probable space group: P -1
;
_chemical_formula_sum "Si O2"
_cell_formula_units_Z 12
_cell_length_a 11.809136
_cell_length_b 14.405012
_cell_length_c 6.924808
_cell_angle_alpha 90.670652
_cell_angle_beta 82.369956
_cell_angle_gamma 150.555125
_cell_volume 560.746477
_symmetry_space_group_name_H-M "P -1"
_symmetry_group_IT_number 2
_symmetry_cell_setting 'triclinic'
loop_
_space_group_symop_operation_xyz
x,y,z
-x,-y,-z
loop_
_atom_site_type_symbol
_atom_site_label
_atom_site_fract_x
_atom_site_fract_y
_atom_site_fract_z
Si Si1 0.338293 0.476121 0.350990
Si Si2 0.500168 0.195163 0.240407
Si Si3 0.867936 0.537428 0.912503
Si Si4 0.722015 0.228526 0.469931
Si Si5 0.074445 0.747244 0.272158
Si Si6 0.725752 0.778509 0.580649
O O1 0.290494 0.504781 0.177361
O O2 0.589747 0.671623 0.403658
O O3 0.306191 0.344023 0.315217
O O4 0.134485 0.359304 0.550222
O O5 0.615658 0.250256 0.423789
O O6 0.397823 0.225135 0.280213
O O7 0.294424 0.975243 0.236020
O O8 0.700779 0.338678 0.034491
O O9 0.079186 0.655561 0.729112
O O10 0.982373 0.667168 0.076763
O O11 0.839496 0.288302 0.649698
O O12 0.500000 0.000000 0.500000
O O13 0.000000 0.000000 0.500000
#
# Coordination Sequence:
#
# PCOD9017750 Si02
#       6
#     2   2   2   2   2   2
#     4  10  23  43  64  92 128 165 208 261 317 362
#     4  11  22  40  64  98 124 167 216 251 311 374
#     4  11  23  42  65  97 126 163 208 263 311 376
#     4   9  22  42  64  94 130 166 205 255 318 372
#     4  10  21  43  66  91 131 166 202 261 317 367
#     4  11  22  42  69  88 126 171 210 258 310 373
#
# _framework density 21.400046
#
# number of rings (size 3 to 8) (size 9 to 14) (size 15 to 20)
#    0.000    1.667    3.333    0.500    0.000    5.333 
#    3.000    1.667    0.000    0.000    0.000    0.000 
#    0.000    0.000    0.000    0.000    0.000    0.000 
#
# Total GULP energy -67104.556094 kJ/mol
# GULP energy per Si atom -5592.046341 kJ/mol
# Density = 2.135134 g / cm^3
# Si number density = 21.400046 Si / 1000 Ang^3
#
#
#
# Elastic Constant Matrix: (Units=GPa)
#
#
# Indices 1 2 3 4 5 6 
#
# 1 101.4211 35.5337 27.1782 -5.8703 15.8132 1.0366
# 2 35.5337 159.2772 51.0562 -14.3013 14.0750 9.1317
# 3 27.1782 51.0562 63.0420 -1.6274 12.4959 -10.9833
# 4 -5.8703 -14.3013 -1.6274 31.6514 8.5957 1.0837
# 5 15.8132 14.0750 12.4959 8.5957 38.8023 3.9132
# 6 1.0366 9.1317 -10.9833 1.0837 3.9132 26.2024
#
#
#
# Elastic Compliance Matrix: (Units=1/GPa)
#
#
# Indices 1 2 3 4 5 6 
#
# 1 0.011949 -0.000717 -0.004000 0.002764 -0.003787 -0.001448
# 2 -0.000717 0.010206 -0.008970 0.004478 -0.000771 -0.007358
# 3 -0.004000 -0.008970 0.028701 -0.002390 -0.005466 0.016230
# 4 0.002764 0.004478 -0.002390 0.036777 -0.009854 -0.002721
# 5 -0.003787 -0.000771 -0.005466 -0.009854 0.032170 -0.006270
# 6 -0.001448 -0.007358 0.016230 -0.002721 -0.006270 0.048638
#
#
# Mechanical properties :
#
#
# Convention : Reuss Voigt Hill
#
# Bulk Modulus (GPa) = 42.58922 61.25292 51.92107
# Shear Modulus (GPa) = 24.55290 33.32937 28.94113
#
# Velocity S-wave (km/s) = 3.39090 3.95073 3.68147
# Velocity P-wave (km/s) = 5.93933 7.03533 6.51044
#
# Compressibility (1/GPa) = 0.02348012
#
# Stress axis : x y z
#
# Youngs Moduli (GPa) = 83.69239 97.98414 34.84223
#
# Poissons Ratio (x) = 0.07029 0.13938
# Poissons Ratio (y) = 0.06004 0.31252
# Poissons Ratio (z) = 0.33481 0.87888
#
# Static dielectric constant tensor:
#      x y z
#    x 1.798990 0.010410 0.002680 
#    y 0.010410 1.778470 0.002160 
#    z 0.002680 0.002160 1.748800 
# 
# From -- ./inp_files/35224.got.cif
#   From: 2010.05.17/outbox.cif.g08.bks.cpg/sg2_18_cif.got.tgz:35224.got - 2010.06.03 11:33:40.
