data_PCOD9017418
_publ_section_title
;
Structure prediction by ZEFSAII (Michael W. Deem and Ramdas Pophale) SiO2 
 PCOD9017418
Probable space group: P -1
;
_chemical_formula_sum "Si O2"
_cell_formula_units_Z 16
_cell_length_a 6.373943
_cell_length_b 23.551353
_cell_length_c 17.985963
_cell_angle_alpha 18.433176
_cell_angle_beta 64.535729
_cell_angle_gamma 76.125006
_cell_volume 623.024336
_symmetry_space_group_name_H-M "P -1"
_symmetry_group_IT_number 2
_symmetry_cell_setting 'triclinic'
loop_
_space_group_symop_operation_xyz
x,y,z
-x,-y,-z
loop_
_atom_site_type_symbol
_atom_site_label
_atom_site_fract_x
_atom_site_fract_y
_atom_site_fract_z
Si Si1 0.723551 0.139875 0.403056
Si Si2 0.728418 0.186849 0.945023
Si Si3 0.621651 0.693915 0.681949
Si Si4 0.367203 0.141699 0.841827
Si Si5 0.134528 0.043552 0.262005
Si Si6 0.158812 0.714378 0.953564
Si Si7 0.686674 0.784410 0.403281
Si Si8 0.870795 0.476025 0.429183
O O1 0.555844 0.206493 0.396224
O O2 0.863100 0.311567 0.099639
O O3 0.906898 0.103037 0.477106
O O4 0.487038 0.902144 0.695373
O O5 0.890376 0.330046 0.669132
O O6 0.960518 0.286528 0.851737
O O7 0.470403 0.195258 0.001810
O O8 0.588260 0.937244 0.254378
O O9 0.598229 0.624582 0.685705
O O10 0.500000 0.500000 0.000000
O O11 0.948509 0.881810 0.423200
O O12 0.415082 0.271825 0.595730
O O13 0.535729 0.332555 0.640626
O O14 0.500000 0.000000 0.000000
O O15 0.031221 0.961572 0.128455
O O16 0.017086 0.184464 0.126100
O O17 0.027090 0.510641 0.283939
#
# Coordination Sequence:
#
# PCOD9017418 Si02
#       8
#     2   2   2   2   2   2   2   2
#     4  10  21  43  62  91 135 170 218 275 336 383
#     4  11  22  41  70  98 130 173 217 276 331 391
#     4  11  25  41  67  98 125 179 233 271 317 402
#     4  11  25  45  68  96 134 183 211 271 345 393
#     4  11  21  42  68  91 135 174 212 278 349 375
#     4  10  22  39  63  96 131 171 213 277 333 391
#     4  11  24  47  67  92 140 175 218 272 340 394
#     4  11  23  40  67 102 129 164 230 268 319 405
#
# _framework density 25.681177999999999
#
# number of rings (size 3 to 8) (size 9 to 14) (size 15 to 20)
#    0.000    1.250    3.750    1.875    0.000    5.500 
#    0.000    0.000    0.000    0.000    0.000    0.000 
#    0.000    0.000    0.000    0.000    0.000    0.000 
#
# Total GULP energy -89535.894078 kJ/mol
# GULP energy per Si atom -5595.993380 kJ/mol
# Density = 2.562273 g / cm^3
# Si number density = 25.681178 Si / 1000 Ang^3
#
#
#
# Elastic Constant Matrix: (Units=GPa)
#
#
# Indices 1 2 3 4 5 6 
#
# 1 100.3226 48.5794 14.5401 7.4564 -4.1262 20.4060
# 2 48.5794 103.8936 23.2916 35.7490 9.4035 29.3347
# 3 14.5401 23.2916 86.4142 35.6106 12.9944 22.1556
# 4 7.4564 35.7490 35.6106 55.7529 21.0627 10.5650
# 5 -4.1262 9.4035 12.9944 21.0627 35.0406 12.8999
# 6 20.4060 29.3347 22.1556 10.5650 12.8999 43.6369
#
#
#
# Elastic Compliance Matrix: (Units=1/GPa)
#
#
# Indices 1 2 3 4 5 6 
#
# 1 0.013891 -0.006454 -0.001305 0.002350 0.003589 -0.003125
# 2 -0.006454 0.018600 0.003113 -0.012911 0.004239 -0.009193
# 3 -0.001305 0.003113 0.017945 -0.012900 0.003210 -0.008419
# 4 0.002350 -0.012911 -0.012900 0.039339 -0.018870 0.010184
# 5 0.003589 0.004239 0.003210 -0.018870 0.043270 -0.014381
# 6 -0.003125 -0.009193 -0.008419 0.010184 -0.014381 0.036618
#
#
# Mechanical properties :
#
#
# Convention : Reuss Voigt Hill
#
# Bulk Modulus (GPa) = 24.30542 51.49473 37.90008
# Shear Modulus (GPa) = 25.95138 40.50072 33.22605
#
# Velocity S-wave (km/s) = 3.18232 3.97553 3.60083
# Velocity P-wave (km/s) = 4.79455 6.41624 5.66374
#
# Compressibility (1/GPa) = 0.04114309
#
# Stress axis : x y z
#
# Youngs Moduli (GPa) = 71.99108 53.76460 55.72686
#
# Poissons Ratio (x) = 0.34698 0.07271
# Poissons Ratio (y) = 0.46461 -0.17345
# Poissons Ratio (z) = 0.09393 -0.16735
#
# Static dielectric constant tensor:
#      x y z
#    x 2.009350 0.002940 0.067920 
#    y 0.002940 1.991890 0.029430 
#    z 0.067920 0.029430 2.131300 
# 
# From -- ./inp_files/551179.got.cif
#   From: 2010.05.17/outbox.cif.g08.bks.cpg/sg2_276_cif.got.tgz:551179.got - 2010.06.03 11:33:40.
