data_PCOD9017276
_publ_section_title
;
Structure prediction by ZEFSAII (Michael W. Deem and Ramdas Pophale) SiO2 
 PCOD9017276
Probable space group: P -1
;
_chemical_formula_sum "Si O2"
_cell_formula_units_Z 13
_cell_length_a 8.940846
_cell_length_b 15.620484
_cell_length_c 15.902773
_cell_angle_alpha 26.245814
_cell_angle_beta 46.222511
_cell_angle_gamma 64.222560
_cell_volume 576.960877
_symmetry_space_group_name_H-M "P -1"
_symmetry_group_IT_number 2
_symmetry_cell_setting 'triclinic'
loop_
_space_group_symop_operation_xyz
x,y,z
-x,-y,-z
loop_
_atom_site_type_symbol
_atom_site_label
_atom_site_fract_x
_atom_site_fract_y
_atom_site_fract_z
Si Si1 0.055000 0.242754 0.874204
Si Si2 0.003298 0.028535 0.260389
Si Si3 0.285571 0.693068 0.689666
Si Si4 0.195863 0.475468 0.295697
Si Si5 0.258674 0.083969 0.278754
Si Si6 0.691153 0.696441 0.441169
Si Si7 0.500000 0.000000 0.500000
O O1 0.951596 0.406190 0.771095
O O2 0.283571 0.344862 0.629116
O O3 0.099703 0.186773 0.999224
O O4 0.840323 0.980201 0.150765
O O5 0.896178 0.757548 0.516602
O O6 0.775633 0.038457 0.376293
O O7 0.216641 0.105554 0.178840
O O8 0.415307 0.588766 0.681567
O O9 0.453916 0.837510 0.578124
O O10 0.290949 0.874782 0.464359
O O11 0.000000 0.500000 0.000000
O O12 0.177558 0.395458 0.470314
O O13 0.494604 0.681516 0.983403
O O14 0.000000 0.000000 0.500000
#
# Coordination Sequence:
#
# PCOD9017276 Si02
#       7
#     2   2   2   2   2   2   1
#     4  10  21  44  72  98 137 181 233 277 339 405
#     4  11  26  43  68 101 138 180 226 283 338 407
#     4  12  25  45  71 102 139 179 223 285 345 404
#     4  11  22  45  70 101 132 184 225 278 345 399
#     4  12  25  42  65 100 140 176 225 281 338 409
#     4  10  21  42  73 101 134 183 228 281 338 403
#     4  12  22  44  68  96 140 176 224 278 340 402
#
# _framework density 22.531856000000001
#
# number of rings (size 3 to 8) (size 9 to 14) (size 15 to 20)
#    0.000    0.923    6.154    1.385    0.000    3.077 
#    0.000    1.538    0.000    1.846    0.000    0.000 
#    0.000    0.000    0.000    0.000    0.000    0.000 
#
# Total GULP energy -72491.762293 kJ/mol
# GULP energy per Si atom -5576.289407 kJ/mol
# Density = 2.248057 g / cm^3
# Si number density = 22.531856 Si / 1000 Ang^3
#
#
#
# Elastic Constant Matrix: (Units=GPa)
#
#
# Indices 1 2 3 4 5 6 
#
# 1 113.0432 49.1616 47.4238 -13.0884 12.0727 -0.3322
# 2 49.1616 114.6451 64.4949 0.3373 2.8778 -1.6023
# 3 47.4238 64.4949 102.9580 -8.1305 11.0041 -4.7128
# 4 -13.0884 0.3373 -8.1305 36.8215 -10.8663 4.9265
# 5 12.0727 2.8778 11.0041 -10.8663 35.5699 -4.0166
# 6 -0.3322 -1.6023 -4.7128 4.9265 -4.0166 30.3270
#
#
#
# Elastic Compliance Matrix: (Units=1/GPa)
#
#
# Indices 1 2 3 4 5 6 
#
# 1 0.012243 -0.003537 -0.003002 0.003283 -0.002088 -0.001329
# 2 -0.003537 0.014679 -0.007949 -0.002674 0.001673 0.000158
# 3 -0.003002 -0.007949 0.016571 0.001641 -0.002795 0.001485
# 4 0.003283 -0.002674 0.001641 0.031536 0.007783 -0.003942
# 5 -0.002088 0.001673 -0.002795 0.007783 0.032227 0.002635
# 6 -0.001329 0.000158 0.001485 -0.003942 0.002635 0.034188
#
#
# Mechanical properties :
#
#
# Convention : Reuss Voigt Hill
#
# Bulk Modulus (GPa) = 68.88281 72.53411 70.70846
# Shear Modulus (GPa) = 28.52917 31.84809 30.18863
#
# Velocity S-wave (km/s) = 3.56219 3.76369 3.66433
# Velocity P-wave (km/s) = 6.89613 7.15184 7.02515
#
# Compressibility (1/GPa) = 0.01451741
#
# Stress axis : x y z
#
# Youngs Moduli (GPa) = 81.67946 68.12426 60.34576
#
# Poissons Ratio (x) = 0.24095 0.18116
# Poissons Ratio (y) = 0.28890 0.47968
# Poissons Ratio (z) = 0.24521 0.54151
#
# Static dielectric constant tensor:
#      x y z
#    x 1.839790 -0.010740 0.007670 
#    y -0.010740 1.807500 0.022530 
#    z 0.007670 0.022530 1.902810 
# 
# From -- ./inp_files/501390.got.cif
#   From: 2010.05.17/outbox.cif.g08.bks.cpg/sg2_251_cif.got.tgz:501390.got - 2010.06.03 11:33:40.
