data_PCOD9017822
_publ_section_title
;
Structure prediction by ZEFSAII (Michael W. Deem and Ramdas Pophale) SiO2 
 PCOD9017822
Probable space group: P -1
;
_chemical_formula_sum "Si O2"
_cell_formula_units_Z 16
_cell_length_a 9.274309
_cell_length_b 14.025459
_cell_length_c 11.733724
_cell_angle_alpha 30.597518
_cell_angle_beta 88.184215
_cell_angle_gamma 93.780341
_cell_volume 763.350751
_symmetry_space_group_name_H-M "P -1"
_symmetry_group_IT_number 2
_symmetry_cell_setting 'triclinic'
loop_
_space_group_symop_operation_xyz
x,y,z
-x,-y,-z
loop_
_atom_site_type_symbol
_atom_site_label
_atom_site_fract_x
_atom_site_fract_y
_atom_site_fract_z
Si Si1 0.373779 0.666937 0.089706
Si Si2 0.978862 0.769957 0.733738
Si Si3 0.590461 0.387146 0.334104
Si Si4 0.251254 0.592991 0.921924
Si Si5 0.911755 0.598438 0.157855
Si Si6 0.423345 0.997199 0.128615
Si Si7 0.866772 0.868645 0.077416
Si Si8 0.112387 0.460926 0.439248
O O1 0.453421 0.486116 0.261794
O O2 0.241542 0.626986 0.224879
O O3 0.309889 0.685936 0.944894
O O4 0.492145 0.836257 0.963759
O O5 0.127530 0.702429 0.758639
O O6 0.834283 0.628593 0.830625
O O7 0.965707 0.695544 0.939744
O O8 0.000000 0.000000 0.500000
O O9 0.621353 0.384207 0.200119
O O10 0.740268 0.516077 0.242982
O O11 0.576030 0.192596 0.603840
O O12 0.930897 0.764856 0.078601
O O13 0.003964 0.436753 0.358212
O O14 0.259853 0.029308 0.071201
O O15 0.500000 0.000000 0.000000
O O16 0.813035 0.706649 0.340533
O O17 0.000000 0.000000 0.000000
O O18 0.000000 0.500000 0.500000
#
# Coordination Sequence:
#
# PCOD9017822 Si02
#       8
#     2   2   2   2   2   2   2   2
#     4  12  25  47  67 100 145 177 233 288 350 418
#     4  10  22  40  70 104 141 171 231 290 337 411
#     4  11  25  45  71  97 142 184 226 285 350 416
#     4  10  24  43  69 105 136 189 228 278 356 414
#     4  10  21  43  66  96 134 179 221 281 349 401
#     4  12  29  43  68 104 135 182 238 286 350 420
#     4  11  24  40  65  97 130 176 234 275 342 409
#     4  10  23  41  67  90 132 182 218 286 339 404
#
# _framework density 20.960221000000001
#
# number of rings (size 3 to 8) (size 9 to 14) (size 15 to 20)
#    0.000    1.250    2.500    1.875    8.750    3.500 
#    0.000    0.000    0.000    0.000    0.000    0.000 
#    0.000    0.000    0.000    0.000    0.000    0.000 
#
# Total GULP energy -89255.555100 kJ/mol
# GULP energy per Si atom -5578.472194 kJ/mol
# Density = 2.091251 g / cm^3
# Si number density = 20.960221 Si / 1000 Ang^3
#
#
#
# Elastic Constant Matrix: (Units=GPa)
#
#
# Indices 1 2 3 4 5 6 
#
# 1 101.6844 23.4405 32.7061 3.6580 3.4475 -2.2854
# 2 23.4405 126.6428 42.3092 4.2221 -9.5646 13.3645
# 3 32.7061 42.3092 102.4639 8.5924 5.4378 -6.3814
# 4 3.6580 4.2221 8.5924 25.0331 -3.5919 0.5540
# 5 3.4475 -9.5646 5.4378 -3.5919 32.0855 4.1219
# 6 -2.2854 13.3645 -6.3814 0.5540 4.1219 40.3790
#
#
#
# Elastic Compliance Matrix: (Units=1/GPa)
#
#
# Indices 1 2 3 4 5 6 
#
# 1 0.011127 -0.001250 -0.002872 -0.000624 -0.001244 0.000725
# 2 -0.001250 0.010475 -0.004536 0.000755 0.004720 -0.004747
# 3 -0.002872 -0.004536 0.013366 -0.004104 -0.004275 0.003944
# 4 -0.000624 0.000755 -0.004104 0.042226 0.005988 -0.002124
# 5 -0.001244 0.004720 -0.004275 0.005988 0.034867 -0.005950
# 6 0.000725 -0.004747 0.003944 -0.002124 -0.005950 0.027637
#
#
# Mechanical properties :
#
#
# Convention : Reuss Voigt Hill
#
# Bulk Modulus (GPa) = 56.64895 58.63362 57.64129
# Shear Modulus (GPa) = 30.69417 34.98855 32.84136
#
# Velocity S-wave (km/s) = 3.83090 4.09012 3.96263
# Velocity P-wave (km/s) = 6.83032 7.09506 6.96395
#
# Compressibility (1/GPa) = 0.01765258
#
# Stress axis : x y z
#
# Youngs Moduli (GPa) = 89.87000 95.46426 74.81726
#
# Poissons Ratio (x) = 0.11930 0.21489
# Poissons Ratio (y) = 0.11231 0.33936
# Poissons Ratio (z) = 0.25813 0.43302
#
# Static dielectric constant tensor:
#      x y z
#    x 1.798580 0.000000 0.010330 
#    y 0.000000 1.799780 -0.003240 
#    z 0.010330 -0.003240 1.776920 
# 
# From -- ./inp_files/398186.got.cif
#   From: 2010.05.17/outbox.cif.g08.bks.cpg/sg2_200_cif.got.tgz:398186.got - 2010.06.03 11:33:40.
