data_PCOD9017971
_publ_section_title
;
Structure prediction by ZEFSAII (Michael W. Deem and Ramdas Pophale) SiO2 
 PCOD9017971
Probable space group: P -1
;
_chemical_formula_sum "Si O2"
_cell_formula_units_Z 16
_cell_length_a 9.626790
_cell_length_b 20.690628
_cell_length_c 9.088801
_cell_angle_alpha 114.784693
_cell_angle_beta 45.066241
_cell_angle_gamma 142.162509
_cell_volume 745.049046
_symmetry_space_group_name_H-M "P -1"
_symmetry_group_IT_number 2
_symmetry_cell_setting 'triclinic'
loop_
_space_group_symop_operation_xyz
x,y,z
-x,-y,-z
loop_
_atom_site_type_symbol
_atom_site_label
_atom_site_fract_x
_atom_site_fract_y
_atom_site_fract_z
Si Si1 0.771978 0.672639 0.821342
Si Si2 0.711979 0.905246 0.438724
Si Si3 0.586095 0.101436 0.587392
Si Si4 0.193445 0.942723 0.254500
Si Si5 0.824551 0.208754 0.798280
Si Si6 0.094566 0.515528 0.115333
Si Si7 0.112028 0.700321 0.853124
Si Si8 0.784054 0.569975 0.464087
O O1 0.719925 0.585443 0.685057
O O2 0.069014 0.790263 0.632417
O O3 0.867821 0.679004 0.921701
O O4 0.455785 0.626439 0.986504
O O5 0.638674 0.905835 0.329226
O O6 0.413172 0.781792 0.605443
O O7 0.000820 0.937009 0.282167
O O8 0.743386 0.987101 0.588638
O O9 0.570108 0.108362 0.780230
O O10 0.500000 0.000000 0.500000
O O11 0.006001 0.819575 0.325369
O O12 0.500000 0.000000 0.000000
O O13 0.971397 0.311895 0.689225
O O14 0.783123 0.231818 0.010188
O O15 0.009594 0.411903 0.126923
O O16 0.900018 0.522435 0.346661
O O17 0.000000 0.500000 0.000000
O O18 0.500000 0.500000 0.500000
#
# Coordination Sequence:
#
# PCOD9017971 Si02
#       8
#     2   2   2   2   2   2   2   2
#     4  10  24  44  65  96 138 167 221 276 322 393
#     4  10  23  42  65  95 125 173 219 264 327 384
#     4  10  21  43  67  96 133 174 219 277 323 387
#     4  11  22  41  66  92 131 169 218 269 319 387
#     4  11  22  40  68  91 132 173 215 269 333 375
#     4  12  23  42  70  98 132 174 217 270 334 386
#     4  11  23  43  66  97 135 170 221 272 326 393
#     4  11  23  42  66  96 129 171 220 266 325 391
#
# _framework density 21.475096000000001
#
# number of rings (size 3 to 8) (size 9 to 14) (size 15 to 20)
#    0.000    1.250    5.000    0.375    1.750    0.500 
#    9.000    0.625    0.000    0.000    0.000    0.000 
#    0.000    0.000    0.000    0.000    0.000    0.000 
#
# Total GULP energy -89289.680216 kJ/mol
# GULP energy per Si atom -5580.605014 kJ/mol
# Density = 2.142622 g / cm^3
# Si number density = 21.475096 Si / 1000 Ang^3
#
#
#
# Elastic Constant Matrix: (Units=GPa)
#
#
# Indices 1 2 3 4 5 6 
#
# 1 155.7030 35.0983 54.8106 5.1778 1.4829 21.6303
# 2 35.0983 85.9377 14.1683 9.2849 -4.8705 -1.5627
# 3 54.8106 14.1683 59.8918 13.7054 -4.8371 13.4358
# 4 5.1778 9.2849 13.7054 22.6217 4.8884 2.1622
# 5 1.4829 -4.8705 -4.8371 4.8884 44.2494 0.6750
# 6 21.6303 -1.5627 13.4358 2.1622 0.6750 41.7790
#
#
#
# Elastic Compliance Matrix: (Units=1/GPa)
#
#
# Indices 1 2 3 4 5 6 
#
# 1 0.011054 -0.003675 -0.010170 0.005953 -0.002501 -0.002857
# 2 -0.003675 0.013798 0.001221 -0.006309 0.002437 0.002313
# 3 -0.010170 0.001221 0.031177 -0.017972 0.005928 -0.003881
# 4 0.005953 -0.006309 -0.017972 0.058370 -0.009301 -0.000409
# 5 -0.002501 0.002437 0.005928 -0.009301 0.024633 -0.000437
# 6 -0.002857 0.002313 -0.003881 -0.000409 -0.000437 0.026778
#
#
# Mechanical properties :
#
#
# Convention : Reuss Voigt Hill
#
# Bulk Modulus (GPa) = 32.48790 56.63186 44.55988
# Shear Modulus (GPa) = 24.83643 34.89371 29.86507
#
# Velocity S-wave (km/s) = 3.40446 4.03531 3.73323
# Velocity P-wave (km/s) = 5.53306 6.93829 6.27513
#
# Compressibility (1/GPa) = 0.03078069
#
# Stress axis : x y z
#
# Youngs Moduli (GPa) = 90.46848 72.47555 32.07484
#
# Poissons Ratio (x) = 0.26632 0.32619
# Poissons Ratio (y) = 0.33244 -0.03915
# Poissons Ratio (z) = 0.92004 -0.08846
#
# Static dielectric constant tensor:
#      x y z
#    x 1.776530 0.014310 0.011930 
#    y 0.014310 1.837820 -0.017850 
#    z 0.011930 -0.017850 1.784780 
# 
# From -- ./inp_files/222292.got.cif
#   From: 2010.05.17/outbox.cif.g08.bks.cpg/sg2_112_cif.got.tgz:222292.got - 2010.06.03 11:33:40.
