data_PCOD9017380
_publ_section_title
;
Structure prediction by ZEFSAII (Michael W. Deem and Ramdas Pophale) SiO2 
 PCOD9017380
Probable space group: P -1
;
_chemical_formula_sum "Si O2"
_cell_formula_units_Z 16
_cell_length_a 11.102020
_cell_length_b 11.102022
_cell_length_c 5.486046
_cell_angle_alpha 109.201681
_cell_angle_beta 109.201692
_cell_angle_gamma 73.602465
_cell_volume 591.431987
_symmetry_space_group_name_H-M "P -1"
_symmetry_group_IT_number 2
_symmetry_cell_setting 'triclinic'
loop_
_space_group_symop_operation_xyz
x,y,z
-x,-y,-z
loop_
_atom_site_type_symbol
_atom_site_label
_atom_site_fract_x
_atom_site_fract_y
_atom_site_fract_z
Si Si1 0.257855 0.242145 0.750000
Si Si2 0.305778 0.702845 0.733414
Si Si3 0.797155 0.194221 0.766586
Si Si4 0.483472 0.173905 0.241779
Si Si5 0.651884 0.580688 0.416705
Si Si6 0.936007 0.563993 0.750000
Si Si7 0.080688 0.151884 0.916705
Si Si8 0.326095 0.016528 0.258220
O O1 0.286650 0.378102 0.765807
O O2 0.295602 0.145350 0.488455
O O3 0.354650 0.204398 0.011544
O O4 0.121898 0.213350 0.734192
O O5 0.226888 0.723612 0.442010
O O6 0.397648 0.809362 0.840403
O O7 0.389444 0.557574 0.711382
O O8 0.223612 0.726889 0.942010
O O9 0.690638 0.102352 0.659598
O O10 0.942426 0.110556 0.788617
O O11 0.459802 0.300418 0.490892
O O12 0.462878 0.037122 0.250000
O O13 0.782735 0.559772 0.653197
O O14 0.940228 0.717265 0.846804
O O15 0.000000 0.500000 0.500000
O O16 0.000000 0.500000 0.000000
O O17 0.199582 0.040198 0.009107
#
# Coordination Sequence:
#
# PCOD9017380 Si02
#       8
#     2   2   2   2   2   2   2   2
#     4  10  21  42  78  99 132 182 248 286 337 412
#     4  12  30  47  68 106 148 186 230 296 357 411
#     4  12  30  47  68 106 148 186 230 296 357 411
#     4  10  24  46  75 101 133 190 246 287 343 420
#     4  11  23  44  69 105 139 186 235 282 350 429
#     4  12  23  36  64  99 140 176 210 276 347 412
#     4  11  23  44  69 105 139 186 235 282 350 429
#     4  10  24  46  75 101 133 190 246 287 343 420
#
# _framework density 27.052983999999999
#
# number of rings (size 3 to 8) (size 9 to 14) (size 15 to 20)
#    0.000    1.000    3.750    3.000   10.500    2.000 
#    0.000    0.000    0.000    0.000    0.000    0.000 
#    0.000    0.000    0.000    0.000    0.000    0.000 
#
# Total GULP energy -89546.600788 kJ/mol
# GULP energy per Si atom -5596.662549 kJ/mol
# Density = 2.699141 g / cm^3
# Si number density = 27.052984 Si / 1000 Ang^3
#
#
#
# Elastic Constant Matrix: (Units=GPa)
#
#
# Indices 1 2 3 4 5 6 
#
# 1 133.8923 19.3830 25.4281 8.1028 -5.3144 3.1495
# 2 19.3830 130.1784 23.7676 -7.4456 6.0974 7.3819
# 3 25.4281 23.7676 71.4542 -24.1827 -28.8198 4.7086
# 4 8.1028 -7.4456 -24.1827 37.5701 2.4320 0.9829
# 5 -5.3144 6.0974 -28.8198 2.4320 38.4277 3.8111
# 6 3.1495 7.3819 4.7086 0.9829 3.8111 44.6977
#
#
#
# Elastic Compliance Matrix: (Units=1/GPa)
#
#
# Indices 1 2 3 4 5 6 
#
# 1 0.008954 -0.000392 -0.006357 -0.005910 -0.003143 0.000501
# 2 -0.000392 0.008933 -0.005425 -0.001276 -0.005421 -0.000386
# 3 -0.006357 -0.005425 0.036707 0.022338 0.026621 -0.005284
# 4 -0.005910 -0.001276 0.022338 0.041217 0.013908 -0.003818
# 5 -0.003143 -0.005421 0.026621 0.013908 0.046121 -0.005926
# 6 0.000501 -0.000386 -0.005284 -0.003818 -0.005926 0.023547
#
#
# Mechanical properties :
#
#
# Convention : Reuss Voigt Hill
#
# Bulk Modulus (GPa) = 33.06110 52.52026 42.79068
# Shear Modulus (GPa) = 25.01147 41.93551 33.47349
#
# Velocity S-wave (km/s) = 3.04392 3.94143 3.52139
# Velocity P-wave (km/s) = 4.95997 6.33792 5.69080
#
# Compressibility (1/GPa) = 0.03024703
#
# Stress axis : x y z
#
# Youngs Moduli (GPa) = 111.68469 111.93913 27.24274
#
# Poissons Ratio (x) = 0.04386 0.17317
# Poissons Ratio (y) = 0.04376 0.14779
# Poissons Ratio (z) = 0.70995 0.60727
#
# Static dielectric constant tensor:
#      x y z
#    x 2.142990 0.046940 -0.048600 
#    y 0.046940 2.126440 -0.040780 
#    z -0.048600 -0.040780 2.224550 
# 
# From -- ./inp_files/72001.got.cif
#   From: 2010.05.17/outbox.cif.g08.bks.cpg/sg2_37_cif.got.tgz:72001.got - 2010.06.03 11:33:40.
