data_PCOD9017625
_publ_section_title
;
Structure prediction by ZEFSAII (Michael W. Deem and Ramdas Pophale) SiO2 
 PCOD9017625
Probable space group: P -1
;
_chemical_formula_sum "Si O2"
_cell_formula_units_Z 14
_cell_length_a 20.231367
_cell_length_b 11.576555
_cell_length_c 8.382655
_cell_angle_alpha 125.938293
_cell_angle_beta 103.149352
_cell_angle_gamma 29.753742
_cell_volume 561.852480
_symmetry_space_group_name_H-M "P -1"
_symmetry_group_IT_number 2
_symmetry_cell_setting 'triclinic'
loop_
_space_group_symop_operation_xyz
x,y,z
-x,-y,-z
loop_
_atom_site_type_symbol
_atom_site_label
_atom_site_fract_x
_atom_site_fract_y
_atom_site_fract_z
Si Si1 0.198663 0.709608 0.529045
Si Si2 0.789911 0.636797 0.776492
Si Si3 0.903833 0.539536 0.040621
Si Si4 0.052456 0.397491 0.266217
Si Si5 0.513392 0.519022 0.206980
Si Si6 0.389938 0.464429 0.126745
Si Si7 0.398634 0.347609 0.688145
O O1 0.144753 0.651822 0.422584
O O2 0.326746 0.499570 0.275546
O O3 0.276604 0.562931 0.634841
O O4 0.038645 0.140270 0.780626
O O5 0.734977 0.816123 0.062946
O O6 0.951599 0.429602 0.648417
O O7 0.612776 0.996680 0.856491
O O8 0.000000 0.500000 0.000000
O O9 0.905573 0.577550 0.254744
O O10 0.000000 0.500000 0.500000
O O11 0.268865 0.924864 0.976780
O O12 0.388527 0.636940 0.310254
O O13 0.478616 0.755596 0.381888
O O14 0.500000 0.500000 0.000000
O O15 0.312699 0.568756 0.993515
O O16 0.500000 0.000000 0.500000
#
# Coordination Sequence:
#
# PCOD9017625 Si02
#       7
#     2   2   2   2   2   2   2
#     4  12  23  44  70  95 140 173 214 281 335 383
#     4  10  22  42  64  97 132 167 223 266 326 401
#     4  10  23  44  64  92 130 176 221 267 317 404
#     4  10  21  43  65  91 129 172 216 269 322 386
#     4   9  20  40  63  95 131 165 221 270 317 394
#     4  10  23  43  67  98 133 177 217 272 337 387
#     4  11  22  39  64  98 136 167 219 272 324 389
#
# _framework density 24.917572
#
# number of rings (size 3 to 8) (size 9 to 14) (size 15 to 20)
#    0.000    1.714    2.857    0.857    0.000    5.143 
#   10.286    0.714    0.000    0.000    0.000    0.000 
#    0.000    0.000    0.000    0.000    0.000    0.000 
#
# Total GULP energy -78072.629392 kJ/mol
# GULP energy per Si atom -5576.616385 kJ/mol
# Density = 2.486086 g / cm^3
# Si number density = 24.917572 Si / 1000 Ang^3
#
#
#
# Elastic Constant Matrix: (Units=GPa)
#
#
# Indices 1 2 3 4 5 6 
#
# 1 176.4321 52.2292 62.1663 -1.1102 52.9147 9.4672
# 2 52.2292 155.4553 41.2174 -35.6023 13.8246 0.7716
# 3 62.1663 41.2174 76.4075 -17.9490 22.0855 -1.8997
# 4 -1.1102 -35.6023 -17.9490 54.6877 1.5105 12.1430
# 5 52.9147 13.8246 22.0855 1.5105 49.6019 -1.9732
# 6 9.4672 0.7716 -1.8997 12.1430 -1.9732 41.4288
#
#
#
# Elastic Compliance Matrix: (Units=1/GPa)
#
#
# Indices 1 2 3 4 5 6 
#
# 1 0.011061 -0.001813 -0.006101 -0.002153 -0.008614 -0.002553
# 2 -0.001813 0.008808 -0.002126 0.005303 0.000209 -0.001392
# 3 -0.006101 -0.002126 0.021187 0.005355 -0.002467 0.000718
# 4 -0.002153 0.005303 0.005355 0.025039 -0.002599 -0.006824
# 5 -0.008614 0.000209 -0.002467 -0.002599 0.030632 0.004072
# 6 -0.002553 -0.001392 0.000718 -0.006824 0.004072 0.026974
#
#
# Mechanical properties :
#
#
# Convention : Reuss Voigt Hill
#
# Bulk Modulus (GPa) = 47.67040 79.94673 63.80856
# Shear Modulus (GPa) = 33.16240 45.98913 39.57577
#
# Velocity S-wave (km/s) = 3.65209 4.30076 3.98963
# Velocity P-wave (km/s) = 6.07918 7.53765 6.84736
#
# Compressibility (1/GPa) = 0.02097738
#
# Stress axis : x y z
#
# Youngs Moduli (GPa) = 90.40527 113.52896 47.19846
#
# Poissons Ratio (x) = 0.20585 0.28796
# Poissons Ratio (y) = 0.16392 0.10032
# Poissons Ratio (z) = 0.55156 0.24131
#
# Static dielectric constant tensor:
#      x y z
#    x 1.894110 -0.196150 0.176180 
#    y -0.196150 1.486200 0.657750 
#    z 0.176180 0.657750 1.437240 
# 
# From -- ./inp_files/269259.got.cif
#   From: 2010.05.17/outbox.cif.g08.bks.cpg/sg2_135_cif.got.tgz:269259.got - 2010.06.03 11:33:40.
