data_PCOD9017476
_publ_section_title
;
Structure prediction by ZEFSAII (Michael W. Deem and Ramdas Pophale) SiO2 
 PCOD9017476
Probable space group: P -1
;
_chemical_formula_sum "Si O2"
_cell_formula_units_Z 15
_cell_length_a 8.726006
_cell_length_b 6.780190
_cell_length_c 13.004499
_cell_angle_alpha 53.966772
_cell_angle_beta 65.478930
_cell_angle_gamma 84.022678
_cell_volume 555.733296
_symmetry_space_group_name_H-M "P -1"
_symmetry_group_IT_number 2
_symmetry_cell_setting 'triclinic'
loop_
_space_group_symop_operation_xyz
x,y,z
-x,-y,-z
loop_
_atom_site_type_symbol
_atom_site_label
_atom_site_fract_x
_atom_site_fract_y
_atom_site_fract_z
Si Si1 0.000000 0.000000 0.500000
Si Si2 0.788823 0.376880 0.525098
Si Si3 0.767475 0.043833 0.094201
Si Si4 0.472419 0.059849 0.619538
Si Si5 0.601135 0.772622 0.038567
Si Si6 0.100507 0.411514 0.099046
Si Si7 0.901314 0.911560 0.300174
Si Si8 0.354956 0.373980 0.328217
O O1 0.175039 0.207174 0.402284
O O2 0.894388 0.159772 0.557826
O O3 0.634726 0.282635 0.515450
O O4 0.924881 0.629404 0.384766
O O5 0.686714 0.423589 0.641333
O O6 0.599052 0.033566 0.217079
O O7 0.716355 0.828218 0.092655
O O8 0.907341 0.982069 0.155998
O O9 0.831833 0.322557 0.948849
O O10 0.699070 0.862232 0.397556
O O11 0.516320 0.817935 0.627829
O O12 0.454466 0.532807 0.160164
O O13 0.739876 0.719458 0.934204
O O14 0.500000 0.000000 0.000000
O O15 0.973310 0.174058 0.258235
O O16 0.000000 0.500000 0.000000
#
# Coordination Sequence:
#
# PCOD9017476 Si02
#       8
#     1   2   2   2   2   2   2   2
#     4  10  26  40  60  90 132 170 210 264 322 370
#     4  11  21  40  65  92 127 170 212 262 319 386
#     4   9  20  42  61  92 129 167 201 271 315 371
#     4   9  19  38  63  90 125 163 203 261 319 377
#     4  12  25  40  69  94 123 177 221 257 319 392
#     4  10  21  43  63  94 135 163 210 269 322 379
#     4   9  20  38  67  97 130 162 214 258 327 388
#     4  11  21  43  63  86 129 168 211 265 323 372
#
# _framework density 26.991361999999999
#
# number of rings (size 3 to 8) (size 9 to 14) (size 15 to 20)
#    0.800    1.067    2.667    0.800    1.867    3.200 
#    2.400    6.667    0.000    0.000    0.000    0.000 
#    0.000    0.000    0.000    0.000    0.000    0.000 
#
# Total GULP energy -83533.548365 kJ/mol
# GULP energy per Si atom -5568.903224 kJ/mol
# Density = 2.692993 g / cm^3
# Si number density = 26.991362 Si / 1000 Ang^3
#
#
#
# Elastic Constant Matrix: (Units=GPa)
#
#
# Indices 1 2 3 4 5 6 
#
# 1 52.2093 21.0311 4.2755 -9.4232 -13.9714 -4.1704
# 2 21.0311 146.3391 22.7139 -5.4118 -7.5399 -6.6983
# 3 4.2755 22.7139 61.6018 -22.7052 -26.5209 -2.3701
# 4 -9.4232 -5.4118 -22.7052 49.0038 -6.8580 -9.3409
# 5 -13.9714 -7.5399 -26.5209 -6.8580 38.4528 -6.0375
# 6 -4.1704 -6.6983 -2.3701 -9.3409 -6.0375 58.9016
#
#
#
# Elastic Compliance Matrix: (Units=1/GPa)
#
#
# Indices 1 2 3 4 5 6 
#
# 1 0.032149 -0.005100 0.020847 0.021229 0.030259 0.009003
# 2 -0.005100 0.008110 -0.006710 -0.004188 -0.005789 -0.000966
# 3 0.020847 -0.006710 0.055518 0.039334 0.053874 0.014707
# 4 0.021229 -0.004188 0.039334 0.051589 0.045651 0.015470
# 5 0.030259 -0.005789 0.053874 0.045651 0.084230 0.019525
# 6 0.009003 -0.000966 0.014707 0.015470 0.019525 0.022551
#
#
# Mechanical properties :
#
#
# Convention : Reuss Voigt Hill
#
# Bulk Modulus (GPa) = 8.78322 39.57679 24.18001
# Shear Modulus (GPa) = 18.24664 43.41361 30.83013
#
# Velocity S-wave (km/s) = 2.60286 4.01487 3.38334
# Velocity P-wave (km/s) = 3.50632 6.01555 4.92347
#
# Compressibility (1/GPa) = 0.11385343
#
# Stress axis : x y z
#
# Youngs Moduli (GPa) = 31.10503 123.29797 18.01215
#
# Poissons Ratio (x) = 0.62881 -0.37551
# Poissons Ratio (y) = 0.15863 0.12086
# Poissons Ratio (z) = -0.64846 0.82730
#
# Static dielectric constant tensor:
#      x y z
#    x 2.320280 -0.121640 0.183160 
#    y -0.121640 2.269930 0.006580 
#    z 0.183160 0.006580 2.220650 
# 
# From -- ./inp_files/510169.got.cif
#   From: 2010.05.17/outbox.cif.g08.bks.cpg/sg2_256_cif.got.tgz:510169.got - 2010.06.03 11:33:40.
