data_PCOD9017417
_publ_section_title
;
Structure prediction by ZEFSAII (Michael W. Deem and Ramdas Pophale) SiO2 
 PCOD9017417
Probable space group: P -1
;
_chemical_formula_sum "Si O2"
_cell_formula_units_Z 16
_cell_length_a 9.018241
_cell_length_b 14.300285
_cell_length_c 7.478375
_cell_angle_alpha 111.198022
_cell_angle_beta 50.178221
_cell_angle_gamma 108.134494
_cell_volume 686.316629
_symmetry_space_group_name_H-M "P -1"
_symmetry_group_IT_number 2
_symmetry_cell_setting 'triclinic'
loop_
_space_group_symop_operation_xyz
x,y,z
-x,-y,-z
loop_
_atom_site_type_symbol
_atom_site_label
_atom_site_fract_x
_atom_site_fract_y
_atom_site_fract_z
Si Si1 0.548248 0.680663 0.164173
Si Si2 0.340212 0.556947 0.566584
Si Si3 0.201727 0.365180 0.360632
Si Si4 0.821502 0.225935 0.462351
Si Si5 0.382369 0.168694 0.226777
Si Si6 0.836157 0.834391 0.251735
Si Si7 0.028536 0.038314 0.298661
Si Si8 0.787018 0.244324 0.076225
O O1 0.454776 0.619680 0.362544
O O2 0.373047 0.741260 0.275694
O O3 0.722995 0.764917 0.144107
O O4 0.646122 0.610936 0.902331
O O5 0.500000 0.500000 0.500000
O O6 0.187712 0.467442 0.549097
O O7 0.250452 0.639049 0.813734
O O8 0.304348 0.276749 0.320411
O O9 0.993787 0.315863 0.420505
O O10 0.786551 0.214850 0.267825
O O11 0.897406 0.126611 0.416005
O O12 0.318409 0.145573 0.464748
O O13 0.253428 0.086692 0.148484
O O14 0.613781 0.179654 0.061407
O O15 0.952007 0.939855 0.176239
O O16 0.002113 0.773643 0.167956
O O17 0.000000 0.000000 0.500000
#
# Coordination Sequence:
#
# PCOD9017417 Si02
#       8
#     2   2   2   2   2   2   2   2
#     4  11  23  40  66  94 129 165 211 262 307 375
#     4  11  22  44  65  93 130 167 204 261 319 371
#     4  11  22  42  65  92 128 162 211 262 309 371
#     4  10  22  42  63  94 127 166 207 260 316 361
#     4  10  21  43  62  91 132 161 205 270 303 369
#     4  11  21  42  63  91 129 165 210 258 311 374
#     4   9  22  40  65  92 127 167 208 259 313 374
#     4  11  22  39  68  90 127 167 211 254 319 368
#
# _framework density 23.312854999999999
#
# number of rings (size 3 to 8) (size 9 to 14) (size 15 to 20)
#    0.000    1.500    5.000    0.375    0.000    6.500 
#    2.250    1.250    0.000    0.000    0.000    0.000 
#    0.000    0.000    0.000    0.000    0.000    0.000 
#
# Total GULP energy -89464.950678 kJ/mol
# GULP energy per Si atom -5591.559417 kJ/mol
# Density = 2.325979 g / cm^3
# Si number density = 23.312855 Si / 1000 Ang^3
#
#
#
# Elastic Constant Matrix: (Units=GPa)
#
#
# Indices 1 2 3 4 5 6 
#
# 1 118.9207 44.3555 14.6400 -11.7286 -32.6056 9.5991
# 2 44.3555 123.6151 5.5470 4.6880 -8.4543 14.1483
# 3 14.6400 5.5470 43.0632 1.2218 -22.9126 4.5609
# 4 -11.7286 4.6880 1.2218 22.7931 -6.5389 -3.2652
# 5 -32.6056 -8.4543 -22.9126 -6.5389 40.5676 -8.4986
# 6 9.5991 14.1483 4.5609 -3.2652 -8.4986 44.9085
#
#
#
# Elastic Compliance Matrix: (Units=1/GPa)
#
#
# Indices 1 2 3 4 5 6 
#
# 1 0.015575 -0.005407 0.003239 0.013801 0.015876 0.002053
# 2 -0.005407 0.010408 -0.001521 -0.006707 -0.004823 -0.003369
# 3 0.003239 -0.001521 0.034219 0.006901 0.022969 0.001160
# 4 0.013801 -0.006707 0.006901 0.060202 0.024877 0.007547
# 5 0.015876 -0.004823 0.022969 0.024877 0.055068 0.008023
# 6 0.002053 -0.003369 0.001160 0.007547 0.008023 0.024839
#
#
# Mechanical properties :
#
#
# Convention : Reuss Voigt Hill
#
# Bulk Modulus (GPa) = 18.93069 46.07601 32.50335
# Shear Modulus (GPa) = 22.19295 36.39094 29.29195
#
# Velocity S-wave (km/s) = 3.08874 3.95521 3.54852
# Velocity P-wave (km/s) = 4.56709 6.37694 5.54634
#
# Compressibility (1/GPa) = 0.05282428
#
# Stress axis : x y z
#
# Youngs Moduli (GPa) = 64.20574 96.07968 29.22391
#
# Poissons Ratio (x) = 0.51946 -0.09467
# Poissons Ratio (y) = 0.34713 0.04446
# Poissons Ratio (z) = -0.20799 0.14618
#
# Static dielectric constant tensor:
#      x y z
#    x 1.922610 0.005370 0.049010 
#    y 0.005370 1.890880 0.001340 
#    z 0.049010 0.001340 1.878760 
# 
# From -- ./inp_files/202898.got.cif
#   From: 2010.05.17/outbox.cif.g08.bks.cpg/sg2_102_cif.got.tgz:202898.got - 2010.06.03 11:33:40.
