data_PCOD9017285
_publ_section_title
;
Structure prediction by ZEFSAII (Michael W. Deem and Ramdas Pophale) SiO2 
 PCOD9017285
Probable space group: P -1
;
_chemical_formula_sum "Si O2"
_cell_formula_units_Z 11
_cell_length_a 9.052810
_cell_length_b 7.547198
_cell_length_c 12.942304
_cell_angle_alpha 134.048446
_cell_angle_beta 138.458653
_cell_angle_gamma 48.465707
_cell_volume 402.155818
_symmetry_space_group_name_H-M "P -1"
_symmetry_group_IT_number 2
_symmetry_cell_setting 'triclinic'
loop_
_space_group_symop_operation_xyz
x,y,z
-x,-y,-z
loop_
_atom_site_type_symbol
_atom_site_label
_atom_site_fract_x
_atom_site_fract_y
_atom_site_fract_z
Si Si1 0.229724 0.580315 0.663672
Si Si2 0.628881 0.076782 0.001502
Si Si3 0.446309 0.290464 0.465120
Si Si4 0.968598 0.659561 0.872887
Si Si5 0.053255 0.914943 0.375064
Si Si6 0.500000 0.500000 0.000000
O O1 0.345514 0.619561 0.848170
O O2 0.406055 0.425234 0.609770
O O3 0.000000 0.500000 0.500000
O O4 0.133199 0.882921 0.709532
O O5 0.453499 0.196646 0.864739
O O6 0.500000 0.000000 0.000000
O O7 0.840870 0.849721 0.975424
O O8 0.500000 0.500000 0.500000
O O9 0.206089 0.252251 0.282800
O O10 0.688392 0.066961 0.507604
O O11 0.955292 0.370702 0.768742
O O12 0.231640 0.646126 0.983266
O O13 0.000000 0.000000 0.500000
#
# Coordination Sequence:
#
# PCOD9017285 Si02
#       6
#     2   2   2   2   2   1
#     4  12  26  45  68 114 147 185 249 312 367 446
#     4  12  28  48  77 112 155 192 256 313 371 452
#     4  10  21  42  73 103 136 185 248 295 357 440
#     4  11  25  46  76 113 145 200 254 305 372 451
#     4  11  23  43  80 101 139 198 244 299 378 431
#     4  12  28  48  76 104 160 200 240 304 388 436
#
# _framework density 27.35258
#
# number of rings (size 3 to 8) (size 9 to 14) (size 15 to 20)
#    0.000    0.727    3.636    4.909    2.545    5.091 
#    0.000    0.000    0.000    0.000    0.000    0.000 
#    0.000    0.000    0.000    0.000    0.000    0.000 
#
# Total GULP energy -61426.960792 kJ/mol
# GULP energy per Si atom -5584.269163 kJ/mol
# Density = 2.729032 g / cm^3
# Si number density = 27.352580 Si / 1000 Ang^3
#
#
#
# Elastic Constant Matrix: (Units=GPa)
#
#
# Indices 1 2 3 4 5 6 
#
# 1 202.2639 116.8285 80.1547 10.9708 -22.1553 -30.5277
# 2 116.8285 168.6651 54.4502 -12.5828 6.5170 -34.2862
# 3 80.1547 54.4502 181.5119 -0.7275 -5.1413 -28.0138
# 4 10.9708 -12.5828 -0.7275 56.8109 -11.2156 1.2777
# 5 -22.1553 6.5170 -5.1413 -11.2156 51.6670 11.6085
# 6 -30.5277 -34.2862 -28.0138 1.2777 11.6085 69.4130
#
#
#
# Elastic Compliance Matrix: (Units=1/GPa)
#
#
# Indices 1 2 3 4 5 6 
#
# 1 0.010564 -0.006998 -0.002531 -0.002680 0.004707 -0.000570
# 2 -0.006998 0.011911 -0.000062 0.002993 -0.004647 0.003503
# 3 -0.002531 -0.000062 0.006897 0.000386 -0.000701 0.001750
# 4 -0.002680 0.002993 0.000386 0.019348 0.002794 -0.000368
# 5 0.004707 -0.004647 -0.000701 0.002794 0.023505 -0.004490
# 6 -0.000570 0.003503 0.001750 -0.000368 -0.004490 0.017350
#
#
# Mechanical properties :
#
#
# Convention : Reuss Voigt Hill
#
# Bulk Modulus (GPa) = 98.13047 117.25640 107.69343
# Shear Modulus (GPa) = 44.58175 55.64535 50.11355
#
# Velocity S-wave (km/s) = 4.04157 4.51530 4.28499
# Velocity P-wave (km/s) = 7.59823 8.37529 7.99620
#
# Compressibility (1/GPa) = 0.01019051
#
# Stress axis : x y z
#
# Youngs Moduli (GPa) = 94.66027 83.95663 144.98278
#
# Poissons Ratio (x) = 0.58752 0.36698
# Poissons Ratio (y) = 0.66243 0.00896
# Poissons Ratio (z) = 0.23960 0.00519
#
# Static dielectric constant tensor:
#      x y z
#    x 2.119320 0.037680 0.110440 
#    y 0.037680 2.177020 0.235380 
#    z 0.110440 0.235380 1.894390 
# 
# From -- ./inp_files/153521.got.cif
#   From: 2010.05.17/outbox.cif.g08.bks.cpg/sg2_77_cif.got.tgz:153521.got - 2010.06.03 11:33:40.
