data_PCOD9017927
_publ_section_title
;
Structure prediction by ZEFSAII (Michael W. Deem and Ramdas Pophale) SiO2 
 PCOD9017927
Probable space group: P -1
;
_chemical_formula_sum "Si O2"
_cell_formula_units_Z 14
_cell_length_a 9.740272
_cell_length_b 16.437753
_cell_length_c 16.310837
_cell_angle_alpha 143.719730
_cell_angle_beta 150.503319
_cell_angle_gamma 34.174926
_cell_volume 686.440003
_symmetry_space_group_name_H-M "P -1"
_symmetry_group_IT_number 2
_symmetry_cell_setting 'triclinic'
loop_
_space_group_symop_operation_xyz
x,y,z
-x,-y,-z
loop_
_atom_site_type_symbol
_atom_site_label
_atom_site_fract_x
_atom_site_fract_y
_atom_site_fract_z
Si Si1 0.401342 0.515946 0.057128
Si Si2 0.240779 0.060984 0.643930
Si Si3 0.164156 0.691945 0.479845
Si Si4 0.704962 0.582827 0.783497
Si Si5 0.781340 0.954017 0.725460
Si Si6 0.383925 0.244228 0.652048
Si Si7 0.526961 0.255200 0.035895
O O1 0.493012 0.647987 0.242352
O O2 0.551961 0.357296 0.056392
O O3 0.500000 0.500000 0.000000
O O4 0.037280 0.573050 0.927928
O O5 0.069499 0.146322 0.542205
O O6 0.582238 0.953265 0.701370
O O7 0.300333 0.178945 0.829743
O O8 0.000000 0.000000 0.500000
O O9 0.435394 0.698131 0.678921
O O10 0.287649 0.576985 0.374200
O O11 0.934408 0.647717 0.378844
O O12 0.614643 0.630896 0.868687
O O13 0.717153 0.852251 0.541385
O O14 0.141188 0.876738 0.872972
O O15 0.640175 0.124669 0.750650
#
# Coordination Sequence:
#
# PCOD9017927 Si02
#       7
#     2   2   2   2   2   2   2
#     4  12  24  41  67 100 133 171 219 275 328 386
#     4  11  25  42  64  94 132 174 219 273 327 387
#     4  10  21  44  65  94 133 173 214 266 333 387
#     4  11  23  41  69  95 133 171 214 275 327 387
#     4  10  23  44  66  91 134 176 214 269 325 394
#     4  10  21  43  67  94 129 174 219 264 327 391
#     4  12  25  44  68 100 132 173 223 274 326 389
#
# _framework density 20.395081999999999
#
# number of rings (size 3 to 8) (size 9 to 14) (size 15 to 20)
#    0.000    1.143    4.286    1.714    2.000    2.857 
#    0.000    1.429    0.000    0.000    0.000    0.000 
#    0.000    0.000    0.000    0.000    0.000    0.000 
#
# Total GULP energy -78072.931306 kJ/mol
# GULP energy per Si atom -5576.637950 kJ/mol
# Density = 2.034866 g / cm^3
# Si number density = 20.395082 Si / 1000 Ang^3
#
#
#
# Elastic Constant Matrix: (Units=GPa)
#
#
# Indices 1 2 3 4 5 6 
#
# 1 94.2818 15.5024 21.2587 3.5466 -16.3374 -5.8868
# 2 15.5024 63.3091 41.6800 -16.3888 1.3930 0.7836
# 3 21.2587 41.6800 86.6097 -10.4968 -1.1736 18.5282
# 4 3.5466 -16.3888 -10.4968 40.8566 -4.5900 1.7682
# 5 -16.3374 1.3930 -1.1736 -4.5900 30.5560 9.8016
# 6 -5.8868 0.7836 18.5282 1.7682 9.8016 26.1229
#
#
#
# Elastic Compliance Matrix: (Units=1/GPa)
#
#
# Indices 1 2 3 4 5 6 
#
# 1 0.012851 -0.001756 -0.003214 -0.002180 0.005429 0.003339
# 2 -0.001756 0.027177 -0.014139 0.006408 -0.005056 0.010280
# 3 -0.003214 -0.014139 0.023724 0.002287 0.006507 -0.019723
# 4 -0.002180 0.006408 0.002287 0.028635 0.004880 -0.006075
# 5 0.005429 -0.005056 0.006507 0.004880 0.043186 -0.019775
# 6 0.003339 0.010280 -0.019723 -0.006075 -0.019775 0.060545
#
#
# Mechanical properties :
#
#
# Convention : Reuss Voigt Hill
#
# Bulk Modulus (GPa) = 39.16334 44.56476 41.86405
# Shear Modulus (GPa) = 20.58911 30.55772 25.57342
#
# Velocity S-wave (km/s) = 3.18073 3.87497 3.54489
# Velocity P-wave (km/s) = 5.72131 6.47447 6.10951
#
# Compressibility (1/GPa) = 0.02553408
#
# Stress axis : x y z
#
# Youngs Moduli (GPa) = 77.81318 36.79631 42.15163
#
# Poissons Ratio (x) = 0.06461 0.13549
# Poissons Ratio (y) = 0.13663 0.59596
# Poissons Ratio (z) = 0.25012 0.52025
#
# Static dielectric constant tensor:
#      x y z
#    x 1.835110 -0.034110 0.012730 
#    y -0.034110 1.778550 0.016430 
#    z 0.012730 0.016430 1.769050 
# 
# From -- ./inp_files/157134.got.cif
#   From: 2010.05.17/outbox.cif.g08.bks.cpg/sg2_79_cif.got.tgz:157134.got - 2010.06.03 11:33:40.
