data_PCOD9017461
_publ_section_title
;
Structure prediction by ZEFSAII (Michael W. Deem and Ramdas Pophale) SiO2 
 PCOD9017461
Probable space group: P -1
;
_chemical_formula_sum "Si O2"
_cell_formula_units_Z 16
_cell_length_a 21.818931
_cell_length_b 8.770560
_cell_length_c 13.038652
_cell_angle_alpha 28.913699
_cell_angle_beta 144.789815
_cell_angle_gamma 136.748518
_cell_volume 694.794019
_symmetry_space_group_name_H-M "P -1"
_symmetry_group_IT_number 2
_symmetry_cell_setting 'triclinic'
loop_
_space_group_symop_operation_xyz
x,y,z
-x,-y,-z
loop_
_atom_site_type_symbol
_atom_site_label
_atom_site_fract_x
_atom_site_fract_y
_atom_site_fract_z
Si Si1 0.551230 0.217219 0.113212
Si Si2 0.646045 0.519283 0.403834
Si Si3 0.893427 0.172726 0.328765
Si Si4 0.062510 0.220644 0.694518
Si Si5 0.237727 0.015548 0.563230
Si Si6 0.577193 0.951888 0.777630
Si Si7 0.771061 0.726288 0.271938
Si Si8 0.036232 0.167364 0.056967
O O1 0.445659 0.231745 0.889661
O O2 0.572806 0.587145 0.951633
O O3 0.517037 0.026735 0.281645
O O4 0.655680 0.088764 0.282752
O O5 0.728235 0.668210 0.511987
O O6 0.704738 0.475569 0.400175
O O7 0.588889 0.204370 0.555573
O O8 0.988864 0.078701 0.586934
O O9 0.802819 0.227202 0.259146
O O10 0.850786 0.898833 0.358374
O O11 0.934301 0.476116 0.143422
O O12 0.167149 0.355814 0.699127
O O13 0.000000 0.500000 0.500000
O O14 0.063080 0.935813 0.943910
O O15 0.142189 0.061677 0.324536
O O16 0.687009 0.980179 0.974522
O O17 0.000000 0.000000 0.000000
#
# Coordination Sequence:
#
# PCOD9017461 Si02
#       8
#     2   2   2   2   2   2   2   2
#     4  10  22  39  60  94 128 163 202 265 308 363
#     4  10  21  43  63  92 122 168 210 253 311 379
#     4  10  22  41  60  90 124 163 211 256 307 370
#     4  11  23  40  60  88 125 159 209 262 304 367
#     4  10  23  39  65  90 128 165 209 258 311 365
#     4  10  22  38  62  91 129 161 208 250 311 379
#     4  10  23  40  63  88 126 165 204 259 313 365
#     4  11  23  39  62  90 125 163 210 259 308 371
#
# _framework density 23.028406
#
# number of rings (size 3 to 8) (size 9 to 14) (size 15 to 20)
#    0.000    1.750    1.250    1.875    3.500    3.000 
#    2.250    0.000    0.000    0.000    0.000    0.000 
#    0.000    0.000    0.000    0.000    0.000    0.000 
#
# Total GULP energy -89290.430377 kJ/mol
# GULP energy per Si atom -5580.651899 kJ/mol
# Density = 2.297599 g / cm^3
# Si number density = 23.028406 Si / 1000 Ang^3
#
#
#
# Elastic Constant Matrix: (Units=GPa)
#
#
# Indices 1 2 3 4 5 6 
#
# 1 251.0285 23.1202 67.3119 -17.6096 -24.0078 25.9325
# 2 23.1202 86.0467 23.3317 13.2812 -15.6675 8.8337
# 3 67.3119 23.3317 71.4252 0.0513 -35.4935 10.1348
# 4 -17.6096 13.2812 0.0513 41.7655 14.8333 -13.1304
# 5 -24.0078 -15.6675 -35.4935 14.8333 43.0945 -7.8983
# 6 25.9325 8.8337 10.1348 -13.1304 -7.8983 28.0885
#
#
#
# Elastic Compliance Matrix: (Units=1/GPa)
#
#
# Indices 1 2 3 4 5 6 
#
# 1 0.006149 -0.000862 -0.007678 0.003956 -0.004973 -0.002185
# 2 -0.000862 0.015397 0.000739 -0.010258 0.008000 -0.006859
# 3 -0.007678 0.000739 0.037410 -0.016406 0.031448 -0.005469
# 4 0.003956 -0.010258 -0.016406 0.044298 -0.026868 0.018646
# 5 -0.004973 0.008000 0.031448 -0.026868 0.057452 -0.005676
# 6 -0.002185 -0.006859 -0.005469 0.018646 -0.005676 0.048870
#
#
# Mechanical properties :
#
#
# Convention : Reuss Voigt Hill
#
# Bulk Modulus (GPa) = 23.06568 70.66979 46.86774
# Shear Modulus (GPa) = 20.86557 42.23879 31.55218
#
# Velocity S-wave (km/s) = 3.01338 4.28741 3.70556
# Velocity P-wave (km/s) = 4.70587 7.43397 6.22130
#
# Compressibility (1/GPa) = 0.04335445
#
# Stress axis : x y z
#
# Youngs Moduli (GPa) = 162.61841 64.94783 26.73073
#
# Poissons Ratio (x) = 0.05600 0.20523
# Poissons Ratio (y) = 0.14021 -0.01975
# Poissons Ratio (z) = 1.24854 -0.04799
#
# Static dielectric constant tensor:
#      x y z
#    x 1.936060 0.029810 0.006470 
#    y 0.029810 1.923590 0.034500 
#    z 0.006470 0.034500 1.861030 
# 
# From -- ./inp_files/462253.got.cif
#   From: 2010.05.17/outbox.cif.g08.bks.cpg/sg2_232_cif.got.tgz:462253.got - 2010.06.03 11:33:40.
