data_PCOD9017972
_publ_section_title
;
Structure prediction by ZEFSAII (Michael W. Deem and Ramdas Pophale) SiO2 
 PCOD9017972
Probable space group: P -1
;
_chemical_formula_sum "Si O2"
_cell_formula_units_Z 16
_cell_length_a 8.561584
_cell_length_b 12.632737
_cell_length_c 10.936130
_cell_angle_alpha 90.525030
_cell_angle_beta 128.538439
_cell_angle_gamma 117.818602
_cell_volume 737.361476
_symmetry_space_group_name_H-M "P -1"
_symmetry_group_IT_number 2
_symmetry_cell_setting 'triclinic'
loop_
_space_group_symop_operation_xyz
x,y,z
-x,-y,-z
loop_
_atom_site_type_symbol
_atom_site_label
_atom_site_fract_x
_atom_site_fract_y
_atom_site_fract_z
Si Si1 0.756723 0.180696 0.138313
Si Si2 0.566320 0.712856 0.651200
Si Si3 0.025084 0.855905 0.416753
Si Si4 0.965607 0.528287 0.621731
Si Si5 0.115722 0.112214 0.394466
Si Si6 0.805321 0.600994 0.141273
Si Si7 0.949952 0.222458 0.980839
Si Si8 0.535226 0.923032 0.774243
O O1 0.766394 0.210954 0.998586
O O2 0.509867 0.093215 0.101242
O O3 0.912273 0.321803 0.285016
O O4 0.907153 0.120703 0.234157
O O5 0.331943 0.563434 0.513837
O O6 0.634141 0.784193 0.554996
O O7 0.521842 0.799299 0.717969
O O8 0.798022 0.726153 0.823151
O O9 0.299554 0.908982 0.599271
O O10 0.870789 0.847667 0.458420
O O11 0.897378 0.718500 0.284371
O O12 0.051802 0.968971 0.349572
O O13 0.000000 0.500000 0.500000
O O14 0.088279 0.478148 0.766248
O O15 0.500000 0.500000 0.000000
O O16 0.944990 0.679189 0.083127
O O17 0.790312 0.066257 0.865780
#
# Coordination Sequence:
#
# PCOD9017972 Si02
#       8
#     2   2   2   2   2   2   2   2
#     4  10  23  44  66  98 134 178 222 270 329 400
#     4  11  22  40  70  96 130 173 224 270 327 397
#     4  10  21  43  67  96 134 175 220 273 334 389
#     4  12  23  45  72  93 130 182 224 262 329 403
#     4   9  21  39  66 102 125 171 222 277 327 384
#     4  12  27  45  67  99 139 175 220 276 336 393
#     4  11  26  41  64 103 136 172 221 278 336 383
#     4  11  21  41  72  97 135 173 225 276 329 395
#
# _framework density 21.698990999999999
#
# number of rings (size 3 to 8) (size 9 to 14) (size 15 to 20)
#    0.000    1.250    2.500    3.000    1.750    5.500 
#    6.750    0.000    0.000    0.000    0.000    0.000 
#    0.000    0.000    0.000    0.000    0.000    0.000 
#
# Total GULP energy -89355.971020 kJ/mol
# GULP energy per Si atom -5584.748189 kJ/mol
# Density = 2.164960 g / cm^3
# Si number density = 21.698991 Si / 1000 Ang^3
#
#
#
# Elastic Constant Matrix: (Units=GPa)
#
#
# Indices 1 2 3 4 5 6 
#
# 1 57.6382 20.3943 20.2488 -2.6622 -2.9750 29.5540
# 2 20.3943 108.4509 57.5923 5.4603 11.2476 15.2150
# 3 20.2488 57.5923 101.4995 17.8692 6.2266 6.1447
# 4 -2.6622 5.4603 17.8692 30.8792 4.9418 -3.2969
# 5 -2.9750 11.2476 6.2266 4.9418 24.3988 -1.7026
# 6 29.5540 15.2150 6.1447 -3.2969 -1.7026 43.8464
#
#
#
# Elastic Compliance Matrix: (Units=1/GPa)
#
#
# Indices 1 2 3 4 5 6 
#
# 1 0.029044 -0.000729 -0.005014 0.003062 0.003262 -0.018264
# 2 -0.000729 0.014532 -0.007995 0.002505 -0.005496 -0.003456
# 3 -0.005014 -0.007995 0.016630 -0.008420 0.000760 0.003220
# 4 0.003062 0.002505 -0.008420 0.038180 -0.006305 0.000873
# 5 0.003262 -0.005496 0.000760 -0.006305 0.045061 0.000877
# 6 -0.018264 -0.003456 0.003220 0.000873 0.000877 0.035965
#
#
# Mechanical properties :
#
#
# Convention : Reuss Voigt Hill
#
# Bulk Modulus (GPa) = 30.55341 51.56214 41.05778
# Shear Modulus (GPa) = 22.95704 31.11508 27.03606
#
# Velocity S-wave (km/s) = 3.25618 3.79085 3.53364
# Velocity P-wave (km/s) = 5.31490 6.55551 5.96753
#
# Compressibility (1/GPa) = 0.03272957
#
# Stress axis : x y z
#
# Youngs Moduli (GPa) = 34.43087 68.81207 60.13345
#
# Poissons Ratio (x) = 0.05019 0.30150
# Poissons Ratio (y) = 0.02511 0.48076
# Poissons Ratio (z) = 0.17263 0.55014
#
# Static dielectric constant tensor:
#      x y z
#    x 2.037870 0.412850 0.139500 
#    y 0.412850 2.466280 0.277170 
#    z 0.139500 0.277170 1.903800 
# 
# From -- ./inp_files/207416.got.cif
#   From: 2010.05.17/outbox.cif.g08.bks.cpg/sg2_104_cif.got.tgz:207416.got - 2010.06.03 11:33:40.
