data_PCOD9017307
_publ_section_title
;
Structure prediction by ZEFSAII (Michael W. Deem and Ramdas Pophale) SiO2 
 PCOD9017307
Probable space group: P -1
;
_chemical_formula_sum "Si O2"
_cell_formula_units_Z 16
_cell_length_a 9.176196
_cell_length_b 8.080511
_cell_length_c 11.506518
_cell_angle_alpha 131.451819
_cell_angle_beta 110.748538
_cell_angle_gamma 87.607354
_cell_volume 574.939785
_symmetry_space_group_name_H-M "P -1"
_symmetry_group_IT_number 2
_symmetry_cell_setting 'triclinic'
loop_
_space_group_symop_operation_xyz
x,y,z
-x,-y,-z
loop_
_atom_site_type_symbol
_atom_site_label
_atom_site_fract_x
_atom_site_fract_y
_atom_site_fract_z
Si Si1 0.449460 0.222338 0.858189
Si Si2 0.745544 0.440798 0.497068
Si Si3 0.791441 0.925099 0.477646
Si Si4 0.248864 0.904402 0.093518
Si Si5 0.337919 0.251081 0.069848
Si Si6 0.489232 0.283409 0.539326
Si Si7 0.996802 0.758533 0.142871
Si Si8 0.118095 0.547505 0.697042
O O1 0.284356 0.122390 0.694019
O O2 0.500000 0.500000 0.000000
O O3 0.594823 0.125710 0.808686
O O4 0.445471 0.163299 0.966473
O O5 0.636927 0.284972 0.493823
O O6 0.641295 0.618952 0.524313
O O7 0.778200 0.334546 0.332216
O O8 0.930695 0.545775 0.637046
O O9 0.631363 0.903026 0.500296
O O10 0.072176 0.854566 0.333606
O O11 0.863027 0.708963 0.422845
O O12 0.186752 0.674388 0.892608
O O13 0.112844 0.914517 0.151632
O O14 0.290344 0.107291 0.106316
O O15 0.426415 0.509836 0.252130
O O16 0.181167 0.238991 0.942192
O O17 0.000000 0.500000 0.000000
#
# Coordination Sequence:
#
# PCOD9017307 Si02
#       8
#     2   2   2   2   2   2   2   2
#     4  12  23  51  78 114 164 199 257 319 380 478
#     4   9  20  35  70 108 163 190 257 317 377 460
#     4  11  26  49  80 106 156 216 252 317 393 469
#     4  12  27  48  80 115 157 203 256 324 390 455
#     4  12  27  48  80 115 157 203 256 324 390 455
#     4  10  21  42  73 116 155 204 255 318 391 459
#     4  12  31  55  77 112 159 208 264 324 395 469
#     4  10  21  42  73 116 155 204 255 318 391 459
#
# _framework density 27.829001000000002
#
# number of rings (size 3 to 8) (size 9 to 14) (size 15 to 20)
#    0.000    1.000    2.500    3.000   10.500    1.000 
#    0.000    0.000    0.000    0.000    0.000    0.000 
#    0.000    0.000    0.000    0.000    0.000    0.000 
#
# Total GULP energy -89749.209390 kJ/mol
# GULP energy per Si atom -5609.325587 kJ/mol
# Density = 2.776566 g / cm^3
# Si number density = 27.829001 Si / 1000 Ang^3
#
#
#
# Elastic Constant Matrix: (Units=GPa)
#
#
# Indices 1 2 3 4 5 6 
#
# 1 174.4591 14.3622 46.8865 -19.5285 5.3189 11.6764
# 2 14.3622 71.4780 35.1962 -8.9561 0.1548 15.0149
# 3 46.8865 35.1962 212.7164 -3.4740 21.1635 7.7349
# 4 -19.5285 -8.9561 -3.4740 46.8684 7.4673 -0.1993
# 5 5.3189 0.1548 21.1635 7.4673 51.7158 -18.7245
# 6 11.6764 15.0149 7.7349 -0.1993 -18.7245 47.7548
#
#
#
# Elastic Compliance Matrix: (Units=1/GPa)
#
#
# Indices 1 2 3 4 5 6 
#
# 1 0.006537 0.000038 -0.001204 0.002837 -0.001279 -0.001905
# 2 0.000038 0.016708 -0.002368 0.003254 -0.001534 -0.005467
# 3 -0.001204 -0.002368 0.005631 -0.000150 -0.002454 -0.000836
# 4 0.002837 0.003254 -0.000150 0.023907 -0.004975 -0.003544
# 5 -0.001279 -0.001534 -0.002454 -0.004975 0.025197 0.011051
# 6 -0.001905 -0.005467 -0.000836 -0.003544 0.011051 0.027579
#
#
# Mechanical properties :
#
#
# Convention : Reuss Voigt Hill
#
# Bulk Modulus (GPa) = 45.85855 72.39370 59.12613
# Shear Modulus (GPa) = 41.70288 53.41504 47.55896
#
# Velocity S-wave (km/s) = 3.87530 4.38585 4.13846
# Velocity P-wave (km/s) = 6.04470 7.19151 6.64290
#
# Compressibility (1/GPa) = 0.02180618
#
# Stress axis : x y z
#
# Youngs Moduli (GPa) = 152.98511 59.85022 177.60316
#
# Poissons Ratio (x) = -0.00227 0.21387
# Poissons Ratio (y) = -0.00581 0.42063
# Poissons Ratio (z) = 0.18423 0.14175
#
# Static dielectric constant tensor:
#      x y z
#    x 2.116270 0.039770 -0.029440 
#    y 0.039770 2.215120 0.041170 
#    z -0.029440 0.041170 2.158550 
# 
# From -- ./inp_files/380089.got.cif
#   From: 2010.05.17/outbox.cif.g08.bks.cpg/sg2_191_cif.got.tgz:380089.got - 2010.06.03 11:33:40.
