data_PCOD9017662
_publ_section_title
;
Structure prediction by ZEFSAII (Michael W. Deem and Ramdas Pophale) SiO2 
 PCOD9017662
Probable space group: P -1
;
_chemical_formula_sum "Si O2"
_cell_formula_units_Z 16
_cell_length_a 6.282195
_cell_length_b 18.988341
_cell_length_c 8.985870
_cell_angle_alpha 60.788781
_cell_angle_beta 128.566175
_cell_angle_gamma 119.088179
_cell_volume 705.062832
_symmetry_space_group_name_H-M "P -1"
_symmetry_group_IT_number 2
_symmetry_cell_setting 'triclinic'
loop_
_space_group_symop_operation_xyz
x,y,z
-x,-y,-z
loop_
_atom_site_type_symbol
_atom_site_label
_atom_site_fract_x
_atom_site_fract_y
_atom_site_fract_z
Si Si1 0.797855 0.670104 0.120010
Si Si2 0.087387 0.215698 0.366051
Si Si3 0.148816 0.399406 0.069935
Si Si4 0.578090 0.956127 0.226431
Si Si5 0.196869 0.062220 0.368725
Si Si6 0.580024 0.459843 0.724547
Si Si7 0.532092 0.823290 0.875843
Si Si8 0.588637 0.217031 0.787914
O O1 0.690042 0.616471 0.273718
O O2 0.649464 0.744646 0.969781
O O3 0.129968 0.710242 0.195896
O O4 0.692242 0.603611 0.011500
O O5 0.095316 0.304063 0.201978
O O6 0.142934 0.144931 0.348417
O O7 0.313935 0.234907 0.576667
O O8 0.771403 0.183065 0.321655
O O9 0.330980 0.464565 0.196995
O O10 0.853903 0.422470 0.885075
O O11 0.577614 0.965746 0.396741
O O12 0.389849 0.862827 0.214904
O O13 0.919302 0.984640 0.325387
O O14 0.500000 0.000000 0.000000
O O15 0.268170 0.095794 0.198433
O O16 0.500000 0.500000 0.500000
O O17 0.473972 0.815304 0.036412
#
# Coordination Sequence:
#
# PCOD9017662 Si02
#       8
#     2   2   2   2   2   2   2   2
#     4  12  23  47  70  98 139 178 220 279 337 401
#     4  11  23  44  68  97 136 177 225 279 335 399
#     4  11  24  47  69  98 135 173 221 277 334 402
#     4  10  21  43  65  95 140 179 222 280 337 394
#     4  10  23  42  68  96 132 183 229 277 335 394
#     4  11  27  48  70 103 135 174 222 278 337 404
#     4  12  22  43  69  99 134 178 232 278 328 401
#     4  11  26  42  67 104 136 177 229 279 337 400
#
# _framework density 22.693013000000001
#
# number of rings (size 3 to 8) (size 9 to 14) (size 15 to 20)
#    0.000    1.000    3.750    1.875    3.500    4.000 
#    4.500   10.000    0.000    0.000    0.000    0.000 
#    0.000    0.000    0.000    0.000    0.000    0.000 
#
# Total GULP energy -89220.358998 kJ/mol
# GULP energy per Si atom -5576.272437 kJ/mol
# Density = 2.264136 g / cm^3
# Si number density = 22.693013 Si / 1000 Ang^3
#
#
#
# Elastic Constant Matrix: (Units=GPa)
#
#
# Indices 1 2 3 4 5 6 
#
# 1 58.5784 27.3771 26.8004 3.6116 -11.0598 12.2844
# 2 27.3771 107.4584 27.7414 -6.0553 -2.8793 3.6343
# 3 26.8004 27.7414 159.7387 1.0290 -11.5872 15.0986
# 4 3.6116 -6.0553 1.0290 44.2877 9.0296 -6.6495
# 5 -11.0598 -2.8793 -11.5872 9.0296 28.1745 -13.0586
# 6 12.2844 3.6343 15.0986 -6.6495 -13.0586 39.9906
#
#
#
# Elastic Compliance Matrix: (Units=1/GPa)
#
#
# Indices 1 2 3 4 5 6 
#
# 1 0.022977 -0.005267 -0.001987 -0.004651 0.007181 -0.004258
# 2 -0.005267 0.011035 -0.001268 0.002478 -0.001835 0.000906
# 3 -0.001987 -0.001268 0.007076 -0.000718 0.001501 -0.001575
# 4 -0.004651 0.002478 -0.000718 0.025523 -0.008716 0.002872
# 5 0.007181 -0.001835 0.001501 -0.008716 0.046728 0.011204
# 6 -0.004258 0.000906 -0.001575 0.002872 0.011204 0.030962
#
#
# Mechanical properties :
#
#
# Convention : Reuss Voigt Hill
#
# Bulk Modulus (GPa) = 41.58747 54.40147 47.99447
# Shear Modulus (GPa) = 29.52318 38.74766 34.13542
#
# Velocity S-wave (km/s) = 3.61082 4.13664 3.88264
# Velocity P-wave (km/s) = 5.97913 6.84401 6.42614
#
# Compressibility (1/GPa) = 0.02404570
#
# Stress axis : x y z
#
# Youngs Moduli (GPa) = 43.52159 90.62318 141.32039
#
# Poissons Ratio (x) = 0.47727 0.28081
# Poissons Ratio (y) = 0.22921 0.17912
# Poissons Ratio (z) = 0.08648 0.11487
#
# Static dielectric constant tensor:
#      x y z
#    x 1.891990 -0.030950 -0.012350 
#    y -0.030950 1.852330 -0.028090 
#    z -0.012350 -0.028090 1.878430 
# 
# From -- ./inp_files/141325.got.cif
#   From: 2010.05.17/outbox.cif.g08.bks.cpg/sg2_71_cif.got.tgz:141325.got - 2010.06.03 11:33:40.
