data_PCOD9017467
_publ_section_title
;
Structure prediction by ZEFSAII (Michael W. Deem and Ramdas Pophale) SiO2 
 PCOD9017467
Probable space group: P -1
;
_chemical_formula_sum "Si O2"
_cell_formula_units_Z 15
_cell_length_a 6.518098
_cell_length_b 7.674517
_cell_length_c 15.634090
_cell_angle_alpha 54.705238
_cell_angle_beta 110.466861
_cell_angle_gamma 106.597581
_cell_volume 594.436249
_symmetry_space_group_name_H-M "P -1"
_symmetry_group_IT_number 2
_symmetry_cell_setting 'triclinic'
loop_
_space_group_symop_operation_xyz
x,y,z
-x,-y,-z
loop_
_atom_site_type_symbol
_atom_site_label
_atom_site_fract_x
_atom_site_fract_y
_atom_site_fract_z
Si Si1 0.625053 0.866707 0.485000
Si Si2 0.000000 0.500000 0.000000
Si Si3 0.621676 0.631218 0.237317
Si Si4 0.754375 0.700024 0.053096
Si Si5 0.798274 0.340342 0.484666
Si Si6 0.016689 0.897045 0.636953
Si Si7 0.042342 0.946173 0.814014
Si Si8 0.231810 0.865665 0.154909
O O1 0.420539 0.697723 0.477807
O O2 0.741402 0.028300 0.385643
O O3 0.500000 0.000000 0.500000
O O4 0.833433 0.766297 0.587528
O O5 0.796331 0.547322 0.023543
O O6 0.919743 0.240166 0.061620
O O7 0.619236 0.599870 0.143544
O O8 0.715071 0.440243 0.356311
O O9 0.386159 0.679642 0.222842
O O10 0.774574 0.852610 0.219227
O O11 0.994366 0.772851 0.109903
O O12 0.674420 0.923201 0.945108
O O13 0.000000 0.500000 0.500000
O O14 0.909630 0.121215 0.559430
O O15 0.014847 0.824519 0.754158
O O16 0.821900 0.044652 0.784835
#
# Coordination Sequence:
#
# PCOD9017467 Si02
#       8
#     2   1   2   2   2   2   2   2
#     4   9  22  40  64  91 131 177 220 280 339 391
#     4  10  22  40  64  92 128 168 210 276 340 402
#     4  11  22  39  66  95 131 176 221 275 339 402
#     4   9  20  40  63  92 128 165 216 270 337 400
#     4  11  23  41  62 102 134 175 233 274 329 402
#     4  10  21  43  63  92 135 176 224 280 334 405
#     4  10  22  41  63  93 130 171 219 279 336 401
#     4   9  20  40  64  91 126 165 214 276 332 396
#
# _framework density 25.233993000000002
#
# number of rings (size 3 to 8) (size 9 to 14) (size 15 to 20)
#    0.000    2.133    1.333    1.200    0.000    9.067 
#    0.000    6.000    0.000    0.000    0.000    0.000 
#    0.000    0.000    0.000    0.000    0.000    0.000 
#
# Total GULP energy -83512.127282 kJ/mol
# GULP energy per Si atom -5567.475152 kJ/mol
# Density = 2.517656 g / cm^3
# Si number density = 25.233993 Si / 1000 Ang^3
#
#
#
# Elastic Constant Matrix: (Units=GPa)
#
#
# Indices 1 2 3 4 5 6 
#
# 1 130.0322 28.1198 20.2229 0.8692 -12.9596 1.9518
# 2 28.1198 54.2045 4.4856 -11.1202 4.0201 -5.2594
# 3 20.2229 4.4856 65.9168 -6.2343 1.3942 3.5370
# 4 0.8692 -11.1202 -6.2343 45.0936 -10.9497 -5.9975
# 5 -12.9596 4.0201 1.3942 -10.9497 25.7081 -0.9382
# 6 1.9518 -5.2594 3.5370 -5.9975 -0.9382 41.3857
#
#
#
# Elastic Compliance Matrix: (Units=1/GPa)
#
#
# Indices 1 2 3 4 5 6 
#
# 1 0.009915 -0.005563 -0.002800 -0.000688 0.005694 -0.000906
# 2 -0.005563 0.023070 0.000527 0.005410 -0.003996 0.003843
# 3 -0.002800 0.000527 0.016260 0.001919 -0.001593 -0.000949
# 4 -0.000688 0.005410 0.001919 0.026924 0.010342 0.004692
# 5 0.005694 -0.003996 -0.001593 0.010342 0.046955 0.001923
# 6 -0.000906 0.003843 -0.000949 0.004692 0.001923 0.025499
#
#
# Mechanical properties :
#
#
# Convention : Reuss Voigt Hill
#
# Bulk Modulus (GPa) = 29.78673 39.53445 34.66059
# Shear Modulus (GPa) = 28.49240 35.59249 32.04244
#
# Velocity S-wave (km/s) = 3.36389 3.75973 3.56731
# Velocity P-wave (km/s) = 5.18821 5.87781 5.54374
#
# Compressibility (1/GPa) = 0.03357200
#
# Stress axis : x y z
#
# Youngs Moduli (GPa) = 100.86202 43.34617 61.50094
#
# Poissons Ratio (x) = 0.24113 0.17221
# Poissons Ratio (y) = 0.56109 -0.03240
# Poissons Ratio (z) = 0.28242 -0.02283
#
# Static dielectric constant tensor:
#      x y z
#    x 2.073390 0.094950 -0.005130 
#    y 0.094950 2.285480 0.143600 
#    z -0.005130 0.143600 2.066230 
# 
# From -- ./inp_files/546916.got.cif
#   From: 2010.05.17/outbox.cif.g08.bks.cpg/sg2_274_cif.got.tgz:546916.got - 2010.06.03 11:33:40.
