data_PCOD9017514
_publ_section_title
;
Structure prediction by ZEFSAII (Michael W. Deem and Ramdas Pophale) SiO2 
 PCOD9017514
Probable space group: P -1
;
_chemical_formula_sum "Si O2"
_cell_formula_units_Z 14
_cell_length_a 6.910552
_cell_length_b 11.944248
_cell_length_c 13.230078
_cell_angle_alpha 136.483947
_cell_angle_beta 101.920653
_cell_angle_gamma 104.804613
_cell_volume 587.673037
_symmetry_space_group_name_H-M "P -1"
_symmetry_group_IT_number 2
_symmetry_cell_setting 'triclinic'
loop_
_space_group_symop_operation_xyz
x,y,z
-x,-y,-z
loop_
_atom_site_type_symbol
_atom_site_label
_atom_site_fract_x
_atom_site_fract_y
_atom_site_fract_z
Si Si1 0.484936 0.690706 0.902234
Si Si2 0.650474 0.979842 0.415586
Si Si3 0.182303 0.854082 0.974689
Si Si4 0.324143 0.424512 0.335049
Si Si5 0.482204 0.149733 0.357838
Si Si6 0.033172 0.150596 0.853425
Si Si7 0.795609 0.693145 0.243216
O O1 0.333086 0.771778 0.906148
O O2 0.534540 0.591596 0.751703
O O3 0.342509 0.526005 0.867317
O O4 0.757391 0.862058 0.087633
O O5 0.559223 0.015359 0.324779
O O6 0.943426 0.155475 0.572676
O O7 0.500000 0.000000 0.500000
O O8 0.631251 0.775968 0.288056
O O9 0.957687 0.781959 0.827778
O O10 0.036114 0.759494 0.004511
O O11 0.385768 0.083976 0.188446
O O12 0.500000 0.500000 0.500000
O O13 0.313762 0.614996 0.444652
O O14 0.226590 0.069018 0.336026
O O15 0.129359 0.282743 0.850217
#
# Coordination Sequence:
#
# PCOD9017514 Si02
#       7
#     2   2   2   2   2   2   2
#     4  11  22  41  62  93 131 160 216 255 298 376
#     4  11  20  35  54  92 131 166 213 243 301 369
#     4   9  22  43  63  92 126 161 206 254 315 369
#     4  11  25  45  67  91 120 161 212 269 322 363
#     4  10  21  43  64  86 131 164 199 261 308 370
#     4   9  21  38  57  90 129 165 201 244 310 363
#     4  11  22  32  61  94 126 175 204 246 299 368
#
# _framework density 23.822769000000001
#
# number of rings (size 3 to 8) (size 9 to 14) (size 15 to 20)
#    0.857    0.857    1.429    3.000    2.000    2.857 
#    2.571    0.714    0.000    0.000    0.000    0.000 
#    0.000    0.000    0.000    0.000    0.000    0.000 
#
# Total GULP energy -78178.597204 kJ/mol
# GULP energy per Si atom -5584.185515 kJ/mol
# Density = 2.376855 g / cm^3
# Si number density = 23.822769 Si / 1000 Ang^3
#
#
#
# Elastic Constant Matrix: (Units=GPa)
#
#
# Indices 1 2 3 4 5 6 
#
# 1 108.5273 13.0836 27.6899 -1.9810 3.1071 -12.5664
# 2 13.0836 65.8988 13.2819 -2.3635 -0.9040 4.4804
# 3 27.6899 13.2819 95.9789 -6.8565 14.1628 -5.2817
# 4 -1.9810 -2.3635 -6.8565 33.5620 -8.5315 2.2451
# 5 3.1071 -0.9040 14.1628 -8.5315 41.3404 -7.3461
# 6 -12.5664 4.4804 -5.2817 2.2451 -7.3461 27.7375
#
#
#
# Elastic Compliance Matrix: (Units=1/GPa)
#
#
# Indices 1 2 3 4 5 6 
#
# 1 0.010666 -0.001900 -0.002691 -0.000148 0.000916 0.004881
# 2 -0.001900 0.016245 -0.001936 0.001069 0.000715 -0.003750
# 3 -0.002691 -0.001936 0.012111 0.001222 -0.003679 0.000326
# 4 -0.000148 0.001069 0.001222 0.031699 0.005982 -0.000988
# 5 0.000916 0.000715 -0.003679 0.005982 0.027781 0.006472
# 6 0.004881 -0.003750 0.000326 -0.000988 0.006472 0.040726
#
#
# Mechanical properties :
#
#
# Convention : Reuss Voigt Hill
#
# Bulk Modulus (GPa) = 38.50687 42.05734 40.28210
# Shear Modulus (GPa) = 31.06774 34.95127 33.00951
#
# Velocity S-wave (km/s) = 3.61518 3.83448 3.72644
# Velocity P-wave (km/s) = 5.79871 6.10712 5.95491
#
# Compressibility (1/GPa) = 0.02596939
#
# Stress axis : x y z
#
# Youngs Moduli (GPa) = 93.75345 61.55653 82.56677
#
# Poissons Ratio (x) = 0.11695 0.22222
# Poissons Ratio (y) = 0.17812 0.15981
# Poissons Ratio (z) = 0.25233 0.11914
#
# Static dielectric constant tensor:
#      x y z
#    x 1.887860 -0.017440 0.017120 
#    y -0.017440 1.944900 -0.013640 
#    z 0.017120 -0.013640 1.975750 
# 
# From -- ./inp_files/484512.got.cif
#   From: 2010.05.17/outbox.cif.g08.bks.cpg/sg2_243_cif.got.tgz:484512.got - 2010.06.03 11:33:40.
