data_PCOD9017851
_publ_section_title
;
Structure prediction by ZEFSAII (Michael W. Deem and Ramdas Pophale) SiO2 
 PCOD9017851
Probable space group: P -1
;
_chemical_formula_sum "Si O2"
_cell_formula_units_Z 16
_cell_length_a 12.217875
_cell_length_b 7.612493
_cell_length_c 11.011602
_cell_angle_alpha 132.729539
_cell_angle_beta 50.524148
_cell_angle_gamma 109.077317
_cell_volume 570.755848
_symmetry_space_group_name_H-M "P -1"
_symmetry_group_IT_number 2
_symmetry_cell_setting 'triclinic'
loop_
_space_group_symop_operation_xyz
x,y,z
-x,-y,-z
loop_
_atom_site_type_symbol
_atom_site_label
_atom_site_fract_x
_atom_site_fract_y
_atom_site_fract_z
Si Si1 0.352383 0.351707 0.649476
Si Si2 0.074007 0.318963 0.997663
Si Si3 0.337883 0.528439 0.480665
Si Si4 0.197803 0.665137 0.419983
Si Si5 0.456158 0.822872 0.207532
Si Si6 0.987339 0.145698 0.732282
Si Si7 0.308322 0.995845 0.158850
Si Si8 0.231667 0.177791 0.048051
O O1 0.220100 0.357611 0.838179
O O2 0.314432 0.523275 0.638500
O O3 0.502605 0.410561 0.621865
O O4 0.391712 0.082172 0.437349
O O5 0.982193 0.208899 0.909960
O O6 0.996022 0.595955 0.215769
O O7 0.123869 0.162431 0.007556
O O8 0.216720 0.696697 0.565104
O O9 0.326277 0.264051 0.312305
O O10 0.361297 0.644104 0.247076
O O11 0.154663 0.413976 0.290166
O O12 0.106088 0.902270 0.536055
O O13 0.421115 0.836198 0.094154
O O14 0.623269 0.775239 0.097026
O O15 0.846586 0.071820 0.739883
O O16 0.303211 0.987281 0.011765
#
# Coordination Sequence:
#
# PCOD9017851 Si02
#       8
#     2   2   2   2   2   2   2   2
#     4  10  21  43  66  99 139 172 216 282 339 388
#     4  11  25  47  66 101 130 181 228 272 329 391
#     4   9  22  40  69 101 135 170 221 278 339 393
#     4  11  23  44  67 101 130 180 222 273 329 395
#     4  11  22  40  73 100 133 175 218 281 340 387
#     4  11  26  47  67  94 137 186 223 267 326 400
#     4  10  24  45  65 101 136 179 220 268 336 397
#     4  11  25  41  70 103 134 167 227 282 331 394
#
# _framework density 28.033000999999999
#
# number of rings (size 3 to 8) (size 9 to 14) (size 15 to 20)
#    0.000    1.500    1.250    2.250    1.750   11.500 
#    6.750    0.000    0.000    0.000    0.000    0.000 
#    0.000    0.000    0.000    0.000    0.000    0.000 
#
# Total GULP energy -89598.905013 kJ/mol
# GULP energy per Si atom -5599.931563 kJ/mol
# Density = 2.796920 g / cm^3
# Si number density = 28.033001 Si / 1000 Ang^3
#
#
#
# Elastic Constant Matrix: (Units=GPa)
#
#
# Indices 1 2 3 4 5 6 
#
# 1 211.4308 48.4206 39.0585 -1.9616 17.5353 -17.1022
# 2 48.4206 66.7507 27.2308 -6.0495 15.4863 -13.9889
# 3 39.0585 27.2308 92.9774 11.1227 -0.1987 -7.5551
# 4 -1.9616 -6.0495 11.1227 28.9313 2.1645 4.0531
# 5 17.5353 15.4863 -0.1987 2.1645 48.9780 -8.8640
# 6 -17.1022 -13.9889 -7.5551 4.0531 -8.8640 60.2600
#
#
#
# Elastic Compliance Matrix: (Units=1/GPa)
#
#
# Indices 1 2 3 4 5 6 
#
# 1 0.005890 -0.003288 -0.001502 0.000285 -0.000987 0.000555
# 2 -0.003288 0.022102 -0.005731 0.006725 -0.005737 0.002183
# 3 -0.001502 -0.005731 0.013983 -0.007016 0.002878 0.000892
# 4 0.000285 0.006725 -0.007016 0.039377 -0.004457 -0.002542
# 5 -0.000987 -0.005737 0.002878 -0.004457 0.023240 0.002467
# 6 0.000555 0.002183 0.000892 -0.002542 0.002467 0.017905
#
#
# Mechanical properties :
#
#
# Convention : Reuss Voigt Hill
#
# Bulk Modulus (GPa) = 47.77527 66.73096 57.25312
# Shear Modulus (GPa) = 33.21872 44.73045 38.97458
#
# Velocity S-wave (km/s) = 3.44610 3.99887 3.73273
# Velocity P-wave (km/s) = 5.73704 6.72142 6.24864
#
# Compressibility (1/GPa) = 0.02093133
#
# Stress axis : x y z
#
# Youngs Moduli (GPa) = 169.78819 45.24397 71.51605
#
# Poissons Ratio (x) = 0.14877 0.10743
# Poissons Ratio (y) = 0.55830 0.40988
# Poissons Ratio (z) = 0.25506 0.25931
#
# Static dielectric constant tensor:
#      x y z
#    x 2.071540 0.001830 -0.002700 
#    y 0.001830 2.236150 -0.047030 
#    z -0.002700 -0.047030 2.269620 
# 
# From -- ./inp_files/419946.got.cif
#   From: 2010.05.17/outbox.cif.g08.bks.cpg/sg2_210_cif.got.tgz:419946.got - 2010.06.03 11:33:40.
