data_PCOD9017730
_publ_section_title
;
Structure prediction by ZEFSAII (Michael W. Deem and Ramdas Pophale) SiO2 
 PCOD9017730
Probable space group: P -1
;
_chemical_formula_sum "Si O2"
_cell_formula_units_Z 16
_cell_length_a 8.607785
_cell_length_b 22.452209
_cell_length_c 11.995485
_cell_angle_alpha 28.149999
_cell_angle_beta 142.701636
_cell_angle_gamma 133.177177
_cell_volume 661.569213
_symmetry_space_group_name_H-M "P -1"
_symmetry_group_IT_number 2
_symmetry_cell_setting 'triclinic'
loop_
_space_group_symop_operation_xyz
x,y,z
-x,-y,-z
loop_
_atom_site_type_symbol
_atom_site_label
_atom_site_fract_x
_atom_site_fract_y
_atom_site_fract_z
Si Si1 0.248889 0.973422 0.765211
Si Si2 0.910164 0.380982 0.213026
Si Si3 0.100243 0.223636 0.392531
Si Si4 0.201200 0.468406 0.894699
Si Si5 0.766721 0.059163 0.575246
Si Si6 0.299860 0.339745 0.950163
Si Si7 0.409722 0.871474 0.409665
Si Si8 0.894360 0.193089 0.857143
O O1 0.256764 0.096893 0.648621
O O2 0.498788 0.994951 0.799453
O O3 0.235978 0.842709 0.040377
O O4 0.000000 0.000000 0.500000
O O5 0.594593 0.371639 0.033998
O O6 0.097737 0.273832 0.436099
O O7 0.935520 0.420817 0.290873
O O8 0.000000 0.500000 0.000000
O O9 0.150519 0.340555 0.148053
O O10 0.817807 0.165613 0.336492
O O11 0.150623 0.436412 0.789973
O O12 0.500000 0.500000 0.000000
O O13 0.776458 0.108917 0.624569
O O14 0.500000 0.000000 0.500000
O O15 0.966876 0.941771 0.870497
O O16 0.352713 0.210662 0.265476
O O17 0.103910 0.295750 0.818690
O O18 0.302078 0.789140 0.385013
#
# Coordination Sequence:
#
# PCOD9017730 Si02
#       8
#     2   2   2   2   2   2   2   2
#     4  11  20  35  55  81 120 153 184 228 273 330
#     4   9  18  32  57  87 102 141 192 231 280 340
#     4  10  17  30  52  83 109 143 187 224 277 331
#     4   9  18  31  55  83 105 137 189 236 281 331
#     4  11  20  35  55  81 117 155 183 223 273 333
#     4  11  19  37  57  84 113 144 184 231 285 328
#     4  12  21  35  56  80 119 151 188 225 273 330
#     4  11  23  35  55  85 115 151 189 221 273 341
#
# _framework density 24.184923999999999
#
# number of rings (size 3 to 8) (size 9 to 14) (size 15 to 20)
#    0.000    1.500    5.000    1.500    0.000    0.000 
#    0.000    0.000    0.000    7.500    0.000    0.000 
#    0.000    0.000    0.000    0.000    0.000    0.000 
#
# Total GULP energy -89095.646540 kJ/mol
# GULP energy per Si atom -5568.477909 kJ/mol
# Density = 2.412988 g / cm^3
# Si number density = 24.184924 Si / 1000 Ang^3
#
#
#
# Elastic Constant Matrix: (Units=GPa)
#
#
# Indices 1 2 3 4 5 6 
#
# 1 143.9253 50.5173 23.9411 -7.6868 -20.6741 9.4651
# 2 50.5173 119.3269 27.9845 10.5936 -14.9911 9.1445
# 3 23.9411 27.9845 52.1586 -3.7544 -14.3892 5.8977
# 4 -7.6868 10.5936 -3.7544 36.7084 -2.6577 -6.1988
# 5 -20.6741 -14.9911 -14.3892 -2.6577 28.9992 -20.2361
# 6 9.4651 9.1445 5.8977 -6.1988 -20.2361 69.3526
#
#
#
# Elastic Compliance Matrix: (Units=1/GPa)
#
#
# Indices 1 2 3 4 5 6 
#
# 1 0.009169 -0.003407 -0.000736 0.003431 0.005553 0.001187
# 2 -0.003407 0.011440 -0.004814 -0.004696 -0.000087 -0.001079
# 3 -0.000736 -0.004814 0.025437 0.005109 0.011802 0.002472
# 4 0.003431 -0.004696 0.005109 0.031361 0.009023 0.005152
# 5 0.005553 -0.000087 0.011802 0.009023 0.055780 0.015332
# 6 0.001187 -0.001079 0.002472 0.005152 0.015332 0.019123
#
#
# Mechanical properties :
#
#
# Convention : Reuss Voigt Hill
#
# Bulk Modulus (GPa) = 35.54665 57.81073 46.67869
# Shear Modulus (GPa) = 27.83920 41.20990 34.52455
#
# Velocity S-wave (km/s) = 3.39646 4.13237 3.78236
# Velocity P-wave (km/s) = 5.48735 6.83551 6.19819
#
# Compressibility (1/GPa) = 0.02813204
#
# Stress axis : x y z
#
# Youngs Moduli (GPa) = 109.06069 87.40932 39.31269
#
# Poissons Ratio (x) = 0.29781 0.02893
# Poissons Ratio (y) = 0.37158 0.18926
# Poissons Ratio (z) = 0.08027 0.42081
#
# Static dielectric constant tensor:
#      x y z
#    x 2.073680 -0.025560 0.027960 
#    y -0.025560 2.061590 -0.025340 
#    z 0.027960 -0.025340 1.963000 
# 
# From -- ./inp_files/405453.got.cif
#   From: 2010.05.17/outbox.cif.g08.bks.cpg/sg2_203_cif.got.tgz:405453.got - 2010.06.03 11:33:40.
