data_PCOD9017197
_publ_section_title
;
Structure prediction by ZEFSAII (Michael W. Deem and Ramdas Pophale) SiO2 
 PCOD9017197
Probable space group: P -1
;
_chemical_formula_sum "Si O2"
_cell_formula_units_Z 14
_cell_length_a 12.837772
_cell_length_b 10.002524
_cell_length_c 4.807357
_cell_angle_alpha 71.660296
_cell_angle_beta 66.467941
_cell_angle_gamma 62.743182
_cell_volume 496.509364
_symmetry_space_group_name_H-M "P -1"
_symmetry_group_IT_number 2
_symmetry_cell_setting 'triclinic'
loop_
_space_group_symop_operation_xyz
x,y,z
-x,-y,-z
loop_
_atom_site_type_symbol
_atom_site_label
_atom_site_fract_x
_atom_site_fract_y
_atom_site_fract_z
Si Si1 0.076552 0.679639 0.828218
Si Si2 0.538552 0.620668 0.215837
Si Si3 0.851206 0.754260 0.650928
Si Si4 0.598790 0.884776 0.175780
Si Si5 0.210278 0.501487 0.315804
Si Si6 0.165548 0.927453 0.546245
Si Si7 0.665071 0.140721 0.110296
O O1 0.193760 0.584896 0.571084
O O2 0.066190 0.852850 0.719615
O O3 0.961402 0.668081 0.800434
O O4 0.107403 0.613123 0.144312
O O5 0.500000 0.500000 0.500000
O O6 0.563372 0.276308 0.962971
O O7 0.561723 0.738722 0.334955
O O8 0.660875 0.542790 0.949084
O O9 0.727015 0.817110 0.920296
O O10 0.823595 0.647006 0.527633
O O11 0.873130 0.900499 0.419825
O O12 0.500000 0.000000 0.000000
O O13 0.619499 0.000309 0.301232
O O14 0.279816 0.826937 0.686045
O O15 0.219936 0.915946 0.187988
#
# Coordination Sequence:
#
# PCOD9017197 Si02
#       7
#     2   2   2   2   2   2   2
#     4  12  25  45  68 102 142 183 230 286 340 403
#     4  10  21  42  72 103 137 181 228 282 347 411
#     4  10  23  44  72 102 137 186 231 279 344 414
#     4   8  18  40  68 102 136 173 225 283 341 405
#     4  11  26  45  69 103 143 183 229 283 344 412
#     4  11  24  43  69  99 135 178 231 284 335 401
#     4  10  22  43  67  99 136 176 223 283 342 402
#
# _framework density 28.196850999999999
#
# number of rings (size 3 to 8) (size 9 to 14) (size 15 to 20)
#    0.000    1.714    0.000    3.000    0.000    6.857 
#    0.000   34.286    0.000    1.714    0.000    0.000 
#    0.000    0.000    0.000    0.000    0.000    0.000 
#
# Total GULP energy -78660.575455 kJ/mol
# GULP energy per Si atom -5618.612533 kJ/mol
# Density = 2.813267 g / cm^3
# Si number density = 28.196851 Si / 1000 Ang^3
#
#
#
# Elastic Constant Matrix: (Units=GPa)
#
#
# Indices 1 2 3 4 5 6 
#
# 1 118.5274 29.6406 38.7517 2.9310 -7.3410 -2.3346
# 2 29.6406 183.2607 46.4077 -24.2589 -11.4840 22.7851
# 3 38.7517 46.4077 143.1390 -6.1649 5.9552 1.9441
# 4 2.9310 -24.2589 -6.1649 31.4772 3.3695 -4.8134
# 5 -7.3410 -11.4840 5.9552 3.3695 43.9444 1.3095
# 6 -2.3346 22.7851 1.9441 -4.8134 1.3095 58.7414
#
#
#
# Elastic Compliance Matrix: (Units=1/GPa)
#
#
# Indices 1 2 3 4 5 6 
#
# 1 0.009726 -0.001261 -0.002413 -0.002432 0.001787 0.000716
# 2 -0.001261 0.007144 -0.001806 0.004729 0.001610 -0.002410
# 3 -0.002413 -0.001806 0.008338 0.000755 -0.002076 0.000437
# 4 -0.002432 0.004729 0.000755 0.036172 -0.002078 0.001054
# 5 0.001787 0.001610 -0.002076 -0.002078 0.023951 -0.001189
# 6 0.000716 -0.002410 0.000437 0.001054 -0.001189 0.018086
#
#
# Mechanical properties :
#
#
# Convention : Reuss Voigt Hill
#
# Bulk Modulus (GPa) = 70.17999 74.94747 72.56373
# Shear Modulus (GPa) = 41.97238 48.84106 45.40672
#
# Velocity S-wave (km/s) = 3.86236 4.16642 4.01727
# Velocity P-wave (km/s) = 6.69580 7.05572 6.87812
#
# Compressibility (1/GPa) = 0.01424908
#
# Stress axis : x y z
#
# Youngs Moduli (GPa) = 102.81601 139.96929 119.93498
#
# Poissons Ratio (x) = 0.17650 0.28942
# Poissons Ratio (y) = 0.12965 0.21655
# Poissons Ratio (z) = 0.24811 0.25272
#
# Static dielectric constant tensor:
#      x y z
#    x 2.185840 -0.013930 -0.045780 
#    y -0.013930 2.221290 0.004450 
#    z -0.045780 0.004450 2.087430 
# 
# From -- ./inp_files/90319.got.cif
#   From: 2010.05.17/outbox.cif.g08.bks.cpg/sg2_46_cif.got.tgz:90319.got - 2010.06.03 11:33:40.
