data_PCOD9017874
_publ_section_title
;
Structure prediction by ZEFSAII (Michael W. Deem and Ramdas Pophale) SiO2 
 PCOD9017874
Probable space group: P -1
;
_chemical_formula_sum "Si O2"
_cell_formula_units_Z 15
_cell_length_a 13.122375
_cell_length_b 10.561908
_cell_length_c 7.003236
_cell_angle_alpha 66.503200
_cell_angle_beta 123.179321
_cell_angle_gamma 133.682878
_cell_volume 587.147372
_symmetry_space_group_name_H-M "P -1"
_symmetry_group_IT_number 2
_symmetry_cell_setting 'triclinic'
loop_
_space_group_symop_operation_xyz
x,y,z
-x,-y,-z
loop_
_atom_site_type_symbol
_atom_site_label
_atom_site_fract_x
_atom_site_fract_y
_atom_site_fract_z
Si Si1 0.115933 0.945772 0.362017
Si Si2 0.173446 0.614141 0.532509
Si Si3 0.478294 0.840721 0.960614
Si Si4 0.464190 0.511766 0.177459
Si Si5 0.000000 0.000000 0.500000
Si Si6 0.229414 0.389523 0.489242
Si Si7 0.881972 0.744902 0.917510
Si Si8 0.661567 0.037479 0.681433
O O1 0.278108 0.022312 0.387980
O O2 0.094039 0.913474 0.581442
O O3 0.062149 0.072694 0.240981
O O4 0.996128 0.801304 0.173421
O O5 0.306221 0.734652 0.753380
O O6 0.207290 0.487913 0.564051
O O7 0.213556 0.752277 0.324086
O O8 0.000000 0.500000 0.500000
O O9 0.618275 0.932921 0.894180
O O10 0.476704 0.683886 0.134676
O O11 0.500000 0.000000 0.000000
O O12 0.590433 0.511384 0.420934
O O13 0.288058 0.344794 0.128736
O O14 0.500000 0.500000 0.000000
O O15 0.836833 0.804333 0.397398
O O16 0.143757 0.373128 0.214831
O O17 0.500000 0.000000 0.500000
#
# Coordination Sequence:
#
# PCOD9017874 Si02
#       8
#     2   2   2   2   1   2   2   2
#     4  10  21  43  67 103 141 183 239 295 378 428
#     4  11  25  46  72 102 142 190 246 302 368 442
#     4  11  27  46  70 106 146 196 245 298 379 439
#     4  12  23  42  72  99 142 178 242 305 357 434
#     4  10  22  40  68 102 138 176 232 304 368 426
#     4  11  24  42  68 101 134 187 236 300 368 430
#     4  10  24  39  68 100 137 180 235 305 354 433
#     4  10  24  44  69  98 147 191 233 291 367 448
#
# _framework density 25.547248
#
# number of rings (size 3 to 8) (size 9 to 14) (size 15 to 20)
#    0.000    1.333    1.333    2.800    5.600    8.533 
#    0.000    1.333    0.000    0.000    0.000    0.000 
#    0.000    0.000    0.000    0.000    0.000    0.000 
#
# Total GULP energy -83570.571872 kJ/mol
# GULP energy per Si atom -5571.371458 kJ/mol
# Density = 2.548910 g / cm^3
# Si number density = 25.547248 Si / 1000 Ang^3
#
#
#
# Elastic Constant Matrix: (Units=GPa)
#
#
# Indices 1 2 3 4 5 6 
#
# 1 207.8257 51.1075 53.1939 27.3545 10.7131 2.4240
# 2 51.1075 130.3114 50.3424 18.0921 5.2867 -1.7035
# 3 53.1939 50.3424 83.4370 28.9383 1.9083 -11.3098
# 4 27.3545 18.0921 28.9383 48.0516 -0.1791 -9.3004
# 5 10.7131 5.2867 1.9083 -0.1791 31.4549 6.0487
# 6 2.4240 -1.7035 -11.3098 -9.3004 6.0487 63.3661
#
#
#
# Elastic Compliance Matrix: (Units=1/GPa)
#
#
# Indices 1 2 3 4 5 6 
#
# 1 0.006076 -0.001038 -0.002784 -0.001559 -0.001574 -0.000836
# 2 -0.001038 0.010273 -0.005585 -0.000033 -0.000919 -0.000598
# 3 -0.002784 -0.005585 0.020236 -0.008039 0.000157 0.002373
# 4 -0.001559 -0.000033 -0.008039 0.027044 0.000692 0.002527
# 5 -0.001574 -0.000919 0.000157 0.000692 0.033052 -0.002990
# 6 -0.000836 -0.000598 0.002373 0.002527 -0.002990 0.016877
#
#
# Mechanical properties :
#
#
# Convention : Reuss Voigt Hill
#
# Bulk Modulus (GPa) = 56.27243 81.20685 68.73964
# Shear Modulus (GPa) = 36.15491 46.36989 41.26240
#
# Velocity S-wave (km/s) = 3.76602 4.26498 4.02324
# Velocity P-wave (km/s) = 6.40196 7.49062 6.96758
#
# Compressibility (1/GPa) = 0.01777069
#
# Stress axis : x y z
#
# Youngs Moduli (GPa) = 164.59358 97.34558 49.41711
#
# Poissons Ratio (x) = 0.10105 0.13756
# Poissons Ratio (y) = 0.17085 0.27600
# Poissons Ratio (z) = 0.45817 0.54368
#
# Static dielectric constant tensor:
#      x y z
#    x -20.763990 -11.709530 26.504230 
#    y -11.709530 -3.921320 13.607120 
#    z 26.504230 13.607120 -28.659030 
# 
# From -- ./inp_files/243681.got.cif
#   From: 2010.05.17/outbox.cif.g08.bks.cpg/sg2_122_cif.got.tgz:243681.got - 2010.06.03 11:33:40.
