data_PCOD9017786
_publ_section_title
;
Structure prediction by ZEFSAII (Michael W. Deem and Ramdas Pophale) SiO2 
 PCOD9017786
Probable space group: P -1
;
_chemical_formula_sum "Si O2"
_cell_formula_units_Z 14
_cell_length_a 20.509183
_cell_length_b 10.169925
_cell_length_c 12.521180
_cell_angle_alpha 134.973754
_cell_angle_beta 25.171212
_cell_angle_gamma 144.757630
_cell_volume 635.363019
_symmetry_space_group_name_H-M "P -1"
_symmetry_group_IT_number 2
_symmetry_cell_setting 'triclinic'
loop_
_space_group_symop_operation_xyz
x,y,z
-x,-y,-z
loop_
_atom_site_type_symbol
_atom_site_label
_atom_site_fract_x
_atom_site_fract_y
_atom_site_fract_z
Si Si1 0.280540 0.267743 0.490973
Si Si2 0.957289 0.778024 0.685609
Si Si3 0.480697 0.971643 0.680029
Si Si4 0.988995 0.553848 0.703982
Si Si5 0.537379 0.151696 0.135120
Si Si6 0.422317 0.253738 0.771386
Si Si7 0.919670 0.514595 0.015621
O O1 0.424084 0.262169 0.351768
O O2 0.410719 0.479050 0.340445
O O3 0.151063 0.325014 0.775873
O O4 0.138151 0.016250 0.507392
O O5 0.013999 0.753206 0.707486
O O6 0.921279 0.560503 0.552250
O O7 0.775352 0.779299 0.950851
O O8 0.539868 0.003657 0.733472
O O9 0.580302 0.893564 0.408910
O O10 0.264145 0.744692 0.874866
O O11 0.473543 0.165606 0.746719
O O12 0.760484 0.356573 0.927085
O O13 0.044749 0.597115 0.770579
O O14 0.500000 0.000000 0.000000
O O15 0.000000 0.500000 0.000000
#
# Coordination Sequence:
#
# PCOD9017786 Si02
#       7
#     2   2   2   2   2   2   2
#     4  11  23  39  70  95 123 172 219 259 318 378
#     4  11  22  41  66  98 128 169 212 267 323 382
#     4   9  22  41  68  92 131 175 204 271 329 364
#     4  10  23  41  65  94 135 168 206 270 329 369
#     4  11  21  43  66  94 133 167 215 267 316 388
#     4  10  21  43  66  94 131 166 218 267 315 385
#     4  10  22  43  65  94 129 170 217 265 315 386
#
# _framework density 22.034648000000001
#
# number of rings (size 3 to 8) (size 9 to 14) (size 15 to 20)
#    0.000    1.714    2.857    0.857    2.000    2.286 
#   10.286    2.857    0.000    0.000    0.000    0.000 
#    0.000    0.000    0.000    0.000    0.000    0.000 
#
# Total GULP energy -78277.240062 kJ/mol
# GULP energy per Si atom -5591.231433 kJ/mol
# Density = 2.198450 g / cm^3
# Si number density = 22.034648 Si / 1000 Ang^3
#
#
#
# Elastic Constant Matrix: (Units=GPa)
#
#
# Indices 1 2 3 4 5 6 
#
# 1 122.3151 21.8532 43.2796 51.3235 0.6659 -26.2148
# 2 21.8532 88.4112 18.2169 15.9107 -17.3204 -22.3963
# 3 43.2796 18.2169 100.1474 22.1118 -18.1297 -26.1301
# 4 51.3235 15.9107 22.1118 3.8223 3.2789 -20.8489
# 5 0.6659 -17.3204 -18.1297 3.2789 17.7709 3.1712
# 6 -26.2148 -22.3963 -26.1301 -20.8489 3.1712 28.8087
#
#
#
# Elastic Compliance Matrix: (Units=1/GPa)
#
#
# Indices 1 2 3 4 5 6 
#
# 1 0.007268 -0.002871 -0.004997 0.013312 -0.012565 0.010866
# 2 -0.002871 0.018490 0.005120 0.002615 0.019998 0.016097
# 3 -0.004997 0.005120 0.018691 0.001369 0.021311 0.015031
# 4 0.013312 0.002615 0.001369 -0.043048 0.014487 -0.017361
# 5 -0.012565 0.019998 0.021311 0.014487 0.091036 0.023907
# 6 0.010866 0.016097 0.015031 -0.017361 0.023907 0.055551
#
#
# Mechanical properties :
#
#
# Convention : Reuss Voigt Hill
#
# Bulk Modulus (GPa) = 25.67197 53.06367 39.36782
# Shear Modulus (GPa) = 30.03528 25.24863 27.64196
#
# Velocity S-wave (km/s) = 3.69601 3.38873 3.54570
# Velocity P-wave (km/s) = 5.46718 6.28057 5.88794
#
# Compressibility (1/GPa) = 0.03895299
#
# Stress axis : x y z
#
# Youngs Moduli (GPa) = 137.58037 54.08219 53.50106
#
# Poissons Ratio (x) = 0.15530 0.26737
# Poissons Ratio (y) = 0.39506 -0.27395
# Poissons Ratio (z) = 0.68755 -0.27692
#
# Static dielectric constant tensor:
#      x y z
#    x 1.853620 0.012140 0.007810 
#    y 0.012140 1.825100 -0.028970 
#    z 0.007810 -0.028970 1.813420 
# 
# From -- ./inp_files/295385.got.cif
#   From: 2010.05.17/outbox.cif.g08.bks.cpg/sg2_148_cif.got.tgz:295385.got - 2010.06.03 11:33:40.
