data_PCOD9017105
_publ_section_title
;
Structure prediction by ZEFSAII (Michael W. Deem and Ramdas Pophale) SiO2 
 PCOD9017105
Probable space group: P -1
;
_chemical_formula_sum "Si O2"
_cell_formula_units_Z 14
_cell_length_a 5.279619
_cell_length_b 6.837785
_cell_length_c 23.958208
_cell_angle_alpha 133.637745
_cell_angle_beta 83.747270
_cell_angle_gamma 78.692665
_cell_volume 576.311400
_symmetry_space_group_name_H-M "P -1"
_symmetry_group_IT_number 2
_symmetry_cell_setting 'triclinic'
loop_
_space_group_symop_operation_xyz
x,y,z
-x,-y,-z
loop_
_atom_site_type_symbol
_atom_site_label
_atom_site_fract_x
_atom_site_fract_y
_atom_site_fract_z
Si Si1 0.128913 0.863609 0.546325
Si Si2 0.149827 0.195289 0.008807
Si Si3 0.779803 0.471141 0.730873
Si Si4 0.614888 0.694616 0.075089
Si Si5 0.255531 0.398723 0.552573
Si Si6 0.222203 0.668268 0.169345
Si Si7 0.802377 0.265096 0.263546
O O1 0.183131 0.652931 0.557661
O O2 0.432193 0.818959 0.509250
O O3 0.037468 0.249680 0.516553
O O4 0.945289 0.183602 0.634355
O O5 0.279361 0.341577 0.080596
O O6 0.903698 0.480117 0.048764
O O7 0.336051 0.084658 0.927132
O O8 0.000000 0.000000 0.000000
O O9 0.739301 0.361923 0.771717
O O10 0.489069 0.639755 0.741271
O O11 0.979081 0.654396 0.763723
O O12 0.424682 0.775482 0.149586
O O13 0.500000 0.500000 0.000000
O O14 0.231454 0.548519 0.642397
O O15 0.931147 0.926063 0.212136
#
# Coordination Sequence:
#
# PCOD9017105 Si02
#       7
#     2   2   2   2   2   2   2
#     4  10  21  42  71 103 139 198 254 304 370 430
#     4  10  23  46  80 108 138 188 246 301 366 452
#     4  12  28  45  74 110 149 202 255 301 378 450
#     4   9  22  45  72 104 140 185 231 301 364 446
#     4  10  21  42  72  98 146 196 246 317 363 429
#     4  11  27  49  70 106 159 188 242 316 374 448
#     4  12  28  46  72 109 150 203 249 308 381 438
#
# _framework density 24.292421999999998
#
# number of rings (size 3 to 8) (size 9 to 14) (size 15 to 20)
#    0.000    1.429    1.429    1.714    4.000   10.286 
#    0.000    0.000    0.000    0.000    0.000    0.000 
#    0.000    0.000    0.000    0.000    0.000    0.000 
#
# Total GULP energy -78378.538154 kJ/mol
# GULP energy per Si atom -5598.467011 kJ/mol
# Density = 2.423713 g / cm^3
# Si number density = 24.292422 Si / 1000 Ang^3
#
#
#
# Elastic Constant Matrix: (Units=GPa)
#
#
# Indices 1 2 3 4 5 6 
#
# 1 134.2640 60.6929 37.3912 -14.4656 -5.3113 -2.2778
# 2 60.6929 170.2480 69.2853 -22.1828 -5.6558 5.2113
# 3 37.3912 69.2853 127.4795 -23.2329 -0.3261 6.0647
# 4 -14.4656 -22.1828 -23.2329 45.0870 5.3864 -6.8742
# 5 -5.3113 -5.6558 -0.3261 5.3864 32.5538 5.8053
# 6 -2.2778 5.2113 6.0647 -6.8742 5.8053 53.2534
#
#
#
# Elastic Compliance Matrix: (Units=1/GPa)
#
#
# Indices 1 2 3 4 5 6 
#
# 1 0.009113 -0.002679 -0.001053 0.001111 0.000677 0.000841
# 2 -0.002679 0.008494 -0.003569 0.001306 0.000870 -0.000466
# 3 -0.001053 -0.003569 0.010751 0.003540 -0.001211 -0.000331
# 4 0.001111 0.001306 0.003540 0.026049 -0.004467 0.003366
# 5 0.000677 0.000870 -0.001211 -0.004467 0.032426 -0.004030
# 6 0.000841 -0.000466 -0.000331 0.003366 -0.004030 0.019771
#
#
# Mechanical properties :
#
#
# Convention : Reuss Voigt Hill
#
# Bulk Modulus (GPa) = 72.68825 85.19227 78.94026
# Shear Modulus (GPa) = 39.74871 43.82033 41.78452
#
# Velocity S-wave (km/s) = 4.04946 4.25180 4.15186
# Velocity P-wave (km/s) = 7.20079 7.69736 7.45321
#
# Compressibility (1/GPa) = 0.01375738
#
# Stress axis : x y z
#
# Youngs Moduli (GPa) = 109.73501 117.72489 93.01785
#
# Poissons Ratio (x) = 0.31536 0.09794
# Poissons Ratio (y) = 0.29396 0.33194
# Poissons Ratio (z) = 0.11554 0.42011
#
# Static dielectric constant tensor:
#      x y z
#    x 1.803510 0.002680 0.009410 
#    y 0.002680 1.939650 0.019430 
#    z 0.009410 0.019430 2.016440 
# 
# From -- ./inp_files/13975.got.cif
#   From: 2010.05.17/outbox.cif.g08.bks.cpg/sg2_7_cif.got.tgz:13975.got - 2010.06.03 11:33:40.
