data_PCOD9017533
_publ_section_title
;
Structure prediction by ZEFSAII (Michael W. Deem and Ramdas Pophale) SiO2 
 PCOD9017533
Probable space group: P -1
;
_chemical_formula_sum "Si O2"
_cell_formula_units_Z 16
_cell_length_a 7.297454
_cell_length_b 12.651090
_cell_length_c 19.158950
_cell_angle_alpha 157.126478
_cell_angle_beta 87.367736
_cell_angle_gamma 95.031751
_cell_volume 682.082320
_symmetry_space_group_name_H-M "P -1"
_symmetry_group_IT_number 2
_symmetry_cell_setting 'triclinic'
loop_
_space_group_symop_operation_xyz
x,y,z
-x,-y,-z
loop_
_atom_site_type_symbol
_atom_site_label
_atom_site_fract_x
_atom_site_fract_y
_atom_site_fract_z
Si Si1 0.381993 0.625327 0.431409
Si Si2 0.597484 0.314545 0.329790
Si Si3 0.946364 0.292946 0.095534
Si Si4 0.474981 0.130882 0.834265
Si Si5 0.304502 0.689159 0.308520
Si Si6 0.803612 0.583035 0.071696
Si Si7 0.002110 0.320826 0.278883
Si Si8 0.286274 0.276535 0.700196
O O1 0.500167 0.377706 0.297547
O O2 0.362087 0.666805 0.375272
O O3 0.178688 0.545145 0.418958
O O4 0.476521 0.893076 0.631185
O O5 0.500000 0.500000 0.500000
O O6 0.817210 0.381260 0.358128
O O7 0.555444 0.011490 0.176956
O O8 0.958416 0.302368 0.185327
O O9 0.785116 0.465411 0.178655
O O10 0.131954 0.463283 0.164923
O O11 0.940131 0.976304 0.881470
O O12 0.302044 0.284160 0.907520
O O13 0.665618 0.321599 0.939639
O O14 0.495414 0.667187 0.252557
O O15 0.254331 0.997327 0.486536
O O16 0.817712 0.777353 0.257357
O O17 0.000000 0.500000 0.000000
#
# Coordination Sequence:
#
# PCOD9017533 Si02
#       8
#     2   2   2   2   2   2   2   2
#     4  10  21  43  64  92 129 164 207 257 315 371
#     4  10  23  39  64  92 123 170 209 253 307 372
#     4  10  23  40  63  98 126 163 207 260 316 372
#     4  10  24  43  61  93 126 166 212 255 309 369
#     4  10  22  42  66  93 128 160 210 263 314 374
#     4  11  26  43  64  94 127 165 207 262 315 370
#     4  10  23  40  64  95 131 162 208 262 309 376
#     4  11  23  41  67  93 121 170 207 259 322 373
#
# _framework density 23.457578999999999
#
# number of rings (size 3 to 8) (size 9 to 14) (size 15 to 20)
#    0.000    1.750    1.250    1.125    5.250    5.000 
#    2.250    3.750    0.000    0.000    0.000    0.000 
#    0.000    0.000    0.000    0.000    0.000    0.000 
#
# Total GULP energy -89550.263234 kJ/mol
# GULP energy per Si atom -5596.891452 kJ/mol
# Density = 2.340419 g / cm^3
# Si number density = 23.457579 Si / 1000 Ang^3
#
#
#
# Elastic Constant Matrix: (Units=GPa)
#
#
# Indices 1 2 3 4 5 6 
#
# 1 112.8043 33.8939 39.1068 12.1823 -33.3485 17.8593
# 2 33.8939 68.3509 27.5473 15.4663 -22.1523 0.6055
# 3 39.1068 27.5473 71.9053 12.1550 -9.8439 9.9073
# 4 12.1823 15.4663 12.1550 37.3872 -2.0459 -9.6357
# 5 -33.3485 -22.1523 -9.8439 -2.0459 38.2804 -0.6400
# 6 17.8593 0.6055 9.9073 -9.6357 -0.6400 45.2365
#
#
#
# Elastic Compliance Matrix: (Units=1/GPa)
#
#
# Indices 1 2 3 4 5 6 
#
# 1 0.015642 -0.001096 -0.005096 -0.003833 0.011382 -0.005700
# 2 -0.001096 0.022079 -0.005405 -0.006444 0.010089 0.000091
# 3 -0.005096 -0.005405 0.019315 -0.003281 -0.002824 -0.002885
# 4 -0.003833 -0.006444 -0.003281 0.033836 -0.005946 0.009441
# 5 0.011382 0.010089 -0.002824 -0.005946 0.040755 -0.004700
# 6 -0.005700 0.000091 -0.002885 0.009441 -0.004700 0.026932
#
#
# Mechanical properties :
#
#
# Convention : Reuss Voigt Hill
#
# Bulk Modulus (GPa) = 29.54812 50.46184 40.00498
# Shear Modulus (GPa) = 25.90231 34.34833 30.12532
#
# Velocity S-wave (km/s) = 3.32658 3.83074 3.58753
# Velocity P-wave (km/s) = 5.23246 6.41285 5.85249
#
# Compressibility (1/GPa) = 0.03384310
#
# Stress axis : x y z
#
# Youngs Moduli (GPa) = 63.93002 45.29112 51.77409
#
# Poissons Ratio (x) = 0.04965 0.26383
# Poissons Ratio (y) = 0.07008 0.27982
# Poissons Ratio (z) = 0.32577 0.24478
#
# Static dielectric constant tensor:
#      x y z
#    x 1.849280 -0.023400 -0.010070 
#    y -0.023400 1.911950 -0.006080 
#    z -0.010070 -0.006080 1.923790 
# 
# From -- ./inp_files/411247.got.cif
#   From: 2010.05.17/outbox.cif.g08.bks.cpg/sg2_206_cif.got.tgz:411247.got - 2010.06.03 11:33:40.
