data_PCOD9017779
_publ_section_title
;
Structure prediction by ZEFSAII (Michael W. Deem and Ramdas Pophale) SiO2 
 PCOD9017779
Probable space group: P -1
;
_chemical_formula_sum "Si O2"
_cell_formula_units_Z 16
_cell_length_a 17.878918
_cell_length_b 8.693675
_cell_length_c 9.109573
_cell_angle_alpha 82.476294
_cell_angle_beta 96.191921
_cell_angle_gamma 148.948619
_cell_volume 724.033926
_symmetry_space_group_name_H-M "P -1"
_symmetry_group_IT_number 2
_symmetry_cell_setting 'triclinic'
loop_
_space_group_symop_operation_xyz
x,y,z
-x,-y,-z
loop_
_atom_site_type_symbol
_atom_site_label
_atom_site_fract_x
_atom_site_fract_y
_atom_site_fract_z
Si Si1 0.927266 0.765128 0.639592
Si Si2 0.111352 0.578552 0.935115
Si Si3 0.842861 0.080133 0.327150
Si Si4 0.662071 0.233611 0.459832
Si Si5 0.643528 0.843290 0.540817
Si Si6 0.677238 0.634410 0.088332
Si Si7 0.870173 0.709518 0.170913
Si Si8 0.347908 0.085859 0.122648
O O1 0.762696 0.453580 0.594358
O O2 0.002582 0.729101 0.658068
O O3 0.000000 0.000000 0.500000
O O4 0.989499 0.956878 0.773570
O O5 0.156925 0.758575 0.780023
O O6 0.076124 0.348132 0.894499
O O7 0.000000 0.500000 0.000000
O O8 0.234261 0.773862 0.059761
O O9 0.778552 0.988555 0.484930
O O10 0.736851 0.785126 0.244112
O O11 0.753126 0.458922 0.309147
O O12 0.500000 0.000000 0.500000
O O13 0.647777 0.024764 0.457779
O O14 0.500000 0.500000 0.500000
O O15 0.657572 0.889271 0.710745
O O16 0.778086 0.669821 0.060106
O O17 0.507530 0.301726 0.098347
O O18 0.684133 0.804288 0.974771
#
# Coordination Sequence:
#
# PCOD9017779 Si02
#       8
#     2   2   2   2   2   2   2   2
#     4   9  22  41  67  96 133 182 223 281 352 404
#     4  11  25  44  65  97 137 181 235 290 337 413
#     4  10  21  43  66  93 139 179 227 285 340 413
#     4  11  24  41  67 107 143 169 229 294 343 412
#     4  12  24  40  70 105 136 180 226 281 347 411
#     4   9  19  41  69  92 135 177 226 279 337 415
#     4  10  21  46  71  95 135 191 228 283 354 411
#     4  10  22  39  65  99 136 178 224 280 340 399
#
# _framework density 22.098410999999999
#
# number of rings (size 3 to 8) (size 9 to 14) (size 15 to 20)
#    0.000    1.750    2.500    0.750    5.250    3.000 
#    0.000    8.125    0.000    0.000    0.000    0.000 
#    0.000    0.000    0.000    0.000    0.000    0.000 
#
# Total GULP energy -89337.921707 kJ/mol
# GULP energy per Si atom -5583.620107 kJ/mol
# Density = 2.204811 g / cm^3
# Si number density = 22.098411 Si / 1000 Ang^3
#
#
#
# Elastic Constant Matrix: (Units=GPa)
#
#
# Indices 1 2 3 4 5 6 
#
# 1 132.3907 60.5730 30.3017 20.0825 -16.8455 3.7835
# 2 60.5730 138.0741 32.0431 21.4752 -7.7702 17.2447
# 3 30.3017 32.0431 78.0588 0.2510 -5.7778 8.6090
# 4 20.0825 21.4752 0.2510 23.2659 5.0044 4.3140
# 5 -16.8455 -7.7702 -5.7778 5.0044 33.9533 4.5320
# 6 3.7835 17.2447 8.6090 4.3140 4.5320 36.0816
#
#
#
# Elastic Compliance Matrix: (Units=1/GPa)
#
#
# Indices 1 2 3 4 5 6 
#
# 1 0.011564 -0.002838 -0.003005 -0.008779 0.005711 0.001193
# 2 -0.002838 0.010842 -0.002766 -0.007323 0.002165 -0.003621
# 3 -0.003005 -0.002766 0.015396 0.005470 0.000050 -0.002697
# 4 -0.008779 -0.007323 0.005470 0.060658 -0.013719 -0.002414
# 5 0.005711 0.002165 0.000050 -0.013719 0.035406 -0.004453
# 6 0.001193 -0.003621 -0.002697 -0.002414 -0.004453 0.030812
#
#
# Mechanical properties :
#
#
# Convention : Reuss Voigt Hill
#
# Bulk Modulus (GPa) = 48.57795 66.03990 57.30892
# Shear Modulus (GPa) = 26.48900 33.70055 30.09477
#
# Velocity S-wave (km/s) = 3.46596 3.90939 3.69433
# Velocity P-wave (km/s) = 6.16826 7.09416 6.64735
#
# Compressibility (1/GPa) = 0.02058547
#
# Stress axis : x y z
#
# Youngs Moduli (GPa) = 86.47591 92.23064 64.95102
#
# Poissons Ratio (x) = 0.26174 0.19516
# Poissons Ratio (y) = 0.24541 0.17965
# Poissons Ratio (z) = 0.25983 0.25511
#
# Static dielectric constant tensor:
#      x y z
#    x 1.824900 0.014960 0.000890 
#    y 0.014960 1.865860 -0.063110 
#    z 0.000890 -0.063110 1.852060 
# 
# From -- ./inp_files/329034.got.cif
#   From: 2010.05.17/outbox.cif.g08.bks.cpg/sg2_165_cif.got.tgz:329034.got - 2010.06.03 11:33:40.
