data_PCOD9017390
_publ_section_title
;
Structure prediction by ZEFSAII (Michael W. Deem and Ramdas Pophale) SiO2 
 PCOD9017390
Probable space group: P -1
;
_chemical_formula_sum "Si O2"
_cell_formula_units_Z 14
_cell_length_a 11.241407
_cell_length_b 11.422379
_cell_length_c 8.201098
_cell_angle_alpha 80.097521
_cell_angle_beta 104.820744
_cell_angle_gamma 41.124342
_cell_volume 548.480686
_symmetry_space_group_name_H-M "P -1"
_symmetry_group_IT_number 2
_symmetry_cell_setting 'triclinic'
loop_
_space_group_symop_operation_xyz
x,y,z
-x,-y,-z
loop_
_atom_site_type_symbol
_atom_site_label
_atom_site_fract_x
_atom_site_fract_y
_atom_site_fract_z
Si Si1 0.169809 0.622769 0.949903
Si Si2 0.598509 0.240399 0.692435
Si Si3 0.302147 0.104337 0.293588
Si Si4 0.792859 0.743470 0.143426
Si Si5 0.117470 0.665592 0.304830
Si Si6 0.505936 0.207274 0.990129
Si Si7 0.029039 0.981272 0.706888
O O1 0.399506 0.363349 0.066979
O O2 0.951689 0.727138 0.775446
O O3 0.115159 0.686495 0.105053
O O4 0.187966 0.739653 0.854779
O O5 0.365032 0.485318 0.500487
O O6 0.599139 0.227407 0.890099
O O7 0.812223 0.125654 0.709307
O O8 0.602405 0.101113 0.670887
O O9 0.500000 0.000000 0.500000
O O10 0.249252 0.217419 0.078131
O O11 0.715100 0.679601 0.193742
O O12 0.039464 0.591414 0.307161
O O13 0.647948 0.970888 0.111676
O O14 0.952022 0.893622 0.278788
O O15 0.000000 0.000000 0.500000
#
# Coordination Sequence:
#
# PCOD9017390 Si02
#       7
#     2   2   2   2   2   2   2
#     4  10  23  39  66  94 125 172 213 263 317 379
#     4  10  23  41  62  94 127 169 208 269 320 375
#     4   9  20  38  60  90 133 168 210 261 313 375
#     4   9  22  40  62  94 134 172 210 264 310 384
#     4  11  23  41  68  95 129 169 217 264 316 375
#     4  10  21  43  60  94 139 162 216 256 323 385
#     4  11  24  47  66  91 126 168 219 269 322 382
#
# _framework density 25.525054000000001
#
# number of rings (size 3 to 8) (size 9 to 14) (size 15 to 20)
#    0.000    2.000    0.000    2.571    4.000    2.857 
#   18.000    2.143    0.000    0.000    0.000    0.000 
#    0.000    0.000    0.000    0.000    0.000    0.000 
#
# Total GULP energy -78120.048886 kJ/mol
# GULP energy per Si atom -5580.003492 kJ/mol
# Density = 2.546696 g / cm^3
# Si number density = 25.525054 Si / 1000 Ang^3
#
#
#
# Elastic Constant Matrix: (Units=GPa)
#
#
# Indices 1 2 3 4 5 6 
#
# 1 80.5865 -24.7737 -7.2381 20.6847 -1.1863 1.2567
# 2 -24.7737 96.3601 10.1902 9.7642 0.6710 -6.2872
# 3 -7.2381 10.1902 55.9799 -6.1538 9.3098 -2.9078
# 4 20.6847 9.7642 -6.1538 37.5914 0.6467 0.9520
# 5 -1.1863 0.6710 9.3098 0.6467 31.3298 3.1380
# 6 1.2567 -6.2872 -2.9078 0.9520 3.1380 18.1776
#
#
#
# Elastic Compliance Matrix: (Units=1/GPa)
#
#
# Indices 1 2 3 4 5 6 
#
# 1 0.016843 0.005497 -0.000049 -0.010745 0.000638 0.001182
# 2 0.005497 0.012988 -0.002255 -0.006876 0.000336 0.004054
# 3 -0.000049 -0.002255 0.019911 0.003897 -0.006280 0.003289
# 4 -0.010745 -0.006876 0.003897 0.035034 -0.001888 -0.002521
# 5 0.000638 0.000336 -0.006280 -0.001888 0.034521 -0.006793
# 6 0.001182 0.004054 0.003289 -0.002521 -0.006793 0.058164
#
#
# Mechanical properties :
#
#
# Convention : Reuss Voigt Hill
#
# Bulk Modulus (GPa) = 17.81574 21.03147 19.42360
# Shear Modulus (GPa) = 26.34555 34.40296 30.37425
#
# Velocity S-wave (km/s) = 3.21619 3.67524 3.45335
# Velocity P-wave (km/s) = 4.55924 5.12516 4.85046
#
# Compressibility (1/GPa) = 0.05613014
#
# Stress axis : x y z
#
# Youngs Moduli (GPa) = 59.37036 76.99230 50.22271
#
# Poissons Ratio (x) = -0.42322 0.00244
# Poissons Ratio (y) = -0.32636 0.11324
# Poissons Ratio (z) = 0.00289 0.17360
#
# Static dielectric constant tensor:
#      x y z
#    x 2.171560 -0.076630 0.067660 
#    y -0.076630 2.053050 -0.028840 
#    z 0.067660 -0.028840 2.091640 
# 
# From -- ./inp_files/258087.got.cif
#   From: 2010.05.17/outbox.cif.g08.bks.cpg/sg2_130_cif.got.tgz:258087.got - 2010.06.03 11:33:40.
