data_PCOD9017702
_publ_section_title
;
Structure prediction by ZEFSAII (Michael W. Deem and Ramdas Pophale) SiO2 
 PCOD9017702
Probable space group: P -1
;
_chemical_formula_sum "Si O2"
_cell_formula_units_Z 16
_cell_length_a 11.994138
_cell_length_b 10.229639
_cell_length_c 11.308529
_cell_angle_alpha 113.792146
_cell_angle_beta 52.647354
_cell_angle_gamma 142.853121
_cell_volume 656.669993
_symmetry_space_group_name_H-M "P -1"
_symmetry_group_IT_number 2
_symmetry_cell_setting 'triclinic'
loop_
_space_group_symop_operation_xyz
x,y,z
-x,-y,-z
loop_
_atom_site_type_symbol
_atom_site_label
_atom_site_fract_x
_atom_site_fract_y
_atom_site_fract_z
Si Si1 0.858004 0.125248 0.439672
Si Si2 0.281625 0.572909 0.101948
Si Si3 0.130481 0.163362 0.085967
Si Si4 0.180829 0.732658 0.828678
Si Si5 0.732855 0.012205 0.920970
Si Si6 0.603831 0.218393 0.639610
Si Si7 0.420434 0.654334 0.551439
Si Si8 0.046563 0.197085 0.575561
O O1 0.661614 0.871619 0.515441
O O2 0.753956 0.198167 0.506164
O O3 0.014649 0.262479 0.500314
O O4 0.977132 0.135667 0.261848
O O5 0.298661 0.413399 0.024383
O O6 0.304323 0.635168 0.248180
O O7 0.050326 0.430089 0.142985
O O8 0.475007 0.806432 0.998191
O O9 0.219353 0.097186 0.076316
O O10 0.000000 0.000000 0.000000
O O11 0.270066 0.643946 0.720007
O O12 0.367563 0.975625 0.737633
O O13 0.184243 0.792889 0.981745
O O14 0.867739 0.109435 0.750927
O O15 0.574652 0.289087 0.567707
O O16 0.287132 0.405902 0.545888
O O17 0.000000 0.000000 0.500000
#
# Coordination Sequence:
#
# PCOD9017702 Si02
#       8
#     2   2   2   2   2   2   2   2
#     4  11  24  45  71  99 133 168 218 280 325 388
#     4  11  22  39  68  94 133 169 208 276 338 371
#     4  12  23  40  67  97 131 172 219 272 330 383
#     4  10  21  43  66 100 127 159 218 280 329 386
#     4  11  26  43  61  95 135 174 225 262 313 404
#     4  10  22  40  72 107 125 158 223 281 338 381
#     4  11  24  42  73  97 131 172 215 276 337 378
#     4  12  27  47  61  94 139 183 226 253 309 408
#
# _framework density 24.365358000000001
#
# number of rings (size 3 to 8) (size 9 to 14) (size 15 to 20)
#    0.000    1.000    2.500    4.875    1.750    4.500 
#    0.000    8.750    0.000    0.000    0.000    0.000 
#    0.000    0.000    0.000    0.000    0.000    0.000 
#
# Total GULP energy -89660.221007 kJ/mol
# GULP energy per Si atom -5603.763813 kJ/mol
# Density = 2.430990 g / cm^3
# Si number density = 24.365358 Si / 1000 Ang^3
#
#
#
# Elastic Constant Matrix: (Units=GPa)
#
#
# Indices 1 2 3 4 5 6 
#
# 1 56.2389 10.4771 -2.4904 -0.4496 -1.0902 21.5317
# 2 10.4771 149.1408 25.9006 18.9754 -1.9705 26.2895
# 3 -2.4904 25.9006 123.3387 11.7645 14.9981 14.0590
# 4 -0.4496 18.9754 11.7645 36.2511 8.9196 -3.1858
# 5 -1.0902 -1.9705 14.9981 8.9196 21.1501 -0.8972
# 6 21.5317 26.2895 14.0590 -3.1858 -0.8972 46.9625
#
#
#
# Elastic Compliance Matrix: (Units=1/GPa)
#
#
# Indices 1 2 3 4 5 6 
#
# 1 0.021944 0.000235 0.001753 -0.001378 0.000032 -0.010810
# 2 0.000235 0.008469 -0.001163 -0.005383 0.003693 -0.004796
# 3 0.001753 -0.001163 0.009663 -0.001190 -0.006506 -0.003251
# 4 -0.001378 -0.005383 -0.001190 0.034787 -0.014141 0.006091
# 5 0.000032 0.003693 -0.006506 -0.014141 0.058205 0.000018
# 6 -0.010810 -0.004796 -0.003251 0.006091 0.000018 0.030321
#
#
# Mechanical properties :
#
#
# Convention : Reuss Voigt Hill
#
# Bulk Modulus (GPa) = 23.96503 44.05478 34.00991
# Shear Modulus (GPa) = 28.46640 40.52815 34.49727
#
# Velocity S-wave (km/s) = 3.42177 4.08284 3.76684
# Velocity P-wave (km/s) = 5.04662 6.35188 5.73649
#
# Compressibility (1/GPa) = 0.04172746
#
# Stress axis : x y z
#
# Youngs Moduli (GPa) = 45.57149 118.07077 103.49269
#
# Poissons Ratio (x) = -0.02778 -0.18147
# Poissons Ratio (y) = -0.01072 0.12033
# Poissons Ratio (z) = -0.07991 0.13729
#
# Static dielectric constant tensor:
#      x y z
#    x 1.914830 -0.052620 0.003510 
#    y -0.052620 1.936670 -0.036400 
#    z 0.003510 -0.036400 1.906050 
# 
# From -- ./inp_files/451619.got.cif
#   From: 2010.05.17/outbox.cif.g08.bks.cpg/sg2_226_cif.got.tgz:451619.got - 2010.06.03 11:33:40.
