data_PCOD9017613
_publ_section_title
;
Structure prediction by ZEFSAII (Michael W. Deem and Ramdas Pophale) SiO2 
 PCOD9017613
Probable space group: P -1
;
_chemical_formula_sum "Si O2"
_cell_formula_units_Z 16
_cell_length_a 11.199393
_cell_length_b 9.528519
_cell_length_c 14.551655
_cell_angle_alpha 98.381499
_cell_angle_beta 61.037577
_cell_angle_gamma 140.155354
_cell_volume 796.606638
_symmetry_space_group_name_H-M "P -1"
_symmetry_group_IT_number 2
_symmetry_cell_setting 'triclinic'
loop_
_space_group_symop_operation_xyz
x,y,z
-x,-y,-z
loop_
_atom_site_type_symbol
_atom_site_label
_atom_site_fract_x
_atom_site_fract_y
_atom_site_fract_z
Si Si1 0.181782 0.506070 0.651573
Si Si2 0.075792 0.752163 0.909719
Si Si3 0.609055 0.882150 0.416703
Si Si4 0.928204 0.569666 0.740710
Si Si5 0.824980 0.819873 0.429746
Si Si6 0.480868 0.278032 0.765134
Si Si7 0.661271 0.727819 0.688278
Si Si8 0.279054 0.615653 0.835775
O O1 0.418603 0.771583 0.549802
O O2 0.166493 0.341895 0.593763
O O3 0.202041 0.501687 0.752271
O O4 0.977063 0.442950 0.701994
O O5 0.243710 0.755717 0.861121
O O6 0.949537 0.627228 0.846392
O O7 0.237728 0.025405 0.873792
O O8 0.889937 0.588141 0.043726
O O9 0.673175 0.772784 0.406862
O O10 0.509940 0.799440 0.342757
O O11 0.848253 0.166119 0.360947
O O12 0.692828 0.415474 0.765089
O O13 0.722834 0.781707 0.562193
O O14 0.088858 0.085946 0.343107
O O15 0.504617 0.463377 0.749324
O O16 0.532806 0.764150 0.767961
#
# Coordination Sequence:
#
# PCOD9017613 Si02
#       8
#     2   2   2   2   2   2   2   2
#     4  11  21  37  63  89 121 162 198 248 308 362
#     4   9  23  44  65  87 121 158 207 259 291 353
#     4  11  20  39  61  88 127 156 195 252 302 364
#     4  10  23  40  59  92 125 157 203 246 305 359
#     4  11  22  38  58  95 126 157 205 245 297 370
#     4  11  22  40  63  87 124 164 195 250 305 360
#     4  11  22  38  62  89 127 163 198 250 300 362
#     4  10  21  43  65  89 117 159 208 252 302 350
#
# _framework density 20.085196
#
# number of rings (size 3 to 8) (size 9 to 14) (size 15 to 20)
#    0.000    1.500    3.750    1.500    1.750    1.000 
#    2.250    2.500    0.000    0.000    0.000    0.000 
#    0.000    0.000    0.000    0.000    0.000    0.000 
#
# Total GULP energy -89337.528828 kJ/mol
# GULP energy per Si atom -5583.595552 kJ/mol
# Density = 2.003948 g / cm^3
# Si number density = 20.085196 Si / 1000 Ang^3
#
#
#
# Elastic Constant Matrix: (Units=GPa)
#
#
# Indices 1 2 3 4 5 6 
#
# 1 94.8007 9.5940 21.1906 0.1141 3.6832 13.6254
# 2 9.5940 57.2761 13.5621 -14.7386 1.3640 6.1128
# 3 21.1906 13.5621 94.6048 -7.7725 3.6685 6.9134
# 4 0.1141 -14.7386 -7.7725 18.7705 -7.1333 2.2282
# 5 3.6832 1.3640 3.6685 -7.1333 22.3243 4.8559
# 6 13.6254 6.1128 6.9134 2.2282 4.8559 23.2101
#
#
#
# Elastic Compliance Matrix: (Units=1/GPa)
#
#
# Indices 1 2 3 4 5 6 
#
# 1 0.012027 -0.001277 -0.002192 -0.001609 -0.000810 -0.005747
# 2 -0.001277 0.024712 -0.000975 0.023310 0.008366 -0.009456
# 3 -0.002192 -0.000975 0.011742 0.004599 0.000505 -0.002501
# 4 -0.001609 0.023310 0.004599 0.087732 0.030779 -0.021426
# 5 -0.000810 0.008366 0.000505 0.030779 0.057852 -0.016937
# 6 -0.005747 -0.009456 -0.002501 -0.021426 -0.016937 0.055295
#
#
# Mechanical properties :
#
#
# Convention : Reuss Voigt Hill
#
# Bulk Modulus (GPa) = 25.25615 37.26387 31.26001
# Shear Modulus (GPa) = 18.41988 26.34999 22.38493
#
# Velocity S-wave (km/s) = 3.03163 3.62596 3.34203
# Velocity P-wave (km/s) = 4.98560 6.01027 5.52175
#
# Compressibility (1/GPa) = 0.03959432
#
# Stress axis : x y z
#
# Youngs Moduli (GPa) = 83.14598 40.46575 85.16451
#
# Poissons Ratio (x) = 0.05167 0.18665
# Poissons Ratio (y) = 0.10617 0.08303
# Poissons Ratio (z) = 0.18223 0.03945
#
# Static dielectric constant tensor:
#      x y z
#    x 1.709450 -0.029800 0.010250 
#    y -0.029800 1.740460 -0.017470 
#    z 0.010250 -0.017470 1.688680 
# 
# From -- ./inp_files/515766.got.cif
#   From: 2010.05.17/outbox.cif.g08.bks.cpg/sg2_258_cif.got.tgz:515766.got - 2010.06.03 11:33:40.
