data_PCOD9017829
_publ_section_title
;
Structure prediction by ZEFSAII (Michael W. Deem and Ramdas Pophale) SiO2 
 PCOD9017829
Probable space group: P -1
;
_chemical_formula_sum "Si O2"
_cell_formula_units_Z 14
_cell_length_a 9.655803
_cell_length_b 7.932450
_cell_length_c 11.231952
_cell_angle_alpha 108.881747
_cell_angle_beta 118.692575
_cell_angle_gamma 111.367701
_cell_volume 556.739343
_symmetry_space_group_name_H-M "P -1"
_symmetry_group_IT_number 2
_symmetry_cell_setting 'triclinic'
loop_
_space_group_symop_operation_xyz
x,y,z
-x,-y,-z
loop_
_atom_site_type_symbol
_atom_site_label
_atom_site_fract_x
_atom_site_fract_y
_atom_site_fract_z
Si Si1 0.526758 0.342897 0.562168
Si Si2 0.468756 0.037899 0.293797
Si Si3 0.328527 0.635567 0.998672
Si Si4 0.787417 0.383330 0.317869
Si Si5 0.137631 0.168336 0.487496
Si Si6 0.234958 0.190979 0.138731
Si Si7 0.245291 0.178166 0.878662
O O1 0.500000 0.500000 0.500000
O O2 0.587036 0.196616 0.495095
O O3 0.323670 0.181734 0.521045
O O4 0.703749 0.561333 0.760836
O O5 0.625620 0.161531 0.277751
O O6 0.320351 0.102909 0.242437
O O7 0.338263 0.773144 0.147530
O O8 0.245647 0.667937 0.849098
O O9 0.208970 0.364979 0.898568
O O10 0.563824 0.739127 0.103955
O O11 0.760535 0.575648 0.373533
O O12 0.000000 0.500000 0.500000
O O13 0.000000 0.000000 0.500000
O O14 0.965245 0.068490 0.293023
O O15 0.313426 0.187164 0.041634
O O16 0.000000 0.000000 0.000000
#
# Coordination Sequence:
#
# PCOD9017829 Si02
#       7
#     2   2   2   2   2   2   2
#     4  10  21  43  66  96 140 176 233 279 339 420
#     4  11  23  43  67  96 142 176 241 286 335 416
#     4  11  24  43  64 104 137 182 227 290 345 407
#     4  12  24  41  68 102 139 177 234 290 342 409
#     4  12  23  42  70 102 137 182 229 279 352 416
#     4  11  23  41  72 100 131 184 233 285 347 413
#     4  11  23  41  70  95 141 177 229 282 354 412
#
# _framework density 25.146415000000001
#
# number of rings (size 3 to 8) (size 9 to 14) (size 15 to 20)
#    0.000    0.857    5.714    3.000    4.000    0.000 
#    0.000    3.571    0.000    0.000    0.000    0.000 
#    0.000    0.000    0.000    0.000    0.000    0.000 
#
# Total GULP energy -78176.428942 kJ/mol
# GULP energy per Si atom -5584.030639 kJ/mol
# Density = 2.508918 g / cm^3
# Si number density = 25.146415 Si / 1000 Ang^3
#
#
#
# Elastic Constant Matrix: (Units=GPa)
#
#
# Indices 1 2 3 4 5 6 
#
# 1 54.6186 18.0065 28.1824 12.2952 -16.2396 -5.8786
# 2 18.0065 81.1469 18.1640 18.6852 -11.4821 0.5337
# 3 28.1824 18.1640 141.1939 31.4796 -19.0477 -13.8316
# 4 12.2952 18.6852 31.4796 37.0279 -5.5408 -5.9344
# 5 -16.2396 -11.4821 -19.0477 -5.5408 61.2599 13.3861
# 6 -5.8786 0.5337 -13.8316 -5.9344 13.3861 31.9325
#
#
#
# Elastic Compliance Matrix: (Units=1/GPa)
#
#
# Indices 1 2 3 4 5 6 
#
# 1 0.022783 -0.003194 -0.002891 -0.002757 0.004128 0.000752
# 2 -0.003194 0.014846 0.000234 -0.006783 0.002016 -0.002840
# 3 -0.002891 0.000234 0.009473 -0.006740 0.001219 0.001803
# 4 -0.002757 -0.006783 -0.006740 0.037525 -0.001655 0.004354
# 5 0.004128 0.002016 0.001219 -0.001655 0.019615 -0.007276
# 6 0.000752 -0.002840 0.001803 0.004354 -0.007276 0.036142
#
#
# Mechanical properties :
#
#
# Convention : Reuss Voigt Hill
#
# Bulk Modulus (GPa) = 28.25021 45.07392 36.66207
# Shear Modulus (GPa) = 30.50862 40.21781 35.36322
#
# Velocity S-wave (km/s) = 3.48694 4.00352 3.75413
# Velocity P-wave (km/s) = 5.24121 6.27171 5.77948
#
# Compressibility (1/GPa) = 0.03539796
#
# Stress axis : x y z
#
# Youngs Moduli (GPa) = 43.89292 67.35993 105.55849
#
# Poissons Ratio (x) = 0.21517 0.30520
# Poissons Ratio (y) = 0.14021 -0.02467
# Poissons Ratio (z) = 0.12691 -0.01575
#
# Static dielectric constant tensor:
#      x y z
#    x 2.386450 0.163740 -0.663730 
#    y 0.163740 2.101710 -0.382240 
#    z -0.663730 -0.382240 3.218740 
# 
# From -- ./inp_files/208343.got.cif
#   From: 2010.05.17/outbox.cif.g08.bks.cpg/sg2_105_cif.got.tgz:208343.got - 2010.06.03 11:33:40.
