data_PCOD9017342
_publ_section_title
;
Structure prediction by ZEFSAII (Michael W. Deem and Ramdas Pophale) SiO2 
 PCOD9017342
Probable space group: P -1
;
_chemical_formula_sum "Si O2"
_cell_formula_units_Z 16
_cell_length_a 15.354742
_cell_length_b 7.605723
_cell_length_c 11.802715
_cell_angle_alpha 77.794279
_cell_angle_beta 26.871236
_cell_angle_gamma 83.384810
_cell_volume 600.458696
_symmetry_space_group_name_H-M "P -1"
_symmetry_group_IT_number 2
_symmetry_cell_setting 'triclinic'
loop_
_space_group_symop_operation_xyz
x,y,z
-x,-y,-z
loop_
_atom_site_type_symbol
_atom_site_label
_atom_site_fract_x
_atom_site_fract_y
_atom_site_fract_z
Si Si1 0.256698 0.118795 0.387515
Si Si2 0.679426 0.482423 0.412668
Si Si3 0.251204 0.907167 0.638878
Si Si4 0.215505 0.145112 0.856589
Si Si5 0.161210 0.039899 0.184873
Si Si6 0.700698 0.540637 0.989176
Si Si7 0.671552 0.283688 0.842151
Si Si8 0.909240 0.543971 0.354690
O O1 0.330423 0.994468 0.416342
O O2 0.168945 0.278270 0.532801
O O3 0.073319 0.011216 0.548537
O O4 0.448459 0.201459 0.085145
O O5 0.301168 0.358447 0.723011
O O6 0.866185 0.524678 0.274879
O O7 0.678731 0.282086 0.394303
O O8 0.499649 0.491177 0.704731
O O9 0.297308 0.043670 0.671089
O O10 0.017190 0.874994 0.893916
O O11 0.239584 0.057391 0.961812
O O12 0.235181 0.874759 0.184473
O O13 0.779372 0.756897 0.863020
O O14 0.675831 0.442870 0.909572
O O15 0.867482 0.453123 0.872403
O O16 0.786822 0.373334 0.587575
#
# Coordination Sequence:
#
# PCOD9017342 Si02
#       8
#     2   2   2   2   2   2   2   2
#     4  11  22  47  75 100 142 187 233 290 359 416
#     4  12  25  46  72 107 145 182 243 287 352 425
#     4  10  21  42  74 107 137 184 238 287 355 419
#     4  10  22  44  73 103 141 191 226 292 357 416
#     4  11  27  47  71 107 147 180 238 295 354 423
#     4  12  27  46  71 110 142 189 238 293 352 422
#     4  12  26  48  74 104 141 191 239 289 358 422
#     4  12  25  46  77 100 144 192 231 297 356 417
#
# _framework density 26.646294000000001
#
# number of rings (size 3 to 8) (size 9 to 14) (size 15 to 20)
#    0.000    0.750    3.750    3.375    0.000    2.000 
#    2.250   10.000    0.000    0.000    0.000    0.000 
#    0.000    0.000    0.000    0.000    0.000    0.000 
#
# Total GULP energy -90001.914982 kJ/mol
# GULP energy per Si atom -5625.119686 kJ/mol
# Density = 2.658565 g / cm^3
# Si number density = 26.646294 Si / 1000 Ang^3
#
#
#
# Elastic Constant Matrix: (Units=GPa)
#
#
# Indices 1 2 3 4 5 6 
#
# 1 129.7701 43.4946 28.5831 -5.1084 -9.2177 -17.0677
# 2 43.4946 162.7708 7.7206 -12.3901 10.4575 -7.1320
# 3 28.5831 7.7206 75.2901 -14.9350 -5.9967 -3.1643
# 4 -5.1084 -12.3901 -14.9350 38.0335 -1.2342 7.7602
# 5 -9.2177 10.4575 -5.9967 -1.2342 40.6849 -6.6824
# 6 -17.0677 -7.1320 -3.1643 7.7602 -6.6824 46.0814
#
#
#
# Elastic Compliance Matrix: (Units=1/GPa)
#
#
# Indices 1 2 3 4 5 6 
#
# 1 0.009998 -0.002655 -0.003431 -0.001537 0.003012 0.003752
# 2 -0.002655 0.007125 0.000500 0.002198 -0.002385 -0.000562
# 3 -0.003431 0.000500 0.015832 0.006156 0.001462 -0.000931
# 4 -0.001537 0.002198 0.006156 0.030219 0.000109 -0.004879
# 5 0.003012 -0.002385 0.001462 0.000109 0.026869 0.004725
# 6 0.003752 -0.000562 -0.000931 -0.004879 0.004725 0.024446
#
#
# Mechanical properties :
#
#
# Convention : Reuss Voigt Hill
#
# Bulk Modulus (GPa) = 45.90733 58.60305 52.25519
# Shear Modulus (GPa) = 37.61570 44.16215 40.88892
#
# Velocity S-wave (km/s) = 3.76129 4.07547 3.92153
# Velocity P-wave (km/s) = 6.01073 6.64730 6.33702
#
# Compressibility (1/GPa) = 0.02178301
#
# Stress axis : x y z
#
# Youngs Moduli (GPa) = 100.01565 140.34514 63.16457
#
# Poissons Ratio (x) = 0.37263 0.21671
# Poissons Ratio (y) = 0.26555 -0.03157
# Poissons Ratio (z) = 0.34314 -0.07014
#
# Static dielectric constant tensor:
#      x y z
#    x 2.037370 0.002280 -0.010480 
#    y 0.002280 2.026730 0.000460 
#    z -0.010480 0.000460 2.063060 
# 
# From -- ./inp_files/447327.got.cif
#   From: 2010.05.17/outbox.cif.g08.bks.cpg/sg2_224_cif.got.tgz:447327.got - 2010.06.03 11:33:40.
