data_PCOD9017987
_publ_section_title
;
Structure prediction by ZEFSAII (Michael W. Deem and Ramdas Pophale) SiO2 
 PCOD9017987
Probable space group: P -1
;
_chemical_formula_sum "Si O2"
_cell_formula_units_Z 16
_cell_length_a 11.689744
_cell_length_b 15.288195
_cell_length_c 14.714567
_cell_angle_alpha 143.414818
_cell_angle_beta 153.719448
_cell_angle_gamma 34.930053
_cell_volume 642.350066
_symmetry_space_group_name_H-M "P -1"
_symmetry_group_IT_number 2
_symmetry_cell_setting 'triclinic'
loop_
_space_group_symop_operation_xyz
x,y,z
-x,-y,-z
loop_
_atom_site_type_symbol
_atom_site_label
_atom_site_fract_x
_atom_site_fract_y
_atom_site_fract_z
Si Si1 0.540962 0.847668 0.688833
Si Si2 0.224160 0.702802 0.208815
Si Si3 0.861046 0.004547 0.699634
Si Si4 0.141409 0.677384 0.511211
Si Si5 0.802769 0.836743 0.686596
Si Si6 0.305654 0.310946 0.139382
Si Si7 0.665501 0.780240 0.118330
Si Si8 0.726165 0.419339 0.290903
O O1 0.336353 0.771956 0.431756
O O2 0.792158 0.814098 0.767307
O O3 0.584333 0.780919 0.765350
O O4 0.418357 0.038015 0.761424
O O5 0.043928 0.858134 0.152696
O O6 0.483849 0.587121 0.239175
O O7 0.027959 0.609143 0.018468
O O8 0.527308 0.087839 0.512283
O O9 0.901973 0.953319 0.791625
O O10 0.007747 0.851234 0.611460
O O11 0.462178 0.618195 0.659057
O O12 0.151572 0.565800 0.510193
O O13 0.947369 0.686884 0.296347
O O14 0.010821 0.666908 0.656450
O O15 0.317413 0.216294 0.975375
O O16 0.445044 0.699366 0.920387
#
# Coordination Sequence:
#
# PCOD9017987 Si02
#       8
#     2   2   2   2   2   2   2   2
#     4  11  24  41  67 101 130 171 220 268 329 382
#     4  11  24  44  63 101 135 169 220 268 323 391
#     4   9  19  38  68  98 126 167 217 269 323 385
#     4  10  21  43  67  97 130 175 213 265 331 387
#     4   9  19  42  66  96 130 171 214 270 322 392
#     4  11  26  39  69  98 136 168 222 274 323 377
#     4  11  23  42  65 100 133 169 220 269 323 392
#     4  10  25  42  68  97 134 173 216 266 329 390
#
# _framework density 24.908536999999999
#
# number of rings (size 3 to 8) (size 9 to 14) (size 15 to 20)
#    0.000    1.750    2.500    1.125    7.000    6.500 
#    0.000    4.375    0.000    0.000    0.000    0.000 
#    0.000    0.000    0.000    0.000    0.000    0.000 
#
# Total GULP energy -89245.664259 kJ/mol
# GULP energy per Si atom -5577.854016 kJ/mol
# Density = 2.485184 g / cm^3
# Si number density = 24.908537 Si / 1000 Ang^3
#
#
#
# Elastic Constant Matrix: (Units=GPa)
#
#
# Indices 1 2 3 4 5 6 
#
# 1 143.0365 26.4009 52.2106 -0.6493 -11.0332 5.6789
# 2 26.4009 88.2123 30.2070 12.8021 -6.2606 -11.7012
# 3 52.2106 30.2070 113.2123 -12.0407 -10.4383 -6.1049
# 4 -0.6493 12.8021 -12.0407 30.9598 -0.9712 -4.4577
# 5 -11.0332 -6.2606 -10.4383 -0.9712 40.1811 -20.0538
# 6 5.6789 -11.7012 -6.1049 -4.4577 -20.0538 40.4990
#
#
#
# Elastic Compliance Matrix: (Units=1/GPa)
#
#
# Indices 1 2 3 4 5 6 
#
# 1 0.008770 -0.001450 -0.003905 -0.001079 -0.000045 -0.002379
# 2 -0.001450 0.014786 -0.003424 -0.006676 0.003273 0.004845
# 3 -0.003905 -0.003424 0.012909 0.007101 0.004065 0.004299
# 4 -0.001079 -0.006676 0.007101 0.038751 0.004278 0.005676
# 5 -0.000045 0.003273 0.004065 0.004278 0.036607 0.020162
# 6 -0.002379 0.004845 0.004299 0.005676 0.020162 0.037682
#
#
# Mechanical properties :
#
#
# Convention : Reuss Voigt Hill
#
# Bulk Modulus (GPa) = 52.88457 62.45534 57.66995
# Shear Modulus (GPa) = 28.84078 38.03748 33.43913
#
# Velocity S-wave (km/s) = 3.40644 3.91203 3.66796
# Velocity P-wave (km/s) = 6.06212 6.74786 6.41416
#
# Compressibility (1/GPa) = 0.01890911
#
# Stress axis : x y z
#
# Youngs Moduli (GPa) = 114.02198 67.62945 77.46448
#
# Poissons Ratio (x) = 0.09804 0.30250
# Poissons Ratio (y) = 0.16530 0.26521
# Poissons Ratio (z) = 0.44526 0.23154
#
# Static dielectric constant tensor:
#      x y z
#    x 1.974450 0.027650 0.047020 
#    y 0.027650 2.001930 0.028260 
#    z 0.047020 0.028260 2.054000 
# 
# From -- ./inp_files/521801.got.cif
#   From: 2010.05.17/outbox.cif.g08.bks.cpg/sg2_261_cif.got.tgz:521801.got - 2010.06.03 11:33:40.
