data_PCOD9017529
_publ_section_title
;
Structure prediction by ZEFSAII (Michael W. Deem and Ramdas Pophale) SiO2 
 PCOD9017529
Probable space group: P -1
;
_chemical_formula_sum "Si O2"
_cell_formula_units_Z 12
_cell_length_a 6.704674
_cell_length_b 8.257819
_cell_length_c 14.309190
_cell_angle_alpha 93.817840
_cell_angle_beta 137.335063
_cell_angle_gamma 95.649596
_cell_volume 522.835437
_symmetry_space_group_name_H-M "P -1"
_symmetry_group_IT_number 2
_symmetry_cell_setting 'triclinic'
loop_
_space_group_symop_operation_xyz
x,y,z
-x,-y,-z
loop_
_atom_site_type_symbol
_atom_site_label
_atom_site_fract_x
_atom_site_fract_y
_atom_site_fract_z
Si Si1 0.217741 0.852279 0.672229
Si Si2 0.616749 0.122322 0.720326
Si Si3 0.342145 0.663610 0.067052
Si Si4 0.677752 0.638509 0.827435
Si Si5 0.406735 0.398856 0.558809
Si Si6 0.225867 0.066646 0.862694
O O1 0.517348 0.787005 0.799773
O O2 0.138634 0.962177 0.733848
O O3 0.941594 0.696678 0.558823
O O4 0.329594 0.969145 0.625884
O O5 0.626212 0.226801 0.823095
O O6 0.581934 0.249690 0.631104
O O7 0.923936 0.059677 0.815494
O O8 0.325513 0.476852 0.087085
O O9 0.624806 0.742900 0.104922
O O10 0.024212 0.681734 0.915428
O O11 0.490796 0.527950 0.677422
O O12 0.500000 0.500000 0.500000
O O13 0.500000 0.000000 0.000000
#
# Coordination Sequence:
#
# PCOD9017529 Si02
#       6
#     2   2   2   2   2   2
#     4  11  24  42  65  92 127 169 207 256 315 368
#     4  10  23  45  65  92 129 163 210 259 310 375
#     4   9  21  41  66  94 124 165 205 261 323 362
#     4  10  21  43  64  91 133 161 206 265 313 371
#     4  11  26  42  64  94 125 172 214 251 311 370
#     4  11  23  39  68  96 125 162 212 259 314 373
#
# _framework density 22.951772999999999
#
# number of rings (size 3 to 8) (size 9 to 14) (size 15 to 20)
#    0.000    1.667    0.000    3.000    7.000    3.333 
#    3.000    3.333    0.000    0.000    0.000    0.000 
#    0.000    0.000    0.000    0.000    0.000    0.000 
#
# Total GULP energy -67123.812875 kJ/mol
# GULP energy per Si atom -5593.651073 kJ/mol
# Density = 2.289953 g / cm^3
# Si number density = 22.951773 Si / 1000 Ang^3
#
#
#
# Elastic Constant Matrix: (Units=GPa)
#
#
# Indices 1 2 3 4 5 6 
#
# 1 81.9679 37.0855 30.2796 3.5592 18.4811 15.0509
# 2 37.0855 92.2793 20.7109 -4.8794 11.6396 21.7841
# 3 30.2796 20.7109 92.8053 8.5187 18.6512 18.8964
# 4 3.5592 -4.8794 8.5187 41.6990 0.9752 12.9359
# 5 18.4811 11.6396 18.6512 0.9752 32.3679 4.5847
# 6 15.0509 21.7841 18.8964 12.9359 4.5847 35.0508
#
#
#
# Elastic Compliance Matrix: (Units=1/GPa)
#
#
# Indices 1 2 3 4 5 6 
#
# 1 0.017323 -0.005239 -0.002865 -0.000896 -0.006116 -0.001508
# 2 -0.005239 0.015557 -0.000102 0.005137 -0.001414 -0.009075
# 3 -0.002865 -0.000102 0.014004 -0.000886 -0.005635 -0.005192
# 4 -0.000896 0.005137 -0.000886 0.028871 0.000147 -0.013005
# 5 -0.006116 -0.001414 -0.005635 0.000147 0.037921 0.001528
# 6 -0.001508 -0.009075 -0.005192 -0.013005 0.001528 0.042216
#
#
# Mechanical properties :
#
#
# Convention : Reuss Voigt Hill
#
# Bulk Modulus (GPa) = 32.81628 49.24494 41.03061
# Shear Modulus (GPa) = 27.40311 33.75530 30.57920
#
# Velocity S-wave (km/s) = 3.45910 3.83914 3.65406
# Velocity P-wave (km/s) = 5.50298 6.41517 5.97650
#
# Compressibility (1/GPa) = 0.03047268
#
# Stress axis : x y z
#
# Youngs Moduli (GPa) = 57.72655 64.27849 71.41038
#
# Poissons Ratio (x) = 0.33675 0.20456
# Poissons Ratio (y) = 0.30243 0.00729
# Poissons Ratio (z) = 0.16536 0.00656
#
# Static dielectric constant tensor:
#      x y z
#    x 1.816790 0.032260 -0.005570 
#    y 0.032260 1.894170 -0.013410 
#    z -0.005570 -0.013410 1.862820 
# 
# From -- ./inp_files/17735.got.cif
#   From: 2010.05.17/outbox.cif.g08.bks.cpg/sg2_9_cif.got.tgz:17735.got - 2010.06.03 11:33:40.
