data_PCOD9017649
_publ_section_title
;
Structure prediction by ZEFSAII (Michael W. Deem and Ramdas Pophale) SiO2 
 PCOD9017649
Probable space group: P -1
;
_chemical_formula_sum "Si O2"
_cell_formula_units_Z 16
_cell_length_a 11.348448
_cell_length_b 12.548183
_cell_length_c 12.669936
_cell_angle_alpha 110.159229
_cell_angle_beta 91.111682
_cell_angle_gamma 148.791208
_cell_volume 670.008757
_symmetry_space_group_name_H-M "P -1"
_symmetry_group_IT_number 2
_symmetry_cell_setting 'triclinic'
loop_
_space_group_symop_operation_xyz
x,y,z
-x,-y,-z
loop_
_atom_site_type_symbol
_atom_site_label
_atom_site_fract_x
_atom_site_fract_y
_atom_site_fract_z
Si Si1 0.778426 0.098330 0.749566
Si Si2 0.118520 0.228455 0.115909
Si Si3 0.192536 0.300360 0.915846
Si Si4 0.573397 0.611568 0.654800
Si Si5 0.882401 0.194657 0.249289
Si Si6 0.193501 0.467853 0.558260
Si Si7 0.704542 0.197646 0.951508
Si Si8 0.026047 0.545522 0.282075
O O1 0.693877 0.062328 0.855883
O O2 0.098221 0.317327 0.838351
O O3 0.772023 0.196081 0.700063
O O4 0.500478 0.772945 0.608051
O O5 0.396490 0.454483 0.275194
O O6 0.890176 0.096672 0.136862
O O7 0.181993 0.346115 0.047923
O O8 0.000000 0.000000 0.000000
O O9 0.500000 0.500000 0.000000
O O10 0.903219 0.961923 0.779065
O O11 0.500000 0.500000 0.500000
O O12 0.312000 0.468371 0.629747
O O13 0.104383 0.491156 0.311248
O O14 0.967345 0.236016 0.382750
O O15 0.563911 0.970522 0.160762
O O16 0.064974 0.455792 0.622014
O O17 0.765519 0.281420 0.103207
O O18 0.000000 0.500000 0.000000
#
# Coordination Sequence:
#
# PCOD9017649 Si02
#       8
#     2   2   2   2   2   2   2   2
#     4  10  23  44  63 101 141 173 226 278 341 396
#     4  10  23  40  71  99 127 177 229 278 339 404
#     4  10  23  41  68  97 134 171 230 288 333 404
#     4  10  21  43  65  94 132 176 224 278 343 400
#     4  12  23  42  67 100 136 177 231 269 341 409
#     4  11  24  42  67  98 140 177 219 281 335 419
#     4  10  23  40  63  95 132 174 223 277 326 396
#     4  11  24  39  71  93 135 182 216 275 338 397
#
# _framework density 23.880282999999999
#
# number of rings (size 3 to 8) (size 9 to 14) (size 15 to 20)
#    0.000    1.500    2.500    1.500    7.000    3.500 
#    2.250    1.875    0.000    0.000    0.000    0.000 
#    0.000    0.000    0.000    0.000    0.000    0.000 
#
# Total GULP energy -89188.674921 kJ/mol
# GULP energy per Si atom -5574.292183 kJ/mol
# Density = 2.382593 g / cm^3
# Si number density = 23.880283 Si / 1000 Ang^3
#
#
#
# Elastic Constant Matrix: (Units=GPa)
#
#
# Indices 1 2 3 4 5 6 
#
# 1 110.5533 14.6290 26.2043 -6.7092 11.3118 28.7046
# 2 14.6290 33.5645 27.9131 -12.5357 7.2134 8.7548
# 3 26.2043 27.9131 128.0643 -10.1916 11.4146 25.7883
# 4 -6.7092 -12.5357 -10.1916 23.1938 6.5393 0.9606
# 5 11.3118 7.2134 11.4146 6.5393 45.7150 -3.8370
# 6 28.7046 8.7548 25.7883 0.9606 -3.8370 35.4697
#
#
#
# Elastic Compliance Matrix: (Units=1/GPa)
#
#
# Indices 1 2 3 4 5 6 
#
# 1 0.012767 0.000360 0.000590 0.006094 -0.005206 -0.011577
# 2 0.000360 0.050170 -0.005564 0.028482 -0.011584 -0.010654
# 3 0.000590 -0.005564 0.010928 0.003141 -0.003072 -0.007466
# 4 0.006094 0.028482 0.003141 0.067458 -0.017948 -0.018014
# 5 -0.005206 -0.011584 -0.003072 -0.017948 0.029414 0.012975
# 6 -0.011577 -0.010654 -0.007466 -0.018014 0.012975 0.047512
#
#
# Mechanical properties :
#
#
# Convention : Reuss Voigt Hill
#
# Bulk Modulus (GPa) = 15.47140 45.51944 30.49542
# Shear Modulus (GPa) = 20.07850 34.43808 27.25829
#
# Velocity S-wave (km/s) = 2.90280 3.80164 3.38221
# Velocity P-wave (km/s) = 4.21044 6.19458 5.29625
#
# Compressibility (1/GPa) = 0.06463541
#
# Stress axis : x y z
#
# Youngs Moduli (GPa) = 78.32950 19.93234 91.50786
#
# Poissons Ratio (x) = -0.00718 -0.05395
# Poissons Ratio (y) = -0.02821 0.50917
# Poissons Ratio (z) = -0.04618 0.11091
#
# Static dielectric constant tensor:
#      x y z
#    x 2.025530 -0.045520 -0.059110 
#    y -0.045520 2.065830 0.026070 
#    z -0.059110 0.026070 2.065030 
# 
# From -- ./inp_files/434207.got.cif
#   From: 2010.05.17/outbox.cif.g08.bks.cpg/sg2_218_cif.got.tgz:434207.got - 2010.06.03 11:33:40.
