data_PCOD9017442
_publ_section_title
;
Structure prediction by ZEFSAII (Michael W. Deem and Ramdas Pophale) SiO2 
 PCOD9017442
Probable space group: P -1
;
_chemical_formula_sum "Si O2"
_cell_formula_units_Z 16
_cell_length_a 11.136556
_cell_length_b 12.798276
_cell_length_c 16.707172
_cell_angle_alpha 24.200264
_cell_angle_beta 122.968517
_cell_angle_gamma 106.514743
_cell_volume 644.678608
_symmetry_space_group_name_H-M "P -1"
_symmetry_group_IT_number 2
_symmetry_cell_setting 'triclinic'
loop_
_space_group_symop_operation_xyz
x,y,z
-x,-y,-z
loop_
_atom_site_type_symbol
_atom_site_label
_atom_site_fract_x
_atom_site_fract_y
_atom_site_fract_z
Si Si1 0.805876 0.673598 0.700771
Si Si2 0.521208 0.753100 0.745431
Si Si3 0.367082 0.948427 0.121975
Si Si4 0.537665 0.621379 0.126549
Si Si5 0.990209 0.281673 0.712490
Si Si6 0.089984 0.770809 0.801476
Si Si7 0.626411 0.394875 0.488495
Si Si8 0.138742 0.282836 0.483255
O O1 0.859216 0.567722 0.703362
O O2 0.932474 0.760938 0.720491
O O3 0.600456 0.009850 0.392618
O O4 0.841797 0.404717 0.963820
O O5 0.430329 0.603631 0.777418
O O6 0.500000 0.000000 0.500000
O O7 0.734548 0.457675 0.033639
O O8 0.523956 0.731031 0.265739
O O9 0.407829 0.803679 0.326564
O O10 0.327374 0.290329 0.874946
O O11 0.197598 0.967344 0.016928
O O12 0.545995 0.458865 0.326396
O O13 0.341467 0.965825 0.801641
O O14 0.837181 0.243008 0.664615
O O15 0.939395 0.464380 0.650960
O O16 0.000000 0.500000 0.500000
O O17 0.039216 0.121644 0.544672
#
# Coordination Sequence:
#
# PCOD9017442 Si02
#       8
#     2   2   2   2   2   2   2   2
#     4  10  21  43  63  88 132 168 216 271 321 388
#     4   9  21  41  64  95 129 169 220 262 327 390
#     4  11  24  43  69  96 131 173 220 274 329 392
#     4  11  22  42  68  97 130 176 217 268 334 387
#     4  12  24  45  68  96 137 173 219 277 334 396
#     4   9  21  41  63  92 125 174 209 270 328 379
#     4  11  24  47  66  97 135 170 223 276 330 396
#     4  11  24  41  64  97 129 169 222 264 332 391
#
# _framework density 24.818567999999999
#
# number of rings (size 3 to 8) (size 9 to 14) (size 15 to 20)
#    0.000    1.500    2.500    1.875    1.750    5.000 
#   13.500    0.000    0.000    0.000    0.000    0.000 
#    0.000    0.000    0.000    0.000    0.000    0.000 
#
# Total GULP energy -89585.307492 kJ/mol
# GULP energy per Si atom -5599.081718 kJ/mol
# Density = 2.476208 g / cm^3
# Si number density = 24.818568 Si / 1000 Ang^3
#
#
#
# Elastic Constant Matrix: (Units=GPa)
#
#
# Indices 1 2 3 4 5 6 
#
# 1 79.4666 26.8835 18.2115 7.2685 2.1116 -7.2954
# 2 26.8835 49.7364 12.9083 0.6243 -8.4763 -4.7266
# 3 18.2115 12.9083 59.9781 15.3045 -6.2885 -8.4705
# 4 7.2685 0.6243 15.3045 33.9673 -4.8616 -8.9627
# 5 2.1116 -8.4763 -6.2885 -4.8616 39.6842 13.6467
# 6 -7.2954 -4.7266 -8.4705 -8.9627 13.6467 44.6669
#
#
#
# Elastic Compliance Matrix: (Units=1/GPa)
#
#
# Indices 1 2 3 4 5 6 
#
# 1 0.016700 -0.008800 -0.002754 -0.002215 -0.004203 0.002114
# 2 -0.008800 0.026730 -0.003436 0.003722 0.006233 -0.000418
# 3 -0.002754 -0.003436 0.020621 -0.008172 0.001316 0.001055
# 4 -0.002215 0.003722 -0.008172 0.035128 0.002256 0.004842
# 5 -0.004203 0.006233 0.001316 0.002256 0.030177 -0.008544
# 6 0.002114 -0.000418 0.001055 0.004842 -0.008544 0.026471
#
#
# Mechanical properties :
#
#
# Convention : Reuss Voigt Hill
#
# Bulk Modulus (GPa) = 29.34996 33.90975 31.62985
# Shear Modulus (GPa) = 25.35968 32.40886 28.88427
#
# Velocity S-wave (km/s) = 3.20003 3.61755 3.41518
# Velocity P-wave (km/s) = 5.05026 5.58047 5.32197
#
# Compressibility (1/GPa) = 0.03407160
#
# Stress axis : x y z
#
# Youngs Moduli (GPa) = 59.87930 37.41123 48.49515
#
# Poissons Ratio (x) = 0.32921 0.13355
# Poissons Ratio (y) = 0.52692 0.16663
# Poissons Ratio (z) = 0.16490 0.12855
#
# Static dielectric constant tensor:
#      x y z
#    x 2.025870 0.019720 0.015090 
#    y 0.019720 1.969790 0.022330 
#    z 0.015090 0.022330 1.984390 
# 
# From -- ./inp_files/519506.got.cif
#   From: 2010.05.17/outbox.cif.g08.bks.cpg/sg2_260_cif.got.tgz:519506.got - 2010.06.03 11:33:40.
