data_PCOD9017890
_publ_section_title
;
Structure prediction by ZEFSAII (Michael W. Deem and Ramdas Pophale) SiO2 
 PCOD9017890
Probable space group: P -1
;
_chemical_formula_sum "Si O2"
_cell_formula_units_Z 16
_cell_length_a 15.250915
_cell_length_b 16.826383
_cell_length_c 6.986467
_cell_angle_alpha 93.499807
_cell_angle_beta 82.254071
_cell_angle_gamma 23.408140
_cell_volume 623.223157
_symmetry_space_group_name_H-M "P -1"
_symmetry_group_IT_number 2
_symmetry_cell_setting 'triclinic'
loop_
_space_group_symop_operation_xyz
x,y,z
-x,-y,-z
loop_
_atom_site_type_symbol
_atom_site_label
_atom_site_fract_x
_atom_site_fract_y
_atom_site_fract_z
Si Si1 0.656816 0.510249 0.111942
Si Si2 0.161933 0.620888 0.401646
Si Si3 0.347103 0.044565 0.420719
Si Si4 0.093863 0.009894 0.487246
Si Si5 0.973933 0.927796 0.036007
Si Si6 0.672979 0.890580 0.143953
Si Si7 0.522848 0.195573 0.123401
Si Si8 0.218456 0.431634 0.845369
O O1 0.371183 0.771437 0.281947
O O2 0.805209 0.454304 0.172668
O O3 0.735937 0.449991 0.857119
O O4 0.753986 0.341717 0.114679
O O5 0.354673 0.386742 0.354760
O O6 0.888001 0.812812 0.532169
O O7 0.104721 0.759081 0.507310
O O8 0.273077 0.153823 0.648845
O O9 0.439137 0.026637 0.223962
O O10 0.585091 0.787581 0.356270
O O11 0.106795 0.016213 0.710746
O O12 0.000000 0.000000 0.500000
O O13 0.766122 0.048584 0.007369
O O14 0.000000 0.000000 0.000000
O O15 0.610979 0.033895 0.135960
O O16 0.935647 0.638808 0.946097
O O17 0.352392 0.322425 0.002048
#
# Coordination Sequence:
#
# PCOD9017890 Si02
#       8
#     2   2   2   2   2   2   2   2
#     4  10  21  43  67  87 133 171 214 265 328 387
#     4  10  22  42  65  95 130 173 215 268 335 377
#     4  11  22  42  70  97 133 174 221 275 323 398
#     4  11  25  43  71  96 127 177 221 267 332 397
#     4  11  26  43  64  99 136 168 220 276 329 385
#     4  11  23  45  65  99 136 171 221 274 332 386
#     4  11  24  45  65  92 140 172 213 277 331 387
#     4  11  22  44  68  94 130 177 221 267 333 388
#
# _framework density 25.672986000000002
#
# number of rings (size 3 to 8) (size 9 to 14) (size 15 to 20)
#    0.000    1.250    5.000    1.125    5.250    2.500 
#    4.500    0.000    0.000    0.000    0.000    0.000 
#    0.000    0.000    0.000    0.000    0.000    0.000 
#
# Total GULP energy -89365.068453 kJ/mol
# GULP energy per Si atom -5585.316778 kJ/mol
# Density = 2.561455 g / cm^3
# Si number density = 25.672986 Si / 1000 Ang^3
#
#
#
# Elastic Constant Matrix: (Units=GPa)
#
#
# Indices 1 2 3 4 5 6 
#
# 1 96.1899 49.3852 19.4757 8.7041 -8.6297 28.1710
# 2 49.3852 113.5179 52.3204 25.0886 -0.5730 32.1631
# 3 19.4757 52.3204 129.9048 32.2685 -1.6432 0.7073
# 4 8.7041 25.0886 32.2685 52.9762 1.2672 14.1270
# 5 -8.6297 -0.5730 -1.6432 1.2672 40.4319 2.0682
# 6 28.1710 32.1631 0.7073 14.1270 2.0682 57.7690
#
#
#
# Elastic Compliance Matrix: (Units=1/GPa)
#
#
# Indices 1 2 3 4 5 6 
#
# 1 0.014678 -0.005150 -0.000427 0.001480 0.003240 -0.004763
# 2 -0.005150 0.015256 -0.004868 -0.001951 -0.000742 -0.005419
# 3 -0.000427 -0.004868 0.011060 -0.005464 0.000250 0.004110
# 4 0.001480 -0.001951 -0.005464 0.024365 -0.000415 -0.005512
# 5 0.003240 -0.000742 0.000250 -0.000415 0.025539 -0.001982
# 6 -0.004763 -0.005419 0.004110 -0.005512 -0.001982 0.024019
#
#
# Mechanical properties :
#
#
# Convention : Reuss Voigt Hill
#
# Bulk Modulus (GPa) = 49.73847 64.66391 57.20119
# Shear Modulus (GPa) = 35.08554 44.79751 39.94152
#
# Velocity S-wave (km/s) = 3.70081 4.18177 3.94862
# Velocity P-wave (km/s) = 6.13818 6.96839 6.56642
#
# Compressibility (1/GPa) = 0.02010516
#
# Stress axis : x y z
#
# Youngs Moduli (GPa) = 68.12708 65.54772 90.41224
#
# Poissons Ratio (x) = 0.33758 0.03862
# Poissons Ratio (y) = 0.35086 0.44010
# Poissons Ratio (z) = 0.02910 0.31906
#
# Static dielectric constant tensor:
#      x y z
#    x 2.131510 -0.013370 -0.136960 
#    y -0.013370 2.117060 -0.062360 
#    z -0.136960 -0.062360 2.438220 
# 
# From -- ./inp_files/315233.got.cif
#   From: 2010.05.17/outbox.cif.g08.bks.cpg/sg2_158_cif.got.tgz:315233.got - 2010.06.03 11:33:40.
