data_PCOD9017073
_publ_section_title
;
Structure prediction by ZEFSAII (Michael W. Deem and Ramdas Pophale) SiO2 
 PCOD9017073
Probable space group: P -1
;
_chemical_formula_sum "Si O2"
_cell_formula_units_Z 13
_cell_length_a 11.817370
_cell_length_b 9.402465
_cell_length_c 8.547491
_cell_angle_alpha 134.364118
_cell_angle_beta 130.305340
_cell_angle_gamma 57.577752
_cell_volume 511.629013
_symmetry_space_group_name_H-M "P -1"
_symmetry_group_IT_number 2
_symmetry_cell_setting 'triclinic'
loop_
_space_group_symop_operation_xyz
x,y,z
-x,-y,-z
loop_
_atom_site_type_symbol
_atom_site_label
_atom_site_fract_x
_atom_site_fract_y
_atom_site_fract_z
Si Si1 0.519992 0.240100 0.005136
Si Si2 0.755866 0.068579 0.588486
Si Si3 0.701806 0.911366 0.109968
Si Si4 0.500000 0.000000 0.500000
Si Si5 0.958449 0.787627 0.741358
Si Si6 0.797548 0.446585 0.425789
Si Si7 0.039323 0.712359 0.239679
O O1 0.391122 0.260755 0.041492
O O2 0.454870 0.176542 0.733720
O O3 0.624644 0.413913 0.233132
O O4 0.633623 0.032386 0.991798
O O5 0.641850 0.107512 0.656738
O O6 0.867428 0.223942 0.773458
O O7 0.670997 0.065057 0.345908
O O8 0.861358 0.856779 0.552974
O O9 0.879735 0.854747 0.217462
O O10 0.848159 0.668683 0.653525
O O11 0.109343 0.646350 0.714128
O O12 0.000000 0.000000 0.000000
O O13 0.865284 0.320015 0.540397
O O14 0.000000 0.500000 0.000000
#
# Coordination Sequence:
#
# PCOD9017073 Si02
#       7
#     2   2   2   1   2   2   2
#     4  10  21  42  71 100 139 182 234 286 356 420
#     4  11  21  43  66  94 137 180 228 278 352 414
#     4  10  21  42  71  96 136 185 221 289 358 411
#     4  10  24  40  68 104 134 182 230 286 354 424
#     4  11  23  40  69 101 145 185 229 289 353 419
#     4  11  23  42  68 107 139 181 242 287 348 425
#     4  12  24  41  69 104 137 179 239 291 346 422
#
# _framework density 25.409033999999998
#
# number of rings (size 3 to 8) (size 9 to 14) (size 15 to 20)
#    0.000    1.231    3.077    3.231    0.000    2.462 
#    2.769    2.308    0.000    0.000    0.000    0.000 
#    0.000    0.000    0.000    0.000    0.000    0.000 
#
# Total GULP energy -72386.976007 kJ/mol
# GULP energy per Si atom -5568.228924 kJ/mol
# Density = 2.535120 g / cm^3
# Si number density = 25.409034 Si / 1000 Ang^3
#
#
#
# Elastic Constant Matrix: (Units=GPa)
#
#
# Indices 1 2 3 4 5 6 
#
# 1 154.3655 22.9062 27.9407 20.2289 51.8569 36.0486
# 2 22.9062 78.0581 21.1310 9.0736 18.2910 27.9662
# 3 27.9407 21.1310 98.2889 8.8213 40.8073 2.0828
# 4 20.2289 9.0736 8.8213 31.5316 8.2482 12.6156
# 5 51.8569 18.2910 40.8073 8.2482 50.4939 15.4078
# 6 36.0486 27.9662 2.0828 12.6156 15.4078 29.0078
#
#
#
# Elastic Compliance Matrix: (Units=1/GPa)
#
#
# Indices 1 2 3 4 5 6 
#
# 1 0.012521 0.003383 0.000351 -0.001285 -0.010237 -0.012850
# 2 0.003383 0.022788 -0.006067 0.003891 0.001085 -0.028006
# 3 0.000351 -0.006067 0.018615 -0.005426 -0.017048 0.015490
# 4 -0.001285 0.003891 -0.005426 0.040475 0.004289 -0.021645
# 5 -0.010237 0.001085 -0.017048 0.004289 0.047301 -0.014089
# 6 -0.012850 -0.028006 0.015490 -0.021645 -0.014089 0.093227
#
#
# Mechanical properties :
#
#
# Convention : Reuss Voigt Hill
#
# Bulk Modulus (GPa) = 20.30126 52.74093 36.52109
# Shear Modulus (GPa) = 19.53033 39.45564 29.49299
#
# Velocity S-wave (km/s) = 2.77544 3.94486 3.41064
# Velocity P-wave (km/s) = 4.27526 6.44601 5.46941
#
# Compressibility (1/GPa) = 0.04925803
#
# Stress axis : x y z
#
# Youngs Moduli (GPa) = 79.86716 43.88262 53.72036
#
# Poissons Ratio (x) = -0.14844 -0.01887
# Poissons Ratio (y) = -0.27015 0.32591
# Poissons Ratio (z) = -0.02806 0.26622
#
# Static dielectric constant tensor:
#      x y z
#    x 2.104390 -0.022040 0.042680 
#    y -0.022040 2.111770 -0.008260 
#    z 0.042680 -0.008260 2.092510 
# 
# From -- ./inp_files/182180.got.cif
#   From: 2010.05.17/outbox.cif.g08.bks.cpg/sg2_92_cif.got.tgz:182180.got - 2010.06.03 11:33:40.
