data_PCOD9017346
_publ_section_title
;
Structure prediction by ZEFSAII (Michael W. Deem and Ramdas Pophale) SiO2 
 PCOD9017346
Probable space group: P -1
;
_chemical_formula_sum "Si O2"
_cell_formula_units_Z 14
_cell_length_a 9.566715
_cell_length_b 12.086568
_cell_length_c 14.098517
_cell_angle_alpha 148.182249
_cell_angle_beta 136.347105
_cell_angle_gamma 40.120008
_cell_volume 540.627156
_symmetry_space_group_name_H-M "P -1"
_symmetry_group_IT_number 2
_symmetry_cell_setting 'triclinic'
loop_
_space_group_symop_operation_xyz
x,y,z
-x,-y,-z
loop_
_atom_site_type_symbol
_atom_site_label
_atom_site_fract_x
_atom_site_fract_y
_atom_site_fract_z
Si Si1 0.524074 0.686701 0.747045
Si Si2 0.242995 0.470900 0.068539
Si Si3 0.192799 0.906633 0.141639
Si Si4 0.656984 0.783710 0.261980
Si Si5 0.813761 0.789597 0.808968
Si Si6 0.051809 0.708236 0.546904
Si Si7 0.757076 0.173534 0.543006
O O1 0.587911 0.706677 0.902533
O O2 0.645798 0.785813 0.805586
O O3 0.261243 0.769249 0.670891
O O4 0.648354 0.405503 0.596246
O O5 0.239273 0.718350 0.273057
O O6 0.288413 0.384763 0.922688
O O7 0.000000 0.500000 0.000000
O O8 0.228418 0.986249 0.111452
O O9 0.062791 0.134336 0.305175
O O10 0.445293 0.783274 0.212507
O O11 0.044802 0.762585 0.954036
O O12 0.865649 0.751865 0.407027
O O13 0.607772 0.033568 0.374004
O O14 0.852223 0.568979 0.600301
O O15 0.000000 0.000000 0.500000
#
# Coordination Sequence:
#
# PCOD9017346 Si02
#       7
#     2   2   2   2   2   2   2
#     4  10  25  47  76 111 146 187 243 313 369 427
#     4  10  22  42  72 110 147 184 232 303 370 426
#     4  11  29  47  74 105 146 205 249 296 363 445
#     4  12  25  46  76 107 152 193 248 295 372 443
#     4  11  25  49  74 105 147 188 254 305 368 433
#     4  12  26  49  75 109 150 193 245 310 368 433
#     4  10  21  42  74 109 147 184 239 304 369 435
#
# _framework density 25.895852000000001
#
# number of rings (size 3 to 8) (size 9 to 14) (size 15 to 20)
#    0.857    0.286    1.429    3.857    4.000    5.714 
#    2.571    0.000    0.000    0.857    0.000    0.000 
#    0.000    0.000    0.000    0.000    0.000    0.000 
#
# Total GULP energy -78369.502002 kJ/mol
# GULP energy per Si atom -5597.821572 kJ/mol
# Density = 2.583691 g / cm^3
# Si number density = 25.895852 Si / 1000 Ang^3
#
#
#
# Elastic Constant Matrix: (Units=GPa)
#
#
# Indices 1 2 3 4 5 6 
#
# 1 181.9443 62.3812 86.1619 -10.0999 22.5398 -25.9357
# 2 62.3812 95.9931 29.4755 -10.7730 2.0142 -9.4669
# 3 86.1619 29.4755 167.9611 1.1216 7.4462 -14.8342
# 4 -10.0999 -10.7730 1.1216 54.7014 -9.4590 7.8773
# 5 22.5398 2.0142 7.4462 -9.4590 54.0065 -6.5115
# 6 -25.9357 -9.4669 -14.8342 7.8773 -6.5115 51.2400
#
#
#
# Elastic Compliance Matrix: (Units=1/GPa)
#
#
# Indices 1 2 3 4 5 6 
#
# 1 0.009659 -0.004809 -0.003754 0.000027 -0.003025 0.002525
# 2 -0.004809 0.013758 -0.000045 0.002147 0.001876 0.000003
# 3 -0.003754 -0.000045 0.007926 -0.000879 0.000390 0.000571
# 4 0.000027 0.002147 -0.000879 0.019629 0.003172 -0.002459
# 5 -0.003025 0.001876 0.000390 0.003172 0.020334 0.001025
# 6 0.002525 0.000003 0.000571 -0.002459 0.001025 0.021468
#
#
# Mechanical properties :
#
#
# Convention : Reuss Voigt Hill
#
# Bulk Modulus (GPa) = 70.78047 89.10396 79.94222
# Shear Modulus (GPa) = 43.59227 49.84826 46.72026
#
# Velocity S-wave (km/s) = 4.10734 4.39219 4.25215
# Velocity P-wave (km/s) = 7.06298 7.75919 7.41926
#
# Compressibility (1/GPa) = 0.01412819
#
# Stress axis : x y z
#
# Youngs Moduli (GPa) = 103.53233 72.68541 126.16065
#
# Poissons Ratio (x) = 0.34951 0.47361
# Poissons Ratio (y) = 0.49784 0.00566
# Poissons Ratio (z) = 0.38866 0.00326
#
# Static dielectric constant tensor:
#      x y z
#    x 1.972300 0.021050 0.009840 
#    y 0.021050 2.246060 -0.071660 
#    z 0.009840 -0.071660 2.082640 
# 
# From -- ./inp_files/520517.got.cif
#   From: 2010.05.17/outbox.cif.g08.bks.cpg/sg2_261_cif.got.tgz:520517.got - 2010.06.03 11:33:40.
