data_PCOD9017007
_publ_section_title
;
Structure prediction by ZEFSAII (Michael W. Deem and Ramdas Pophale) SiO2 
 PCOD9017007
Probable space group: P -1
;
_chemical_formula_sum "Si O2"
_cell_formula_units_Z 16
_cell_length_a 14.474495
_cell_length_b 11.684591
_cell_length_c 11.923462
_cell_angle_alpha 89.764795
_cell_angle_beta 90.199128
_cell_angle_gamma 20.263739
_cell_volume 698.270407
_symmetry_space_group_name_H-M "P -1"
_symmetry_group_IT_number 2
_symmetry_cell_setting 'triclinic'
loop_
_space_group_symop_operation_xyz
x,y,z
-x,-y,-z
loop_
_atom_site_type_symbol
_atom_site_label
_atom_site_fract_x
_atom_site_fract_y
_atom_site_fract_z
Si Si1 0.574091 0.562494 0.719489
Si Si2 0.187947 0.111936 0.525675
Si Si3 0.428149 0.206220 0.214593
Si Si4 0.599713 0.259190 0.033057
Si Si5 0.207181 0.503257 0.984023
Si Si6 0.064771 0.454841 0.870879
Si Si7 0.798624 0.145221 0.556578
Si Si8 0.251489 0.222331 0.351546
O O1 0.731622 0.497113 0.745472
O O2 0.424590 0.710870 0.832631
O O3 0.748369 0.254393 0.679579
O O4 0.378076 0.837113 0.621603
O O5 0.329906 0.031527 0.437682
O O6 0.968480 0.443944 0.586279
O O7 0.094722 0.107291 0.457098
O O8 0.281608 0.346611 0.098370
O O9 0.457428 0.078761 0.311582
O O10 0.725955 0.881114 0.173201
O O11 0.407657 0.379064 0.985573
O O12 0.500000 0.500000 0.000000
O O13 0.900038 0.895709 0.992875
O O14 0.216035 0.401731 0.884048
O O15 0.853275 0.706995 0.768033
O O16 0.000000 0.500000 0.000000
O O17 0.500000 0.500000 0.500000
O O18 0.000000 0.000000 0.500000
#
# Coordination Sequence:
#
# PCOD9017007 Si02
#       8
#     2   2   2   2   2   2   2   2
#     4  10  21  42  70  95 131 181 228 281 344 407
#     4  10  22  44  62 100 132 182 227 282 343 404
#     4  11  22  39  67  99 135 186 222 277 349 417
#     4  11  25  45  70 101 138 178 231 286 346 413
#     4  11  24  41  69 100 140 180 227 279 344 417
#     4  12  23  41  63 100 140 178 228 279 346 410
#     4  10  22  42  67  92 124 172 231 280 327 397
#     4  11  23  39  67  95 143 174 230 277 343 413
#
# _framework density 22.913758999999999
#
# number of rings (size 3 to 8) (size 9 to 14) (size 15 to 20)
#    0.000    1.250    2.500    3.750    1.750    4.500 
#    4.500    1.250    0.000    0.000    0.000    0.000 
#    0.000    0.000    0.000    0.000    0.000    0.000 
#
# Total GULP energy -89235.300579 kJ/mol
# GULP energy per Si atom -5577.206286 kJ/mol
# Density = 2.286161 g / cm^3
# Si number density = 22.913759 Si / 1000 Ang^3
#
#
#
# Elastic Constant Matrix: (Units=GPa)
#
#
# Indices 1 2 3 4 5 6 
#
# 1 109.8156 26.4116 47.6947 1.2613 -5.9485 10.9994
# 2 26.4116 73.5989 23.1411 5.2093 -7.8434 -2.6257
# 3 47.6947 23.1411 99.7346 7.4613 -2.4864 18.1195
# 4 1.2613 5.2093 7.4613 25.5551 10.4741 -1.8321
# 5 -5.9485 -7.8434 -2.4864 10.4741 47.8210 0.6293
# 6 10.9994 -2.6257 18.1195 -1.8321 0.6293 39.2544
#
#
#
# Elastic Compliance Matrix: (Units=1/GPa)
#
#
# Indices 1 2 3 4 5 6 
#
# 1 0.012087 -0.002841 -0.004965 0.001117 0.000551 -0.001242
# 2 -0.002841 0.016054 -0.002563 -0.003344 0.002841 0.002852
# 3 -0.004965 -0.002563 0.014337 -0.004098 0.000679 -0.005600
# 4 0.001117 -0.003344 -0.004098 0.045583 -0.010654 0.003653
# 5 0.000551 0.002841 0.000679 -0.010654 0.023830 -0.001157
# 6 -0.001242 0.002852 -0.005600 0.003653 -0.001157 0.028787
#
#
# Mechanical properties :
#
#
# Convention : Reuss Voigt Hill
#
# Bulk Modulus (GPa) = 46.00165 53.07157 49.53661
# Shear Modulus (GPa) = 29.64467 34.91956 32.28212
#
# Velocity S-wave (km/s) = 3.60078 3.90802 3.75754
# Velocity P-wave (km/s) = 6.11613 6.60115 6.36326
#
# Compressibility (1/GPa) = 0.02173835
#
# Stress axis : x y z
#
# Youngs Moduli (GPa) = 82.73036 62.29018 69.75041
#
# Poissons Ratio (x) = 0.17697 0.34634
# Poissons Ratio (y) = 0.23505 0.17879
# Poissons Ratio (z) = 0.41080 0.15967
#
# Static dielectric constant tensor:
#      x y z
#    x 1.977300 -0.007350 0.056350 
#    y -0.007350 1.897750 0.022760 
#    z 0.056350 0.022760 1.897560 
# 
# From -- ./inp_files/70304.got.cif
#   From: 2010.05.17/outbox.cif.g08.bks.cpg/sg2_36_cif.got.tgz:70304.got - 2010.06.03 11:33:40.
