data_PCOD9017903
_publ_section_title
;
Structure prediction by ZEFSAII (Michael W. Deem and Ramdas Pophale) SiO2 
 PCOD9017903
Probable space group: P -1
;
_chemical_formula_sum "Si O2"
_cell_formula_units_Z 16
_cell_length_a 11.299524
_cell_length_b 16.313798
_cell_length_c 9.398554
_cell_angle_alpha 28.866510
_cell_angle_beta 92.242771
_cell_angle_gamma 100.712344
_cell_volume 793.418285
_symmetry_space_group_name_H-M "P -1"
_symmetry_group_IT_number 2
_symmetry_cell_setting 'triclinic'
loop_
_space_group_symop_operation_xyz
x,y,z
-x,-y,-z
loop_
_atom_site_type_symbol
_atom_site_label
_atom_site_fract_x
_atom_site_fract_y
_atom_site_fract_z
Si Si1 0.858332 0.745130 0.784763
Si Si2 0.010817 0.001678 0.168029
Si Si3 0.036592 0.683726 0.131357
Si Si4 0.566296 0.113311 0.488898
Si Si5 0.247556 0.116861 0.179047
Si Si6 0.399859 0.563267 0.810424
Si Si7 0.608752 0.473072 0.454688
Si Si8 0.671794 0.197355 0.074028
O O1 0.819694 0.892819 0.655191
O O2 0.925514 0.833098 0.509727
O O3 0.734798 0.587630 0.973618
O O4 0.947791 0.678937 0.997133
O O5 0.150441 0.026122 0.190554
O O6 0.979596 0.169568 0.981079
O O7 0.000000 0.000000 0.000000
O O8 0.000000 0.500000 0.500000
O O9 0.179907 0.748938 0.985877
O O10 0.606477 0.251545 0.407753
O O11 0.607493 0.228812 0.170856
O O12 0.641388 0.969203 0.696387
O O13 0.418828 0.004523 0.656627
O O14 0.291363 0.330461 0.838173
O O15 0.439488 0.585433 0.615337
O O16 0.500000 0.500000 0.000000
O O17 0.500000 0.500000 0.500000
O O18 0.655543 0.324053 0.755351
#
# Coordination Sequence:
#
# PCOD9017903 Si02
#       8
#     2   2   2   2   2   2   2   2
#     4  10  23  45  67  90 131 178 215 265 328 394
#     4  11  24  40  65  97 130 170 217 272 322 383
#     4  11  23  44  70  95 128 176 221 263 326 400
#     4  11  24  41  66 100 129 168 219 271 322 392
#     4  10  21  43  67  91 129 174 217 259 332 392
#     4  11  26  41  66  95 132 168 219 270 326 375
#     4  11  22  43  63  93 132 173 210 265 325 389
#     4  11  23  40  70  97 131 169 218 265 332 391
#
# _framework density 20.165907000000001
#
# number of rings (size 3 to 8) (size 9 to 14) (size 15 to 20)
#    0.000    1.250    1.250    6.000    7.000    5.500 
#    0.000    1.875    0.000    0.000    0.000    0.000 
#    0.000    0.000    0.000    0.000    0.000    0.000 
#
# Total GULP energy -89305.056735 kJ/mol
# GULP energy per Si atom -5581.566046 kJ/mol
# Density = 2.012001 g / cm^3
# Si number density = 20.165907 Si / 1000 Ang^3
#
#
#
# Elastic Constant Matrix: (Units=GPa)
#
#
# Indices 1 2 3 4 5 6 
#
# 1 134.8243 56.3793 53.1068 6.8995 -6.0670 27.3616
# 2 56.3793 154.5921 62.3370 13.4489 -12.3319 17.8503
# 3 53.1068 62.3370 123.5482 20.1516 -1.2399 9.6930
# 4 6.8995 13.4489 20.1516 33.0971 -3.7021 -1.6259
# 5 -6.0670 -12.3319 -1.2399 -3.7021 26.0306 0.3686
# 6 27.3616 17.8503 9.6930 -1.6259 0.3686 29.8416
#
#
#
# Elastic Compliance Matrix: (Units=1/GPa)
#
#
# Indices 1 2 3 4 5 6 
#
# 1 0.011148 -0.001653 -0.003328 0.000174 0.001797 -0.008165
# 2 -0.001653 0.009208 -0.003505 -0.000993 0.003711 -0.002954
# 3 -0.003328 -0.003505 0.012087 -0.005491 -0.002655 0.000955
# 4 0.000174 -0.000993 -0.005491 0.034591 0.004170 0.004052
# 5 0.001797 0.003711 -0.002655 0.004170 0.041106 -0.003286
# 6 -0.008165 -0.002954 0.000955 0.004052 -0.003286 0.042715
#
#
# Mechanical properties :
#
#
# Convention : Reuss Voigt Hill
#
# Bulk Modulus (GPa) = 64.62974 84.06786 74.34880
# Shear Modulus (GPa) = 28.90474 33.86995 31.38735
#
# Velocity S-wave (km/s) = 3.79006 4.10270 3.94947
# Velocity P-wave (km/s) = 7.16040 8.01383 7.59910
#
# Compressibility (1/GPa) = 0.01547275
#
# Stress axis : x y z
#
# Youngs Moduli (GPa) = 89.70296 108.60020 82.73507
#
# Poissons Ratio (x) = 0.17949 0.27532
# Poissons Ratio (y) = 0.14826 0.28995
# Poissons Ratio (z) = 0.29851 0.38059
#
# Static dielectric constant tensor:
#      x y z
#    x 1.768410 -0.001210 -0.025640 
#    y -0.001210 1.677020 0.004470 
#    z -0.025640 0.004470 1.619390 
# 
# From -- ./inp_files/217839.got.cif
#   From: 2010.05.17/outbox.cif.g08.bks.cpg/sg2_109_cif.got.tgz:217839.got - 2010.06.03 11:33:40.
