data_PCOD9017164
_publ_section_title
;
Structure prediction by ZEFSAII (Michael W. Deem and Ramdas Pophale) SiO2 
 PCOD9017164
Probable space group: P -1
;
_chemical_formula_sum "Si O2"
_cell_formula_units_Z 16
_cell_length_a 13.402132
_cell_length_b 9.717143
_cell_length_c 9.101019
_cell_angle_alpha 137.952562
_cell_angle_beta 110.230464
_cell_angle_gamma 92.818897
_cell_volume 650.590649
_symmetry_space_group_name_H-M "P -1"
_symmetry_group_IT_number 2
_symmetry_cell_setting 'triclinic'
loop_
_space_group_symop_operation_xyz
x,y,z
-x,-y,-z
loop_
_atom_site_type_symbol
_atom_site_label
_atom_site_fract_x
_atom_site_fract_y
_atom_site_fract_z
Si Si1 0.253879 0.916106 0.467170
Si Si2 0.572314 0.664694 0.301455
Si Si3 0.322160 0.431889 0.463241
Si Si4 0.124068 0.584423 0.893559
Si Si5 0.061993 0.219428 0.092840
Si Si6 0.464826 0.845233 0.641776
Si Si7 0.907772 0.095491 0.366857
Si Si8 0.272138 0.901839 0.957242
O O1 0.367218 0.930419 0.626999
O O2 0.159676 0.945444 0.545669
O O3 0.307757 0.117807 0.531955
O O4 0.188196 0.669978 0.151135
O O5 0.605837 0.510751 0.304060
O O6 0.503412 0.774794 0.449891
O O7 0.500000 0.500000 0.000000
O O8 0.400204 0.606178 0.513313
O O9 0.292702 0.162773 0.212882
O O10 0.189805 0.408710 0.377827
O O11 0.045041 0.306833 0.613640
O O12 0.218302 0.719971 0.919161
O O13 0.027018 0.678609 0.903997
O O14 0.091387 0.125179 0.883349
O O15 0.000000 0.000000 0.000000
O O16 0.587341 0.031458 0.936668
O O17 0.827128 0.166170 0.274888
#
# Coordination Sequence:
#
# PCOD9017164 Si02
#       8
#     2   2   2   2   2   2   2   2
#     4  12  26  47  65 107 150 177 229 300 357 416
#     4  11  24  43  69 102 143 183 229 285 355 427
#     4  10  21  43  71 100 134 184 235 288 345 418
#     4  12  23  48  68 102 148 183 235 299 352 412
#     4  11  22  44  73 100 137 187 240 289 351 417
#     4  11  24  46  71  99 141 191 227 288 359 412
#     4  11  26  42  72 107 136 187 239 293 354 424
#     4  10  21  42  71  98 136 180 242 287 337 432
#
# _framework density 24.593035
#
# number of rings (size 3 to 8) (size 9 to 14) (size 15 to 20)
#    0.000    1.000    5.000    3.375    5.250    1.000 
#    6.750    0.000    0.000    0.000    0.000    0.000 
#    0.000    0.000    0.000    0.000    0.000    0.000 
#
# Total GULP energy -89651.559291 kJ/mol
# GULP energy per Si atom -5603.222456 kJ/mol
# Density = 2.453706 g / cm^3
# Si number density = 24.593035 Si / 1000 Ang^3
#
#
#
# Elastic Constant Matrix: (Units=GPa)
#
#
# Indices 1 2 3 4 5 6 
#
# 1 87.5193 28.4579 12.6158 9.8040 12.7456 17.6083
# 2 28.4579 87.8223 4.6323 1.7411 -3.2242 28.1707
# 3 12.6158 4.6323 75.1133 -15.6214 6.1333 10.9811
# 4 9.8040 1.7411 -15.6214 32.7237 -6.4292 1.7957
# 5 12.7456 -3.2242 6.1333 -6.4292 45.3622 -0.8720
# 6 17.6083 28.1707 10.9811 1.7957 -0.8720 56.3103
#
#
#
# Elastic Compliance Matrix: (Units=1/GPa)
#
#
# Indices 1 2 3 4 5 6 
#
# 1 0.015077 -0.004170 -0.002950 -0.006601 -0.005106 -0.001922
# 2 -0.004170 0.014750 0.000871 0.001659 0.002217 -0.006263
# 3 -0.002950 0.000871 0.015978 0.008603 -0.000106 -0.002905
# 4 -0.006601 0.001659 0.008603 0.037848 0.006144 -0.001555
# 5 -0.005106 0.002217 -0.000106 0.006144 0.024536 0.000692
# 6 -0.001922 -0.006263 -0.002905 -0.001555 0.000692 0.022120
#
#
# Mechanical properties :
#
#
# Convention : Reuss Voigt Hill
#
# Bulk Modulus (GPa) = 30.02579 37.98520 34.00550
# Shear Modulus (GPa) = 32.48691 40.52917 36.50804
#
# Velocity S-wave (km/s) = 3.63847 4.06395 3.85708
# Velocity P-wave (km/s) = 5.46689 6.12372 5.80460
#
# Compressibility (1/GPa) = 0.03330470
#
# Stress axis : x y z
#
# Youngs Moduli (GPa) = 66.32618 67.79879 62.58759
#
# Poissons Ratio (x) = 0.28273 0.18464
# Poissons Ratio (y) = 0.27659 -0.05448
# Poissons Ratio (z) = 0.19567 -0.05902
#
# Static dielectric constant tensor:
#      x y z
#    x 1.974440 -0.019100 0.000070 
#    y -0.019100 1.914790 -0.025110 
#    z 0.000070 -0.025110 2.024860 
# 
# From -- ./inp_files/299789.got.cif
#   From: 2010.05.17/outbox.cif.g08.bks.cpg/sg2_150_cif.got.tgz:299789.got - 2010.06.03 11:33:40.
