data_PCOD9017294
_publ_section_title
;
Structure prediction by ZEFSAII (Michael W. Deem and Ramdas Pophale) SiO2 
 PCOD9017294
Probable space group: P -1
;
_chemical_formula_sum "Si O2"
_cell_formula_units_Z 15
_cell_length_a 8.834196
_cell_length_b 5.942595
_cell_length_c 16.450423
_cell_angle_alpha 61.014358
_cell_angle_beta 52.941992
_cell_angle_gamma 69.682867
_cell_volume 600.973228
_symmetry_space_group_name_H-M "P -1"
_symmetry_group_IT_number 2
_symmetry_cell_setting 'triclinic'
loop_
_space_group_symop_operation_xyz
x,y,z
-x,-y,-z
loop_
_atom_site_type_symbol
_atom_site_label
_atom_site_fract_x
_atom_site_fract_y
_atom_site_fract_z
Si Si1 0.363240 0.266249 0.081708
Si Si2 0.366474 0.259970 0.905817
Si Si3 0.071401 0.178380 0.686442
Si Si4 0.338091 0.262876 0.736850
Si Si5 0.333269 0.809525 0.581976
Si Si6 0.257193 0.932576 0.402030
Si Si7 0.000000 0.500000 0.500000
Si Si8 0.729627 0.550260 0.752036
O O1 0.245631 0.311019 0.194205
O O2 0.502656 0.008394 0.086524
O O3 0.500000 0.500000 0.000000
O O4 0.263879 0.280398 0.022926
O O5 0.260901 0.266132 0.853002
O O6 0.516472 0.480977 0.815839
O O7 0.188055 0.212951 0.725047
O O8 0.117146 0.363405 0.564006
O O9 0.856401 0.280656 0.757989
O O10 0.149365 0.900173 0.678908
O O11 0.409339 0.536608 0.639966
O O12 0.529173 0.073096 0.701697
O O13 0.270910 0.820768 0.507175
O O14 0.500000 0.000000 0.500000
O O15 0.130055 0.761228 0.418209
O O16 0.195648 0.245539 0.373202
#
# Coordination Sequence:
#
# PCOD9017294 Si02
#       8
#     2   2   2   2   2   2   1   2
#     4   9  20  41  74 104 134 170 222 282 347 423
#     4  10  21  42  73 105 133 173 228 280 348 421
#     4  12  27  41  64  96 139 182 230 286 338 397
#     4  12  24  43  66 101 132 182 234 279 343 406
#     4  12  24  42  64  92 136 183 234 278 333 400
#     4  12  24  45  70  97 138 189 236 285 334 404
#     4  12  26  44  62  98 138 186 240 282 334 394
#     4  11  24  43  69 103 136 179 230 288 347 402
#
# _framework density 24.959517999999999
#
# number of rings (size 3 to 8) (size 9 to 14) (size 15 to 20)
#    0.000    0.800    4.000    3.600    1.867    1.067 
#    0.000    0.667    0.000    8.000    0.000    0.000 
#    0.000    0.000    0.000    0.000    0.000    0.000 
#
# Total GULP energy -83715.648514 kJ/mol
# GULP energy per Si atom -5581.043234 kJ/mol
# Density = 2.490271 g / cm^3
# Si number density = 24.959518 Si / 1000 Ang^3
#
#
#
# Elastic Constant Matrix: (Units=GPa)
#
#
# Indices 1 2 3 4 5 6 
#
# 1 125.7385 18.5705 37.7650 4.5931 37.3471 25.8559
# 2 18.5705 76.2471 3.4458 -13.5367 2.0158 3.9394
# 3 37.7650 3.4458 77.1284 2.6473 45.0153 12.9677
# 4 4.5931 -13.5367 2.6473 53.9410 19.6364 1.9330
# 5 37.3471 2.0158 45.0153 19.6364 49.7303 11.9865
# 6 25.8559 3.9394 12.9677 1.9330 11.9865 41.8211
#
#
#
# Elastic Compliance Matrix: (Units=1/GPa)
#
#
# Indices 1 2 3 4 5 6 
#
# 1 0.011582 -0.002087 -0.000258 0.001529 -0.007850 -0.004705
# 2 -0.002087 0.014415 0.001457 0.004484 -0.002074 -0.000132
# 3 -0.000258 0.001457 0.032005 0.010818 -0.032872 -0.000981
# 4 0.001529 0.004484 0.010818 0.026939 -0.021829 0.000289
# 5 -0.007850 -0.002074 -0.032872 -0.021829 0.065038 -0.002391
# 6 -0.004705 -0.000132 -0.000981 0.000289 -0.002391 0.027808
#
#
# Mechanical properties :
#
#
# Convention : Reuss Voigt Hill
#
# Bulk Modulus (GPa) = 17.78528 44.29740 31.04134
# Shear Modulus (GPa) = 25.21344 43.72066 34.46705
#
# Velocity S-wave (km/s) = 3.18177 4.18983 3.72010
# Velocity P-wave (km/s) = 4.54305 6.41813 5.56021
#
# Compressibility (1/GPa) = 0.05622628
#
# Stress axis : x y z
#
# Youngs Moduli (GPa) = 86.34243 69.37015 31.24476
#
# Poissons Ratio (x) = 0.14479 0.00805
# Poissons Ratio (y) = 0.18021 -0.04552
# Poissons Ratio (z) = 0.02225 -0.10105
#
# Static dielectric constant tensor:
#      x y z
#    x 4.225840 2.993030 3.810830 
#    y 2.993030 5.956450 5.075740 
#    z 3.810830 5.075740 8.411630 
# 
# From -- ./inp_files/552343.got.cif
#   From: 2010.05.17/outbox.cif.g08.bks.cpg/sg2_277_cif.got.tgz:552343.got - 2010.06.03 11:33:40.
