data_PCOD9017757
_publ_section_title
;
Structure prediction by ZEFSAII (Michael W. Deem and Ramdas Pophale) SiO2 
 PCOD9017757
Probable space group: P -1
;
_chemical_formula_sum "Si O2"
_cell_formula_units_Z 14
_cell_length_a 27.367786
_cell_length_b 5.230813
_cell_length_c 15.649535
_cell_angle_alpha 80.914392
_cell_angle_beta 20.457235
_cell_angle_gamma 70.951630
_cell_volume 661.854683
_symmetry_space_group_name_H-M "P -1"
_symmetry_group_IT_number 2
_symmetry_cell_setting 'triclinic'
loop_
_space_group_symop_operation_xyz
x,y,z
-x,-y,-z
loop_
_atom_site_type_symbol
_atom_site_label
_atom_site_fract_x
_atom_site_fract_y
_atom_site_fract_z
Si Si1 0.179210 0.959548 0.698029
Si Si2 0.357358 0.770958 0.019866
Si Si3 0.006720 0.221523 0.548704
Si Si4 0.537091 0.244863 0.882788
Si Si5 0.609783 0.056501 0.380795
Si Si6 0.316781 0.671830 0.892478
Si Si7 0.674438 0.709518 0.463358
O O1 0.276180 0.904852 0.451615
O O2 0.281223 0.634208 0.593634
O O3 0.206224 0.213020 0.684316
O O4 0.000000 0.000000 0.000000
O O5 0.175434 0.024532 0.333880
O O6 0.422105 0.457194 0.981322
O O7 0.335967 0.748506 0.954062
O O8 0.495227 0.864748 0.793390
O O9 0.000000 0.500000 0.500000
O O10 0.000000 0.000000 0.500000
O O11 0.832092 0.380604 0.871465
O O12 0.500000 0.500000 0.000000
O O13 0.500000 0.000000 0.000000
O O14 0.490590 0.380983 0.601671
O O15 0.729588 0.075508 0.117048
O O16 0.500000 0.000000 0.500000
O O17 0.674119 0.820889 0.363378
#
# Coordination Sequence:
#
# PCOD9017757 Si02
#       7
#     2   2   2   2   2   2   2
#     4  11  25  47  71  96 129 171 224 279 336 396
#     4  10  21  43  66  92 126 180 216 257 329 400
#     4  10  22  38  60  90 125 163 213 255 305 378
#     4  11  24  43  68  96 127 168 223 280 330 387
#     4  11  21  36  62  95 134 168 214 261 313 387
#     4  10  22  38  60  93 134 173 212 259 314 389
#     4  11  22  40  70  95 126 173 216 258 335 393
#
# _framework density 21.152681000000001
#
# number of rings (size 3 to 8) (size 9 to 14) (size 15 to 20)
#    0.000    1.429    1.429    4.714    4.000    4.571 
#    5.143    0.000    0.000    0.000    0.000    0.000 
#    0.000    0.000    0.000    0.000    0.000    0.000 
#
# Total GULP energy -77968.219981 kJ/mol
# GULP energy per Si atom -5569.158570 kJ/mol
# Density = 2.110454 g / cm^3
# Si number density = 21.152681 Si / 1000 Ang^3
#
#
#
# Elastic Constant Matrix: (Units=GPa)
#
#
# Indices 1 2 3 4 5 6 
#
# 1 55.4680 29.0715 35.3040 -7.8444 10.1747 -11.6137
# 2 29.0715 134.1968 33.6907 -32.6483 4.9792 -20.4688
# 3 35.3040 33.6907 107.8096 -36.4656 -17.4763 -17.9600
# 4 -7.8444 -32.6483 -36.4656 45.4919 -0.7802 7.3156
# 5 10.1747 4.9792 -17.4763 -0.7802 34.7911 -7.5979
# 6 -11.6137 -20.4688 -17.9600 7.3156 -7.5979 37.8315
#
#
#
# Elastic Compliance Matrix: (Units=1/GPa)
#
#
# Indices 1 2 3 4 5 6 
#
# 1 0.031824 -0.005251 -0.015410 -0.010646 -0.016912 -0.001725
# 2 -0.005251 0.010462 0.002029 0.007629 0.002093 0.003957
# 3 -0.015410 0.002029 0.023653 0.016783 0.018224 0.008011
# 4 -0.010646 0.007629 0.016783 0.038674 0.012147 0.003788
# 5 -0.016912 0.002093 0.018224 0.012147 0.045292 0.011340
# 6 -0.001725 0.003957 0.008011 0.003788 0.011340 0.033392
#
#
# Mechanical properties :
#
#
# Convention : Reuss Voigt Hill
#
# Bulk Modulus (GPa) = 34.87420 54.84521 44.85971
# Shear Modulus (GPa) = 21.72782 36.91678 29.32230
#
# Velocity S-wave (km/s) = 3.20846 4.18215 3.72724
# Velocity P-wave (km/s) = 5.49984 7.02176 6.30688
#
# Compressibility (1/GPa) = 0.02867449
#
# Stress axis : x y z
#
# Youngs Moduli (GPa) = 31.42268 95.58642 42.27739
#
# Poissons Ratio (x) = 0.50193 0.65150
# Poissons Ratio (y) = 0.16500 -0.08578
# Poissons Ratio (z) = 0.48423 -0.19394
#
# Static dielectric constant tensor:
#      x y z
#    x 1.729210 0.024020 -0.034320 
#    y 0.024020 1.749450 0.059180 
#    z -0.034320 0.059180 1.843030 
# 
# From -- ./inp_files/543561.got.cif
#   From: 2010.05.17/outbox.cif.g08.bks.cpg/sg2_272_cif.got.tgz:543561.got - 2010.06.03 11:33:40.
