data_PCOD9017059
_publ_section_title
;
Structure prediction by ZEFSAII (Michael W. Deem and Ramdas Pophale) SiO2 
 PCOD9017059
Probable space group: P -1
;
_chemical_formula_sum "Si O2"
_cell_formula_units_Z 13
_cell_length_a 13.970081
_cell_length_b 14.721424
_cell_length_c 23.540930
_cell_angle_alpha 20.848385
_cell_angle_beta 162.699801
_cell_angle_gamma 149.847981
_cell_volume 494.728367
_symmetry_space_group_name_H-M "P -1"
_symmetry_group_IT_number 2
_symmetry_cell_setting 'triclinic'
loop_
_space_group_symop_operation_xyz
x,y,z
-x,-y,-z
loop_
_atom_site_type_symbol
_atom_site_label
_atom_site_fract_x
_atom_site_fract_y
_atom_site_fract_z
Si Si1 0.789417 0.103128 0.574565
Si Si2 0.510370 0.967976 0.092099
Si Si3 0.680144 0.950779 0.484331
Si Si4 0.505417 0.674403 0.025233
Si Si5 0.486438 0.527370 0.562457
Si Si6 0.500000 0.500000 0.000000
Si Si7 0.101859 0.914305 0.030790
O O1 0.674843 0.404983 0.312167
O O2 0.108183 0.056932 0.822489
O O3 0.500000 0.000000 0.500000
O O4 0.876967 0.943097 0.658489
O O5 0.654064 0.129822 0.126940
O O6 0.500000 0.000000 0.000000
O O7 0.651646 0.656167 0.365822
O O8 0.740486 0.674393 0.647908
O O9 0.671036 0.203511 0.293062
O O10 0.288232 0.001521 0.250563
O O11 0.343865 0.585768 0.928585
O O12 0.740266 0.838725 0.031755
O O13 0.194716 0.754644 0.236298
O O14 0.688394 0.315401 0.756774
#
# Coordination Sequence:
#
# PCOD9017059 Si02
#       7
#     2   2   2   2   2   1   2
#     4  11  25  44  68  98 140 186 230 280 345 420
#     4  11  26  44  68 103 139 190 230 277 346 422
#     4  11  23  41  70  96 137 178 227 291 348 411
#     4  10  22  43  70  95 134 175 238 283 337 417
#     4  10  22  39  68  98 134 172 233 286 338 415
#     4  10  22  40  64 104 124 170 228 288 354 388
#     4  10  21  42  70  99 129 180 234 289 352 405
#
# _framework density 26.277045999999999
#
# number of rings (size 3 to 8) (size 9 to 14) (size 15 to 20)
#    0.000    1.538    1.538    2.769    4.308    1.846 
#    5.538    0.769    0.000    0.000    0.000    0.000 
#    0.000    0.000    0.000    0.000    0.000    0.000 
#
# Total GULP energy -72457.603894 kJ/mol
# GULP energy per Si atom -5573.661838 kJ/mol
# Density = 2.621724 g / cm^3
# Si number density = 26.277046 Si / 1000 Ang^3
#
#
#
# Elastic Constant Matrix: (Units=GPa)
#
#
# Indices 1 2 3 4 5 6 
#
# 1 143.9291 19.2518 36.7235 -20.9318 -30.3326 -13.3527
# 2 19.2518 106.1151 33.3809 -16.3155 -10.9898 -5.0633
# 3 36.7235 33.3809 80.7033 -23.0017 -19.8963 11.8797
# 4 -20.9318 -16.3155 -23.0017 53.8244 9.3378 -5.3321
# 5 -30.3326 -10.9898 -19.8963 9.3378 40.8482 -1.1166
# 6 -13.3527 -5.0633 11.8797 -5.3321 -1.1166 44.0597
#
#
#
# Elastic Compliance Matrix: (Units=1/GPa)
#
#
# Indices 1 2 3 4 5 6 
#
# 1 0.009496 0.000329 -0.003230 0.001914 0.005243 0.004151
# 2 0.000329 0.011279 -0.004553 0.001756 0.000738 0.002854
# 3 -0.003230 -0.004553 0.018890 0.004065 0.004484 -0.005990
# 4 0.001914 0.001756 0.004065 0.022013 -0.001095 0.002322
# 5 0.005243 0.000738 0.004484 -0.001095 0.031038 0.001119
# 6 0.004151 0.002854 -0.005990 0.002322 0.001119 0.026207
#
#
# Mechanical properties :
#
#
# Convention : Reuss Voigt Hill
#
# Bulk Modulus (GPa) = 40.39314 56.60665 48.49989
# Shear Modulus (GPa) = 35.19071 43.83921 39.51496
#
# Velocity S-wave (km/s) = 3.66350 4.08897 3.88207
# Velocity P-wave (km/s) = 5.77065 6.62434 6.21218
#
# Compressibility (1/GPa) = 0.02475668
#
# Stress axis : x y z
#
# Youngs Moduli (GPa) = 105.30231 88.66187 52.93840
#
# Poissons Ratio (x) = -0.02913 0.17100
# Poissons Ratio (y) = -0.03460 0.24101
# Poissons Ratio (z) = 0.34015 0.40364
#
# Static dielectric constant tensor:
#      x y z
#    x 2.379750 0.205750 0.136510 
#    y 0.205750 2.456390 0.242150 
#    z 0.136510 0.242150 2.117030 
# 
# From -- ./inp_files/612096.got.cif
#   From: 2010.05.17/outbox.cif.g08.bks.cpg/sg2_307_cif.got.tgz:612096.got - 2010.06.03 11:33:40.
