data_PCOD9017967
_publ_section_title
;
Structure prediction by ZEFSAII (Michael W. Deem and Ramdas Pophale) SiO2 
 PCOD9017967
Probable space group: P -1
;
_chemical_formula_sum "Si O2"
_cell_formula_units_Z 16
_cell_length_a 8.877931
_cell_length_b 14.585299
_cell_length_c 8.342284
_cell_angle_alpha 69.646505
_cell_angle_beta 80.463769
_cell_angle_gamma 44.165230
_cell_volume 699.797134
_symmetry_space_group_name_H-M "P -1"
_symmetry_group_IT_number 2
_symmetry_cell_setting 'triclinic'
loop_
_space_group_symop_operation_xyz
x,y,z
-x,-y,-z
loop_
_atom_site_type_symbol
_atom_site_label
_atom_site_fract_x
_atom_site_fract_y
_atom_site_fract_z
Si Si1 0.814459 0.308819 0.954711
Si Si2 0.291632 0.031764 0.061369
Si Si3 0.183475 0.475071 0.688372
Si Si4 0.719720 0.907349 0.622404
Si Si5 0.573055 0.231709 0.918510
Si Si6 0.641718 0.570905 0.632178
Si Si7 0.736586 0.671171 0.793187
Si Si8 0.798093 0.314344 0.337109
O O1 0.714317 0.263519 0.902223
O O2 0.710349 0.457054 0.820045
O O3 0.782759 0.304343 0.153767
O O4 0.073560 0.189770 0.959575
O O5 0.293267 0.928322 0.030846
O O6 0.301177 0.017616 0.261168
O O7 0.500000 0.000000 0.000000
O O8 0.401969 0.312665 0.753985
O O9 0.166243 0.510434 0.483206
O O10 0.231322 0.556900 0.712407
O O11 0.980608 0.524580 0.792185
O O12 0.752117 0.779573 0.747477
O O13 0.959004 0.823964 0.558715
O O14 0.500000 0.000000 0.500000
O O15 0.402065 0.305602 0.050784
O O16 0.611256 0.689749 0.647781
O O17 0.405785 0.643822 0.567782
#
# Coordination Sequence:
#
# PCOD9017967 Si02
#       8
#     2   2   2   2   2   2   2   2
#     4  11  24  43  69  97 136 180 217 273 326 403
#     4  11  25  43  67  98 128 179 227 266 326 397
#     4  11  25  39  64 102 135 170 220 282 328 390
#     4  10  24  46  66  95 136 174 219 274 332 395
#     4  12  23  44  67  95 138 173 227 267 330 399
#     4  12  23  42  68 102 136 170 223 277 337 386
#     4  11  24  42  67  95 132 175 223 272 335 393
#     4  10  21  43  67  96 131 175 221 261 334 397
#
# _framework density 22.863768
#
# number of rings (size 3 to 8) (size 9 to 14) (size 15 to 20)
#    0.000    1.000    3.750    2.625    3.500    2.000 
#    0.000    0.625    0.000    0.000    0.000    0.000 
#    0.000    0.000    0.000    0.000    0.000    0.000 
#
# Total GULP energy -89309.426927 kJ/mol
# GULP energy per Si atom -5581.839183 kJ/mol
# Density = 2.281173 g / cm^3
# Si number density = 22.863768 Si / 1000 Ang^3
#
#
#
# Elastic Constant Matrix: (Units=GPa)
#
#
# Indices 1 2 3 4 5 6 
#
# 1 108.6853 29.5232 4.4350 14.2494 2.0985 -14.8862
# 2 29.5232 95.2184 22.0786 8.3272 3.7051 -21.0942
# 3 4.4350 22.0786 44.7832 6.7688 9.3471 -13.2394
# 4 14.2494 8.3272 6.7688 17.7290 -8.0789 10.1803
# 5 2.0985 3.7051 9.3471 -8.0789 26.8482 3.8898
# 6 -14.8862 -21.0942 -13.2394 10.1803 3.8898 56.2273
#
#
#
# Elastic Compliance Matrix: (Units=1/GPa)
#
#
# Indices 1 2 3 4 5 6 
#
# 1 0.014954 -0.001118 0.010412 -0.029585 -0.015340 0.012409
# 2 -0.001118 0.014088 -0.001720 -0.011820 -0.005848 0.007129
# 3 0.010412 -0.001720 0.046440 -0.057498 -0.037824 0.026073
# 4 -0.029585 -0.011820 -0.057498 0.186212 0.089515 -0.065713
# 5 -0.015340 -0.005848 -0.037824 0.089515 0.084751 -0.037231
# 6 0.012409 0.007129 0.026073 -0.065713 -0.037231 0.044358
#
#
# Mechanical properties :
#
#
# Convention : Reuss Voigt Hill
#
# Bulk Modulus (GPa) = 11.03376 40.08450 25.55913
# Shear Modulus (GPa) = 12.31937 33.00425 22.66181
#
# Velocity S-wave (km/s) = 2.32376 3.80349 3.15170
# Velocity P-wave (km/s) = 3.46932 6.07113 4.94443
#
# Compressibility (1/GPa) = 0.09063097
#
# Stress axis : x y z
#
# Youngs Moduli (GPa) = 66.87043 70.98133 21.53320
#
# Poissons Ratio (x) = 0.07933 -0.22421
# Poissons Ratio (y) = 0.07474 0.03704
# Poissons Ratio (z) = -0.69626 0.12210
#
# Static dielectric constant tensor:
#      x y z
#    x 1.842560 -0.049720 0.056790 
#    y -0.049720 1.845600 0.006720 
#    z 0.056790 0.006720 1.972830 
# 
# From -- ./inp_files/206340.got.cif
#   From: 2010.05.17/outbox.cif.g08.bks.cpg/sg2_104_cif.got.tgz:206340.got - 2010.06.03 11:33:40.
