data_PCOD9017845
_publ_section_title
;
Structure prediction by ZEFSAII (Michael W. Deem and Ramdas Pophale) SiO2 
 PCOD9017845
Probable space group: P -1
;
_chemical_formula_sum "Si O2"
_cell_formula_units_Z 16
_cell_length_a 5.547525
_cell_length_b 32.958503
_cell_length_c 9.780451
_cell_angle_alpha 25.639588
_cell_angle_beta 108.572002
_cell_angle_gamma 112.111871
_cell_volume 715.904497
_symmetry_space_group_name_H-M "P -1"
_symmetry_group_IT_number 2
_symmetry_cell_setting 'triclinic'
loop_
_space_group_symop_operation_xyz
x,y,z
-x,-y,-z
loop_
_atom_site_type_symbol
_atom_site_label
_atom_site_fract_x
_atom_site_fract_y
_atom_site_fract_z
Si Si1 0.667335 0.362718 0.209055
Si Si2 0.637828 0.354840 0.542725
Si Si3 0.118036 0.827781 0.169403
Si Si4 0.987286 0.857146 0.525004
Si Si5 0.097685 0.237567 0.930573
Si Si6 0.865883 0.730327 0.665391
Si Si7 0.967254 0.522411 0.266448
Si Si8 0.401354 0.034154 0.021791
O O1 0.598826 0.384722 0.286480
O O2 0.824622 0.278715 0.515819
O O3 0.436213 0.303410 0.253161
O O4 0.792302 0.458261 0.857115
O O5 0.359454 0.299790 0.719968
O O6 0.748363 0.443600 0.392983
O O7 0.867443 0.293200 0.763299
O O8 0.363872 0.904700 0.034189
O O9 0.014278 0.845035 0.950071
O O10 0.907575 0.806084 0.318561
O O11 0.047196 0.773746 0.691652
O O12 0.800553 0.902656 0.255048
O O13 0.839809 0.811602 0.769905
O O14 0.237226 0.939568 0.353305
O O15 0.918662 0.629153 0.936609
O O16 0.000000 0.500000 0.500000
O O17 0.500000 0.000000 0.000000
#
# Coordination Sequence:
#
# PCOD9017845 Si02
#       8
#     2   2   2   2   2   2   2   2
#     4  10  22  41  65  90 130 181 219 271 334 403
#     4  11  25  46  67 100 137 181 227 278 336 402
#     4  10  21  43  66  98 128 179 221 276 339 406
#     4  11  25  41  68 102 127 183 221 283 342 403
#     4  11  26  44  73  98 142 176 227 283 339 397
#     4  11  21  40  67  89 131 175 226 267 339 401
#     4  11  26  39  63  99 133 176 227 284 329 391
#     4  11  23  41  69  95 137 169 230 274 340 419
#
# _framework density 22.349350000000001
#
# number of rings (size 3 to 8) (size 9 to 14) (size 15 to 20)
#    0.000    1.250    3.750    1.125    5.250    1.500 
#    0.000    0.625    0.000    0.000    0.000    0.000 
#    0.000    0.000    0.000    0.000    0.000    0.000 
#
# Total GULP energy -89205.352320 kJ/mol
# GULP energy per Si atom -5575.334520 kJ/mol
# Density = 2.229848 g / cm^3
# Si number density = 22.349350 Si / 1000 Ang^3
#
#
#
# Elastic Constant Matrix: (Units=GPa)
#
#
# Indices 1 2 3 4 5 6 
#
# 1 72.7684 26.2250 26.1259 -9.8820 -23.3661 -0.3378
# 2 26.2250 177.0348 63.2320 -14.1222 -25.5714 1.1517
# 3 26.1259 63.2320 60.9641 2.0576 -32.3851 0.9035
# 4 -9.8820 -14.1222 2.0576 32.4829 -0.4784 -14.8126
# 5 -23.3661 -25.5714 -32.3851 -0.4784 30.4978 -4.9615
# 6 -0.3378 1.1517 0.9035 -14.8126 -4.9615 34.2829
#
#
#
# Elastic Compliance Matrix: (Units=1/GPa)
#
#
# Indices 1 2 3 4 5 6 
#
# 1 0.020556 0.000415 -0.001032 0.009852 0.016266 0.006826
# 2 0.000415 0.010289 -0.014036 0.006294 -0.005545 0.001945
# 3 -0.001032 -0.014036 0.057621 -0.008221 0.048899 0.002467
# 4 0.009852 0.006294 -0.008221 0.047026 0.008352 0.021629
# 5 0.016266 -0.005545 0.048899 0.008352 0.095336 0.016464
# 6 0.006826 0.001945 0.002467 0.021629 0.016464 0.040834
#
#
# Mechanical properties :
#
#
# Convention : Reuss Voigt Hill
#
# Bulk Modulus (GPa) = 16.90396 60.21478 38.55937
# Shear Modulus (GPa) = 15.59139 32.46501 24.02820
#
# Velocity S-wave (km/s) = 2.64412 3.81545 3.28246
# Velocity P-wave (km/s) = 4.11117 6.81258 5.62641
#
# Compressibility (1/GPa) = 0.05915773
#
# Stress axis : x y z
#
# Youngs Moduli (GPa) = 48.64775 97.19049 17.35481
#
# Poissons Ratio (x) = -0.04029 0.01792
# Poissons Ratio (y) = -0.02017 0.24360
# Poissons Ratio (z) = 0.05022 1.36421
#
# Static dielectric constant tensor:
#      x y z
#    x 2.060650 -0.052420 0.061360 
#    y -0.052420 1.901030 0.006860 
#    z 0.061360 0.006860 1.867490 
# 
# From -- ./inp_files/37589.got.cif
#   From: 2010.05.17/outbox.cif.g08.bks.cpg/sg2_19_cif.got.tgz:37589.got - 2010.06.03 11:33:40.
