data_PCOD9017787
_publ_section_title
;
Structure prediction by ZEFSAII (Michael W. Deem and Ramdas Pophale) SiO2 
 PCOD9017787
Probable space group: P -1
;
_chemical_formula_sum "Si O2"
_cell_formula_units_Z 16
_cell_length_a 5.185878
_cell_length_b 20.193749
_cell_length_c 16.356859
_cell_angle_alpha 25.866940
_cell_angle_beta 76.033432
_cell_angle_gamma 90.287560
_cell_volume 617.331526
_symmetry_space_group_name_H-M "P -1"
_symmetry_group_IT_number 2
_symmetry_cell_setting 'triclinic'
loop_
_space_group_symop_operation_xyz
x,y,z
-x,-y,-z
loop_
_atom_site_type_symbol
_atom_site_label
_atom_site_fract_x
_atom_site_fract_y
_atom_site_fract_z
Si Si1 0.702702 0.745894 0.357752
Si Si2 0.341442 0.143939 0.424445
Si Si3 0.456813 0.547366 0.811287
Si Si4 0.667291 0.824221 0.783722
Si Si5 0.835772 0.288717 0.467750
Si Si6 0.117560 0.101475 0.007073
Si Si7 0.414332 0.935475 0.802252
Si Si8 0.338136 0.558655 0.378540
O O1 0.370735 0.729441 0.416259
O O2 0.846161 0.830638 0.164332
O O3 0.666781 0.554790 0.571824
O O4 0.943153 0.889219 0.245406
O O5 0.460713 0.337739 0.239037
O O6 0.492745 0.168074 0.296794
O O7 0.391471 0.039020 0.609466
O O8 0.975918 0.014247 0.572062
O O9 0.278505 0.612225 0.695245
O O10 0.795543 0.607606 0.681840
O O11 0.271521 0.333767 0.064561
O O12 0.461198 0.788114 0.920261
O O13 0.693987 0.090568 0.661487
O O14 0.457219 0.228046 0.878483
O O15 0.894383 0.136795 0.040512
O O16 0.500000 0.500000 0.500000
O O17 0.000000 0.500000 0.500000
#
# Coordination Sequence:
#
# PCOD9017787 Si02
#       8
#     2   2   2   2   2   2   2   2
#     4   9  20  41  64  92 129 173 212 262 321 374
#     4  10  23  44  61  99 130 168 217 272 331 391
#     4  11  24  43  66  99 131 173 215 268 326 391
#     4  11  23  40  70  92 129 174 215 270 332 396
#     4  10  23  43  66  95 138 170 216 271 322 383
#     4   9  20  40  64  93 126 171 219 261 319 385
#     4  10  21  43  66  94 131 172 218 274 324 384
#     4  10  22  40  60  91 123 161 210 264 309 366
#
# _framework density 25.918002000000001
#
# number of rings (size 3 to 8) (size 9 to 14) (size 15 to 20)
#    0.000    2.000    1.250    0.750    3.500    2.500 
#    6.750    5.625    0.000    0.000    0.000    0.000 
#    0.000    0.000    0.000    0.000    0.000    0.000 
#
# Total GULP energy -89499.325310 kJ/mol
# GULP energy per Si atom -5593.707832 kJ/mol
# Density = 2.585901 g / cm^3
# Si number density = 25.918002 Si / 1000 Ang^3
#
#
#
# Elastic Constant Matrix: (Units=GPa)
#
#
# Indices 1 2 3 4 5 6 
#
# 1 86.3906 34.6657 18.4303 -6.4624 -6.0130 7.1468
# 2 34.6657 176.5570 26.1105 -7.7615 -4.7290 -15.1048
# 3 18.4303 26.1105 87.7175 -26.1610 6.3198 -0.5044
# 4 -6.4624 -7.7615 -26.1610 52.6544 -1.9740 9.6123
# 5 -6.0130 -4.7290 6.3198 -1.9740 44.8208 1.6043
# 6 7.1468 -15.1048 -0.5044 9.6123 1.6043 34.9872
#
#
#
# Elastic Compliance Matrix: (Units=1/GPa)
#
#
# Indices 1 2 3 4 5 6 
#
# 1 0.013643 -0.002669 -0.001877 0.001227 0.002025 -0.004396
# 2 -0.002669 0.006725 -0.001697 -0.000827 0.000424 0.003632
# 3 -0.001877 -0.001697 0.014534 0.007022 -0.002100 -0.001973
# 4 0.001227 -0.000827 0.007022 0.023814 0.000389 -0.007067
# 5 0.002025 0.000424 -0.002100 0.000389 0.022992 -0.001422
# 6 -0.004396 0.003632 -0.001973 -0.007067 -0.001422 0.033026
#
#
# Mechanical properties :
#
#
# Convention : Reuss Voigt Hill
#
# Bulk Modulus (GPa) = 44.61332 56.56424 50.58878
# Shear Modulus (GPa) = 37.12170 44.58972 40.85571
#
# Velocity S-wave (km/s) = 3.78865 4.15229 3.97463
# Velocity P-wave (km/s) = 6.03234 6.69779 6.37375
#
# Compressibility (1/GPa) = 0.02241483
#
# Stress axis : x y z
#
# Youngs Moduli (GPa) = 73.29651 148.70686 68.80379
#
# Poissons Ratio (x) = 0.39690 0.12917
# Poissons Ratio (y) = 0.19563 0.11677
# Poissons Ratio (z) = 0.13761 0.25237
#
# Static dielectric constant tensor:
#      x y z
#    x 2.010160 -0.008960 0.047380 
#    y -0.008960 2.027410 -0.017350 
#    z 0.047380 -0.017350 2.124630 
# 
# From -- ./inp_files/550867.got.cif
#   From: 2010.05.17/outbox.cif.g08.bks.cpg/sg2_276_cif.got.tgz:550867.got - 2010.06.03 11:33:40.
