data_PCOD9017580
_publ_section_title
;
Structure prediction by ZEFSAII (Michael W. Deem and Ramdas Pophale) SiO2 
 PCOD9017580
Probable space group: P -1
;
_chemical_formula_sum "Si O2"
_cell_formula_units_Z 16
_cell_length_a 7.432835
_cell_length_b 12.169051
_cell_length_c 14.403614
_cell_angle_alpha 126.897782
_cell_angle_beta 139.533985
_cell_angle_gamma 71.936524
_cell_volume 648.598016
_symmetry_space_group_name_H-M "P -1"
_symmetry_group_IT_number 2
_symmetry_cell_setting 'triclinic'
loop_
_space_group_symop_operation_xyz
x,y,z
-x,-y,-z
loop_
_atom_site_type_symbol
_atom_site_label
_atom_site_fract_x
_atom_site_fract_y
_atom_site_fract_z
Si Si1 0.433304 0.339614 0.353379
Si Si2 0.928001 0.015833 0.188706
Si Si3 0.766601 0.196747 0.068973
Si Si4 0.122350 0.043293 0.468427
Si Si5 0.515511 0.721120 0.161181
Si Si6 0.370700 0.311235 0.100307
Si Si7 0.095196 0.425598 0.888965
Si Si8 0.412890 0.800506 0.487699
O O1 0.500000 0.500000 0.500000
O O2 0.479596 0.348386 0.265805
O O3 0.604115 0.248235 0.434767
O O4 0.095682 0.264110 0.202700
O O5 0.895569 0.042398 0.298551
O O6 0.251932 0.117803 0.353360
O O7 0.747056 0.066139 0.064117
O O8 0.858258 0.846400 0.064869
O O9 0.635773 0.301441 0.133080
O O10 0.582028 0.169180 0.888792
O O11 0.349338 0.197783 0.651804
O O12 0.267544 0.915693 0.444865
O O13 0.000000 0.000000 0.500000
O O14 0.748756 0.661559 0.166068
O O15 0.233056 0.589050 0.997497
O O16 0.210165 0.405348 0.026058
O O17 0.757770 0.348454 0.703675
#
# Coordination Sequence:
#
# PCOD9017580 Si02
#       8
#     2   2   2   2   2   2   2   2
#     4  11  27  45  67 101 136 181 229 275 342 408
#     4  11  25  42  65  99 137 171 225 278 343 401
#     4  10  24  44  67  98 133 177 224 278 339 401
#     4  12  23  40  67 102 132 174 228 276 338 397
#     4  10  22  39  68  97 135 175 229 276 336 403
#     4  11  24  44  70  96 136 178 226 282 339 401
#     4  10  21  43  64  98 134 181 221 277 340 403
#     4  11  24  43  66  95 139 171 223 282 332 400
#
# _framework density 24.668593000000001
#
# number of rings (size 3 to 8) (size 9 to 14) (size 15 to 20)
#    0.000    1.250    2.500    2.250    5.250    3.500 
#    0.000    1.875    0.000    0.000    0.000    0.000 
#    0.000    0.000    0.000    0.000    0.000    0.000 
#
# Total GULP energy -89477.140409 kJ/mol
# GULP energy per Si atom -5592.321276 kJ/mol
# Density = 2.461245 g / cm^3
# Si number density = 24.668593 Si / 1000 Ang^3
#
#
#
# Elastic Constant Matrix: (Units=GPa)
#
#
# Indices 1 2 3 4 5 6 
#
# 1 46.3937 -7.4091 2.7223 -7.6972 -7.5090 9.8395
# 2 -7.4091 111.8484 32.4705 -21.1779 -11.0790 16.0286
# 3 2.7223 32.4705 132.1768 -2.2189 -19.8827 4.4300
# 4 -7.6972 -21.1779 -2.2189 47.8294 7.8696 -4.4489
# 5 -7.5090 -11.0790 -19.8827 7.8696 42.1592 -4.7766
# 6 9.8395 16.0286 4.4300 -4.4489 -4.7766 24.8979
#
#
#
# Elastic Compliance Matrix: (Units=1/GPa)
#
#
# Indices 1 2 3 4 5 6 
#
# 1 0.026223 0.004881 -0.000754 0.004685 0.003376 -0.011886
# 2 0.004881 0.012280 -0.002609 0.005175 0.000964 -0.008261
# 3 -0.000754 -0.002609 0.008718 -0.001391 0.003651 0.000878
# 4 0.004685 0.005175 -0.001391 0.024292 -0.003132 -0.001196
# 5 0.003376 0.000964 0.003651 -0.003132 0.027112 0.002037
# 6 -0.011886 -0.008261 0.000878 -0.001196 0.002037 0.050200
#
#
# Mechanical properties :
#
#
# Convention : Reuss Voigt Hill
#
# Bulk Modulus (GPa) = 19.89714 38.44292 29.17003
# Shear Modulus (GPa) = 30.76109 40.48634 35.62371
#
# Velocity S-wave (km/s) = 3.53508 4.05558 3.80424
# Velocity P-wave (km/s) = 4.97451 6.12763 5.58093
#
# Compressibility (1/GPa) = 0.05025847
#
# Stress axis : x y z
#
# Youngs Moduli (GPa) = 38.13421 81.42996 114.70013
#
# Poissons Ratio (x) = -0.39746 0.08651
# Poissons Ratio (y) = -0.18613 0.29920
# Poissons Ratio (z) = 0.02876 0.21241
#
# Static dielectric constant tensor:
#      x y z
#    x 2.062040 -0.043730 0.048350 
#    y -0.043730 1.984480 -0.026490 
#    z 0.048350 -0.026490 2.090940 
# 
# From -- ./inp_files/500752.got.cif
#   From: 2010.05.17/outbox.cif.g08.bks.cpg/sg2_251_cif.got.tgz:500752.got - 2010.06.03 11:33:40.
