data_PCOD9017291
_publ_section_title
;
Structure prediction by ZEFSAII (Michael W. Deem and Ramdas Pophale) SiO2 
 PCOD9017291
Probable space group: P -1
;
_chemical_formula_sum "Si O2"
_cell_formula_units_Z 13
_cell_length_a 6.752619
_cell_length_b 5.358045
_cell_length_c 18.482944
_cell_angle_alpha 83.954170
_cell_angle_beta 103.089874
_cell_angle_gamma 72.139263
_cell_volume 608.841977
_symmetry_space_group_name_H-M "P -1"
_symmetry_group_IT_number 2
_symmetry_cell_setting 'triclinic'
loop_
_space_group_symop_operation_xyz
x,y,z
-x,-y,-z
loop_
_atom_site_type_symbol
_atom_site_label
_atom_site_fract_x
_atom_site_fract_y
_atom_site_fract_z
Si Si1 0.968428 0.616384 0.379902
Si Si2 0.500000 0.000000 0.500000
Si Si3 0.982700 0.727075 0.095312
Si Si4 0.754450 0.338365 0.030863
Si Si5 0.809328 0.279161 0.470226
Si Si6 0.263068 0.581836 0.267079
Si Si7 0.504553 0.030165 0.664906
O O1 0.851944 0.403460 0.395592
O O2 0.756682 0.878612 0.359198
O O3 0.141929 0.558725 0.462429
O O4 0.093125 0.610759 0.317544
O O5 0.592814 0.220846 0.464910
O O6 0.572773 0.057979 0.586456
O O7 0.130306 0.669881 0.179948
O O8 0.859843 0.513736 0.082984
O O9 0.135180 0.687589 0.038378
O O10 0.818293 0.033092 0.072748
O O11 0.500000 0.500000 0.000000
O O12 0.000000 0.000000 0.500000
O O13 0.405131 0.769552 0.289152
O O14 0.398884 0.267542 0.287736
#
# Coordination Sequence:
#
# PCOD9017291 Si02
#       7
#     2   1   2   2   2   2   2
#     4  11  26  41  63  92 128 171 231 281 351 401
#     4  12  22  42  66  90 124 172 240 292 334 394
#     4  10  23  42  67 102 141 172 219 268 328 404
#     4  10  21  42  73 104 132 178 219 261 323 403
#     4  11  22  41  63  90 122 169 229 299 338 404
#     4  12  27  45  64  99 140 177 218 287 343 398
#     4  12  27  41  66  94 128 178 233 280 347 399
#
# _framework density 21.352011000000001
#
# number of rings (size 3 to 8) (size 9 to 14) (size 15 to 20)
#    0.000    0.923    3.077    3.231    2.154    3.692 
#    0.000    0.000    0.000    0.000    0.000    0.000 
#    0.000    0.000    0.000    0.000    0.000    0.000 
#
# Total GULP energy -72432.927039 kJ/mol
# GULP energy per Si atom -5571.763618 kJ/mol
# Density = 2.130341 g / cm^3
# Si number density = 21.352011 Si / 1000 Ang^3
#
#
#
# Elastic Constant Matrix: (Units=GPa)
#
#
# Indices 1 2 3 4 5 6 
#
# 1 91.6647 49.5001 14.6523 2.4543 21.6326 6.9349
# 2 49.5001 142.6931 33.8238 -8.5558 18.3579 8.8418
# 3 14.6523 33.8238 107.1598 6.9718 26.8197 8.8842
# 4 2.4543 -8.5558 6.9718 33.0644 4.4893 17.5948
# 5 21.6326 18.3579 26.8197 4.4893 25.6394 -2.7429
# 6 6.9349 8.8418 8.8842 17.5948 -2.7429 46.1200
#
#
#
# Elastic Compliance Matrix: (Units=1/GPa)
#
#
# Indices 1 2 3 4 5 6 
#
# 1 0.016353 -0.004271 0.002914 0.000790 -0.014285 -0.003352
# 2 -0.004271 0.009783 -0.001943 0.005208 -0.002602 -0.003001
# 3 0.002914 -0.001943 0.013861 0.000639 -0.016099 -0.003937
# 4 0.000790 0.005208 0.000639 0.043299 -0.014639 -0.018630
# 5 -0.014285 -0.002602 -0.016099 -0.014639 0.074005 0.015734
# 6 -0.003352 -0.003001 -0.003937 -0.018630 0.015734 0.031563
#
#
# Mechanical properties :
#
#
# Convention : Reuss Voigt Hill
#
# Bulk Modulus (GPa) = 29.94238 59.71888 44.83063
# Shear Modulus (GPa) = 24.20169 37.20086 30.70128
#
# Velocity S-wave (km/s) = 3.37035 4.17857 3.79603
# Velocity P-wave (km/s) = 5.40364 7.16311 6.34466
#
# Compressibility (1/GPa) = 0.03339748
#
# Stress axis : x y z
#
# Youngs Moduli (GPa) = 61.14901 102.21725 72.14610
#
# Poissons Ratio (x) = 0.43655 -0.21021
# Poissons Ratio (y) = 0.26115 0.14016
# Poissons Ratio (z) = -0.17817 0.19859
#
# Static dielectric constant tensor:
#      x y z
#    x 1.787370 -0.170710 0.035800 
#    y -0.170710 3.169750 -0.067790 
#    z 0.035800 -0.067790 1.789000 
# 
# From -- ./inp_files/7105.got.cif
#   From: 2010.05.17/outbox.cif.g08.bks.cpg/sg2_4_cif.got.tgz:7105.got - 2010.06.03 11:33:40.
