data_PCOD9017438
_publ_section_title
;
Structure prediction by ZEFSAII (Michael W. Deem and Ramdas Pophale) SiO2 
 PCOD9017438
Probable space group: P -1
;
_chemical_formula_sum "Si O2"
_cell_formula_units_Z 14
_cell_length_a 6.994577
_cell_length_b 22.227650
_cell_length_c 11.310644
_cell_angle_alpha 26.455684
_cell_angle_beta 137.259072
_cell_angle_gamma 128.660326
_cell_volume 528.554695
_symmetry_space_group_name_H-M "P -1"
_symmetry_group_IT_number 2
_symmetry_cell_setting 'triclinic'
loop_
_space_group_symop_operation_xyz
x,y,z
-x,-y,-z
loop_
_atom_site_type_symbol
_atom_site_label
_atom_site_fract_x
_atom_site_fract_y
_atom_site_fract_z
Si Si1 0.278734 0.304113 0.647574
Si Si2 0.292843 0.304802 0.372384
Si Si3 0.221441 0.555221 0.671246
Si Si4 0.607177 0.081588 0.758258
Si Si5 0.766511 0.994069 0.748853
Si Si6 0.896083 0.318920 0.858979
Si Si7 0.997159 0.899607 0.537660
O O1 0.248368 0.291081 0.515282
O O2 0.583207 0.361114 0.697932
O O3 0.010810 0.389934 0.432987
O O4 0.296881 0.154752 0.977360
O O5 0.434610 0.443868 0.171702
O O6 0.548765 0.212803 0.582324
O O7 0.033046 0.241107 0.303433
O O8 0.132466 0.647920 0.350526
O O9 0.138227 0.405793 0.863742
O O10 0.314249 0.017702 0.756771
O O11 0.621613 0.100739 0.590166
O O12 0.898134 0.003583 0.069562
O O13 0.770052 0.026879 0.553953
O O14 0.957842 0.162051 0.203304
#
# Coordination Sequence:
#
# PCOD9017438 Si02
#       7
#     2   2   2   2   2   2   2
#     4  11  21  37  61  88 110 156 199 228 279 353
#     4   9  20  36  62  88 111 145 197 234 286 336
#     4  10  21  43  63  80 110 159 196 243 277 343
#     4   9  20  35  58  89 118 149 186 234 283 347
#     4  11  20  33  61  88 119 153 186 228 291 343
#     4  10  24  41  59  82 118 153 198 234 292 331
#     4  10  22  37  56  91 121 147 185 243 285 343
#
# _framework density 26.487324999999998
#
# number of rings (size 3 to 8) (size 9 to 14) (size 15 to 20)
#    0.857    1.143    1.429    2.571    2.000    2.286 
#    0.000    2.143    0.000    0.000    0.000    0.000 
#    0.000    0.000    0.000    0.000    0.000    0.000 
#
# Total GULP energy -78131.332999 kJ/mol
# GULP energy per Si atom -5580.809500 kJ/mol
# Density = 2.642704 g / cm^3
# Si number density = 26.487325 Si / 1000 Ang^3
#
#
#
# Elastic Constant Matrix: (Units=GPa)
#
#
# Indices 1 2 3 4 5 6 
#
# 1 193.5866 28.4492 45.2355 -5.0370 -19.2015 0.6467
# 2 28.4492 102.9890 -5.5531 -19.5641 0.1560 15.6898
# 3 45.2355 -5.5531 76.7065 3.1218 -21.4129 -4.9866
# 4 -5.0370 -19.5641 3.1218 19.6299 11.7948 -7.9325
# 5 -19.2015 0.1560 -21.4129 11.7948 50.4319 -0.2956
# 6 0.6467 15.6898 -4.9866 -7.9325 -0.2956 51.0566
#
#
#
# Elastic Compliance Matrix: (Units=1/GPa)
#
#
# Indices 1 2 3 4 5 6 
#
# 1 0.006403 -0.002058 -0.003623 -0.000370 0.000993 0.000146
# 2 -0.002058 0.013313 0.000342 0.014387 -0.004055 -0.001820
# 3 -0.003623 0.000342 0.017812 -0.008084 0.008076 0.000471
# 4 -0.000370 0.014387 -0.008084 0.083422 -0.023083 0.007621
# 5 0.000993 -0.004055 0.008076 -0.023083 0.029039 -0.001396
# 6 0.000146 -0.001820 0.000471 0.007621 -0.001396 0.021366
#
#
# Mechanical properties :
#
#
# Convention : Reuss Voigt Hill
#
# Bulk Modulus (GPa) = 37.24541 56.61614 46.93078
# Shear Modulus (GPa) = 26.18017 44.56703 35.37360
#
# Velocity S-wave (km/s) = 3.14730 4.10638 3.65840
# Velocity P-wave (km/s) = 5.22489 6.62603 5.96673
#
# Compressibility (1/GPa) = 0.02684894
#
# Stress axis : x y z
#
# Youngs Moduli (GPa) = 156.17266 75.11365 56.14148
#
# Poissons Ratio (x) = 0.15459 0.20342
# Poissons Ratio (y) = 0.32142 -0.01918
# Poissons Ratio (z) = 0.56586 -0.02566
#
# Static dielectric constant tensor:
#      x y z
#    x 2.019320 -0.015150 -0.059480 
#    y -0.015150 2.246520 0.077410 
#    z -0.059480 0.077410 2.182030 
# 
# From -- ./inp_files/371023.got.cif
#   From: 2010.05.17/outbox.cif.g08.bks.cpg/sg2_186_cif.got.tgz:371023.got - 2010.06.03 11:33:40.
