data_PCOD9017618
_publ_section_title
;
Structure prediction by ZEFSAII (Michael W. Deem and Ramdas Pophale) SiO2 
 PCOD9017618
Probable space group: P -1
;
_chemical_formula_sum "Si O2"
_cell_formula_units_Z 16
_cell_length_a 10.532040
_cell_length_b 11.540180
_cell_length_c 13.762975
_cell_angle_alpha 30.370751
_cell_angle_beta 112.682651
_cell_angle_gamma 92.646252
_cell_volume 615.769559
_symmetry_space_group_name_H-M "P -1"
_symmetry_group_IT_number 2
_symmetry_cell_setting 'triclinic'
loop_
_space_group_symop_operation_xyz
x,y,z
-x,-y,-z
loop_
_atom_site_type_symbol
_atom_site_label
_atom_site_fract_x
_atom_site_fract_y
_atom_site_fract_z
Si Si1 0.841248 0.848269 0.602520
Si Si2 0.544105 0.742718 0.771834
Si Si3 0.337914 0.933218 0.124061
Si Si4 0.574943 0.697250 0.039105
Si Si5 0.964315 0.323065 0.687599
Si Si6 0.137949 0.689807 0.950819
Si Si7 0.619293 0.439914 0.427384
Si Si8 0.161776 0.151209 0.608256
O O1 0.915142 0.836510 0.528240
O O2 0.966206 0.798413 0.761184
O O3 0.650487 0.151350 0.343083
O O4 0.825318 0.585358 0.782540
O O5 0.500000 0.000000 0.500000
O O6 0.612996 0.694269 0.938337
O O7 0.695848 0.458918 0.964477
O O8 0.471467 0.752779 0.206330
O O9 0.408448 0.759816 0.372235
O O10 0.317723 0.221069 0.929821
O O11 0.150171 0.018489 0.983152
O O12 0.603164 0.450318 0.298689
O O13 0.369959 0.961744 0.798648
O O14 0.808785 0.335000 0.589834
O O15 0.903562 0.531992 0.611594
O O16 0.000000 0.500000 0.500000
O O17 0.121710 0.960011 0.796723
#
# Coordination Sequence:
#
# PCOD9017618 Si02
#       8
#     2   2   2   2   2   2   2   2
#     4   9  21  41  63  93 128 167 220 272 324 394
#     4   9  21  41  67  97 134 171 220 276 333 397
#     4  11  24  44  70  96 139 181 225 283 337 399
#     4  11  22  42  68 101 136 175 223 281 335 404
#     4  12  24  45  68  98 141 173 223 283 336 406
#     4  10  21  43  65  90 128 174 213 275 332 390
#     4  11  24  46  69 100 135 183 229 277 340 401
#     4  11  24  41  65  95 132 172 217 271 338 393
#
# _framework density 25.983744999999999
#
# number of rings (size 3 to 8) (size 9 to 14) (size 15 to 20)
#    0.000    1.500    2.500    1.875    1.750    5.000 
#    6.750    1.250    0.000    0.000    0.000    0.000 
#    0.000    0.000    0.000    0.000    0.000    0.000 
#
# Total GULP energy -89390.327402 kJ/mol
# GULP energy per Si atom -5586.895463 kJ/mol
# Density = 2.592461 g / cm^3
# Si number density = 25.983745 Si / 1000 Ang^3
#
#
#
# Elastic Constant Matrix: (Units=GPa)
#
#
# Indices 1 2 3 4 5 6 
#
# 1 83.3437 24.0640 24.8289 7.1756 0.9055 -3.6370
# 2 24.0640 80.5185 24.1933 22.7755 -5.9213 -14.9951
# 3 24.8289 24.1933 79.8748 22.3612 -3.8700 -15.6734
# 4 7.1756 22.7755 22.3612 28.5293 1.9348 -8.2123
# 5 0.9055 -5.9213 -3.8700 1.9348 63.1120 12.1853
# 6 -3.6370 -14.9951 -15.6734 -8.2123 12.1853 37.9990
#
#
#
# Elastic Compliance Matrix: (Units=1/GPa)
#
#
# Indices 1 2 3 4 5 6 
#
# 1 0.014121 -0.003967 -0.004176 0.002604 -0.000688 -0.001153
# 2 -0.003967 0.017856 0.000056 -0.012374 0.001428 0.003558
# 3 -0.004176 0.000056 0.018010 -0.011938 0.000717 0.004241
# 4 0.002604 -0.012374 -0.011938 0.054996 -0.004334 0.003718
# 5 -0.000688 0.001428 0.000717 -0.004334 0.017262 -0.005679
# 6 -0.001153 0.003558 0.004241 0.003718 -0.005679 0.031984
#
#
# Mechanical properties :
#
#
# Convention : Reuss Voigt Hill
#
# Bulk Modulus (GPa) = 29.57538 43.32328 36.44933
# Shear Modulus (GPa) = 27.52177 37.30478 32.41328
#
# Velocity S-wave (km/s) = 3.25805 3.79317 3.53575
# Velocity P-wave (km/s) = 5.05571 5.99113 5.54318
#
# Compressibility (1/GPa) = 0.03381190
#
# Stress axis : x y z
#
# Youngs Moduli (GPa) = 70.81580 56.00409 55.52509
#
# Poissons Ratio (x) = 0.22218 0.23189
# Poissons Ratio (y) = 0.28094 -0.00312
# Poissons Ratio (z) = 0.29575 -0.00314
#
# Static dielectric constant tensor:
#      x y z
#    x 2.050720 -0.055260 -0.013040 
#    y -0.055260 2.175900 -0.111900 
#    z -0.013040 -0.111900 2.111840 
# 
# From -- ./inp_files/519505.got.cif
#   From: 2010.05.17/outbox.cif.g08.bks.cpg/sg2_260_cif.got.tgz:519505.got - 2010.06.03 11:33:40.
