data_PCOD9017118
_publ_section_title
;
Structure prediction by ZEFSAII (Michael W. Deem and Ramdas Pophale) SiO2 
 PCOD9017118
Probable space group: P -1
;
_chemical_formula_sum "Si O2"
_cell_formula_units_Z 16
_cell_length_a 5.248313
_cell_length_b 22.005927
_cell_length_c 5.618256
_cell_angle_alpha 71.517132
_cell_angle_beta 94.647987
_cell_angle_gamma 89.793553
_cell_volume 613.086465
_symmetry_space_group_name_H-M "P -1"
_symmetry_group_IT_number 2
_symmetry_cell_setting 'triclinic'
loop_
_space_group_symop_operation_xyz
x,y,z
-x,-y,-z
loop_
_atom_site_type_symbol
_atom_site_label
_atom_site_fract_x
_atom_site_fract_y
_atom_site_fract_z
Si Si1 0.000535 0.040469 0.203221
Si Si2 0.285945 0.279273 0.005844
Si Si3 0.983412 0.633261 0.735804
Si Si4 0.644304 0.812902 0.474852
Si Si5 0.140248 0.753295 0.367866
Si Si6 0.277953 0.514244 0.775604
Si Si7 0.480019 0.074160 0.981176
Si Si8 0.571288 0.604161 0.352640
O O1 0.254625 0.080395 0.147565
O O2 0.751008 0.086373 0.105815
O O3 0.000000 0.000000 0.500000
O O4 0.000000 0.000000 0.000000
O O5 0.125842 0.328719 0.098248
O O6 0.405746 0.220285 0.236187
O O7 0.497042 0.329166 0.866240
O O8 0.063310 0.253938 0.851018
O O9 0.748076 0.627878 0.546409
O O10 0.177149 0.682406 0.571368
O O11 0.085513 0.560643 0.850894
O O12 0.422361 0.781010 0.331717
O O13 0.945087 0.795952 0.469326
O O14 0.590714 0.885959 0.308802
O O15 0.355916 0.561177 0.504668
O O16 0.255545 0.446249 0.728412
O O17 0.500000 0.500000 0.000000
O O18 0.500000 0.000000 0.000000
#
# Coordination Sequence:
#
# PCOD9017118 Si02
#       8
#     2   2   2   2   2   2   2   2
#     4  10  21  42  71 107 151 194 243 290 371 443
#     4  10  24  46  71  95 137 191 238 299 358 428
#     4  10  23  42  64  88 133 176 228 291 354 424
#     4  11  24  49  70 107 147 186 247 295 368 433
#     4  10  25  43  71 102 140 191 242 298 351 437
#     4  11  24  38  65  97 133 172 224 296 365 428
#     4  10  22  44  74 109 148 189 239 305 369 449
#     4  10  23  42  61  98 129 175 231 287 363 432
#
# _framework density 26.097465
#
# number of rings (size 3 to 8) (size 9 to 14) (size 15 to 20)
#    0.000    1.750    0.000    2.250    7.000    8.000 
#   15.750    0.000    0.000    0.000    0.000    0.000 
#    0.000    0.000    0.000    0.000    0.000    0.000 
#
# Total GULP energy -89359.936453 kJ/mol
# GULP energy per Si atom -5584.996028 kJ/mol
# Density = 2.603807 g / cm^3
# Si number density = 26.097465 Si / 1000 Ang^3
#
#
#
# Elastic Constant Matrix: (Units=GPa)
#
#
# Indices 1 2 3 4 5 6 
#
# 1 124.4815 -3.1309 15.4723 -9.4379 10.4731 -4.5402
# 2 -3.1309 75.6727 29.3611 -35.0581 -2.7671 5.1378
# 3 15.4723 29.3611 155.6639 -41.1117 5.3802 -2.6282
# 4 -9.4379 -35.0581 -41.1117 59.8433 -4.8098 7.7964
# 5 10.4731 -2.7671 5.3802 -4.8098 35.4524 -6.9171
# 6 -4.5402 5.1378 -2.6282 7.7964 -6.9171 20.3148
#
#
#
# Elastic Compliance Matrix: (Units=1/GPa)
#
#
# Indices 1 2 3 4 5 6 
#
# 1 0.008425 0.001121 -0.000613 0.001360 -0.002066 0.000295
# 2 0.001121 0.020172 -0.000733 0.012821 0.001252 -0.009440
# 3 -0.000613 -0.000733 0.007954 0.005028 -0.000608 -0.001059
# 4 0.001360 0.012821 0.005028 0.029720 0.001281 -0.013258
# 5 -0.002066 0.001252 -0.000608 0.001281 0.030976 0.009198
# 6 0.000295 -0.009440 -0.001059 -0.013258 0.009198 0.059762
#
#
# Mechanical properties :
#
#
# Convention : Reuss Voigt Hill
#
# Bulk Modulus (GPa) = 27.69981 48.80255 38.25118
# Shear Modulus (GPa) = 29.49965 44.06313 36.78139
#
# Velocity S-wave (km/s) = 3.36574 4.11348 3.75825
# Velocity P-wave (km/s) = 5.07359 6.42664 5.78977
#
# Compressibility (1/GPa) = 0.03610133
#
# Stress axis : x y z
#
# Youngs Moduli (GPa) = 118.68814 49.57316 125.71957
#
# Poissons Ratio (x) = -0.05556 0.07712
# Poissons Ratio (y) = -0.13303 0.09212
# Poissons Ratio (z) = 0.07280 0.03632
#
# Static dielectric constant tensor:
#      x y z
#    x 2.256180 -0.120060 -0.104990 
#    y -0.120060 2.137880 0.000680 
#    z -0.104990 0.000680 2.109570 
# 
# From -- ./inp_files/11194.got.cif
#   From: 2010.05.17/outbox.cif.g08.bks.cpg/sg2_6_cif.got.tgz:11194.got - 2010.06.03 11:33:40.
