data_PCOD9017227
_publ_section_title
;
Structure prediction by ZEFSAII (Michael W. Deem and Ramdas Pophale) SiO2 
 PCOD9017227
Probable space group: P -1
;
_chemical_formula_sum "Si O2"
_cell_formula_units_Z 16
_cell_length_a 13.094669
_cell_length_b 7.844186
_cell_length_c 12.697654
_cell_angle_alpha 116.873882
_cell_angle_beta 48.757087
_cell_angle_gamma 85.597028
_cell_volume 725.489278
_symmetry_space_group_name_H-M "P -1"
_symmetry_group_IT_number 2
_symmetry_cell_setting 'triclinic'
loop_
_space_group_symop_operation_xyz
x,y,z
-x,-y,-z
loop_
_atom_site_type_symbol
_atom_site_label
_atom_site_fract_x
_atom_site_fract_y
_atom_site_fract_z
Si Si1 0.712294 0.501166 0.915359
Si Si2 0.374236 0.845386 0.873031
Si Si3 0.936087 0.880929 0.087530
Si Si4 0.319322 0.099598 0.609884
Si Si5 0.709449 0.765041 0.563334
Si Si6 0.246683 0.546906 0.884342
Si Si7 0.620187 0.150571 0.880719
Si Si8 0.056874 0.352213 0.182853
O O1 0.714903 0.274038 0.827585
O O2 0.874101 0.497186 0.785321
O O3 0.687284 0.546008 0.070382
O O4 0.555977 0.704081 0.016383
O O5 0.531201 0.806165 0.696601
O O6 0.349172 0.646012 0.800236
O O7 0.408586 0.830716 0.970149
O O8 0.201142 0.092674 0.047136
O O9 0.759592 0.009026 0.298182
O O10 0.940036 0.692524 0.956448
O O11 0.060899 0.768248 0.068422
O O12 0.000000 0.000000 0.000000
O O13 0.291097 0.105076 0.505987
O O14 0.242561 0.364868 0.765318
O O15 0.500000 0.000000 0.500000
O O16 0.865498 0.499934 0.384843
O O17 0.713962 0.896931 0.699042
#
# Coordination Sequence:
#
# PCOD9017227 Si02
#       8
#     2   2   2   2   2   2   2   2
#     4  10  21  42  72  92 127 184 227 273 344 404
#     4  11  25  45  69  98 140 183 229 285 340 398
#     4  12  24  44  69 101 140 179 225 278 346 420
#     4  12  25  41  69 101 140 181 225 283 343 411
#     4  12  25  41  69 103 138 178 233 283 339 410
#     4  11  22  42  71  95 135 183 222 270 349 406
#     4  10  23  45  68  96 134 183 230 286 337 404
#     4  12  23  42  70  98 134 177 225 281 346 405
#
# _framework density 22.054084
#
# number of rings (size 3 to 8) (size 9 to 14) (size 15 to 20)
#    0.000    0.750    5.000    3.000    0.000    2.500 
#    0.000    0.000    0.000    0.000    0.000    0.000 
#    0.000    0.000    0.000    0.000    0.000    0.000 
#
# Total GULP energy -89254.823734 kJ/mol
# GULP energy per Si atom -5578.426483 kJ/mol
# Density = 2.200389 g / cm^3
# Si number density = 22.054084 Si / 1000 Ang^3
#
#
#
# Elastic Constant Matrix: (Units=GPa)
#
#
# Indices 1 2 3 4 5 6 
#
# 1 105.9053 23.2860 10.5537 -9.7571 -12.6262 -13.7522
# 2 23.2860 66.2643 28.2946 -15.3736 -19.5428 -4.6481
# 3 10.5537 28.2946 62.0444 -13.1917 -21.1852 -2.9739
# 4 -9.7571 -15.3736 -13.1917 23.6727 0.2724 -4.8734
# 5 -12.6262 -19.5428 -21.1852 0.2724 35.2522 4.8311
# 6 -13.7522 -4.6481 -2.9739 -4.8734 4.8311 46.1323
#
#
#
# Elastic Compliance Matrix: (Units=1/GPa)
#
#
# Indices 1 2 3 4 5 6 
#
# 1 0.011003 -0.002287 0.001274 0.004402 0.002954 0.003287
# 2 -0.002287 0.023422 -0.004558 0.011973 0.009101 0.001696
# 3 0.001274 -0.004558 0.024777 0.011521 0.012536 0.001422
# 4 0.004402 0.011973 0.011521 0.059776 0.013558 0.008156
# 5 0.002954 0.009101 0.012536 0.013558 0.041948 -0.000355
# 6 0.003287 0.001696 0.001422 0.008156 -0.000355 0.023818
#
#
# Mechanical properties :
#
#
# Convention : Reuss Voigt Hill
#
# Bulk Modulus (GPa) = 20.80761 39.83141 30.31951
# Shear Modulus (GPa) = 23.59532 32.48341 28.03937
#
# Velocity S-wave (km/s) = 3.27446 3.84200 3.56953
# Velocity P-wave (km/s) = 4.87354 6.14665 5.54674
#
# Compressibility (1/GPa) = 0.04805934
#
# Stress axis : x y z
#
# Youngs Moduli (GPa) = 90.88417 42.69528 40.35934
#
# Poissons Ratio (x) = 0.09766 -0.05140
# Poissons Ratio (y) = 0.20789 0.18394
# Poissons Ratio (z) = -0.11575 0.19459
#
# Static dielectric constant tensor:
#      x y z
#    x 1.828100 -0.014530 -0.075390 
#    y -0.014530 1.912960 0.035040 
#    z -0.075390 0.035040 1.884440 
# 
# From -- ./inp_files/262500.got.cif
#   From: 2010.05.17/outbox.cif.g08.bks.cpg/sg2_132_cif.got.tgz:262500.got - 2010.06.03 11:33:40.
