data_PCOD9017688
_publ_section_title
;
Structure prediction by ZEFSAII (Michael W. Deem and Ramdas Pophale) SiO2 
 PCOD9017688
Probable space group: P -1
;
_chemical_formula_sum "Si O2"
_cell_formula_units_Z 16
_cell_length_a 11.520579
_cell_length_b 15.207704
_cell_length_c 8.721874
_cell_angle_alpha 130.393777
_cell_angle_beta 108.528856
_cell_angle_gamma 109.859066
_cell_volume 722.811682
_symmetry_space_group_name_H-M "P -1"
_symmetry_group_IT_number 2
_symmetry_cell_setting 'triclinic'
loop_
_space_group_symop_operation_xyz
x,y,z
-x,-y,-z
loop_
_atom_site_type_symbol
_atom_site_label
_atom_site_fract_x
_atom_site_fract_y
_atom_site_fract_z
Si Si1 0.331054 0.296558 0.647180
Si Si2 0.531882 0.819449 0.230231
Si Si3 0.537718 0.454125 0.614626
Si Si4 0.090694 0.542062 0.750929
Si Si5 0.500195 0.194330 0.148992
Si Si6 0.083558 0.177739 0.665854
Si Si7 0.828208 0.204054 0.709760
Si Si8 0.230968 0.811543 0.663818
O O1 0.383807 0.212010 0.651773
O O2 0.360407 0.321028 0.504842
O O3 0.136630 0.196179 0.530100
O O4 0.500000 0.500000 0.000000
O O5 0.656015 0.023165 0.521869
O O6 0.311776 0.679140 0.002282
O O7 0.548278 0.795041 0.029553
O O8 0.500000 0.500000 0.500000
O O9 0.575533 0.350246 0.460266
O O10 0.716861 0.641832 0.977492
O O11 0.000000 0.500000 0.500000
O O12 0.980656 0.355100 0.562876
O O13 0.059886 0.630385 0.947769
O O14 0.647969 0.194956 0.198039
O O15 0.321374 0.001885 0.928676
O O16 0.949045 0.185838 0.668803
O O17 0.000000 0.000000 0.500000
O O18 0.752118 0.212405 0.534949
#
# Coordination Sequence:
#
# PCOD9017688 Si02
#       8
#     2   2   2   2   2   2   2   2
#     4  10  23  42  67  97 128 181 230 281 336 411
#     4  11  23  43  70  95 142 181 227 280 351 412
#     4  11  25  43  72  99 136 181 229 286 359 403
#     4  12  25  42  65 106 138 172 233 287 340 410
#     4  10  21  43  65  98 137 185 219 286 345 416
#     4  11  23  46  69  97 136 180 241 282 333 413
#     4  11  25  43  70  96 139 191 222 283 351 415
#     4  10  23  40  65  97 139 180 226 273 350 409
#
# _framework density 22.135781000000001
#
# number of rings (size 3 to 8) (size 9 to 14) (size 15 to 20)
#    0.000    1.250    2.500    3.000    7.000    1.000 
#    0.000    0.625    0.000    0.000    0.000    0.000 
#    0.000    0.000    0.000    0.000    0.000    0.000 
#
# Total GULP energy -89378.019016 kJ/mol
# GULP energy per Si atom -5586.126188 kJ/mol
# Density = 2.208540 g / cm^3
# Si number density = 22.135781 Si / 1000 Ang^3
#
#
#
# Elastic Constant Matrix: (Units=GPa)
#
#
# Indices 1 2 3 4 5 6 
#
# 1 102.3991 41.2522 25.0218 13.2238 10.8925 9.0865
# 2 41.2522 148.6449 40.2325 19.8151 2.8980 9.8407
# 3 25.0218 40.2325 89.1091 19.4530 -0.7700 3.7080
# 4 13.2238 19.8151 19.4530 46.1315 7.1487 9.4480
# 5 10.8925 2.8980 -0.7700 7.1487 35.6684 6.5860
# 6 9.0865 9.8407 3.7080 9.4480 6.5860 24.9050
#
#
#
# Elastic Compliance Matrix: (Units=1/GPa)
#
#
# Indices 1 2 3 4 5 6 
#
# 1 0.011824 -0.002463 -0.002017 -0.000607 -0.002958 -0.002028
# 2 -0.002463 0.008445 -0.002712 -0.001543 0.000614 -0.001612
# 3 -0.002017 -0.002712 0.014005 -0.004658 0.001889 0.000990
# 4 -0.000607 -0.001543 -0.004658 0.026609 -0.003722 -0.007585
# 5 -0.002958 0.000614 0.001889 -0.003722 0.030818 -0.006182
# 6 -0.002028 -0.001612 0.000990 -0.007585 -0.006182 0.045894
#
#
# Mechanical properties :
#
#
# Convention : Reuss Voigt Hill
#
# Bulk Modulus (GPa) = 50.27469 61.46290 55.86880
# Shear Modulus (GPa) = 31.52413 36.91741 34.22077
#
# Velocity S-wave (km/s) = 3.77785 4.08827 3.93612
# Velocity P-wave (km/s) = 6.46458 7.07897 6.77874
#
# Compressibility (1/GPa) = 0.01989072
#
# Stress axis : x y z
#
# Youngs Moduli (GPa) = 84.57646 118.40747 71.40213
#
# Poissons Ratio (x) = 0.29158 0.14401
# Poissons Ratio (y) = 0.20827 0.19367
# Poissons Ratio (z) = 0.17058 0.32117
#
# Static dielectric constant tensor:
#      x y z
#    x 1.902970 -0.004920 -0.008980 
#    y -0.004920 1.887850 0.002020 
#    z -0.008980 0.002020 1.829930 
# 
# From -- ./inp_files/206776.got.cif
#   From: 2010.05.17/outbox.cif.g08.bks.cpg/sg2_104_cif.got.tgz:206776.got - 2010.06.03 11:33:40.
