data_PCOD9017916
_publ_section_title
;
Structure prediction by ZEFSAII (Michael W. Deem and Ramdas Pophale) SiO2 
 PCOD9017916
Probable space group: P -1
;
_chemical_formula_sum "Si O2"
_cell_formula_units_Z 12
_cell_length_a 10.612448
_cell_length_b 16.148471
_cell_length_c 5.472896
_cell_angle_alpha 94.491389
_cell_angle_beta 88.735487
_cell_angle_gamma 147.018582
_cell_volume 507.355951
_symmetry_space_group_name_H-M "P -1"
_symmetry_group_IT_number 2
_symmetry_cell_setting 'triclinic'
loop_
_space_group_symop_operation_xyz
x,y,z
-x,-y,-z
loop_
_atom_site_type_symbol
_atom_site_label
_atom_site_fract_x
_atom_site_fract_y
_atom_site_fract_z
Si Si1 0.218330 0.344256 0.467368
Si Si2 0.256609 0.640640 0.631970
Si Si3 0.819107 0.229310 0.466938
Si Si4 0.480026 0.065456 0.834231
Si Si5 0.512190 0.267192 0.871695
Si Si6 0.278758 0.313635 0.956563
O O1 0.500000 0.500000 0.500000
O O2 0.092204 0.363507 0.457450
O O3 0.500000 0.500000 0.000000
O O4 0.156149 0.260089 0.206894
O O5 0.284515 0.755749 0.695292
O O6 0.298138 0.621504 0.888369
O O7 0.000000 0.500000 0.500000
O O8 0.411806 0.695647 0.408648
O O9 0.140363 0.263693 0.710291
O O10 0.733948 0.212197 0.730481
O O11 0.401405 0.115724 0.900367
O O12 0.301138 0.925730 0.613648
O O13 0.500000 0.000000 0.000000
O O14 0.360478 0.265049 0.910812
#
# Coordination Sequence:
#
# PCOD9017916 Si02
#       6
#     2   2   2   2   2   2
#     4  10  23  41  63  92 128 171 209 255 315 390
#     4  11  24  36  64  98 130 158 208 280 327 378
#     4  10  23  40  67  98 126 171 214 262 333 376
#     4  10  21  43  67  93 128 168 215 276 315 374
#     4  11  23  42  62  94 128 167 217 260 324 379
#     4  10  23  39  62  86 129 173 205 253 313 384
#
# _framework density 23.652035000000001
#
# number of rings (size 3 to 8) (size 9 to 14) (size 15 to 20)
#    0.000    1.667    1.667    1.500   11.667    0.000 
#    0.000    1.667    0.000    0.000    0.000    0.000 
#    0.000    0.000    0.000    0.000    0.000    0.000 
#
# Total GULP energy -66889.252340 kJ/mol
# GULP energy per Si atom -5574.104362 kJ/mol
# Density = 2.359820 g / cm^3
# Si number density = 23.652035 Si / 1000 Ang^3
#
#
#
# Elastic Constant Matrix: (Units=GPa)
#
#
# Indices 1 2 3 4 5 6 
#
# 1 166.0185 6.7093 53.7110 -7.4118 -7.8284 -6.6654
# 2 6.7093 40.0670 -1.9048 0.8801 -7.3518 -10.5946
# 3 53.7110 -1.9048 132.6433 18.4261 -4.1877 1.3448
# 4 -7.4118 0.8801 18.4261 13.4661 -2.2170 -4.6362
# 5 -7.8284 -7.3518 -4.1877 -2.2170 38.3044 0.7654
# 6 -6.6654 -10.5946 1.3448 -4.6362 0.7654 43.0407
#
#
#
# Elastic Compliance Matrix: (Units=1/GPa)
#
#
# Indices 1 2 3 4 5 6 
#
# 1 0.008543 -0.000962 -0.005276 0.013173 0.001694 0.002640
# 2 -0.000962 0.027835 0.000965 -0.000588 0.005087 0.006519
# 3 -0.005276 0.000965 0.012701 -0.021592 -0.000689 -0.003290
# 4 0.013173 -0.000588 -0.021592 0.117397 0.006712 0.015096
# 5 0.001694 0.005087 -0.000689 0.006712 0.027707 0.001766
# 6 0.002640 0.006519 -0.003290 0.015096 0.001766 0.026945
#
#
# Mechanical properties :
#
#
# Convention : Reuss Voigt Hill
#
# Bulk Modulus (GPa) = 25.95167 50.63997 38.29582
# Shear Modulus (GPa) = 20.44840 37.64314 29.04577
#
# Velocity S-wave (km/s) = 2.94352 3.99374 3.50815
# Velocity P-wave (km/s) = 4.74852 6.53632 5.71279
#
# Compressibility (1/GPa) = 0.03853316
#
# Stress axis : x y z
#
# Youngs Moduli (GPa) = 117.05029 35.92575 78.73703
#
# Poissons Ratio (x) = 0.03456 0.41545
# Poissons Ratio (y) = 0.11259 -0.07601
# Poissons Ratio (z) = 0.61761 -0.03468
#
# Static dielectric constant tensor:
#      x y z
#    x 2.023370 0.178450 0.031720 
#    y 0.178450 2.185110 0.236680 
#    z 0.031720 0.236680 2.030320 
# 
# From -- ./inp_files/40821.got.cif
#   From: 2010.05.17/outbox.cif.g08.bks.cpg/sg2_21_cif.got.tgz:40821.got - 2010.06.03 11:33:40.
