data_PCOD9017661
_publ_section_title
;
Structure prediction by ZEFSAII (Michael W. Deem and Ramdas Pophale) SiO2 
 PCOD9017661
Probable space group: P -1
;
_chemical_formula_sum "Si O2"
_cell_formula_units_Z 16
_cell_length_a 19.672192
_cell_length_b 18.117607
_cell_length_c 8.050640
_cell_angle_alpha 47.334284
_cell_angle_beta 122.785948
_cell_angle_gamma 158.957389
_cell_volume 711.138665
_symmetry_space_group_name_H-M "P -1"
_symmetry_group_IT_number 2
_symmetry_cell_setting 'triclinic'
loop_
_space_group_symop_operation_xyz
x,y,z
-x,-y,-z
loop_
_atom_site_type_symbol
_atom_site_label
_atom_site_fract_x
_atom_site_fract_y
_atom_site_fract_z
Si Si1 0.126516 0.742752 0.257546
Si Si2 0.060252 0.377349 0.137090
Si Si3 0.383266 0.578328 0.863063
Si Si4 0.490342 0.487977 0.805720
Si Si5 0.928324 0.030554 0.011385
Si Si6 0.558696 0.166129 0.222095
Si Si7 0.816389 0.085056 0.576618
Si Si8 0.097196 0.998687 0.607196
O O1 0.133635 0.807295 0.345368
O O2 0.000000 0.500000 0.500000
O O3 0.355975 0.978130 0.166117
O O4 0.040345 0.695503 0.052135
O O5 0.942745 0.272138 0.307671
O O6 0.284589 0.672713 0.963342
O O7 0.048281 0.242386 0.314957
O O8 0.354474 0.648357 0.821316
O O9 0.575717 0.817350 0.634131
O O10 0.473213 0.588732 0.075567
O O11 0.171697 0.297024 0.937833
O O12 0.263120 0.264274 0.800399
O O13 0.684677 0.757695 0.564671
O O14 0.500000 0.500000 0.000000
O O15 0.885050 0.022548 0.150426
O O16 0.883127 0.047369 0.766251
O O17 0.500000 0.000000 0.500000
O O18 0.000000 0.000000 0.500000
#
# Coordination Sequence:
#
# PCOD9017661 Si02
#       8
#     2   2   2   2   2   2   2   2
#     4  11  23  44  71  94 136 182 220 280 352 395
#     4  12  24  46  69 102 137 178 232 283 343 410
#     4  10  21  43  65  95 138 176 222 285 338 394
#     4  11  24  42  63 100 133 176 229 279 334 412
#     4  11  21  42  69  88 138 180 219 280 337 395
#     4  11  22  42  72 100 133 177 231 281 340 415
#     4  10  24  42  69  99 137 175 228 284 332 409
#     4  12  22  42  69  99 134 180 230 277 344 412
#
# _framework density 22.499130000000001
#
# number of rings (size 3 to 8) (size 9 to 14) (size 15 to 20)
#    0.000    1.000    5.000    1.875    0.000    2.000 
#    4.500    0.625    0.000    0.000    0.000    0.000 
#    0.000    0.000    0.000    0.000    0.000    0.000 
#
# Total GULP energy -89175.010174 kJ/mol
# GULP energy per Si atom -5573.438136 kJ/mol
# Density = 2.244792 g / cm^3
# Si number density = 22.499130 Si / 1000 Ang^3
#
#
#
# Elastic Constant Matrix: (Units=GPa)
#
#
# Indices 1 2 3 4 5 6 
#
# 1 48.2820 32.9883 46.2762 -4.8844 -19.7594 9.9646
# 2 32.9883 138.7094 44.6805 -23.5235 -24.4238 17.4346
# 3 46.2762 44.6805 136.4333 -26.9657 -38.9014 14.6261
# 4 -4.8844 -23.5235 -26.9657 41.5463 10.2575 -6.7404
# 5 -19.7594 -24.4238 -38.9014 10.2575 50.0537 -8.3020
# 6 9.9646 17.4346 14.6261 -6.7404 -8.3020 23.1064
#
#
#
# Elastic Compliance Matrix: (Units=1/GPa)
#
#
# Indices 1 2 3 4 5 6 
#
# 1 0.036194 -0.005042 -0.010160 -0.007246 0.004439 -0.005892
# 2 -0.005042 0.009764 0.000108 0.004075 0.001433 -0.003558
# 3 -0.010160 0.000108 0.013513 0.006270 0.005165 -0.000569
# 4 -0.007246 0.004075 0.006270 0.030704 -0.001548 0.004482
# 5 0.004439 0.001433 0.005165 -0.001548 0.027273 0.003083
# 6 -0.005892 -0.003558 -0.000569 0.004482 0.003083 0.051279
#
#
# Mechanical properties :
#
#
# Convention : Reuss Voigt Hill
#
# Bulk Modulus (GPa) = 34.14890 63.47941 48.81416
# Shear Modulus (GPa) = 23.96061 36.23991 30.10026
#
# Velocity S-wave (km/s) = 3.26691 4.01774 3.66162
# Velocity P-wave (km/s) = 5.42596 7.05680 6.29442
#
# Compressibility (1/GPa) = 0.02928352
#
# Stress axis : x y z
#
# Youngs Moduli (GPa) = 27.62883 102.41563 74.00072
#
# Poissons Ratio (x) = 0.51634 0.75185
# Poissons Ratio (y) = 0.13929 -0.00797
# Poissons Ratio (z) = 0.28071 -0.01103
#
# Static dielectric constant tensor:
#      x y z
#    x 1.934360 0.005800 0.065910 
#    y 0.005800 1.874100 -0.052540 
#    z 0.065910 -0.052540 1.853970 
# 
# From -- ./inp_files/349431.got.cif
#   From: 2010.05.17/outbox.cif.g08.bks.cpg/sg2_175_cif.got.tgz:349431.got - 2010.06.03 11:33:40.
