data_PCOD9017744
_publ_section_title
;
Structure prediction by ZEFSAII (Michael W. Deem and Ramdas Pophale) SiO2 
 PCOD9017744
Probable space group: P -1
;
_chemical_formula_sum "Si O2"
_cell_formula_units_Z 16
_cell_length_a 12.737920
_cell_length_b 5.077400
_cell_length_c 13.084464
_cell_angle_alpha 111.664426
_cell_angle_beta 56.378507
_cell_angle_gamma 89.634830
_cell_volume 630.142158
_symmetry_space_group_name_H-M "P -1"
_symmetry_group_IT_number 2
_symmetry_cell_setting 'triclinic'
loop_
_space_group_symop_operation_xyz
x,y,z
-x,-y,-z
loop_
_atom_site_type_symbol
_atom_site_label
_atom_site_fract_x
_atom_site_fract_y
_atom_site_fract_z
Si Si1 0.620966 0.173682 0.784173
Si Si2 0.468140 0.748862 0.729418
Si Si3 0.742318 0.241295 0.537686
Si Si4 0.359865 0.014028 0.623986
Si Si5 0.384210 0.686904 0.985741
Si Si6 0.149961 0.414567 0.119581
Si Si7 0.986160 0.082455 0.264636
Si Si8 0.123094 0.217733 0.892729
O O1 0.743420 0.155509 0.643082
O O2 0.640373 0.069996 0.875672
O O3 0.524545 0.030473 0.752045
O O4 0.536445 0.509439 0.885959
O O5 0.605668 0.491723 0.625509
O O6 0.396070 0.769328 0.661777
O O7 0.378632 0.754110 0.878163
O O8 0.722036 0.995629 0.435634
O O9 0.877981 0.277063 0.427579
O O10 0.500000 0.000000 0.500000
O O11 0.255267 0.267458 0.778491
O O12 0.286822 0.494362 0.044226
O O13 0.099961 0.242832 0.211529
O O14 0.148210 0.192762 0.994988
O O15 0.047681 0.742057 0.215599
O O16 0.913436 0.039662 0.189900
O O17 0.000000 0.500000 0.000000
#
# Coordination Sequence:
#
# PCOD9017744 Si02
#       8
#     2   2   2   2   2   2   2   2
#     4  10  21  43  66  90 129 169 219 278 339 393
#     4  11  22  38  67  93 132 168 216 276 336 404
#     4  10  23  41  62  96 129 172 215 266 341 403
#     4  11  21  37  64  98 136 169 214 277 338 405
#     4  10  24  40  64  97 124 170 225 279 331 389
#     4  11  23  42  66  94 133 172 228 278 319 400
#     4  10  24  42  65  95 134 177 220 271 334 403
#     4   9  21  40  63  93 134 179 221 266 337 400
#
# _framework density 25.391098
#
# number of rings (size 3 to 8) (size 9 to 14) (size 15 to 20)
#    0.000    1.750    1.250    1.875    7.000    1.000 
#    4.500    1.250    0.000    0.000    0.000    0.000 
#    0.000    0.000    0.000    0.000    0.000    0.000 
#
# Total GULP energy -89138.783765 kJ/mol
# GULP energy per Si atom -5571.173985 kJ/mol
# Density = 2.533331 g / cm^3
# Si number density = 25.391098 Si / 1000 Ang^3
#
#
#
# Elastic Constant Matrix: (Units=GPa)
#
#
# Indices 1 2 3 4 5 6 
#
# 1 61.5585 21.1715 39.9288 -9.8277 -24.2020 -5.7490
# 2 21.1715 77.8669 42.4891 -12.4633 -7.1472 -3.8457
# 3 39.9288 42.4891 207.9867 -31.8072 -26.2795 -7.0970
# 4 -9.8277 -12.4633 -31.8072 35.0601 1.3186 -13.5722
# 5 -24.2020 -7.1472 -26.2795 1.3186 41.6613 3.2408
# 6 -5.7490 -3.8457 -7.0970 -13.5722 3.2408 24.0849
#
#
#
# Elastic Compliance Matrix: (Units=1/GPa)
#
#
# Indices 1 2 3 4 5 6 
#
# 1 0.024857 -0.003499 -0.001177 0.007033 0.012304 0.007336
# 2 -0.003499 0.015591 -0.001840 0.004358 -0.000944 0.003695
# 3 -0.001177 -0.001840 0.007074 0.007374 0.002818 0.005286
# 4 0.007033 0.004358 0.007374 0.051181 0.005323 0.032672
# 5 0.012304 -0.000944 0.002818 0.005323 0.032423 0.002254
# 6 0.007336 0.003695 0.005286 0.032672 0.002254 0.063526
#
#
# Mechanical properties :
#
#
# Convention : Reuss Voigt Hill
#
# Bulk Modulus (GPa) = 28.99343 61.62120 45.30732
# Shear Modulus (GPa) = 22.81234 36.41610 29.61422
#
# Velocity S-wave (km/s) = 3.00065 3.79120 3.41885
# Velocity P-wave (km/s) = 4.84239 6.59438 5.78509
#
# Compressibility (1/GPa) = 0.03449057
#
# Stress axis : x y z
#
# Youngs Moduli (GPa) = 40.23084 64.13858 141.36365
#
# Poissons Ratio (x) = 0.22442 0.16633
# Poissons Ratio (y) = 0.14076 0.26012
# Poissons Ratio (z) = 0.04734 0.11802
#
# Static dielectric constant tensor:
#      x y z
#    x 2.114610 0.039930 0.017040 
#    y 0.039930 2.346430 -0.207500 
#    z 0.017040 -0.207500 2.218480 
# 
# From -- ./inp_files/442145.got.cif
#   From: 2010.05.17/outbox.cif.g08.bks.cpg/sg2_222_cif.got.tgz:442145.got - 2010.06.03 11:33:40.
