data_PCOD9017024
_publ_section_title
;
Structure prediction by ZEFSAII (Michael W. Deem and Ramdas Pophale) SiO2 
 PCOD9017024
Probable space group: P -1
;
_chemical_formula_sum "Si O2"
_cell_formula_units_Z 14
_cell_length_a 12.200751
_cell_length_b 7.776266
_cell_length_c 9.108288
_cell_angle_alpha 103.200638
_cell_angle_beta 137.076995
_cell_angle_gamma 64.305856
_cell_volume 524.692841
_symmetry_space_group_name_H-M "P -1"
_symmetry_group_IT_number 2
_symmetry_cell_setting 'triclinic'
loop_
_space_group_symop_operation_xyz
x,y,z
-x,-y,-z
loop_
_atom_site_type_symbol
_atom_site_label
_atom_site_fract_x
_atom_site_fract_y
_atom_site_fract_z
Si Si1 0.701357 0.530549 0.835724
Si Si2 0.915415 0.212705 0.533484
Si Si3 0.993542 0.810640 0.038850
Si Si4 0.473126 0.720382 0.390824
Si Si5 0.773580 0.779076 0.314722
Si Si6 0.289806 0.091470 0.414871
Si Si7 0.540545 0.228043 0.123626
O O1 0.900263 0.390903 0.980009
O O2 0.628124 0.564562 0.604605
O O3 0.629311 0.382766 0.814726
O O4 0.595520 0.720264 0.860475
O O5 0.957343 0.194803 0.744927
O O6 0.703574 0.296947 0.312577
O O7 0.042158 0.311685 0.610289
O O8 0.000000 0.000000 0.500000
O O9 0.796575 0.836861 0.814353
O O10 0.000000 0.000000 0.000000
O O11 0.545411 0.852693 0.400144
O O12 0.345525 0.864022 0.415356
O O13 0.822301 0.810082 0.535248
O O14 0.659541 0.998709 0.189328
O O15 0.619512 0.697738 0.138184
#
# Coordination Sequence:
#
# PCOD9017024 Si02
#       7
#     2   2   2   2   2   2   2
#     4  11  22  43  67 100 137 180 236 281 351 405
#     4  10  22  39  69 100 133 182 230 273 349 419
#     4  12  24  42  69 103 138 178 233 296 343 406
#     4  10  22  38  70  95 138 178 228 287 341 409
#     4  10  22  43  72  99 139 184 231 278 350 428
#     4  11  23  43  67 106 138 172 236 285 345 410
#     4  10  21  42  70  96 134 187 232 277 336 423
#
# _framework density 26.682279000000001
#
# number of rings (size 3 to 8) (size 9 to 14) (size 15 to 20)
#    0.000    1.429    2.857    3.429    2.000    4.000 
#    5.143    1.429    3.143    0.000    0.000    0.000 
#    0.000    0.000    0.000    0.000    0.000    0.000 
#
# Total GULP energy -77959.735816 kJ/mol
# GULP energy per Si atom -5568.552558 kJ/mol
# Density = 2.662155 g / cm^3
# Si number density = 26.682279 Si / 1000 Ang^3
#
#
#
# Elastic Constant Matrix: (Units=GPa)
#
#
# Indices 1 2 3 4 5 6 
#
# 1 134.7394 34.0233 54.8433 2.0992 18.3691 -18.5416
# 2 34.0233 68.0027 25.8277 -3.9496 -1.9859 -15.5014
# 3 54.8433 25.8277 139.3944 9.7882 20.5626 -12.9621
# 4 2.0992 -3.9496 9.7882 29.3279 -10.3121 1.5779
# 5 18.3691 -1.9859 20.5626 -10.3121 41.4230 6.4870
# 6 -18.5416 -15.5014 -12.9621 1.5779 6.4870 40.7654
#
#
#
# Elastic Compliance Matrix: (Units=1/GPa)
#
#
# Indices 1 2 3 4 5 6 
#
# 1 0.010481 -0.003913 -0.002180 -0.002462 -0.004909 0.003462
# 2 -0.003913 0.018950 -0.002694 0.005191 0.004707 0.003620
# 3 -0.002180 -0.002694 0.010031 -0.005771 -0.005946 0.002343
# 4 -0.002462 0.005191 -0.005771 0.042670 0.015630 -0.005120
# 5 -0.004909 0.004707 -0.005946 0.015630 0.034711 -0.008462
# 6 0.003462 0.003620 0.002343 -0.005120 -0.008462 0.029772
#
#
# Mechanical properties :
#
#
# Convention : Reuss Voigt Hill
#
# Bulk Modulus (GPa) = 45.68533 63.50280 54.59406
# Shear Modulus (GPa) = 29.15719 37.46609 33.31164
#
# Velocity S-wave (km/s) = 3.30927 3.75127 3.53718
# Velocity P-wave (km/s) = 5.63568 6.52794 6.09815
#
# Compressibility (1/GPa) = 0.02188887
#
# Stress axis : x y z
#
# Youngs Moduli (GPa) = 95.41002 52.76947 99.69302
#
# Poissons Ratio (x) = 0.20649 0.21730
# Poissons Ratio (y) = 0.37335 0.26856
# Poissons Ratio (z) = 0.20797 0.14215
#
# Static dielectric constant tensor:
#      x y z
#    x 2.295560 0.037800 0.019460 
#    y 0.037800 2.121070 0.138310 
#    z 0.019460 0.138310 2.215640 
# 
# From -- ./inp_files/244752.got.cif
#   From: 2010.05.17/outbox.cif.g08.bks.cpg/sg2_123_cif.got.tgz:244752.got - 2010.06.03 11:33:40.
