data_PCOD9017621
_publ_section_title
;
Structure prediction by ZEFSAII (Michael W. Deem and Ramdas Pophale) SiO2 
 PCOD9017621
Probable space group: P -1
;
_chemical_formula_sum "Si O2"
_cell_formula_units_Z 16
_cell_length_a 16.869882
_cell_length_b 11.703329
_cell_length_c 6.889820
_cell_angle_alpha 83.230848
_cell_angle_beta 145.614980
_cell_angle_gamma 110.120727
_cell_volume 685.073678
_symmetry_space_group_name_H-M "P -1"
_symmetry_group_IT_number 2
_symmetry_cell_setting 'triclinic'
loop_
_space_group_symop_operation_xyz
x,y,z
-x,-y,-z
loop_
_atom_site_type_symbol
_atom_site_label
_atom_site_fract_x
_atom_site_fract_y
_atom_site_fract_z
Si Si1 0.052281 0.791525 0.920772
Si Si2 0.866908 0.212589 0.366714
Si Si3 0.462615 0.558093 0.603743
Si Si4 0.867176 0.379550 0.641728
Si Si5 0.273995 0.447630 0.594585
Si Si6 0.491367 0.964489 0.214411
Si Si7 0.582106 0.848196 0.738107
Si Si8 0.071385 0.016608 0.428226
O O1 0.884882 0.674132 0.651208
O O2 0.023648 0.916020 0.882736
O O3 0.096286 0.785664 0.786406
O O4 0.165997 0.750890 0.283641
O O5 0.920695 0.350292 0.547863
O O6 0.939781 0.121612 0.623174
O O7 0.682733 0.139849 0.057509
O O8 0.500000 0.500000 0.500000
O O9 0.306835 0.470605 0.426263
O O10 0.482640 0.697452 0.561280
O O11 0.594548 0.576337 0.025004
O O12 0.729544 0.423194 0.353194
O O13 0.000000 0.500000 0.000000
O O14 0.605182 0.911342 0.556082
O O15 0.512379 0.090184 0.347530
O O16 0.500000 0.000000 0.000000
O O17 0.744405 0.891146 0.176409
O O18 0.000000 0.000000 0.500000
#
# Coordination Sequence:
#
# PCOD9017621 Si02
#       8
#     2   2   2   2   2   2   2   2
#     4  10  21  43  65  90 135 164 215 269 318 376
#     4  10  23  39  67  96 123 177 210 261 333 381
#     4  11  25  41  67  94 127 175 214 259 330 382
#     4  10  24  40  62  95 129 168 214 266 313 379
#     4  10  24  42  62  93 131 167 220 268 307 385
#     4  10  24  40  67  98 128 165 214 265 326 390
#     4  10  22  43  64  94 129 168 208 271 323 379
#     4   9  19  41  65  91 126 166 211 265 317 379
#
# _framework density 23.355153000000001
#
# number of rings (size 3 to 8) (size 9 to 14) (size 15 to 20)
#    0.000    2.000    1.250    0.000    5.250    8.500 
#    0.000    0.000    0.000    0.000    0.000    0.000 
#    0.000    0.000    0.000    0.000    0.000    0.000 
#
# Total GULP energy -89286.738394 kJ/mol
# GULP energy per Si atom -5580.421150 kJ/mol
# Density = 2.330200 g / cm^3
# Si number density = 23.355153 Si / 1000 Ang^3
#
#
#
# Elastic Constant Matrix: (Units=GPa)
#
#
# Indices 1 2 3 4 5 6 
#
# 1 118.5062 42.2788 24.5617 8.8149 -15.1565 13.2187
# 2 42.2788 123.4076 16.2702 -17.4692 -9.2101 -14.7258
# 3 24.5617 16.2702 41.2227 -4.6425 -9.7507 9.4850
# 4 8.8149 -17.4692 -4.6425 45.5479 2.3746 -1.3450
# 5 -15.1565 -9.2101 -9.7507 2.3746 39.5880 0.9689
# 6 13.2187 -14.7258 9.4850 -1.3450 0.9689 44.0308
#
#
#
# Elastic Compliance Matrix: (Units=1/GPa)
#
#
# Indices 1 2 3 4 5 6 
#
# 1 0.012216 -0.004629 -0.004263 -0.004861 0.002952 -0.004511
# 2 -0.004629 0.011464 -0.002596 0.005214 -0.000203 0.005947
# 3 -0.004263 -0.002596 0.030814 0.002506 0.005357 -0.006268
# 4 -0.004861 0.005214 0.002506 0.025339 -0.001636 0.003473
# 5 0.002952 -0.000203 0.005357 -0.001636 0.027829 -0.002770
# 6 -0.004511 0.005947 -0.006268 0.003473 -0.002770 0.027572
#
#
# Mechanical properties :
#
#
# Convention : Reuss Voigt Hill
#
# Bulk Modulus (GPa) = 31.72687 49.92866 40.82777
# Shear Modulus (GPa) = 29.63604 39.16839 34.40221
#
# Velocity S-wave (km/s) = 3.56607 4.09966 3.84214
# Velocity P-wave (km/s) = 5.52900 6.62072 6.09934
#
# Compressibility (1/GPa) = 0.03151902
#
# Stress axis : x y z
#
# Youngs Moduli (GPa) = 81.86244 87.23051 32.45260
#
# Poissons Ratio (x) = 0.40379 0.13834
# Poissons Ratio (y) = 0.37895 0.08423
# Poissons Ratio (z) = 0.34896 0.22641
#
# Static dielectric constant tensor:
#      x y z
#    x 1.912370 0.000370 -0.006010 
#    y 0.000370 1.917480 -0.029880 
#    z -0.006010 -0.029880 1.917620 
# 
# From -- ./inp_files/95097.got.cif
#   From: 2010.05.17/outbox.cif.g08.bks.cpg/sg2_48_cif.got.tgz:95097.got - 2010.06.03 11:33:40.
