data_PCOD9017107
_publ_section_title
;
Structure prediction by ZEFSAII (Michael W. Deem and Ramdas Pophale) SiO2 
 PCOD9017107
Probable space group: P -1
;
_chemical_formula_sum "Si O2"
_cell_formula_units_Z 9
_cell_length_a 6.729667
_cell_length_b 5.167455
_cell_length_c 8.984043
_cell_angle_alpha 99.483468
_cell_angle_beta 90.464500
_cell_angle_gamma 74.439737
_cell_volume 296.644168
_symmetry_space_group_name_H-M "P -1"
_symmetry_group_IT_number 2
_symmetry_cell_setting 'triclinic'
loop_
_space_group_symop_operation_xyz
x,y,z
-x,-y,-z
loop_
_atom_site_type_symbol
_atom_site_label
_atom_site_fract_x
_atom_site_fract_y
_atom_site_fract_z
Si Si1 0.085994 0.701602 0.764448
Si Si2 0.500000 0.500000 0.500000
Si Si3 0.099912 0.787012 0.354915
Si Si4 0.505733 0.842088 0.742723
Si Si5 0.309474 0.371614 0.977723
O O1 0.319040 0.682983 0.695983
O O2 0.130781 0.610365 0.927212
O O3 0.008281 0.457428 0.672771
O O4 0.953367 0.010479 0.767663
O O5 0.338163 0.674509 0.383848
O O6 0.592944 0.766507 0.573950
O O7 0.000000 0.000000 0.500000
O O8 0.370824 0.122867 0.838126
O O9 0.675990 0.741571 0.865040
O O10 0.500000 0.500000 0.000000
#
# Coordination Sequence:
#
# PCOD9017107 Si02
#       5
#     2   1   2   2   2
#     4  11  21  44  69  96 133 188 226 275 340 410
#     4  12  26  44  68 110 138 174 234 288 346 402
#     4  12  25  43  68  99 143 182 224 282 346 410
#     4  10  21  42  71 104 138 181 227 284 341 409
#     4   9  19  40  74  97 134 186 229 273 344 407
#
# _framework density 30.339379999999998
#
# number of rings (size 3 to 8) (size 9 to 14) (size 15 to 20)
#    0.000    1.333    4.444    0.667    0.000    0.889 
#    8.000    2.222    0.000    0.000    0.000    0.000 
#    0.000    0.000    0.000    0.000    0.000    0.000 
#
# Total GULP energy -50214.002227 kJ/mol
# GULP energy per Si atom -5579.333581 kJ/mol
# Density = 3.027033 g / cm^3
# Si number density = 30.339380 Si / 1000 Ang^3
#
#
#
# Elastic Constant Matrix: (Units=GPa)
#
#
# Indices 1 2 3 4 5 6 
#
# 1 134.5569 66.0057 32.2758 4.1014 30.3833 2.4642
# 2 66.0057 246.2493 100.0643 -25.5031 49.1072 -36.7955
# 3 32.2758 100.0643 222.6838 34.3157 42.8804 -30.8829
# 4 4.1014 -25.5031 34.3157 94.7080 -10.7967 32.3498
# 5 30.3833 49.1072 42.8804 -10.7967 58.9101 -2.3432
# 6 2.4642 -36.7955 -30.8829 32.3498 -2.3432 64.8433
#
#
#
# Elastic Compliance Matrix: (Units=1/GPa)
#
#
# Indices 1 2 3 4 5 6 
#
# 1 0.009263 -0.002209 0.000368 -0.001197 -0.003461 -0.000958
# 2 -0.002209 0.006422 -0.002162 0.001758 -0.002249 0.001740
# 3 0.000368 -0.002162 0.008056 -0.005936 -0.005126 0.005372
# 4 -0.001197 0.001758 -0.005936 0.017456 0.006264 -0.010267
# 5 -0.003461 -0.002249 -0.005126 0.006264 0.025283 -0.005797
# 6 -0.000958 0.001740 0.005372 -0.010267 -0.005797 0.023917
#
#
# Mechanical properties :
#
#
# Convention : Reuss Voigt Hill
#
# Bulk Modulus (GPa) = 63.55555 111.13128 87.34342
# Shear Modulus (GPa) = 48.24033 70.70188 59.47111
#
# Velocity S-wave (km/s) = 3.99184 4.83262 4.43221
# Velocity P-wave (km/s) = 6.49923 8.23698 7.41916
#
# Compressibility (1/GPa) = 0.01573427
#
# Stress axis : x y z
#
# Youngs Moduli (GPa) = 107.95828 155.70755 124.13647
#
# Poissons Ratio (x) = 0.34402 -0.04571
# Poissons Ratio (y) = 0.23852 0.26839
# Poissons Ratio (z) = -0.03975 0.33665
#
# Static dielectric constant tensor:
#      x y z
#    x 2.013930 0.342260 0.518370 
#    y 0.342260 2.924410 -0.278450 
#    z 0.518370 -0.278450 1.709500 
# 
# From -- ./inp_files/61853.got.cif
#   From: 2010.05.17/outbox.cif.g08.bks.cpg/sg2_31_cif.got.tgz:61853.got - 2010.06.03 11:33:40.
