data_PCOD9017214
_publ_section_title
;
Structure prediction by ZEFSAII (Michael W. Deem and Ramdas Pophale) SiO2 
 PCOD9017214
Probable space group: P -1
;
_chemical_formula_sum "Si O2"
_cell_formula_units_Z 16
_cell_length_a 5.352193
_cell_length_b 22.298333
_cell_length_c 5.441653
_cell_angle_alpha 79.380245
_cell_angle_beta 86.397024
_cell_angle_gamma 72.527133
_cell_volume 608.838737
_symmetry_space_group_name_H-M "P -1"
_symmetry_group_IT_number 2
_symmetry_cell_setting 'triclinic'
loop_
_space_group_symop_operation_xyz
x,y,z
-x,-y,-z
loop_
_atom_site_type_symbol
_atom_site_label
_atom_site_fract_x
_atom_site_fract_y
_atom_site_fract_z
Si Si1 0.125844 0.247674 0.860234
Si Si2 0.073217 0.367272 0.085398
Si Si3 0.452947 0.042426 0.717945
Si Si4 0.306221 0.811215 0.888100
Si Si5 0.902981 0.074121 0.875606
Si Si6 0.809396 0.485024 0.726270
Si Si7 0.472745 0.280442 0.439259
Si Si8 0.613845 0.395368 0.471727
O O1 0.390043 0.209583 0.024417
O O2 0.248001 0.253979 0.584001
O O3 0.891054 0.217008 0.919708
O O4 0.021790 0.318709 0.925140
O O5 0.361972 0.329190 0.185663
O O6 0.882852 0.372341 0.324402
O O7 0.001898 0.439188 0.941481
O O8 0.340777 0.917733 0.297358
O O9 0.500000 0.000000 0.500000
O O10 0.500000 0.000000 0.000000
O O11 0.154072 0.085639 0.721234
O O12 0.190332 0.885348 0.903505
O O13 0.310852 0.779160 0.645289
O O14 0.000000 0.000000 0.000000
O O15 0.650711 0.438148 0.664251
O O16 0.593518 0.552655 0.725565
O O17 0.000000 0.500000 0.500000
O O18 0.534638 0.331504 0.582177
#
# Coordination Sequence:
#
# PCOD9017214 Si02
#       8
#     2   2   2   2   2   2   2   2
#     4  11  25  44  73 104 144 191 247 301 360 442
#     4  11  23  42  67  93 138 181 235 294 365 426
#     4  10  21  42  72 106 152 198 247 300 376 452
#     4  11  25  48  72 108 148 191 245 305 367 443
#     4  10  22  45  74 109 151 190 246 305 377 454
#     4  11  25  41  63  99 137 177 236 294 372 437
#     4  11  26  45  72  97 141 188 247 296 369 430
#     4  11  23  41  66  95 134 182 235 298 363 436
#
# _framework density 26.279537000000001
#
# number of rings (size 3 to 8) (size 9 to 14) (size 15 to 20)
#    0.000    1.250    1.250    3.750    3.500    4.000 
#   13.500    0.000    0.000    0.000    0.000    0.000 
#    0.000    0.000    0.000    0.000    0.000    0.000 
#
# Total GULP energy -89512.378878 kJ/mol
# GULP energy per Si atom -5594.523680 kJ/mol
# Density = 2.621972 g / cm^3
# Si number density = 26.279537 Si / 1000 Ang^3
#
#
#
# Elastic Constant Matrix: (Units=GPa)
#
#
# Indices 1 2 3 4 5 6 
#
# 1 123.1209 14.2426 9.7221 8.1490 2.7422 -4.1419
# 2 14.2426 181.4132 17.7631 34.1427 -2.4996 0.4799
# 3 9.7221 17.7631 75.6031 20.1702 -6.3655 5.0660
# 4 8.1490 34.1427 20.1702 42.6397 -2.4456 -4.2764
# 5 2.7422 -2.4996 -6.3655 -2.4456 34.7118 6.0488
# 6 -4.1419 0.4799 5.0660 -4.2764 6.0488 33.3267
#
#
#
# Elastic Compliance Matrix: (Units=1/GPa)
#
#
# Indices 1 2 3 4 5 6 
#
# 1 0.008367 -0.000446 -0.000963 -0.000721 -0.001149 0.001309
# 2 -0.000446 0.006536 -0.000004 -0.005217 0.000289 -0.000871
# 3 -0.000963 -0.000004 0.015911 -0.007568 0.003172 -0.004085
# 4 -0.000721 -0.005217 -0.007568 0.031856 -0.000384 0.005293
# 5 -0.001149 0.000289 0.003172 -0.000384 0.030560 -0.006225
# 6 0.001309 -0.000871 -0.004085 0.005293 -0.006225 0.032611
#
#
# Mechanical properties :
#
#
# Convention : Reuss Voigt Hill
#
# Bulk Modulus (GPa) = 35.72917 51.51030 43.61974
# Shear Modulus (GPa) = 36.23265 44.69627 40.46446
#
# Velocity S-wave (km/s) = 3.71717 4.12855 3.92825
# Velocity P-wave (km/s) = 5.66113 6.50923 6.09994
#
# Compressibility (1/GPa) = 0.02798833
#
# Stress axis : x y z
#
# Youngs Moduli (GPa) = 119.51586 153.00231 62.84766
#
# Poissons Ratio (x) = 0.06827 0.06054
# Poissons Ratio (y) = 0.05333 0.00023
# Poissons Ratio (z) = 0.11512 0.00055
#
# Static dielectric constant tensor:
#      x y z
#    x 2.214130 -0.027820 0.100450 
#    y -0.027820 2.018730 0.010340 
#    z 0.100450 0.010340 2.049250 
# 
# From -- ./inp_files/13124.got.cif
#   From: 2010.05.17/outbox.cif.g08.bks.cpg/sg2_7_cif.got.tgz:13124.got - 2010.06.03 11:33:40.
