data_PCOD9017301
_publ_section_title
;
Structure prediction by ZEFSAII (Michael W. Deem and Ramdas Pophale) SiO2 
 PCOD9017301
Probable space group: P -1
;
_chemical_formula_sum "Si O2"
_cell_formula_units_Z 16
_cell_length_a 8.931207
_cell_length_b 17.228532
_cell_length_c 18.132143
_cell_angle_alpha 152.543412
_cell_angle_beta 37.811145
_cell_angle_gamma 146.457366
_cell_volume 696.745144
_symmetry_space_group_name_H-M "P -1"
_symmetry_group_IT_number 2
_symmetry_cell_setting 'triclinic'
loop_
_space_group_symop_operation_xyz
x,y,z
-x,-y,-z
loop_
_atom_site_type_symbol
_atom_site_label
_atom_site_fract_x
_atom_site_fract_y
_atom_site_fract_z
Si Si1 0.123472 0.714397 0.602656
Si Si2 0.601031 0.198012 0.585563
Si Si3 0.324610 0.849543 0.879013
Si Si4 0.201138 0.476992 0.807411
Si Si5 0.267163 0.151675 0.067205
Si Si6 0.952054 0.872469 0.336810
Si Si7 0.576022 0.763821 0.582512
Si Si8 0.815927 0.539298 0.896970
O O1 0.210124 0.761656 0.525109
O O2 0.394240 0.804079 0.624962
O O3 0.000000 0.500000 0.500000
O O4 0.886056 0.773684 0.754586
O O5 0.339003 0.207045 0.658481
O O6 0.765834 0.358175 0.715537
O O7 0.500000 0.000000 0.500000
O O8 0.418423 0.714246 0.681320
O O9 0.016286 0.723092 0.924848
O O10 0.500000 0.000000 0.000000
O O11 0.361081 0.005514 0.936767
O O12 0.460376 0.653382 0.894885
O O13 0.033029 0.310369 0.791015
O O14 0.327892 0.381723 0.616715
O O15 0.000167 0.542027 0.897921
O O16 0.000000 0.000000 0.000000
O O17 0.000000 0.000000 0.500000
O O18 0.161220 0.031264 0.334470
O O19 0.500000 0.500000 0.000000
#
# Coordination Sequence:
#
# PCOD9017301 Si02
#       8
#     2   2   2   2   2   2   2   2
#     4  12  23  45  75 113 149 198 261 319 371 469
#     4  12  26  45  76 112 151 202 263 325 383 452
#     4  12  28  50  72 113 157 200 252 320 398 459
#     4  11  24  50  76 111 146 204 264 311 387 468
#     4  12  26  43  76 113 153 201 256 313 396 463
#     4  10  21  42  73 108 144 187 253 311 379 452
#     4  11  23  44  82 104 151 195 256 317 377 464
#     4  12  31  51  72 107 160 201 254 325 405 462
#
# _framework density 22.963920999999999
#
# number of rings (size 3 to 8) (size 9 to 14) (size 15 to 20)
#    0.000    0.500    6.250    2.250    5.250    1.500 
#    0.000    1.250    0.000    0.000    0.000    0.000 
#    0.000    0.000    0.000    0.000    0.000    0.000 
#
# Total GULP energy -89135.046979 kJ/mol
# GULP energy per Si atom -5570.940436 kJ/mol
# Density = 2.291165 g / cm^3
# Si number density = 22.963921 Si / 1000 Ang^3
#
#
#
# Elastic Constant Matrix: (Units=GPa)
#
#
# Indices 1 2 3 4 5 6 
#
# 1 41.0236 -8.8056 16.1670 -1.0633 14.6357 2.9393
# 2 -8.8056 149.8653 51.6326 11.8689 7.0645 1.8558
# 3 16.1670 51.6326 79.6591 -1.8127 1.2676 -7.8411
# 4 -1.0633 11.8689 -1.8127 52.1840 6.6190 1.0021
# 5 14.6357 7.0645 1.2676 6.6190 36.5316 5.5555
# 6 2.9393 1.8558 -7.8411 1.0021 5.5555 42.4293
#
#
#
# Elastic Compliance Matrix: (Units=1/GPa)
#
#
# Indices 1 2 3 4 5 6 
#
# 1 0.036137 0.006895 -0.011846 0.000726 -0.015070 -0.003038
# 2 0.006895 0.010271 -0.008228 -0.001961 -0.003819 -0.001901
# 3 -0.011846 -0.008228 0.020683 0.001675 0.004654 0.004354
# 4 0.000726 -0.001961 0.001675 0.020141 -0.003672 0.000350
# 5 -0.015070 -0.003819 0.004654 -0.003672 0.035023 -0.002428
# 6 -0.003038 -0.001901 0.004354 0.000350 -0.002428 0.024977
#
#
# Mechanical properties :
#
#
# Convention : Reuss Voigt Hill
#
# Bulk Modulus (GPa) = 24.54934 43.17067 33.86001
# Shear Modulus (GPa) = 26.71392 40.33256 33.52324
#
# Velocity S-wave (km/s) = 3.41442 4.19542 3.82491
# Velocity P-wave (km/s) = 5.12425 6.50453 5.85521
#
# Compressibility (1/GPa) = 0.04073429
#
# Stress axis : x y z
#
# Youngs Moduli (GPa) = 27.67215 97.35807 48.34791
#
# Poissons Ratio (x) = -0.67129 0.57273
# Poissons Ratio (y) = -0.19080 0.39780
# Poissons Ratio (z) = 0.32781 0.80106
#
# Static dielectric constant tensor:
#      x y z
#    x 2.392550 -0.415200 0.829540 
#    y -0.415200 2.142930 -0.647580 
#    z 0.829540 -0.647580 3.339310 
# 
# From -- ./inp_files/562095.got.cif
#   From: 2010.05.17/outbox.cif.g08.bks.cpg/sg2_282_cif.got.tgz:562095.got - 2010.06.03 11:33:40.
