data_PCOD9017523
_publ_section_title
;
Structure prediction by ZEFSAII (Michael W. Deem and Ramdas Pophale) SiO2 
 PCOD9017523
Probable space group: P -1
;
_chemical_formula_sum "Si O2"
_cell_formula_units_Z 12
_cell_length_a 17.826134
_cell_length_b 8.621011
_cell_length_c 6.438994
_cell_angle_alpha 129.432053
_cell_angle_beta 104.931887
_cell_angle_gamma 45.992793
_cell_volume 518.831677
_symmetry_space_group_name_H-M "P -1"
_symmetry_group_IT_number 2
_symmetry_cell_setting 'triclinic'
loop_
_space_group_symop_operation_xyz
x,y,z
-x,-y,-z
loop_
_atom_site_type_symbol
_atom_site_label
_atom_site_fract_x
_atom_site_fract_y
_atom_site_fract_z
Si Si1 0.046813 0.087249 0.761961
Si Si2 0.674888 0.144644 0.841055
Si Si3 0.258035 0.563721 0.684660
Si Si4 0.584221 0.986160 0.427515
Si Si5 0.329881 0.151760 0.041889
Si Si6 0.851820 0.732409 0.274849
O O1 0.110157 0.133354 0.700371
O O2 0.130186 0.842899 0.785350
O O3 0.000000 0.000000 0.500000
O O4 0.954217 0.390767 0.070462
O O5 0.585362 0.220712 0.680393
O O6 0.650867 0.042087 0.928291
O O7 0.790389 0.903630 0.590927
O O8 0.681204 0.352596 0.114793
O O9 0.296974 0.322866 0.671087
O O10 0.298467 0.412332 0.360131
O O11 0.500000 0.000000 0.500000
O O12 0.577042 0.980934 0.173634
O O13 0.231564 0.229305 0.907410
#
# Coordination Sequence:
#
# PCOD9017523 Si02
#       6
#     2   2   2   2   2   2
#     4  11  22  39  66  94 131 171 216 258 309 372
#     4  10  23  41  66  94 129 172 211 258 319 376
#     4  11  23  39  67  97 123 170 216 258 315 379
#     4  10  25  45  67  95 127 163 211 269 325 378
#     4  10  21  43  64  90 132 166 206 267 317 374
#     4  10  22  39  62  92 133 172 208 261 310 370
#
# _framework density 23.128886000000001
#
# number of rings (size 3 to 8) (size 9 to 14) (size 15 to 20)
#    0.000    1.667    3.333    0.000    2.333    5.333 
#    0.000   10.000    0.000    0.000    0.000    0.000 
#    0.000    0.000    0.000    0.000    0.000    0.000 
#
# Total GULP energy -66964.838674 kJ/mol
# GULP energy per Si atom -5580.403223 kJ/mol
# Density = 2.307624 g / cm^3
# Si number density = 23.128886 Si / 1000 Ang^3
#
#
#
# Elastic Constant Matrix: (Units=GPa)
#
#
# Indices 1 2 3 4 5 6 
#
# 1 129.1564 7.9813 72.3109 -4.6804 19.6413 1.6059
# 2 7.9813 74.9157 13.9411 -1.1135 3.5697 -8.3896
# 3 72.3109 13.9411 158.8331 -15.7419 24.1364 15.4629
# 4 -4.6804 -1.1135 -15.7419 29.6955 4.8905 2.1851
# 5 19.6413 3.5697 24.1364 4.8905 60.1504 -10.3322
# 6 1.6059 -8.3896 15.4629 2.1851 -10.3322 27.5859
#
#
#
# Elastic Compliance Matrix: (Units=1/GPa)
#
#
# Indices 1 2 3 4 5 6 
#
# 1 0.010615 0.000029 -0.004932 -0.000892 -0.001105 0.001812
# 2 0.000029 0.014360 -0.002169 -0.001248 0.001160 0.006115
# 3 -0.004932 -0.002169 0.010919 0.006340 -0.004659 -0.008740
# 4 -0.000892 -0.001248 0.006340 0.038699 -0.006967 -0.009556
# 5 -0.001105 0.001160 -0.004659 -0.006967 0.021341 0.011574
# 6 0.001812 0.006115 -0.008740 -0.009556 0.011574 0.047996
#
#
# Mechanical properties :
#
#
# Convention : Reuss Voigt Hill
#
# Bulk Modulus (GPa) = 45.97669 61.26352 53.62010
# Shear Modulus (GPa) = 30.24365 41.39783 35.82074
#
# Velocity S-wave (km/s) = 3.62002 4.23528 3.93968
# Velocity P-wave (km/s) = 6.11509 7.10368 6.62784
#
# Compressibility (1/GPa) = 0.02175015
#
# Stress axis : x y z
#
# Youngs Moduli (GPa) = 94.20308 69.63888 91.58350
#
# Poissons Ratio (x) = -0.00204 0.45171
# Poissons Ratio (y) = -0.00276 0.19865
# Poissons Ratio (z) = 0.46463 0.15105
#
# Static dielectric constant tensor:
#      x y z
#    x 1.903610 -0.056860 -0.014790 
#    y -0.056860 1.888500 0.055030 
#    z -0.014790 0.055030 1.945510 
# 
# From -- ./inp_files/29347.got.cif
#   From: 2010.05.17/outbox.cif.g08.bks.cpg/sg2_15_cif.got.tgz:29347.got - 2010.06.03 11:33:40.
