data_PCOD9017308
_publ_section_title
;
Structure prediction by ZEFSAII (Michael W. Deem and Ramdas Pophale) SiO2 
 PCOD9017308
Probable space group: P -1
;
_chemical_formula_sum "Si O2"
_cell_formula_units_Z 16
_cell_length_a 9.041462
_cell_length_b 12.193515
_cell_length_c 16.156600
_cell_angle_alpha 68.964837
_cell_angle_beta 133.723059
_cell_angle_gamma 71.699310
_cell_volume 664.182098
_symmetry_space_group_name_H-M "P -1"
_symmetry_group_IT_number 2
_symmetry_cell_setting 'triclinic'
loop_
_space_group_symop_operation_xyz
x,y,z
-x,-y,-z
loop_
_atom_site_type_symbol
_atom_site_label
_atom_site_fract_x
_atom_site_fract_y
_atom_site_fract_z
Si Si1 0.495383 0.369427 0.997069
Si Si2 0.525998 0.207387 0.209416
Si Si3 0.308032 0.064160 0.992904
Si Si4 0.338179 0.422313 0.232149
Si Si5 0.360378 0.780980 0.274211
Si Si6 0.695166 0.856844 0.361926
Si Si7 0.538481 0.376947 0.824478
Si Si8 0.174566 0.476064 0.321866
O O1 0.659996 0.283815 0.990338
O O2 0.078385 0.518477 0.782514
O O3 0.500000 0.500000 0.000000
O O4 0.662011 0.205269 0.178253
O O5 0.602284 0.241024 0.314216
O O6 0.624528 0.024894 0.312295
O O7 0.075385 0.433500 0.967521
O O8 0.018506 0.096876 0.876252
O O9 0.078289 0.291433 0.861879
O O10 0.500000 0.000000 0.000000
O O11 0.627510 0.889225 0.229195
O O12 0.289797 0.580772 0.146614
O O13 0.474547 0.335617 0.402125
O O14 0.399327 0.902555 0.267681
O O15 0.422770 0.719224 0.218400
O O16 0.664807 0.584242 0.508389
O O17 0.101870 0.614840 0.601237
#
# Coordination Sequence:
#
# PCOD9017308 Si02
#       8
#     2   2   2   2   2   2   2   2
#     4  11  22  43  70 102 133 182 237 282 340 417
#     4  10  22  45  68  97 137 185 238 283 342 407
#     4  12  26  43  68  99 137 181 233 292 349 408
#     4  10  21  42  73  91 132 193 234 273 348 413
#     4  12  26  46  68 103 144 187 234 277 354 422
#     4  12  25  42  65 104 143 177 229 297 339 405
#     4  12  24  41  73 102 137 189 231 281 347 419
#     4  11  23  47  69  99 136 186 234 283 345 422
#
# _framework density 24.089779
#
# number of rings (size 3 to 8) (size 9 to 14) (size 15 to 20)
#    0.000    0.750    6.250    1.875    3.500    0.500 
#    0.000    0.625    0.000    0.000    0.000    0.000 
#    0.000    0.000    0.000    0.000    0.000    0.000 
#
# Total GULP energy -89418.889772 kJ/mol
# GULP energy per Si atom -5588.680611 kJ/mol
# Density = 2.403495 g / cm^3
# Si number density = 24.089779 Si / 1000 Ang^3
#
#
#
# Elastic Constant Matrix: (Units=GPa)
#
#
# Indices 1 2 3 4 5 6 
#
# 1 175.2278 87.9952 36.3767 -0.4665 -31.7184 -16.4078
# 2 87.9952 129.0160 17.7374 -1.5609 -10.6129 -3.4587
# 3 36.3767 17.7374 54.6890 6.4733 -14.1160 -8.0748
# 4 -0.4665 -1.5609 6.4733 24.5538 -1.1772 -9.1537
# 5 -31.7184 -10.6129 -14.1160 -1.1772 34.7268 5.6562
# 6 -16.4078 -3.4587 -8.0748 -9.1537 5.6562 47.1433
#
#
#
# Elastic Compliance Matrix: (Units=1/GPa)
#
#
# Indices 1 2 3 4 5 6 
#
# 1 0.011052 -0.006446 -0.003488 0.001914 0.006383 0.002382
# 2 -0.006446 0.011989 -0.000353 0.000210 -0.002177 -0.001122
# 3 -0.003488 -0.000353 0.022986 -0.005525 0.005710 0.000940
# 4 0.001914 0.000210 -0.005525 0.045421 -0.000293 0.008590
# 5 0.006383 -0.002177 0.005710 -0.000293 0.036500 -0.001396
# 6 0.002382 -0.001122 0.000940 0.008590 -0.001396 0.023955
#
#
# Mechanical properties :
#
#
# Convention : Reuss Voigt Hill
#
# Bulk Modulus (GPa) = 39.28831 71.46127 55.37479
# Shear Modulus (GPa) = 27.63021 35.73968 31.68495
#
# Velocity S-wave (km/s) = 3.39037 3.85594 3.63062
# Velocity P-wave (km/s) = 5.62767 7.03941 6.37275
#
# Compressibility (1/GPa) = 0.02545287
#
# Stress axis : x y z
#
# Youngs Moduli (GPa) = 90.48511 83.40638 43.50466
#
# Poissons Ratio (x) = 0.53765 0.15172
# Poissons Ratio (y) = 0.58328 0.01538
# Poissons Ratio (z) = 0.31557 0.02948
#
# Static dielectric constant tensor:
#      x y z
#    x 2.050170 -0.142210 0.087480 
#    y -0.142210 2.098930 -0.044070 
#    z 0.087480 -0.044070 2.002750 
# 
# From -- ./inp_files/559834.got.cif
#   From: 2010.05.17/outbox.cif.g08.bks.cpg/sg2_280_cif.got.tgz:559834.got - 2010.06.03 11:33:40.
