data_PCOD9017526
_publ_section_title
;
Structure prediction by ZEFSAII (Michael W. Deem and Ramdas Pophale) SiO2 
 PCOD9017526
Probable space group: P -1
;
_chemical_formula_sum "Si O2"
_cell_formula_units_Z 10
_cell_length_a 7.238899
_cell_length_b 6.639535
_cell_length_c 10.540070
_cell_angle_alpha 61.879344
_cell_angle_beta 58.352484
_cell_angle_gamma 81.313268
_cell_volume 377.207047
_symmetry_space_group_name_H-M "P -1"
_symmetry_group_IT_number 2
_symmetry_cell_setting 'triclinic'
loop_
_space_group_symop_operation_xyz
x,y,z
-x,-y,-z
loop_
_atom_site_type_symbol
_atom_site_label
_atom_site_fract_x
_atom_site_fract_y
_atom_site_fract_z
Si Si1 0.545913 0.340261 0.147008
Si Si2 0.273700 0.053322 0.502815
Si Si3 0.409880 0.826375 0.300327
Si Si4 0.814052 0.645541 0.143331
Si Si5 0.906287 0.124586 0.817898
O O1 0.335310 0.286643 0.331197
O O2 0.754253 0.437348 0.128596
O O3 0.500000 0.500000 0.000000
O O4 0.154788 0.124029 0.021787
O O5 0.500000 0.000000 0.500000
O O6 0.238006 0.850946 0.469084
O O7 0.095479 0.081906 0.662124
O O8 0.586785 0.653513 0.299977
O O9 0.288681 0.804668 0.217249
O O10 0.552396 0.080567 0.175414
O O11 0.003858 0.684979 0.166993
#
# Coordination Sequence:
#
# PCOD9017526 Si02
#       5
#     2   2   2   2   2
#     4  10  22  40  67  91 126 166 211 257 313 372
#     4  10  21  43  64  91 130 167 203 262 318 365
#     4  10  22  41  67  86 130 166 206 254 320 364
#     4  11  22  41  65  92 128 165 211 257 311 375
#     4  11  21  38  66  93 124 169 208 256 314 375
#
# _framework density 26.510639000000001
#
# number of rings (size 3 to 8) (size 9 to 14) (size 15 to 20)
#    1.200    0.400    4.000    1.200    0.000    0.800 
#    0.000   14.000    0.000    0.000    0.000    0.000 
#    0.000    0.000    0.000    0.000    0.000    0.000 
#
# Total GULP energy -55965.170591 kJ/mol
# GULP energy per Si atom -5596.517059 kJ/mol
# Density = 2.645030 g / cm^3
# Si number density = 26.510639 Si / 1000 Ang^3
#
#
#
# Elastic Constant Matrix: (Units=GPa)
#
#
# Indices 1 2 3 4 5 6 
#
# 1 170.3246 47.8481 5.9273 9.3438 11.5027 50.6848
# 2 47.8481 108.3274 27.8492 13.6675 3.1491 27.3681
# 3 5.9273 27.8492 153.9106 6.1152 8.3546 -0.1093
# 4 9.3438 13.6675 6.1152 29.6824 3.0238 13.0279
# 5 11.5027 3.1491 8.3546 3.0238 39.1875 2.5072
# 6 50.6848 27.3681 -0.1093 13.0279 2.5072 44.0472
#
#
#
# Elastic Compliance Matrix: (Units=1/GPa)
#
#
# Indices 1 2 3 4 5 6 
#
# 1 0.009497 -0.001816 -0.000033 0.002668 -0.002171 -0.010465
# 2 -0.001816 0.012046 -0.002038 -0.002555 0.000496 -0.004673
# 3 -0.000033 -0.002038 0.006986 -0.001112 -0.001341 0.001727
# 4 0.002668 -0.002555 -0.001112 0.040345 -0.002605 -0.013270
# 5 -0.002171 0.000496 -0.001341 -0.002605 0.026510 0.001448
# 6 -0.010465 -0.004673 0.001727 -0.013270 0.001448 0.041495
#
#
# Mechanical properties :
#
#
# Convention : Reuss Voigt Hill
#
# Bulk Modulus (GPa) = 48.18296 66.20130 57.19213
# Shear Modulus (GPa) = 32.98790 45.97929 39.48359
#
# Velocity S-wave (km/s) = 3.53133 4.16910 3.86340
# Velocity P-wave (km/s) = 5.90266 6.94269 6.44370
#
# Compressibility (1/GPa) = 0.02075422
#
# Stress axis : x y z
#
# Youngs Moduli (GPa) = 105.29735 83.01652 143.15294
#
# Poissons Ratio (x) = 0.15075 0.00469
# Poissons Ratio (y) = 0.19120 0.29180
# Poissons Ratio (z) = 0.00345 0.16922
#
# Static dielectric constant tensor:
#      x y z
#    x 2.019370 0.053080 0.015060 
#    y 0.053080 2.046770 0.051610 
#    z 0.015060 0.051610 2.173040 
# 
# From -- ./inp_files/145669.got.cif
#   From: 2010.05.17/outbox.cif.g08.bks.cpg/sg2_73_cif.got.tgz:145669.got - 2010.06.03 11:33:40.
