data_PCOD9017377
_publ_section_title
;
Structure prediction by ZEFSAII (Michael W. Deem and Ramdas Pophale) SiO2 
 PCOD9017377
Probable space group: P -1
;
_chemical_formula_sum "Si O2"
_cell_formula_units_Z 12
_cell_length_a 12.373519
_cell_length_b 5.243199
_cell_length_c 14.022857
_cell_angle_alpha 72.169848
_cell_angle_beta 146.310906
_cell_angle_gamma 112.134896
_cell_volume 467.391342
_symmetry_space_group_name_H-M "P -1"
_symmetry_group_IT_number 2
_symmetry_cell_setting 'triclinic'
loop_
_space_group_symop_operation_xyz
x,y,z
-x,-y,-z
loop_
_atom_site_type_symbol
_atom_site_label
_atom_site_fract_x
_atom_site_fract_y
_atom_site_fract_z
Si Si1 0.591281 0.244366 0.834971
Si Si2 0.940604 0.718274 0.045766
Si Si3 0.284567 0.475619 0.393035
Si Si4 0.314009 0.466139 0.735110
Si Si5 0.695139 0.106981 0.464236
Si Si6 0.252652 0.187684 0.912890
O O1 0.732132 0.531230 0.877000
O O2 0.388420 0.278129 0.732266
O O3 0.526634 0.042088 0.722033
O O4 0.716443 0.119913 0.020100
O O5 0.114649 0.552342 0.193387
O O6 0.895096 0.770400 0.117168
O O7 0.000000 0.000000 0.000000
O O8 0.500000 0.500000 0.500000
O O9 0.313766 0.700930 0.473727
O O10 0.218293 0.159121 0.417547
O O11 0.219380 0.683508 0.583598
O O12 0.206560 0.288250 0.764164
O O13 0.525431 0.638143 0.914210
#
# Coordination Sequence:
#
# PCOD9017377 Si02
#       6
#     2   2   2   2   2   2
#     4  10  21  42  77 106 147 187 254 294 367 422
#     4  11  28  47  71 108 152 194 248 308 358 430
#     4  12  29  49  73 105 152 200 242 296 371 441
#     4   9  18  39  74 110 141 190 239 305 360 436
#     4  11  24  48  75 109 142 193 244 301 368 438
#     4   9  20  39  70 109 146 186 249 301 359 423
#
# _framework density 25.674416000000001
#
# number of rings (size 3 to 8) (size 9 to 14) (size 15 to 20)
#    0.000    1.667    1.667    1.000    9.333    3.333 
#    0.000    2.500    0.000    0.000    0.000    0.000 
#    0.000    0.000    0.000    0.000    0.000    0.000 
#
# Total GULP energy -67177.972162 kJ/mol
# GULP energy per Si atom -5598.164347 kJ/mol
# Density = 2.561598 g / cm^3
# Si number density = 25.674416 Si / 1000 Ang^3
#
#
#
# Elastic Constant Matrix: (Units=GPa)
#
#
# Indices 1 2 3 4 5 6 
#
# 1 139.7199 61.8399 54.9528 -24.9400 -19.1650 12.2619
# 2 61.8399 156.6127 42.3102 -25.3109 -17.4638 -9.5422
# 3 54.9528 42.3102 128.4630 -34.7844 8.1632 -2.2398
# 4 -24.9400 -25.3109 -34.7844 63.9666 -1.0225 -11.5136
# 5 -19.1650 -17.4638 8.1632 -1.0225 27.5842 -0.1141
# 6 12.2619 -9.5422 -2.2398 -11.5136 -0.1141 32.5037
#
#
#
# Elastic Compliance Matrix: (Units=1/GPa)
#
#
# Indices 1 2 3 4 5 6 
#
# 1 0.011843 -0.002873 -0.004700 0.000042 0.007778 -0.005593
# 2 -0.002873 0.009029 -0.001200 0.002699 0.004195 0.004623
# 3 -0.004700 -0.001200 0.012036 0.004827 -0.007392 0.003934
# 4 0.000042 0.002699 0.004827 0.020893 0.001120 0.008514
# 5 0.007778 0.004195 -0.007392 0.001120 0.046535 -0.001652
# 6 -0.005593 0.004623 0.003934 0.008514 -0.001652 0.037514
#
#
# Mechanical properties :
#
#
# Convention : Reuss Voigt Hill
#
# Bulk Modulus (GPa) = 65.09695 82.55572 73.82633
# Shear Modulus (GPa) = 31.14952 42.52373 36.83662
#
# Velocity S-wave (km/s) = 3.48695 4.07414 3.79193
# Velocity P-wave (km/s) = 6.45148 7.37266 6.92740
#
# Compressibility (1/GPa) = 0.01536170
#
# Stress axis : x y z
#
# Youngs Moduli (GPa) = 84.44089 110.74867 83.08710
#
# Poissons Ratio (x) = 0.31817 0.39051
# Poissons Ratio (y) = 0.24259 0.09971
# Poissons Ratio (z) = 0.39687 0.13290
#
# Static dielectric constant tensor:
#      x y z
#    x 2.028290 0.002140 0.004530 
#    y 0.002140 2.057600 0.004420 
#    z 0.004530 0.004420 2.115030 
# 
# From -- ./inp_files/509320.got.cif
#   From: 2010.05.17/outbox.cif.g08.bks.cpg/sg2_255_cif.got.tgz:509320.got - 2010.06.03 11:33:40.
