data_PCOD9017611
_publ_section_title
;
Structure prediction by ZEFSAII (Michael W. Deem and Ramdas Pophale) SiO2 
 PCOD9017611
Probable space group: P -1
;
_chemical_formula_sum "Si O2"
_cell_formula_units_Z 16
_cell_length_a 8.636027
_cell_length_b 11.556864
_cell_length_c 13.060429
_cell_angle_alpha 109.425135
_cell_angle_beta 61.523529
_cell_angle_gamma 59.922635
_cell_volume 654.282048
_symmetry_space_group_name_H-M "P -1"
_symmetry_group_IT_number 2
_symmetry_cell_setting 'triclinic'
loop_
_space_group_symop_operation_xyz
x,y,z
-x,-y,-z
loop_
_atom_site_type_symbol
_atom_site_label
_atom_site_fract_x
_atom_site_fract_y
_atom_site_fract_z
Si Si1 0.768974 0.387736 0.574535
Si Si2 0.042074 0.490978 0.345583
Si Si3 0.920007 0.681001 0.045446
Si Si4 0.195904 0.615037 0.726507
Si Si5 0.155636 0.201901 0.673113
Si Si6 0.671430 0.082217 0.752070
Si Si7 0.365241 0.938800 0.014188
Si Si8 0.351191 0.638443 0.188380
O O1 0.967575 0.401693 0.527188
O O2 0.521388 0.488186 0.600170
O O3 0.597800 0.472291 0.761312
O O4 0.009967 0.147747 0.427725
O O5 0.872776 0.457192 0.356142
O O6 0.958301 0.621224 0.309123
O O7 0.382340 0.267967 0.187235
O O8 0.950634 0.735779 0.157874
O O9 0.576798 0.877302 0.185809
O O10 0.000000 0.500000 0.000000
O O11 0.093021 0.619202 0.870782
O O12 0.965727 0.853480 0.851759
O O13 0.995627 0.174445 0.667387
O O14 0.500000 0.000000 0.500000
O O15 0.634649 0.128162 0.897106
O O16 0.589415 0.254004 0.774481
O O17 0.500000 0.000000 0.000000
O O18 0.500000 0.500000 0.000000
#
# Coordination Sequence:
#
# PCOD9017611 Si02
#       8
#     2   2   2   2   2   2   2   2
#     4  11  25  40  64 102 131 164 215 273 338 386
#     4  10  21  43  65  88 136 168 210 274 316 385
#     4  12  20  37  65  92 121 170 220 255 322 396
#     4  11  23  41  71  91 125 175 225 263 322 396
#     4  11  23  37  62  97 132 163 207 266 332 388
#     4  12  23  40  65  93 135 167 214 278 329 380
#     4  10  21  44  68  89 124 180 225 266 320 383
#     4  11  23  40  62  95 132 170 207 266 327 391
#
# _framework density 24.454284999999999
#
# number of rings (size 3 to 8) (size 9 to 14) (size 15 to 20)
#    0.000    1.000    3.750    5.625    1.750    1.000 
#    0.000    2.500    0.000    0.000    0.000    0.000 
#    0.000    0.000    0.000    0.000    0.000    0.000 
#
# Total GULP energy -89247.451621 kJ/mol
# GULP energy per Si atom -5577.965726 kJ/mol
# Density = 2.439863 g / cm^3
# Si number density = 24.454285 Si / 1000 Ang^3
#
#
#
# Elastic Constant Matrix: (Units=GPa)
#
#
# Indices 1 2 3 4 5 6 
#
# 1 165.3998 42.5587 54.5480 0.6713 -20.1070 -23.2082
# 2 42.5587 68.5720 19.2392 13.4666 -10.9960 -5.7257
# 3 54.5480 19.2392 89.3281 13.4348 -12.8466 -9.1326
# 4 0.6713 13.4666 13.4348 46.2031 -9.8001 0.9171
# 5 -20.1070 -10.9960 -12.8466 -9.8001 46.9747 3.8899
# 6 -23.2082 -5.7257 -9.1326 0.9171 3.8899 48.5344
#
#
#
# Elastic Compliance Matrix: (Units=1/GPa)
#
#
# Indices 1 2 3 4 5 6 
#
# 1 0.009364 -0.004523 -0.004591 0.002898 0.002062 0.002860
# 2 -0.004523 0.018670 -0.000322 -0.005005 0.001305 -0.000031
# 3 -0.004591 -0.000322 0.014882 -0.003931 0.001164 0.000548
# 4 0.002898 -0.005005 -0.003931 0.025131 0.004300 -0.000764
# 5 0.002062 0.001305 0.001164 0.004300 0.023743 -0.000625
# 6 0.002860 -0.000031 0.000548 -0.000764 -0.000625 0.022136
#
#
# Mechanical properties :
#
#
# Convention : Reuss Voigt Hill
#
# Bulk Modulus (GPa) = 41.58942 61.77686 51.68314
# Shear Modulus (GPa) = 35.50818 42.13938 38.82378
#
# Velocity S-wave (km/s) = 3.81468 4.15564 3.98880
# Velocity P-wave (km/s) = 6.03707 6.95290 6.51111
#
# Compressibility (1/GPa) = 0.02404458
#
# Stress axis : x y z
#
# Youngs Moduli (GPa) = 106.79099 53.56061 67.19525
#
# Poissons Ratio (x) = 0.24227 0.30848
# Poissons Ratio (y) = 0.48305 0.02162
# Poissons Ratio (z) = 0.49026 0.01723
#
# Static dielectric constant tensor:
#      x y z
#    x 2.045610 -0.023230 0.023070 
#    y -0.023230 1.977590 -0.080360 
#    z 0.023070 -0.080360 2.060490 
# 
# From -- ./inp_files/216577.got.cif
#   From: 2010.05.17/outbox.cif.g08.bks.cpg/sg2_109_cif.got.tgz:216577.got - 2010.06.03 11:33:40.
