data_PCOD9017314
_publ_section_title
;
Structure prediction by ZEFSAII (Michael W. Deem and Ramdas Pophale) SiO2 
 PCOD9017314
Probable space group: P -1
;
_chemical_formula_sum "Si O2"
_cell_formula_units_Z 13
_cell_length_a 8.645108
_cell_length_b 9.550211
_cell_length_c 8.939149
_cell_angle_alpha 66.563874
_cell_angle_beta 85.466489
_cell_angle_gamma 52.596837
_cell_volume 524.370864
_symmetry_space_group_name_H-M "P -1"
_symmetry_group_IT_number 2
_symmetry_cell_setting 'triclinic'
loop_
_space_group_symop_operation_xyz
x,y,z
-x,-y,-z
loop_
_atom_site_type_symbol
_atom_site_label
_atom_site_fract_x
_atom_site_fract_y
_atom_site_fract_z
Si Si1 0.567014 0.434942 0.854706
Si Si2 0.254451 0.208531 0.570417
Si Si3 0.744241 0.270280 0.475656
Si Si4 0.000000 0.500000 0.000000
Si Si5 0.394498 0.221192 0.866050
Si Si6 0.147273 0.120826 0.338909
Si Si7 0.133347 0.611080 0.325281
O O1 0.426687 0.625985 0.679103
O O2 0.525407 0.287840 0.871973
O O3 0.790783 0.360386 0.844732
O O4 0.500000 0.500000 0.000000
O O5 0.380907 0.204310 0.694836
O O6 0.297616 0.075429 0.481883
O O7 0.156495 0.415696 0.407644
O O8 0.090125 0.218232 0.677742
O O9 0.726971 0.405014 0.549472
O O10 0.938598 0.205987 0.397790
O O11 0.779628 0.088584 0.632203
O O12 0.180682 0.382134 0.898755
O O13 0.895335 0.715748 0.839508
O O14 0.500000 0.000000 0.000000
#
# Coordination Sequence:
#
# PCOD9017314 Si02
#       7
#     2   2   2   1   2   2   2
#     4  12  27  43  67 108 151 191 243 315 367 434
#     4  10  22  45  72 103 135 197 243 297 368 446
#     4  10  21  44  67 104 137 192 243 297 365 442
#     4  12  24  48  74 106 152 188 236 318 366 428
#     4  12  29  48  72 108 150 196 250 303 373 443
#     4  10  23  41  75 101 139 191 248 295 370 442
#     4  10  21  42  73  95 138 188 243 298 369 434
#
# _framework density 24.791616000000001
#
# number of rings (size 3 to 8) (size 9 to 14) (size 15 to 20)
#    0.000    1.231    3.077    2.308    8.615    0.000 
#    0.000    2.308    0.000    0.000    0.000    0.000 
#    0.000    0.000    0.000    0.000    0.000    0.000 
#
# Total GULP energy -72381.133739 kJ/mol
# GULP energy per Si atom -5567.779518 kJ/mol
# Density = 2.473519 g / cm^3
# Si number density = 24.791616 Si / 1000 Ang^3
#
#
#
# Elastic Constant Matrix: (Units=GPa)
#
#
# Indices 1 2 3 4 5 6 
#
# 1 112.8108 23.7790 40.1476 9.5478 -26.3432 -7.5290
# 2 23.7790 78.0428 47.1049 -14.4881 -7.5732 28.4607
# 3 40.1476 47.1049 113.6950 -10.5668 -25.7450 15.8570
# 4 9.5478 -14.4881 -10.5668 46.8184 4.5210 -4.9742
# 5 -26.3432 -7.5732 -25.7450 4.5210 36.0685 1.5663
# 6 -7.5290 28.4607 15.8570 -4.9742 1.5663 34.7852
#
#
#
# Elastic Compliance Matrix: (Units=1/GPa)
#
#
# Indices 1 2 3 4 5 6 
#
# 1 0.013518 -0.005739 -0.002252 -0.004942 0.007350 0.007611
# 2 -0.005739 0.025971 -0.006292 0.006118 -0.003189 -0.018605
# 3 -0.002252 -0.006292 0.014167 0.000808 0.007132 -0.002003
# 4 -0.004942 0.006118 0.000808 0.024610 -0.004715 -0.002713
# 5 0.007350 -0.003189 0.007132 -0.004715 0.038167 -0.001444
# 6 0.007611 -0.018605 -0.002003 -0.002713 -0.001444 0.046207
#
#
# Mechanical properties :
#
#
# Convention : Reuss Voigt Hill
#
# Bulk Modulus (GPa) = 39.85798 58.51240 49.18519
# Shear Modulus (GPa) = 25.05372 36.43557 30.74464
#
# Velocity S-wave (km/s) = 3.18240 3.83779 3.52536
# Velocity P-wave (km/s) = 5.44203 6.57960 6.03766
#
# Compressibility (1/GPa) = 0.02508908
#
# Stress axis : x y z
#
# Youngs Moduli (GPa) = 73.97449 38.50434 70.58658
#
# Poissons Ratio (x) = 0.22099 0.15898
# Poissons Ratio (y) = 0.42456 0.44414
# Poissons Ratio (z) = 0.16661 0.24227
#
# Static dielectric constant tensor:
#      x y z
#    x 2.016100 -0.038700 0.042600 
#    y -0.038700 1.946850 0.046660 
#    z 0.042600 0.046660 1.972220 
# 
# From -- ./inp_files/153404.got.cif
#   From: 2010.05.17/outbox.cif.g08.bks.cpg/sg2_77_cif.got.tgz:153404.got - 2010.06.03 11:33:40.
