data_PCOD9017634
_publ_section_title
;
Structure prediction by ZEFSAII (Michael W. Deem and Ramdas Pophale) SiO2 
 PCOD9017634
Probable space group: P -1
;
_chemical_formula_sum "Si O2"
_cell_formula_units_Z 15
_cell_length_a 7.653542
_cell_length_b 6.366829
_cell_length_c 16.309608
_cell_angle_alpha 101.119172
_cell_angle_beta 109.842032
_cell_angle_gamma 57.348889
_cell_volume 629.380932
_symmetry_space_group_name_H-M "P -1"
_symmetry_group_IT_number 2
_symmetry_cell_setting 'triclinic'
loop_
_space_group_symop_operation_xyz
x,y,z
-x,-y,-z
loop_
_atom_site_type_symbol
_atom_site_label
_atom_site_fract_x
_atom_site_fract_y
_atom_site_fract_z
Si Si1 0.500000 0.000000 0.500000
Si Si2 0.981201 0.988293 0.811284
Si Si3 0.827552 0.434747 0.500730
Si Si4 0.818285 0.488732 0.919128
Si Si5 0.429316 0.030163 0.198658
Si Si6 0.568354 0.361168 0.316039
Si Si7 0.167511 0.846526 0.368340
Si Si8 0.596650 0.502132 0.142796
O O1 0.622288 0.698448 0.514979
O O2 0.292289 0.985955 0.427024
O O3 0.179978 0.741926 0.864346
O O4 0.760558 0.986805 0.788312
O O5 0.942179 0.238670 0.866006
O O6 0.005571 0.003748 0.719020
O O7 0.746918 0.337135 0.405559
O O8 0.912440 0.238930 0.572819
O O9 0.000000 0.500000 0.500000
O O10 0.691655 0.741716 0.865997
O O11 0.619363 0.475903 0.928640
O O12 0.000000 0.500000 0.000000
O O13 0.551747 0.114781 0.286605
O O14 0.579485 0.768560 0.156929
O O15 0.342761 0.587751 0.332415
O O16 0.584760 0.455691 0.235359
#
# Coordination Sequence:
#
# PCOD9017634 Si02
#       8
#     1   2   2   2   2   2   2   2
#     4  10  24  42  66  86 132 172 228 290 344 382
#     4  11  24  42  67 105 133 177 229 276 340 405
#     4  11  27  44  60  98 132 183 234 288 337 396
#     4  10  23  47  72  98 138 177 216 271 338 413
#     4  10  21  43  69  94 135 177 217 276 345 396
#     4  10  21  43  65  92 133 180 231 283 336 399
#     4  11  23  43  67  93 134 183 231 285 341 396
#     4  10  23  41  65 103 136 170 227 275 336 408
#
# _framework density 23.832946
#
# number of rings (size 3 to 8) (size 9 to 14) (size 15 to 20)
#    0.000    1.600    4.000    1.600    5.600    5.333 
#    7.200    1.333    0.000    0.000    0.000    0.000 
#    0.000    0.000    0.000    0.000    0.000    0.000 
#
# Total GULP energy -83710.245175 kJ/mol
# GULP energy per Si atom -5580.683012 kJ/mol
# Density = 2.377870 g / cm^3
# Si number density = 23.832946 Si / 1000 Ang^3
#
#
#
# Elastic Constant Matrix: (Units=GPa)
#
#
# Indices 1 2 3 4 5 6 
#
# 1 62.2640 35.9698 47.4956 9.7636 26.6965 7.2969
# 2 35.9698 198.9079 59.0684 7.8832 30.3347 4.1094
# 3 47.4956 59.0684 105.4577 8.3125 45.9199 19.4012
# 4 9.7636 7.8832 8.3125 30.3414 10.3292 17.7442
# 5 26.6965 30.3347 45.9199 10.3292 41.0958 1.1564
# 6 7.2969 4.1094 19.4012 17.7442 1.1564 41.7799
#
#
#
# Elastic Compliance Matrix: (Units=1/GPa)
#
#
# Indices 1 2 3 4 5 6 
#
# 1 0.026293 -0.001163 -0.009049 -0.005249 -0.004850 0.002088
# 2 -0.001163 0.006188 -0.003104 -0.001288 -0.000065 0.001585
# 3 -0.009049 -0.003104 0.029753 0.015688 -0.028518 -0.017804
# 4 -0.005249 -0.001288 0.015688 0.057201 -0.026707 -0.029796
# 5 -0.004850 -0.000065 -0.028518 -0.026707 0.065446 0.023628
# 6 0.002088 0.001585 -0.017804 -0.029796 0.023628 0.043683
#
#
# Mechanical properties :
#
#
# Convention : Reuss Voigt Hill
#
# Bulk Modulus (GPa) = 28.08772 72.41077 50.24925
# Shear Modulus (GPa) = 18.72223 37.58314 28.15269
#
# Velocity S-wave (km/s) = 2.80583 3.97538 3.44066
# Velocity P-wave (km/s) = 4.72310 7.17775 6.07568
#
# Compressibility (1/GPa) = 0.03560275
#
# Stress axis : x y z
#
# Youngs Moduli (GPa) = 38.03290 161.61203 33.60992
#
# Poissons Ratio (x) = 0.18795 0.30412
# Poissons Ratio (y) = 0.04423 0.10432
# Poissons Ratio (z) = 0.34414 0.50163
#
# Static dielectric constant tensor:
#      x y z
#    x 1.971110 -0.052900 -0.035670 
#    y -0.052900 1.907350 0.006180 
#    z -0.035670 0.006180 1.912690 
# 
# From -- ./inp_files/553651.got.cif
#   From: 2010.05.17/outbox.cif.g08.bks.cpg/sg2_277_cif.got.tgz:553651.got - 2010.06.03 11:33:40.
