data_PCOD9017879
_publ_section_title
;
Structure prediction by ZEFSAII (Michael W. Deem and Ramdas Pophale) SiO2 
 PCOD9017879
Probable space group: P -1
;
_chemical_formula_sum "Si O2"
_cell_formula_units_Z 15
_cell_length_a 8.905033
_cell_length_b 8.951769
_cell_length_c 15.659065
_cell_angle_alpha 108.328052
_cell_angle_beta 78.761372
_cell_angle_gamma 48.462541
_cell_volume 730.148927
_symmetry_space_group_name_H-M "P -1"
_symmetry_group_IT_number 2
_symmetry_cell_setting 'triclinic'
loop_
_space_group_symop_operation_xyz
x,y,z
-x,-y,-z
loop_
_atom_site_type_symbol
_atom_site_label
_atom_site_fract_x
_atom_site_fract_y
_atom_site_fract_z
Si Si1 0.101467 0.258620 0.985124
Si Si2 0.210891 0.741576 0.078775
Si Si3 0.517624 0.236221 0.389918
Si Si4 0.961621 0.241543 0.715726
Si Si5 0.048535 0.228517 0.177810
Si Si6 0.420213 0.456336 0.614465
Si Si7 0.000000 0.000000 0.500000
Si Si8 0.645727 0.771872 0.765694
O O1 0.922148 0.263624 0.975474
O O2 0.371792 0.006219 0.874417
O O3 0.098515 0.271366 0.089878
O O4 0.000000 0.500000 0.000000
O O5 0.130897 0.748759 0.182475
O O6 0.129094 0.984536 0.116205
O O7 0.500000 0.500000 0.000000
O O8 0.372737 0.403429 0.520704
O O9 0.610713 0.330894 0.359619
O O10 0.368299 0.269791 0.338800
O O11 0.753398 0.945391 0.335730
O O12 0.796388 0.517165 0.752535
O O13 0.955618 0.115985 0.620005
O O14 0.211075 0.182384 0.223637
O O15 0.768053 0.452666 0.278153
O O16 0.702741 0.208471 0.560043
#
# Coordination Sequence:
#
# PCOD9017879 Si02
#       8
#     2   2   2   2   2   2   1   2
#     4  12  26  48  70  97 139 186 222 280 349 408
#     4  12  25  42  68 103 135 172 230 290 330 401
#     4  10  21  43  71  94 140 179 225 269 349 407
#     4  11  22  42  70 100 132 186 223 269 351 403
#     4  12  26  42  68 104 136 174 235 285 330 403
#     4  10  21  43  67 105 131 180 228 285 330 405
#     4  10  22  38  72 100 138 180 224 276 344 406
#     4  12  24  44  70  98 138 186 222 278 344 410
#
# _framework density 20.543752000000001
#
# number of rings (size 3 to 8) (size 9 to 14) (size 15 to 20)
#    0.000    0.800    4.000    3.200    1.867    0.533 
#    0.000    2.667    0.000    0.000    0.000    0.000 
#    0.000    0.000    0.000    0.000    0.000    0.000 
#
# Total GULP energy -83636.463146 kJ/mol
# GULP energy per Si atom -5575.764210 kJ/mol
# Density = 2.049699 g / cm^3
# Si number density = 20.543752 Si / 1000 Ang^3
#
#
#
# Elastic Constant Matrix: (Units=GPa)
#
#
# Indices 1 2 3 4 5 6 
#
# 1 98.4713 28.7519 35.1932 9.7987 23.9476 -26.8922
# 2 28.7519 87.4008 15.2810 12.9811 13.7287 -8.7436
# 3 35.1932 15.2810 85.5250 9.7597 13.9845 -17.2038
# 4 9.7987 12.9811 9.7597 30.7632 -18.9012 -5.5020
# 5 23.9476 13.7287 13.9845 -18.9012 36.9258 -1.0962
# 6 -26.8922 -8.7436 -17.2038 -5.5020 -1.0962 23.1899
#
#
#
# Elastic Compliance Matrix: (Units=1/GPa)
#
#
# Indices 1 2 3 4 5 6 
#
# 1 0.024305 0.001486 0.001244 -0.021104 -0.026895 0.023390
# 2 0.001486 0.016197 0.002064 -0.017290 -0.016485 0.004480
# 3 0.001244 0.002064 0.016971 -0.013755 -0.014720 0.010852
# 4 -0.021104 -0.017290 -0.013755 0.092370 0.072134 -0.015871
# 5 -0.026895 -0.016485 -0.014720 0.072134 0.092354 -0.026844
# 6 0.023390 0.004480 0.010852 -0.015871 -0.026844 0.074952
#
#
# Mechanical properties :
#
#
# Convention : Reuss Voigt Hill
#
# Bulk Modulus (GPa) = 14.91153 47.76102 31.33627
# Shear Modulus (GPa) = 15.15544 30.98719 23.07132
#
# Velocity S-wave (km/s) = 2.71904 3.88796 3.35480
# Velocity P-wave (km/s) = 4.13905 6.59196 5.50389
#
# Compressibility (1/GPa) = 0.06706220
#
# Stress axis : x y z
#
# Youngs Moduli (GPa) = 41.14346 61.73824 58.92321
#
# Poissons Ratio (x) = -0.09174 -0.07330
# Poissons Ratio (y) = -0.06113 -0.12163
# Poissons Ratio (z) = -0.05118 -0.12744
#
# Static dielectric constant tensor:
#      x y z
#    x 1.732440 0.000980 0.026060 
#    y 0.000980 1.739520 0.002190 
#    z 0.026060 0.002190 1.725550 
# 
# From -- ./inp_files/296586.got.cif
#   From: 2010.05.17/outbox.cif.g08.bks.cpg/sg2_149_cif.got.tgz:296586.got - 2010.06.03 11:33:40.
