data_PCOD9017996
_publ_section_title
;
Structure prediction by ZEFSAII (Michael W. Deem and Ramdas Pophale) SiO2 
 PCOD9017996
Probable space group: P -1
;
_chemical_formula_sum "Si O2"
_cell_formula_units_Z 16
_cell_length_a 10.922036
_cell_length_b 9.104667
_cell_length_c 20.492332
_cell_angle_alpha 135.545218
_cell_angle_beta 153.501650
_cell_angle_gamma 45.796573
_cell_volume 625.541121
_symmetry_space_group_name_H-M "P -1"
_symmetry_group_IT_number 2
_symmetry_cell_setting 'triclinic'
loop_
_space_group_symop_operation_xyz
x,y,z
-x,-y,-z
loop_
_atom_site_type_symbol
_atom_site_label
_atom_site_fract_x
_atom_site_fract_y
_atom_site_fract_z
Si Si1 0.147030 0.262606 0.518181
Si Si2 0.527961 0.668552 0.421563
Si Si3 0.832452 0.083966 0.038196
Si Si4 0.980460 0.841959 0.295596
Si Si5 0.274490 0.641263 0.485544
Si Si6 0.702454 0.632975 0.880602
Si Si7 0.492943 0.767156 0.953638
Si Si8 0.539982 0.053504 0.755893
O O1 0.363412 0.199425 0.541291
O O2 0.328487 0.202434 0.652167
O O3 0.000000 0.500000 0.500000
O O4 0.929271 0.098119 0.359146
O O5 0.282526 0.783891 0.387150
O O6 0.770132 0.525927 0.534168
O O7 0.401569 0.489768 0.266648
O O8 0.748415 0.231455 0.108261
O O9 0.648835 0.146899 0.904746
O O10 0.746901 0.863125 0.951089
O O11 0.161217 0.037992 0.165803
O O12 0.007831 0.739519 0.347308
O O13 0.772346 0.735236 0.119895
O O14 0.500000 0.500000 0.500000
O O15 0.399607 0.845024 0.634264
O O16 0.518252 0.628825 0.856888
O O17 0.000000 0.500000 0.000000
O O18 0.500000 0.000000 0.000000
#
# Coordination Sequence:
#
# PCOD9017996 Si02
#       8
#     2   2   2   2   2   2   2   2
#     4  11  26  40  64  98 132 172 228 279 334 398
#     4  11  21  41  66  96 128 173 222 272 331 402
#     4  10  22  40  68  95 135 179 221 272 332 406
#     4  10  22  43  65  93 133 174 218 275 342 389
#     4   9  20  39  66  95 124 169 229 270 325 407
#     4  11  20  37  66  97 134 171 218 272 327 403
#     4  10  23  38  62 100 128 170 221 271 329 386
#     4  10  21  43  67  97 135 182 221 270 346 396
#
# _framework density 25.577855
#
# number of rings (size 3 to 8) (size 9 to 14) (size 15 to 20)
#    0.000    1.750    2.500    1.125    5.250    1.000 
#    0.000    2.500    0.000   15.750    0.000    0.000 
#    0.000    0.000    0.000    0.000    0.000    0.000 
#
# Total GULP energy -89467.868319 kJ/mol
# GULP energy per Si atom -5591.741770 kJ/mol
# Density = 2.551964 g / cm^3
# Si number density = 25.577855 Si / 1000 Ang^3
#
#
#
# Elastic Constant Matrix: (Units=GPa)
#
#
# Indices 1 2 3 4 5 6 
#
# 1 134.5099 37.8306 15.6114 -22.8983 -16.2169 3.6634
# 2 37.8306 96.4441 51.5474 -11.1806 -20.9675 2.8228
# 3 15.6114 51.5474 102.4709 -26.7589 -10.4712 14.9929
# 4 -22.8983 -11.1806 -26.7589 38.9664 6.1531 -2.4654
# 5 -16.2169 -20.9675 -10.4712 6.1531 35.6115 -9.4125
# 6 3.6634 2.8228 14.9929 -2.4654 -9.4125 35.0473
#
#
#
# Elastic Compliance Matrix: (Units=1/GPa)
#
#
# Indices 1 2 3 4 5 6 
#
# 1 0.009446 -0.003938 0.002311 0.005725 0.001444 -0.000868
# 2 -0.003938 0.018161 -0.009653 -0.004711 0.008182 0.004945
# 3 0.002311 -0.009653 0.017830 0.010878 -0.003165 -0.007176
# 4 0.005725 -0.004711 0.010878 0.035563 -0.004025 -0.003452
# 5 0.001444 0.008182 -0.003165 -0.004025 0.035941 0.009913
# 6 -0.000868 0.004945 -0.007176 -0.003452 0.009913 0.033715
#
#
# Mechanical properties :
#
#
# Convention : Reuss Voigt Hill
#
# Bulk Modulus (GPa) = 43.71059 60.37820 52.04439
# Shear Modulus (GPa) = 27.64858 37.15408 32.40133
#
# Velocity S-wave (km/s) = 3.29136 3.81542 3.56304
# Velocity P-wave (km/s) = 5.61875 6.56253 6.10889
#
# Compressibility (1/GPa) = 0.02287775
#
# Stress axis : x y z
#
# Youngs Moduli (GPa) = 105.86526 55.06399 56.08466
#
# Poissons Ratio (x) = 0.21682 -0.12963
# Poissons Ratio (y) = 0.41685 0.54141
# Poissons Ratio (z) = -0.24470 0.53156
#
# Static dielectric constant tensor:
#      x y z
#    x 2.062710 -0.049170 0.012190 
#    y -0.049170 2.052380 -0.001700 
#    z 0.012190 -0.001700 1.971640 
# 
# From -- ./inp_files/594210.got.cif
#   From: 2010.05.17/outbox.cif.g08.bks.cpg/sg2_298_cif.got.tgz:594210.got - 2010.06.03 11:33:40.
