data_PCOD9017035
_publ_section_title
;
Structure prediction by ZEFSAII (Michael W. Deem and Ramdas Pophale) SiO2 
 PCOD9017035
Probable space group: P -1
;
_chemical_formula_sum "Si O2"
_cell_formula_units_Z 16
_cell_length_a 11.466854
_cell_length_b 6.138841
_cell_length_c 14.601636
_cell_angle_alpha 42.568680
_cell_angle_beta 91.400022
_cell_angle_gamma 93.837274
_cell_volume 693.287883
_symmetry_space_group_name_H-M "P -1"
_symmetry_group_IT_number 2
_symmetry_cell_setting 'triclinic'
loop_
_space_group_symop_operation_xyz
x,y,z
-x,-y,-z
loop_
_atom_site_type_symbol
_atom_site_label
_atom_site_fract_x
_atom_site_fract_y
_atom_site_fract_z
Si Si1 0.233161 0.624503 0.957897
Si Si2 0.697179 0.402260 0.755543
Si Si3 0.422727 0.187740 0.125493
Si Si4 0.492568 0.150393 0.338210
Si Si5 0.929516 0.323505 0.900448
Si Si6 0.682649 0.683717 0.480904
Si Si7 0.318595 0.352226 0.720700
Si Si8 0.845932 0.321979 0.262191
O O1 0.211978 0.563924 0.868989
O O2 0.308373 0.969463 0.857400
O O3 0.298595 0.336136 0.091959
O O4 0.115933 0.646789 0.006271
O O5 0.635157 0.727145 0.680382
O O6 0.812694 0.326401 0.835460
O O7 0.714475 0.433305 0.636409
O O8 0.602359 0.097930 0.858306
O O9 0.482513 0.081230 0.251645
O O10 0.500000 0.500000 0.000000
O O11 0.583730 0.444220 0.281234
O O12 0.564107 0.844211 0.464131
O O13 0.017773 0.614093 0.775239
O O14 0.000000 0.000000 0.000000
O O15 0.666747 0.569755 0.411057
O O16 0.787848 0.964492 0.389702
O O17 0.196017 0.468713 0.719328
#
# Coordination Sequence:
#
# PCOD9017035 Si02
#       8
#     2   2   2   2   2   2   2   2
#     4  11  22  41  68 101 134 170 222 272 335 395
#     4  12  27  44  65 103 135 175 222 274 325 397
#     4  12  25  39  64 104 138 173 217 267 336 400
#     4  11  23  42  69  97 134 179 215 273 332 391
#     4  12  24  44  72  97 136 173 220 276 333 392
#     4  10  24  45  68  96 136 174 226 269 328 393
#     4  10  21  42  70  97 133 177 221 273 327 394
#     4  10  22  42  71  97 127 182 220 275 331 381
#
# _framework density 23.078437000000001
#
# number of rings (size 3 to 8) (size 9 to 14) (size 15 to 20)
#    0.000    1.000    2.500    5.250    1.750    5.500 
#    0.000    0.625    0.000    0.000    0.000    0.000 
#    0.000    0.000    0.000    0.000    0.000    0.000 
#
# Total GULP energy -89386.384150 kJ/mol
# GULP energy per Si atom -5586.649009 kJ/mol
# Density = 2.302591 g / cm^3
# Si number density = 23.078437 Si / 1000 Ang^3
#
#
#
# Elastic Constant Matrix: (Units=GPa)
#
#
# Indices 1 2 3 4 5 6 
#
# 1 110.1872 40.0857 36.7244 4.7418 -6.3837 2.5941
# 2 40.0857 81.8749 20.4017 7.3887 1.2677 0.5297
# 3 36.7244 20.4017 86.2828 9.6017 8.7081 7.9110
# 4 4.7418 7.3887 9.6017 20.9384 8.0209 -5.0156
# 5 -6.3837 1.2677 8.7081 8.0209 41.3708 1.7405
# 6 2.5941 0.5297 7.9110 -5.0156 1.7405 51.3481
#
#
#
# Elastic Compliance Matrix: (Units=1/GPa)
#
#
# Indices 1 2 3 4 5 6 
#
# 1 0.012595 -0.005088 -0.004443 -0.000203 0.003075 -0.000023
# 2 -0.005088 0.015292 -0.000998 -0.003684 -0.000325 -0.000096
# 3 -0.004443 -0.000998 0.014765 -0.004961 -0.002699 -0.002433
# 4 -0.000203 -0.003684 -0.004961 0.056891 -0.010186 0.006715
# 5 0.003075 -0.000325 -0.002699 -0.010186 0.027269 -0.001656
# 6 -0.000023 -0.000096 -0.002433 0.006715 -0.001656 0.020564
#
#
# Mechanical properties :
#
#
# Convention : Reuss Voigt Hill
#
# Bulk Modulus (GPa) = 46.31506 52.52982 49.42244
# Shear Modulus (GPa) = 28.46860 34.80700 31.63780
#
# Velocity S-wave (km/s) = 3.51602 3.88777 3.70656
# Velocity P-wave (km/s) = 6.04940 6.55468 6.30711
#
# Compressibility (1/GPa) = 0.02159125
#
# Stress axis : x y z
#
# Youngs Moduli (GPa) = 79.39705 65.39380 67.72970
#
# Poissons Ratio (x) = 0.33275 0.30094
# Poissons Ratio (y) = 0.40401 0.06762
# Poissons Ratio (z) = 0.35278 0.06529
#
# Static dielectric constant tensor:
#      x y z
#    x 1.879910 -0.006560 -0.022110 
#    y -0.006560 1.917450 -0.013560 
#    z -0.022110 -0.013560 1.890410 
# 
# From -- ./inp_files/510119.got.cif
#   From: 2010.05.17/outbox.cif.g08.bks.cpg/sg2_256_cif.got.tgz:510119.got - 2010.06.03 11:33:40.
