data_PCOD9017678
_publ_section_title
;
Structure prediction by ZEFSAII (Michael W. Deem and Ramdas Pophale) SiO2 
 PCOD9017678
Probable space group: P -1
;
_chemical_formula_sum "Si O2"
_cell_formula_units_Z 12
_cell_length_a 15.736320
_cell_length_b 13.128431
_cell_length_c 18.801730
_cell_angle_alpha 152.904682
_cell_angle_beta 18.219948
_cell_angle_gamma 153.444270
_cell_volume 519.555809
_symmetry_space_group_name_H-M "P -1"
_symmetry_group_IT_number 2
_symmetry_cell_setting 'triclinic'
loop_
_space_group_symop_operation_xyz
x,y,z
-x,-y,-z
loop_
_atom_site_type_symbol
_atom_site_label
_atom_site_fract_x
_atom_site_fract_y
_atom_site_fract_z
Si Si1 0.874120 0.697537 0.693169
Si Si2 0.364386 0.302187 0.845714
Si Si3 0.581862 0.901201 0.471087
Si Si4 0.826779 0.417045 0.300860
Si Si5 0.901020 0.360080 0.917943
Si Si6 0.790755 0.810032 0.669322
O O1 0.540565 0.569448 0.898423
O O2 0.883224 0.736951 0.626196
O O3 0.000000 0.500000 0.500000
O O4 0.078483 0.950333 0.715820
O O5 0.492852 0.260095 0.640376
O O6 0.425603 0.099247 0.716741
O O7 0.043312 0.294713 0.085206
O O8 0.484373 0.745682 0.522602
O O9 0.900496 0.677177 0.438399
O O10 0.893099 0.467732 0.197454
O O11 0.915745 0.094971 0.742762
O O12 0.561392 0.294594 0.124677
O O13 0.000000 0.500000 0.000000
#
# Coordination Sequence:
#
# PCOD9017678 Si02
#       6
#     2   2   2   2   2   2
#     4  10  21  43  69  96 138 182 213 269 343 405
#     4  10  21  43  65  97 144 180 218 275 337 399
#     4  10  22  40  67 101 138 181 222 272 334 406
#     4  12  22  44  70 102 134 175 232 288 332 395
#     4  11  27  49  71  93 133 185 229 282 344 398
#     4  11  25  47  68 100 137 176 227 284 337 403
#
# _framework density 23.096651999999999
#
# number of rings (size 3 to 8) (size 9 to 14) (size 15 to 20)
#    0.000    1.333    3.333    1.000    4.667    0.667 
#    9.000    1.667    0.000    0.000    0.000    0.000 
#    0.000    0.000    0.000    0.000    0.000    0.000 
#
# Total GULP energy -66977.968653 kJ/mol
# GULP energy per Si atom -5581.497388 kJ/mol
# Density = 2.304408 g / cm^3
# Si number density = 23.096652 Si / 1000 Ang^3
#
#
#
# Elastic Constant Matrix: (Units=GPa)
#
#
# Indices 1 2 3 4 5 6 
#
# 1 105.8151 49.3092 15.7196 5.2333 -4.2670 -5.5308
# 2 49.3092 180.3695 29.9166 -3.3212 5.7874 -2.0311
# 3 15.7196 29.9166 56.5612 13.1885 -0.2996 -0.4777
# 4 5.2333 -3.3212 13.1885 27.9355 4.3291 6.9119
# 5 -4.2670 5.7874 -0.2996 4.3291 16.2197 -2.8084
# 6 -5.5308 -2.0311 -0.4777 6.9119 -2.8084 32.3827
#
#
#
# Elastic Compliance Matrix: (Units=1/GPa)
#
#
# Indices 1 2 3 4 5 6 
#
# 1 0.011681 -0.003342 -0.000476 -0.004054 0.005885 0.003154
# 2 -0.003342 0.007365 -0.004083 0.004613 -0.005090 -0.001595
# 3 -0.000476 -0.004083 0.023059 -0.012991 0.005793 0.003278
# 4 -0.004054 0.004613 -0.012991 0.049209 -0.018282 -0.012684
# 5 0.005885 -0.005090 0.005793 -0.018282 0.071893 0.010909
# 6 0.003154 -0.001595 0.003278 -0.012684 0.010909 0.035021
#
#
# Mechanical properties :
#
#
# Convention : Reuss Voigt Hill
#
# Bulk Modulus (GPa) = 38.01673 59.18184 48.59929
# Shear Modulus (GPa) = 22.44173 31.82761 27.13467
#
# Velocity S-wave (km/s) = 3.12050 3.71619 3.43130
# Velocity P-wave (km/s) = 5.42945 6.64023 6.06513
#
# Compressibility (1/GPa) = 0.02630421
#
# Stress axis : x y z
#
# Youngs Moduli (GPa) = 85.60681 135.76940 43.36651
#
# Poissons Ratio (x) = 0.45381 0.02062
# Poissons Ratio (y) = 0.28614 0.17706
# Poissons Ratio (z) = 0.04071 0.55432
#
# Static dielectric constant tensor:
#      x y z
#    x 1.852590 0.017440 -0.058930 
#    y 0.017440 1.899960 -0.012720 
#    z -0.058930 -0.012720 1.849720 
# 
# From -- ./inp_files/133544.got.cif
#   From: 2010.05.17/outbox.cif.g08.bks.cpg/sg2_67_cif.got.tgz:133544.got - 2010.06.03 11:33:40.
