data_PCOD9017217
_publ_section_title
;
Structure prediction by ZEFSAII (Michael W. Deem and Ramdas Pophale) SiO2 
 PCOD9017217
Probable space group: P -1
;
_chemical_formula_sum "Si O2"
_cell_formula_units_Z 10
_cell_length_a 7.386472
_cell_length_b 9.397167
_cell_length_c 17.116232
_cell_angle_alpha 153.717018
_cell_angle_beta 131.920338
_cell_angle_gamma 47.170212
_cell_volume 379.493348
_symmetry_space_group_name_H-M "P -1"
_symmetry_group_IT_number 2
_symmetry_cell_setting 'triclinic'
loop_
_space_group_symop_operation_xyz
x,y,z
-x,-y,-z
loop_
_atom_site_type_symbol
_atom_site_label
_atom_site_fract_x
_atom_site_fract_y
_atom_site_fract_z
Si Si1 0.831112 0.755611 0.354948
Si Si2 0.740603 0.694394 0.979382
Si Si3 0.372547 0.278043 0.409622
Si Si4 0.677755 0.225344 0.969250
Si Si5 0.684063 0.431771 0.299151
O O1 0.811241 0.652665 0.388070
O O2 0.561013 0.972810 0.357323
O O3 0.881356 0.411203 0.151544
O O4 0.000000 0.000000 0.500000
O O5 0.609139 0.502549 0.782695
O O6 0.514369 0.808817 0.033780
O O7 0.000000 0.500000 0.000000
O O8 0.777562 0.035301 0.122688
O O9 0.500000 0.500000 0.500000
O O10 0.268706 0.495157 0.561547
O O11 0.238627 0.094310 0.217616
O O12 0.500000 0.500000 0.000000
#
# Coordination Sequence:
#
# PCOD9017217 Si02
#       5
#     2   2   2   2   2
#     4  10  23  45  67 100 146 191 242 289 353 432
#     4  10  21  42  72 107 140 188 244 297 361 431
#     4  11  21  42  72 101 143 186 232 300 367 421
#     4   9  20  41  69  96 142 183 229 298 356 419
#     4  10  22  43  71 104 146 188 238 302 359 423
#
# _framework density 26.350925
#
# number of rings (size 3 to 8) (size 9 to 14) (size 15 to 20)
#    0.000    2.000    2.000    0.600    0.000    3.200 
#   10.800    3.000    0.000    0.000    0.000    0.000 
#    0.000    0.000    0.000    0.000    0.000    0.000 
#
# Total GULP energy -55912.375091 kJ/mol
# GULP energy per Si atom -5591.237509 kJ/mol
# Density = 2.629095 g / cm^3
# Si number density = 26.350925 Si / 1000 Ang^3
#
#
#
# Elastic Constant Matrix: (Units=GPa)
#
#
# Indices 1 2 3 4 5 6 
#
# 1 179.5934 50.2093 100.9363 -16.5548 29.3228 45.3658
# 2 50.2093 180.7493 46.2985 -11.0228 2.7498 19.2824
# 3 100.9363 46.2985 215.2747 -26.3423 16.2060 21.2902
# 4 -16.5548 -11.0228 -26.3423 43.3162 17.1575 5.5415
# 5 29.3228 2.7498 16.2060 17.1575 38.2694 3.0037
# 6 45.3658 19.2824 21.2902 5.5415 3.0037 61.7122
#
#
#
# Elastic Compliance Matrix: (Units=1/GPa)
#
#
# Indices 1 2 3 4 5 6 
#
# 1 0.011812 -0.001127 -0.002807 0.007699 -0.010641 -0.007536
# 2 -0.001127 0.006148 -0.000653 0.000671 0.000472 -0.000951
# 3 -0.002807 -0.000653 0.006786 0.003872 -0.002388 -0.000305
# 4 0.007699 0.000671 0.003872 0.039499 -0.024546 -0.009557
# 5 -0.010641 0.000472 -0.002388 -0.024546 0.045600 0.008483
# 6 -0.007536 -0.000951 -0.000305 -0.009557 0.008483 0.022591
#
#
# Mechanical properties :
#
#
# Convention : Reuss Voigt Hill
#
# Bulk Modulus (GPa) = 64.22386 107.83397 86.02891
# Shear Modulus (GPa) = 34.05974 53.87111 43.96543
#
# Velocity S-wave (km/s) = 3.59910 4.52638 4.08911
# Velocity P-wave (km/s) = 6.45730 8.26611 7.41705
#
# Compressibility (1/GPa) = 0.01557054
#
# Stress axis : x y z
#
# Youngs Moduli (GPa) = 84.66309 162.65413 147.36778
#
# Poissons Ratio (x) = 0.18325 0.41372
# Poissons Ratio (y) = 0.09538 0.09628
# Poissons Ratio (z) = 0.23768 0.10627
#
# Static dielectric constant tensor:
#      x y z
#    x 1.540360 0.068970 0.534460 
#    y 0.068970 2.138870 -0.174490 
#    z 0.534460 -0.174490 1.618100 
# 
# From -- ./inp_files/589307.got.cif
#   From: 2010.05.17/outbox.cif.g08.bks.cpg/sg2_295_cif.got.tgz:589307.got - 2010.06.03 11:33:40.
