data_PCOD9017541
_publ_section_title
;
Structure prediction by ZEFSAII (Michael W. Deem and Ramdas Pophale) SiO2 
 PCOD9017541
Probable space group: P -1
;
_chemical_formula_sum "Si O2"
_cell_formula_units_Z 14
_cell_length_a 20.762057
_cell_length_b 8.628513
_cell_length_c 9.334499
_cell_angle_alpha 44.873032
_cell_angle_beta 40.807201
_cell_angle_gamma 28.810773
_cell_volume 521.142263
_symmetry_space_group_name_H-M "P -1"
_symmetry_group_IT_number 2
_symmetry_cell_setting 'triclinic'
loop_
_space_group_symop_operation_xyz
x,y,z
-x,-y,-z
loop_
_atom_site_type_symbol
_atom_site_label
_atom_site_fract_x
_atom_site_fract_y
_atom_site_fract_z
Si Si1 0.289992 0.772499 0.124683
Si Si2 0.065528 0.214868 0.438680
Si Si3 0.412189 0.361404 0.457159
Si Si4 0.241073 0.407324 0.339544
Si Si5 0.685335 0.168553 0.486069
Si Si6 0.951545 0.861427 0.087089
Si Si7 0.179554 0.411531 0.774676
O O1 0.400646 0.540968 0.221980
O O2 0.310050 0.533056 0.144443
O O3 0.136618 0.991972 0.324215
O O4 0.265958 0.049906 0.915130
O O5 0.022798 0.533291 0.262123
O O6 0.914549 0.340988 0.642797
O O7 0.192171 0.021808 0.468364
O O8 0.441215 0.468987 0.474422
O O9 0.260430 0.484543 0.664739
O O10 0.500000 0.000000 0.500000
O O11 0.201201 0.405831 0.572544
O O12 0.338847 0.049963 0.349507
O O13 0.777932 0.114511 0.233363
O O14 0.017247 0.703985 0.921102
O O15 0.000000 0.000000 0.000000
#
# Coordination Sequence:
#
# PCOD9017541 Si02
#       7
#     2   2   2   2   2   2   2
#     4   9  20  36  55  79 112 147 181 227 272 329
#     4   9  19  34  50  78 115 152 182 215 271 330
#     4  10  21  40  63  78 103 145 191 238 274 318
#     4  10  19  35  53  82 118 149 178 217 278 335
#     4  10  20  37  54  83 112 145 188 227 271 324
#     4  10  17  30  52  79 112 140 171 226 267 323
#     4  10  21  37  55  85 115 144 184 219 280 336
#
# _framework density 26.864066999999999
#
# number of rings (size 3 to 8) (size 9 to 14) (size 15 to 20)
#    0.000    2.286    1.429    2.143    0.000    5.714 
#   12.857    2.857    0.000    1.714    0.000    0.000 
#    0.000    0.000    0.000    0.000    0.000    0.000 
#
# Total GULP energy -78231.164622 kJ/mol
# GULP energy per Si atom -5587.940330 kJ/mol
# Density = 2.680292 g / cm^3
# Si number density = 26.864067 Si / 1000 Ang^3
#
#
#
# Elastic Constant Matrix: (Units=GPa)
#
#
# Indices 1 2 3 4 5 6 
#
# 1 56.0359 41.3259 22.3850 -19.3677 6.1091 40.0035
# 2 41.3259 177.2076 47.1384 -24.0053 4.9543 53.3826
# 3 22.3850 47.1384 107.3523 -28.8307 5.6050 16.8000
# 4 -19.3677 -24.0053 -28.8307 48.0607 4.0267 -5.6199
# 5 6.1091 4.9543 5.6050 4.0267 39.9369 -14.3427
# 6 40.0035 53.3826 16.8000 -5.6199 -14.3427 70.1846
#
#
#
# Elastic Compliance Matrix: (Units=1/GPa)
#
#
# Indices 1 2 3 4 5 6 
#
# 1 0.046835 0.001069 0.000302 0.017727 -0.019989 -0.030245
# 2 0.001069 0.008595 -0.001823 0.003107 -0.003893 -0.007257
# 3 0.000302 -0.001823 0.012247 0.006589 -0.002839 -0.001770
# 4 0.017727 0.003107 0.006589 0.032860 -0.012340 -0.013935
# 5 -0.019989 -0.003893 -0.002839 -0.012340 0.038060 0.021824
# 6 -0.030245 -0.007257 -0.001770 -0.013935 0.021824 0.040774
#
#
# Mechanical properties :
#
#
# Convention : Reuss Voigt Hill
#
# Bulk Modulus (GPa) = 14.97622 62.47715 38.72669
# Shear Modulus (GPa) = 24.68733 46.95288 35.82011
#
# Velocity S-wave (km/s) = 3.03474 4.18520 3.65551
# Velocity P-wave (km/s) = 4.22688 6.83094 5.68015
#
# Compressibility (1/GPa) = 0.06677251
#
# Stress axis : x y z
#
# Youngs Moduli (GPa) = 21.35171 116.35103 81.64968
#
# Poissons Ratio (x) = -0.12436 -0.02469
# Poissons Ratio (y) = -0.02282 0.14888
# Poissons Ratio (z) = -0.00646 0.21215
#
# Static dielectric constant tensor:
#      x y z
#    x 2.179270 -0.071120 0.028430 
#    y -0.071120 2.244340 0.068390 
#    z 0.028430 0.068390 2.180530 
# 
# From -- ./inp_files/319044.got.cif
#   From: 2010.05.17/outbox.cif.g08.bks.cpg/sg2_160_cif.got.tgz:319044.got - 2010.06.03 11:33:40.
