data_PCOD9017881
_publ_section_title
;
Structure prediction by ZEFSAII (Michael W. Deem and Ramdas Pophale) SiO2 
 PCOD9017881
Probable space group: P -1
;
_chemical_formula_sum "Si O2"
_cell_formula_units_Z 14
_cell_length_a 5.251421
_cell_length_b 5.461020
_cell_length_c 19.404568
_cell_angle_alpha 105.672449
_cell_angle_beta 77.082140
_cell_angle_gamma 92.291685
_cell_volume 522.113606
_symmetry_space_group_name_H-M "P -1"
_symmetry_group_IT_number 2
_symmetry_cell_setting 'triclinic'
loop_
_space_group_symop_operation_xyz
x,y,z
-x,-y,-z
loop_
_atom_site_type_symbol
_atom_site_label
_atom_site_fract_x
_atom_site_fract_y
_atom_site_fract_z
Si Si1 0.658925 0.736249 0.536918
Si Si2 0.576399 0.646444 0.679439
Si Si3 0.470531 0.298096 0.047665
Si Si4 0.929629 0.154571 0.085947
Si Si5 0.865619 0.345393 0.752041
Si Si6 0.772604 0.815627 0.391672
Si Si7 0.321410 0.136661 0.796827
O O1 0.500000 0.500000 0.500000
O O2 0.755906 0.680096 0.603597
O O3 0.847911 0.784912 0.465121
O O4 0.441838 0.959052 0.576954
O O5 0.749859 0.581028 0.731683
O O6 0.384427 0.420934 0.650176
O O7 0.389682 0.886856 0.727449
O O8 0.700027 0.343241 0.090364
O O9 0.189674 0.299344 0.100260
O O10 0.500000 0.500000 0.000000
O O11 0.500000 0.000000 0.000000
O O12 0.821192 0.966096 0.134636
O O13 0.000000 0.000000 0.000000
O O14 0.971310 0.164546 0.669056
O O15 0.612224 0.239223 0.797799
O O16 0.119221 0.324545 0.783968
#
# Coordination Sequence:
#
# PCOD9017881 Si02
#       7
#     2   2   2   2   2   2   2
#     4   9  19  39  72 100 140 183 236 295 353 426
#     4  11  23  44  68 101 141 187 237 295 360 425
#     4  10  21  44  74 108 145 188 234 302 370 440
#     4  10  23  48  71 103 143 187 240 304 365 438
#     4  12  25  45  70 102 143 185 240 293 352 440
#     4  10  21  43  67 105 137 185 239 291 357 421
#     4  12  27  47  71 102 144 190 239 292 369 428
#
# _framework density 26.814091000000001
#
# number of rings (size 3 to 8) (size 9 to 14) (size 15 to 20)
#    0.000    1.429    2.857    1.286    2.000    0.571 
#   15.429   10.000    0.000    0.000    0.000    0.000 
#    0.000    0.000    0.000    0.000    0.000    0.000 
#
# Total GULP energy -78363.529609 kJ/mol
# GULP energy per Si atom -5597.394972 kJ/mol
# Density = 2.675306 g / cm^3
# Si number density = 26.814091 Si / 1000 Ang^3
#
#
#
# Elastic Constant Matrix: (Units=GPa)
#
#
# Indices 1 2 3 4 5 6 
#
# 1 180.9313 33.0293 41.9319 -10.7466 -3.8723 -12.6932
# 2 33.0293 89.9735 29.8937 18.7575 12.7239 -20.9434
# 3 41.9319 29.8937 181.6034 -29.9002 -11.5607 -17.2981
# 4 -10.7466 18.7575 -29.9002 79.7529 -7.2338 8.5337
# 5 -3.8723 12.7239 -11.5607 -7.2338 45.9864 10.3651
# 6 -12.6932 -20.9434 -17.2981 8.5337 10.3651 42.9937
#
#
#
# Elastic Compliance Matrix: (Units=1/GPa)
#
#
# Indices 1 2 3 4 5 6 
#
# 1 0.006257 -0.002581 -0.000746 0.001322 0.001327 -0.000292
# 2 -0.002581 0.018954 -0.003460 -0.008216 -0.010138 0.011154
# 3 -0.000746 -0.003460 0.007015 0.003719 0.003387 -0.000638
# 4 0.001322 -0.008216 0.003719 0.017547 0.007763 -0.007470
# 5 0.001327 -0.010138 0.003387 0.007763 0.029397 -0.011812
# 6 -0.000292 0.011154 -0.000638 -0.007470 -0.011812 0.032680
#
#
# Mechanical properties :
#
#
# Convention : Reuss Voigt Hill
#
# Bulk Modulus (GPa) = 53.60627 73.57978 63.59302
# Shear Modulus (GPa) = 37.98186 56.92348 47.45267
#
# Velocity S-wave (km/s) = 3.76771 4.61249 4.21133
# Velocity P-wave (km/s) = 6.24201 7.47442 6.88585
#
# Compressibility (1/GPa) = 0.01865453
#
# Stress axis : x y z
#
# Youngs Moduli (GPa) = 159.81268 52.75888 142.54495
#
# Poissons Ratio (x) = 0.13616 0.10628
# Poissons Ratio (y) = 0.41244 0.49317
# Poissons Ratio (z) = 0.11916 0.18253
#
# Static dielectric constant tensor:
#      x y z
#    x 2.105400 -0.037900 -0.041200 
#    y -0.037900 1.987410 -0.143640 
#    z -0.041200 -0.143640 2.094910 
# 
# From -- ./inp_files/580720.got.cif
#   From: 2010.05.17/outbox.cif.g08.bks.cpg/sg2_291_cif.got.tgz:580720.got - 2010.06.03 11:33:40.
