data_PCOD9017225
_publ_section_title
;
Structure prediction by ZEFSAII (Michael W. Deem and Ramdas Pophale) SiO2 
 PCOD9017225
Probable space group: P -1
;
_chemical_formula_sum "Si O2"
_cell_formula_units_Z 16
_cell_length_a 9.299343
_cell_length_b 14.322615
_cell_length_c 11.956696
_cell_angle_alpha 142.167996
_cell_angle_beta 126.608260
_cell_angle_gamma 37.761975
_cell_volume 596.486863
_symmetry_space_group_name_H-M "P -1"
_symmetry_group_IT_number 2
_symmetry_cell_setting 'triclinic'
loop_
_space_group_symop_operation_xyz
x,y,z
-x,-y,-z
loop_
_atom_site_type_symbol
_atom_site_label
_atom_site_fract_x
_atom_site_fract_y
_atom_site_fract_z
Si Si1 0.873932 0.060533 0.642159
Si Si2 0.268699 0.339752 0.125923
Si Si3 0.134582 0.767335 0.849288
Si Si4 0.616881 0.997661 0.278260
Si Si5 0.130408 0.366064 0.323713
Si Si6 0.697976 0.273217 0.340990
Si Si7 0.519029 0.134949 0.717701
Si Si8 0.314354 0.505787 0.091741
O O1 0.860264 0.125418 0.376831
O O2 0.734911 0.102310 0.731792
O O3 0.803780 0.270021 0.777691
O O4 0.776694 0.004764 0.445418
O O5 0.124507 0.440270 0.267908
O O6 0.544889 0.220927 0.167418
O O7 0.207729 0.489039 0.138759
O O8 0.253054 0.176924 0.918338
O O9 0.157138 0.719211 0.681597
O O10 0.406163 0.620885 0.876189
O O11 0.986574 0.736665 0.829510
O O12 0.000000 0.000000 0.000000
O O13 0.474404 0.948887 0.238808
O O14 0.407469 0.212346 0.334617
O O15 0.000000 0.500000 0.500000
O O16 0.500000 0.500000 0.500000
O O17 0.500000 0.000000 0.500000
O O18 0.321093 0.373661 0.872563
#
# Coordination Sequence:
#
# PCOD9017225 Si02
#       8
#     2   2   2   2   2   2   2   2
#     4  11  22  41  76 114 149 199 254 318 378 452
#     4  10  24  47  73 104 151 199 244 306 381 463
#     4  11  23  43  74 108 144 194 251 308 373 452
#     4  10  22  43  69 108 152 196 249 308 382 456
#     4  12  23  41  72 109 146 195 251 308 374 455
#     4  11  24  46  76 110 147 195 252 313 381 459
#     4   9  19  37  68 111 156 195 244 311 379 446
#     4  10  21  42  72 114 156 197 256 316 378 451
#
# _framework density 26.823726000000001
#
# number of rings (size 3 to 8) (size 9 to 14) (size 15 to 20)
#    0.000    1.500    0.000    6.000    0.000    1.000 
#    0.000   11.250    0.000   31.500    0.000    5.250 
#    0.000    0.000    0.000    0.000    0.000    0.000 
#
# Total GULP energy -89663.171735 kJ/mol
# GULP energy per Si atom -5603.948233 kJ/mol
# Density = 2.676267 g / cm^3
# Si number density = 26.823726 Si / 1000 Ang^3
#
#
#
# Elastic Constant Matrix: (Units=GPa)
#
#
# Indices 1 2 3 4 5 6 
#
# 1 158.5027 61.5724 58.5982 0.3045 -12.7710 0.7892
# 2 61.5724 197.3130 71.2727 6.4037 20.8829 -15.8390
# 3 58.5982 71.2727 195.4185 12.3654 -10.1115 8.6325
# 4 0.3045 6.4037 12.3654 41.7210 -2.1137 12.7934
# 5 -12.7710 20.8829 -10.1115 -2.1137 50.9130 -9.6225
# 6 0.7892 -15.8390 8.6325 12.7934 -9.6225 25.4750
#
#
#
# Elastic Compliance Matrix: (Units=1/GPa)
#
#
# Indices 1 2 3 4 5 6 
#
# 1 0.007955 -0.002335 -0.001436 0.001100 0.002563 -0.000796
# 2 -0.002335 0.007467 -0.002283 -0.002280 -0.003169 0.005437
# 3 -0.001436 -0.002283 0.006615 -0.000683 0.001339 -0.002768
# 4 0.001100 -0.002280 -0.000683 0.029478 -0.000785 -0.016321
# 5 0.002563 -0.003169 0.001339 -0.000785 0.023065 0.006604
# 6 -0.000796 0.005437 -0.002768 -0.016321 0.006604 0.054288
#
#
# Mechanical properties :
#
#
# Convention : Reuss Voigt Hill
#
# Bulk Modulus (GPa) = 100.70147 103.79119 102.24633
# Shear Modulus (GPa) = 34.65342 47.60784 41.13063
#
# Velocity S-wave (km/s) = 3.59819 4.21746 3.92007
# Velocity P-wave (km/s) = 7.40851 7.90530 7.66093
#
# Compressibility (1/GPa) = 0.00993034
#
# Stress axis : x y z
#
# Youngs Moduli (GPa) = 125.70506 133.91942 151.16609
#
# Poissons Ratio (x) = 0.31265 0.21704
# Poissons Ratio (y) = 0.29348 0.34514
# Poissons Ratio (z) = 0.18048 0.30577
#
# Static dielectric constant tensor:
#      x y z
#    x 2.198890 -0.020760 0.060450 
#    y -0.020760 2.056110 -0.028070 
#    z 0.060450 -0.028070 2.173840 
# 
# From -- ./inp_files/215979.got.cif
#   From: 2010.05.17/outbox.cif.g08.bks.cpg/sg2_108_cif.got.tgz:215979.got - 2010.06.03 11:33:40.
