data_PCOD9017220
_publ_section_title
;
Structure prediction by ZEFSAII (Michael W. Deem and Ramdas Pophale) SiO2 
 PCOD9017220
Probable space group: P -1
;
_chemical_formula_sum "Si O2"
_cell_formula_units_Z 13
_cell_length_a 19.311487
_cell_length_b 5.380245
_cell_length_c 5.436371
_cell_angle_alpha 86.862623
_cell_angle_beta 80.569391
_cell_angle_gamma 127.418798
_cell_volume 433.876682
_symmetry_space_group_name_H-M "P -1"
_symmetry_group_IT_number 2
_symmetry_cell_setting 'triclinic'
loop_
_space_group_symop_operation_xyz
x,y,z
-x,-y,-z
loop_
_atom_site_type_symbol
_atom_site_label
_atom_site_fract_x
_atom_site_fract_y
_atom_site_fract_z
Si Si1 0.738090 0.842235 0.173881
Si Si2 0.394460 0.263777 0.163746
Si Si3 0.047333 0.813994 0.028833
Si Si4 0.234562 0.594433 0.719528
Si Si5 0.442578 0.859625 0.295602
Si Si6 0.000000 0.500000 0.500000
Si Si7 0.871224 0.673689 0.686047
O O1 0.697866 0.474707 0.240889
O O2 0.741950 0.068931 0.357120
O O3 0.677614 0.831326 0.996630
O O4 0.844659 0.011967 0.067537
O O5 0.395356 0.491100 0.338731
O O6 0.380169 0.959743 0.295308
O O7 0.500000 0.500000 0.000000
O O8 0.982938 0.424697 0.200638
O O9 0.064838 0.935737 0.322927
O O10 0.000000 0.000000 0.000000
O O11 0.187159 0.385248 0.512954
O O12 0.176885 0.489743 0.017257
O O13 0.500000 0.000000 0.500000
O O14 0.500000 0.000000 0.000000
O O15 0.086008 0.488504 0.418758
#
# Coordination Sequence:
#
# PCOD9017220 Si02
#       7
#     2   2   2   2   2   1   2
#     4  11  24  49  73 107 148 198 244 311 371 444
#     4  10  22  44  75 109 148 191 247 302 372 443
#     4  11  26  45  70 100 145 192 251 305 371 438
#     4  11  26  48  73 106 151 191 253 303 378 442
#     4  10  21  42  72 107 146 189 236 298 366 438
#     4  12  24  42  72  96 142 182 252 294 386 418
#     4  11  27  46  73 106 144 197 248 316 372 450
#
# _framework density 29.962429
#
# number of rings (size 3 to 8) (size 9 to 14) (size 15 to 20)
#    0.000    1.231    1.538    2.769    6.462    0.615 
#    0.000   27.692    0.000    0.000    0.000    0.000 
#    0.000    0.000    0.000    0.000    0.000    0.000 
#
# Total GULP energy -72585.043010 kJ/mol
# GULP energy per Si atom -5583.464847 kJ/mol
# Density = 2.989423 g / cm^3
# Si number density = 29.962429 Si / 1000 Ang^3
#
#
#
# Elastic Constant Matrix: (Units=GPa)
#
#
# Indices 1 2 3 4 5 6 
#
# 1 242.2005 100.0904 58.9816 14.3966 4.2370 -34.3216
# 2 100.0904 250.7802 73.0612 21.1654 9.6520 -37.8194
# 3 58.9816 73.0612 196.0525 12.8208 11.9545 4.0775
# 4 14.3966 21.1654 12.8208 82.3665 -2.7298 -1.8323
# 5 4.2370 9.6520 11.9545 -2.7298 82.5251 17.2052
# 6 -34.3216 -37.8194 4.0775 -1.8323 17.2052 90.6587
#
#
#
# Elastic Compliance Matrix: (Units=1/GPa)
#
#
# Indices 1 2 3 4 5 6 
#
# 1 0.005236 -0.001549 -0.000990 -0.000340 -0.000252 0.001422
# 2 -0.001549 0.005425 -0.001491 -0.000875 -0.000758 0.001870
# 3 -0.000990 -0.001491 0.006032 -0.000423 -0.000413 -0.001199
# 4 -0.000340 -0.000875 -0.000423 0.012505 0.000667 -0.000348
# 5 -0.000252 -0.000758 -0.000413 0.000667 0.012890 -0.002826
# 6 0.001422 0.001870 -0.001199 -0.000348 -0.002826 0.012932
#
#
# Mechanical properties :
#
#
# Convention : Reuss Voigt Hill
#
# Bulk Modulus (GPa) = 115.83253 128.14439 121.98846
# Shear Modulus (GPa) = 75.80590 81.57009 78.68799
#
# Velocity S-wave (km/s) = 5.03540 5.22333 5.13023
# Velocity P-wave (km/s) = 8.51764 8.90162 8.71175
#
# Compressibility (1/GPa) = 0.00863315
#
# Stress axis : x y z
#
# Youngs Moduli (GPa) = 190.98802 184.32862 165.78076
#
# Poissons Ratio (x) = 0.28543 0.16414
# Poissons Ratio (y) = 0.29575 0.24724
# Poissons Ratio (z) = 0.18910 0.27490
#
# Static dielectric constant tensor:
#      x y z
#    x 1.855820 -0.129660 -0.098230 
#    y -0.129660 2.685150 -0.066110 
#    z -0.098230 -0.066110 2.183420 
# 
# From -- ./inp_files/113749.got.cif
#   From: 2010.05.17/outbox.cif.g08.bks.cpg/sg2_57_cif.got.tgz:113749.got - 2010.06.03 11:33:40.
