data_PCOD9017082
_publ_section_title
;
Structure prediction by ZEFSAII (Michael W. Deem and Ramdas Pophale) SiO2 
 PCOD9017082
Probable space group: P -1
;
_chemical_formula_sum "Si O2"
_cell_formula_units_Z 14
_cell_length_a 11.379927
_cell_length_b 5.082366
_cell_length_c 29.186604
_cell_angle_alpha 71.683799
_cell_angle_beta 22.646832
_cell_angle_gamma 70.857840
_cell_volume 613.735568
_symmetry_space_group_name_H-M "P -1"
_symmetry_group_IT_number 2
_symmetry_cell_setting 'triclinic'
loop_
_space_group_symop_operation_xyz
x,y,z
-x,-y,-z
loop_
_atom_site_type_symbol
_atom_site_label
_atom_site_fract_x
_atom_site_fract_y
_atom_site_fract_z
Si Si1 0.711110 0.819300 0.090723
Si Si2 0.781237 0.764594 0.582218
Si Si3 0.693363 0.253885 0.327957
Si Si4 0.419139 0.425000 0.142939
Si Si5 0.230974 0.702245 0.845383
Si Si6 0.706935 0.632278 0.381265
Si Si7 0.751129 0.744775 0.935534
O O1 0.552363 0.623992 0.121879
O O2 0.742767 0.629029 0.135134
O O3 0.509008 0.110549 0.143307
O O4 0.053960 0.837244 0.946134
O O5 0.534823 0.800113 0.627999
O O6 0.569179 0.750989 0.704701
O O7 0.000000 0.500000 0.500000
O O8 0.000000 0.000000 0.500000
O O9 0.588019 0.523090 0.381441
O O10 0.023616 0.307472 0.185567
O O11 0.711785 0.964034 0.364954
O O12 0.057115 0.498735 0.266246
O O13 0.578820 0.497263 0.033272
O O14 0.993438 0.801978 0.885150
O O15 0.500000 0.500000 0.500000
O O16 0.500000 0.000000 0.000000
#
# Coordination Sequence:
#
# PCOD9017082 Si02
#       7
#     2   2   2   2   2   2   2
#     4  10  23  43  67  97 136 173 223 286 335 407
#     4  11  25  44  69 100 136 181 230 276 343 412
#     4  11  25  45  69  98 136 177 227 292 339 400
#     4  11  24  41  69  99 132 182 225 274 350 400
#     4   9  23  42  68 101 136 174 226 280 342 401
#     4  12  26  44  65  97 137 180 232 278 339 413
#     4  10  21  42  71 101 136 172 225 285 345 409
#
# _framework density 22.811126999999999
#
# number of rings (size 3 to 8) (size 9 to 14) (size 15 to 20)
#    0.000    1.429    1.429    2.143    2.000   17.143 
#    0.000    0.000    0.000    0.000    0.000    0.000 
#    0.000    0.000    0.000    0.000    0.000    0.000 
#
# Total GULP energy -78245.307006 kJ/mol
# GULP energy per Si atom -5588.950500 kJ/mol
# Density = 2.275921 g / cm^3
# Si number density = 22.811127 Si / 1000 Ang^3
#
#
#
# Elastic Constant Matrix: (Units=GPa)
#
#
# Indices 1 2 3 4 5 6 
#
# 1 62.9688 19.0163 23.3738 -10.2566 -12.5967 -1.0901
# 2 19.0163 116.8354 19.8318 2.7495 -20.6500 -4.9555
# 3 23.3738 19.8318 171.8532 -11.3174 -6.3935 -8.5136
# 4 -10.2566 2.7495 -11.3174 25.7787 -1.2007 -2.4260
# 5 -12.5967 -20.6500 -6.3935 -1.2007 33.9810 -2.2221
# 6 -1.0901 -4.9555 -8.5136 -2.4260 -2.2221 42.0764
#
#
#
# Elastic Compliance Matrix: (Units=1/GPa)
#
#
# Indices 1 2 3 4 5 6 
#
# 1 0.019560 -0.001981 -0.001672 0.007607 0.006047 0.000693
# 2 -0.001981 0.010025 -0.000757 -0.001839 0.005226 0.001146
# 3 -0.001672 -0.000757 0.006363 0.002346 0.000286 0.001305
# 4 0.007607 -0.001839 0.002346 0.043524 0.003889 0.003170
# 5 0.006047 0.005226 0.000286 0.003889 0.035227 0.002914
# 6 0.000693 0.001146 0.001305 0.003170 0.002914 0.024520
#
#
# Mechanical properties :
#
#
# Convention : Reuss Voigt Hill
#
# Bulk Modulus (GPa) = 36.86015 52.90016 44.88015
# Shear Modulus (GPa) = 31.83040 39.66291 35.74665
#
# Velocity S-wave (km/s) = 3.73954 4.17436 3.96292
# Velocity P-wave (km/s) = 5.90250 6.81722 6.37629
#
# Compressibility (1/GPa) = 0.02712957
#
# Stress axis : x y z
#
# Youngs Moduli (GPa) = 51.12420 99.74575 157.14782
#
# Poissons Ratio (x) = 0.19757 0.26268
# Poissons Ratio (y) = 0.10127 0.11903
# Poissons Ratio (z) = 0.08546 0.07555
#
# Static dielectric constant tensor:
#      x y z
#    x 1.945270 0.019800 0.014430 
#    y 0.019800 1.827650 -0.009540 
#    z 0.014430 -0.009540 1.831950 
# 
# From -- ./inp_files/434257.got.cif
#   From: 2010.05.17/outbox.cif.g08.bks.cpg/sg2_218_cif.got.tgz:434257.got - 2010.06.03 11:33:40.
