data_PCOD9017385
_publ_section_title
;
Structure prediction by ZEFSAII (Michael W. Deem and Ramdas Pophale) SiO2 
 PCOD9017385
Probable space group: P -1
;
_chemical_formula_sum "Si O2"
_cell_formula_units_Z 16
_cell_length_a 16.815835
_cell_length_b 7.487430
_cell_length_c 13.854833
_cell_angle_alpha 109.637573
_cell_angle_beta 33.632078
_cell_angle_gamma 129.569146
_cell_volume 663.168390
_symmetry_space_group_name_H-M "P -1"
_symmetry_group_IT_number 2
_symmetry_cell_setting 'triclinic'
loop_
_space_group_symop_operation_xyz
x,y,z
-x,-y,-z
loop_
_atom_site_type_symbol
_atom_site_label
_atom_site_fract_x
_atom_site_fract_y
_atom_site_fract_z
Si Si1 0.117111 0.462665 0.094018
Si Si2 0.986295 0.220969 0.516276
Si Si3 0.313605 0.389799 0.734369
Si Si4 0.598001 0.752787 0.190982
Si Si5 0.588482 0.690822 0.855789
Si Si6 0.018438 0.076346 0.804690
Si Si7 0.187755 0.503600 0.566309
Si Si8 0.730259 0.329597 0.819053
O O1 0.936038 0.439235 0.248866
O O2 0.230486 0.654622 0.104371
O O3 0.024971 0.184500 0.180924
O O4 0.269384 0.539044 0.870076
O O5 0.175507 0.086596 0.349109
O O6 0.101167 0.396050 0.527344
O O7 0.139925 0.373654 0.301036
O O8 0.826673 0.240810 0.651308
O O9 0.500000 0.500000 0.500000
O O10 0.334785 0.251893 0.771781
O O11 0.127851 0.225739 0.820697
O O12 0.504190 0.492483 0.178138
O O13 0.422786 0.745779 0.368062
O O14 0.809909 0.989013 0.974830
O O15 0.500000 0.500000 0.000000
O O16 0.492517 0.807947 0.993128
O O17 0.157058 0.281061 0.617310
#
# Coordination Sequence:
#
# PCOD9017385 Si02
#       8
#     2   2   2   2   2   2   2   2
#     4  10  23  44  68  97 134 176 219 275 336 395
#     4  10  24  38  64  97 131 183 218 275 324 394
#     4  11  22  45  72  98 129 175 223 277 344 401
#     4  11  23  41  64 100 132 172 228 270 330 402
#     4  12  23  37  65  97 134 177 225 268 334 394
#     4  11  23  45  70  92 135 174 216 284 335 390
#     4  11  24  44  65 101 138 170 229 271 322 401
#     4  10  21  43  60  91 139 171 228 270 327 401
#
# _framework density 24.126604
#
# number of rings (size 3 to 8) (size 9 to 14) (size 15 to 20)
#    0.000    1.250    3.750    3.375    1.750    1.500 
#    2.250    3.750    0.000    0.000    0.000    0.000 
#    0.000    0.000    0.000    0.000    0.000    0.000 
#
# Total GULP energy -89234.326802 kJ/mol
# GULP energy per Si atom -5577.145425 kJ/mol
# Density = 2.407169 g / cm^3
# Si number density = 24.126604 Si / 1000 Ang^3
#
#
#
# Elastic Constant Matrix: (Units=GPa)
#
#
# Indices 1 2 3 4 5 6 
#
# 1 97.5117 9.3238 33.8981 -7.1461 -5.5283 17.6975
# 2 9.3238 31.1979 35.0689 2.6372 -0.3475 0.7291
# 3 33.8981 35.0689 174.1373 7.0920 -31.0387 13.1754
# 4 -7.1461 2.6372 7.0920 44.0445 -0.5631 -7.6982
# 5 -5.5283 -0.3475 -31.0387 -0.5631 55.1525 0.5171
# 6 17.6975 0.7291 13.1754 -7.6982 0.5171 36.2023
#
#
#
# Elastic Compliance Matrix: (Units=1/GPa)
#
#
# Indices 1 2 3 4 5 6 
#
# 1 0.012007 -0.001796 -0.001597 0.001452 0.000355 -0.004948
# 2 -0.001796 0.043227 -0.009523 -0.000824 -0.005307 0.003374
# 3 -0.001597 -0.009523 0.009121 -0.001576 0.004923 -0.002752
# 4 0.001452 -0.000824 -0.001576 0.024113 -0.000547 0.005015
# 5 0.000355 -0.005307 0.004923 -0.000547 0.020920 -0.002273
# 6 -0.004948 0.003374 -0.002752 0.005015 -0.002273 0.032074
#
#
# Mechanical properties :
#
#
# Convention : Reuss Voigt Hill
#
# Bulk Modulus (GPa) = 25.95946 51.04762 38.50354
# Shear Modulus (GPa) = 27.75683 42.05027 34.90355
#
# Velocity S-wave (km/s) = 3.39553 4.17933 3.80766
# Velocity P-wave (km/s) = 5.11428 6.67033 5.94345
#
# Compressibility (1/GPa) = 0.03852160
#
# Stress axis : x y z
#
# Youngs Moduli (GPa) = 83.28650 23.13366 109.63399
#
# Poissons Ratio (x) = 0.04155 0.17509
# Poissons Ratio (y) = 0.14961 1.04408
# Poissons Ratio (z) = 0.13301 0.22031
#
# Static dielectric constant tensor:
#      x y z
#    x 1.902440 0.001720 -0.024530 
#    y 0.001720 1.540390 0.018650 
#    z -0.024530 0.018650 1.981940 
# 
# From -- ./inp_files/296389.got.cif
#   From: 2010.05.17/outbox.cif.g08.bks.cpg/sg2_149_cif.got.tgz:296389.got - 2010.06.03 11:33:40.
