data_PCOD9017741
_publ_section_title
;
Structure prediction by ZEFSAII (Michael W. Deem and Ramdas Pophale) SiO2 
 PCOD9017741
Probable space group: P -1
;
_chemical_formula_sum "Si O2"
_cell_formula_units_Z 14
_cell_length_a 11.525460
_cell_length_b 13.821211
_cell_length_c 7.872138
_cell_angle_alpha 59.835884
_cell_angle_beta 141.655346
_cell_angle_gamma 130.231708
_cell_volume 593.909448
_symmetry_space_group_name_H-M "P -1"
_symmetry_group_IT_number 2
_symmetry_cell_setting 'triclinic'
loop_
_space_group_symop_operation_xyz
x,y,z
-x,-y,-z
loop_
_atom_site_type_symbol
_atom_site_label
_atom_site_fract_x
_atom_site_fract_y
_atom_site_fract_z
Si Si1 0.336033 0.884800 0.155807
Si Si2 0.855677 0.964419 0.027924
Si Si3 0.753146 0.538328 0.573475
Si Si4 0.260473 0.034186 0.645425
Si Si5 0.378543 0.259977 0.841110
Si Si6 0.027732 0.604581 0.164361
Si Si7 0.356767 0.476296 0.024959
O O1 0.274693 0.959743 0.158722
O O2 0.264059 0.922398 0.861158
O O3 0.583740 0.935370 0.363457
O O4 0.208362 0.738669 0.187107
O O5 0.028039 0.000495 0.345972
O O6 0.696401 0.816918 0.002348
O O7 0.000000 0.000000 0.000000
O O8 0.768142 0.674109 0.427978
O O9 0.499934 0.446907 0.351063
O O10 0.867642 0.487687 0.617967
O O11 0.857060 0.547411 0.865894
O O12 0.360400 0.160477 0.765358
O O13 0.605687 0.381854 0.012939
O O14 0.890058 0.613981 0.154338
O O15 0.500000 0.500000 0.000000
#
# Coordination Sequence:
#
# PCOD9017741 Si02
#       7
#     2   2   2   2   2   2   2
#     4  10  23  38  66  93 120 160 209 251 304 360
#     4  11  23  41  65  92 123 161 201 257 310 361
#     4   9  22  37  61  92 119 158 204 249 302 356
#     4  10  21  43  66  90 122 160 207 257 304 353
#     4   9  21  43  61  90 121 163 206 247 304 360
#     4  11  21  38  64  93 121 158 210 251 294 370
#     4  10  24  41  59  89 129 166 197 249 311 362
#
# _framework density 23.572619
#
# number of rings (size 3 to 8) (size 9 to 14) (size 15 to 20)
#    0.857    1.143    0.000    3.857    6.000    2.286 
#    2.571    0.000    0.000    0.000    0.000    0.000 
#    0.000    0.000    0.000    0.000    0.000    0.000 
#
# Total GULP energy -78138.261449 kJ/mol
# GULP energy per Si atom -5581.304389 kJ/mol
# Density = 2.351897 g / cm^3
# Si number density = 23.572619 Si / 1000 Ang^3
#
#
#
# Elastic Constant Matrix: (Units=GPa)
#
#
# Indices 1 2 3 4 5 6 
#
# 1 134.9410 28.0295 12.0425 -14.5515 22.2879 15.1635
# 2 28.0295 71.7450 3.1704 -14.3214 6.8636 11.4350
# 3 12.0425 3.1704 38.3263 -5.0351 17.2202 -3.9643
# 4 -14.5515 -14.3214 -5.0351 25.4660 -1.0582 9.2911
# 5 22.2879 6.8636 17.2202 -1.0582 43.0735 -1.5432
# 6 15.1635 11.4350 -3.9643 9.2911 -1.5432 31.0890
#
#
#
# Elastic Compliance Matrix: (Units=1/GPa)
#
#
# Indices 1 2 3 4 5 6 
#
# 1 0.010074 -0.000758 -0.000643 0.007642 -0.004906 -0.007244
# 2 -0.000758 0.019104 0.000750 0.014347 -0.002994 -0.010998
# 3 -0.000643 0.000750 0.032848 0.005285 -0.012717 0.002016
# 4 0.007642 0.014347 0.005285 0.062410 -0.007801 -0.027369
# 5 -0.004906 -0.002994 -0.012717 -0.007801 0.031331 0.005759
# 6 -0.007244 -0.010998 0.002016 -0.027369 0.005759 0.048467
#
#
# Mechanical properties :
#
#
# Convention : Reuss Voigt Hill
#
# Bulk Modulus (GPa) = 16.46785 36.83302 26.65044
# Shear Modulus (GPa) = 22.14565 33.37702 27.76133
#
# Velocity S-wave (km/s) = 3.06839 3.76696 3.43548
# Velocity P-wave (km/s) = 4.42205 5.88041 5.20259
#
# Compressibility (1/GPa) = 0.06072436
#
# Stress axis : x y z
#
# Youngs Moduli (GPa) = 99.26509 52.34405 30.44283
#
# Poissons Ratio (x) = 0.03967 0.01959
# Poissons Ratio (y) = 0.07522 -0.02283
# Poissons Ratio (z) = 0.06388 -0.03926
#
# Static dielectric constant tensor:
#      x y z
#    x 1.982100 -0.008240 -0.072480 
#    y -0.008240 1.887630 0.004650 
#    z -0.072480 0.004650 1.934100 
# 
# From -- ./inp_files/264555.got.cif
#   From: 2010.05.17/outbox.cif.g08.bks.cpg/sg2_133_cif.got.tgz:264555.got - 2010.06.03 11:33:40.
