data_PCOD9017628
_publ_section_title
;
Structure prediction by ZEFSAII (Michael W. Deem and Ramdas Pophale) SiO2 
 PCOD9017628
Probable space group: P -1
;
_chemical_formula_sum "Si O2"
_cell_formula_units_Z 16
_cell_length_a 9.464509
_cell_length_b 14.906400
_cell_length_c 8.873741
_cell_angle_alpha 141.212375
_cell_angle_beta 67.895877
_cell_angle_gamma 113.185558
_cell_volume 715.653403
_symmetry_space_group_name_H-M "P -1"
_symmetry_group_IT_number 2
_symmetry_cell_setting 'triclinic'
loop_
_space_group_symop_operation_xyz
x,y,z
-x,-y,-z
loop_
_atom_site_type_symbol
_atom_site_label
_atom_site_fract_x
_atom_site_fract_y
_atom_site_fract_z
Si Si1 0.362773 0.341047 0.689296
Si Si2 0.820895 0.022467 0.106637
Si Si3 0.260115 0.616904 0.944668
Si Si4 0.499703 0.894015 0.217506
Si Si5 0.695378 0.534986 0.831824
Si Si6 0.344389 0.016171 0.170262
Si Si7 0.869003 0.535067 0.482007
Si Si8 0.108463 0.682478 0.374280
O O1 0.283881 0.459318 0.788186
O O2 0.541352 0.416616 0.720440
O O3 0.334685 0.183893 0.422150
O O4 0.316868 0.337476 0.879298
O O5 0.669453 0.912671 0.091945
O O6 0.811777 0.162416 0.396012
O O7 0.786310 0.050531 0.981872
O O8 0.000000 0.000000 0.000000
O O9 0.211311 0.598481 0.765364
O O10 0.419133 0.727364 0.060675
O O11 0.126640 0.666290 0.167258
O O12 0.500000 0.000000 0.500000
O O13 0.370844 0.942612 0.220772
O O14 0.749522 0.585033 0.710142
O O15 0.809429 0.442647 0.749905
O O16 0.500000 0.000000 0.000000
O O17 0.000000 0.500000 0.500000
O O18 0.944386 0.653182 0.485340
#
# Coordination Sequence:
#
# PCOD9017628 Si02
#       8
#     2   2   2   2   2   2   2   2
#     4  10  22  40  66  99 134 165 230 287 332 397
#     4  11  25  44  68  99 141 187 235 291 353 420
#     4  11  24  41  72 103 131 179 237 291 344 409
#     4  11  24  46  73 103 139 188 237 284 351 435
#     4   9  20  38  63  95 128 175 213 283 342 399
#     4  10  24  44  71  95 138 192 232 274 357 425
#     4  10  23  39  65  96 135 177 225 285 345 413
#     4  10  21  43  65  91 139 181 224 278 361 412
#
# _framework density 22.357192000000001
#
# number of rings (size 3 to 8) (size 9 to 14) (size 15 to 20)
#    0.000    1.750    1.250    1.875   12.250    1.500 
#    0.000    0.625    0.000    0.000    0.000    0.000 
#    0.000    0.000    0.000    0.000    0.000    0.000 
#
# Total GULP energy -89227.685389 kJ/mol
# GULP energy per Si atom -5576.730337 kJ/mol
# Density = 2.230631 g / cm^3
# Si number density = 22.357192 Si / 1000 Ang^3
#
#
#
# Elastic Constant Matrix: (Units=GPa)
#
#
# Indices 1 2 3 4 5 6 
#
# 1 89.9755 28.9250 35.7866 -24.1760 18.7268 -8.2972
# 2 28.9250 76.3314 44.9053 -20.2805 -4.1405 10.1497
# 3 35.7866 44.9053 115.3744 -11.8189 0.7509 -3.6568
# 4 -24.1760 -20.2805 -11.8189 43.8450 -1.1628 -1.2561
# 5 18.7268 -4.1405 0.7509 -1.1628 29.2810 -7.7563
# 6 -8.2972 10.1497 -3.6568 -1.2561 -7.7563 34.5874
#
#
#
# Elastic Compliance Matrix: (Units=1/GPa)
#
#
# Indices 1 2 3 4 5 6 
#
# 1 0.018170 -0.004184 -0.003118 0.007037 -0.011049 0.003035
# 2 -0.004184 0.021212 -0.006623 0.005639 0.004277 -0.006765
# 3 -0.003118 -0.006623 0.012148 -0.001392 0.001419 0.002747
# 4 0.007037 0.005639 -0.001392 0.028868 -0.002417 0.000392
# 5 -0.011049 0.004277 0.001419 -0.002417 0.043241 0.005854
# 6 0.003035 -0.006765 0.002747 0.000392 0.005854 0.033243
#
#
# Mechanical properties :
#
#
# Convention : Reuss Voigt Hill
#
# Bulk Modulus (GPa) = 42.23145 55.65724 48.94434
# Shear Modulus (GPa) = 25.95716 33.01364 29.48540
#
# Velocity S-wave (km/s) = 3.41107 3.84688 3.63551
# Velocity P-wave (km/s) = 5.86893 6.68431 6.28984
#
# Compressibility (1/GPa) = 0.02367904
#
# Stress axis : x y z
#
# Youngs Moduli (GPa) = 55.03657 47.14271 82.32024
#
# Poissons Ratio (x) = 0.19724 0.25671
# Poissons Ratio (y) = 0.23027 0.54520
# Poissons Ratio (z) = 0.17163 0.31222
#
# Static dielectric constant tensor:
#      x y z
#    x 1.905230 0.006520 -0.022520 
#    y 0.006520 1.887110 -0.009420 
#    z -0.022520 -0.009420 1.843620 
# 
# From -- ./inp_files/209222.got.cif
#   From: 2010.05.17/outbox.cif.g08.bks.cpg/sg2_105_cif.got.tgz:209222.got - 2010.06.03 11:33:40.
