data_PCOD9017506
_publ_section_title
;
Structure prediction by ZEFSAII (Michael W. Deem and Ramdas Pophale) SiO2 
 PCOD9017506
Probable space group: P -1
;
_chemical_formula_sum "Si O2"
_cell_formula_units_Z 15
_cell_length_a 19.675840
_cell_length_b 11.682414
_cell_length_c 13.376794
_cell_angle_alpha 24.046323
_cell_angle_beta 29.466818
_cell_angle_gamma 30.879391
_cell_volume 584.926564
_symmetry_space_group_name_H-M "P -1"
_symmetry_group_IT_number 2
_symmetry_cell_setting 'triclinic'
loop_
_space_group_symop_operation_xyz
x,y,z
-x,-y,-z
loop_
_atom_site_type_symbol
_atom_site_label
_atom_site_fract_x
_atom_site_fract_y
_atom_site_fract_z
Si Si1 0.498524 0.908189 0.956619
Si Si2 0.835703 0.215538 0.334222
Si Si3 0.336192 0.057806 0.695335
Si Si4 0.815732 0.635349 0.742423
Si Si5 0.772528 0.319045 0.551655
Si Si6 0.128972 0.872218 0.220672
Si Si7 0.500000 0.500000 0.500000
Si Si8 0.109291 0.247270 0.667297
O O1 0.647769 0.653657 0.945190
O O2 0.497456 0.212963 0.664505
O O3 0.360394 0.809046 0.194370
O O4 0.500000 0.000000 0.000000
O O5 0.833327 0.344122 0.345086
O O6 0.682125 0.399554 0.335994
O O7 0.826920 0.876648 0.618576
O O8 0.995638 0.158173 0.127627
O O9 0.285166 0.372190 0.564278
O O10 0.230491 0.053123 0.741355
O O11 0.500000 0.000000 0.500000
O O12 0.291698 0.854416 0.995629
O O13 0.845063 0.776876 0.487135
O O14 0.935081 0.310283 0.854933
O O15 0.880647 0.122682 0.651634
O O16 0.108645 0.581163 0.431392
#
# Coordination Sequence:
#
# PCOD9017506 Si02
#       8
#     2   2   2   2   2   2   1   2
#     4  11  22  39  63  96 132 164 201 258 325 378
#     4  10  21  43  64 100 127 160 213 260 325 381
#     4  11  27  43  62  94 126 170 224 258 305 381
#     4   9  19  39  67  89 126 163 202 264 316 376
#     4  11  24  42  66  95 127 172 209 260 320 377
#     4  10  24  43  66  88 130 174 209 265 312 370
#     4  10  22  38  60  96 132 156 200 252 312 388
#     4   9  21  43  64  90 122 166 215 259 315 371
#
# _framework density 25.644242999999999
#
# number of rings (size 3 to 8) (size 9 to 14) (size 15 to 20)
#    0.000    1.867    2.667    0.400    5.600    3.733 
#    2.400    6.000    0.000    0.000    0.000    0.000 
#    0.000    0.000    0.000    0.000    0.000    0.000 
#
# Total GULP energy -83570.423661 kJ/mol
# GULP energy per Si atom -5571.361577 kJ/mol
# Density = 2.558588 g / cm^3
# Si number density = 25.644243 Si / 1000 Ang^3
#
#
#
# Elastic Constant Matrix: (Units=GPa)
#
#
# Indices 1 2 3 4 5 6 
#
# 1 96.2826 0.6685 1.1600 5.2706 -7.0404 22.2141
# 2 0.6685 117.3891 -2.2823 32.3240 -8.3778 -12.3820
# 3 1.1600 -2.2823 34.4869 20.3766 -16.8966 1.3008
# 4 5.2706 32.3240 20.3766 39.4405 -1.2351 -6.9585
# 5 -7.0404 -8.3778 -16.8966 -1.2351 40.8107 3.4976
# 6 22.2141 -12.3820 1.3008 -6.9585 3.4976 30.0392
#
#
#
# Elastic Compliance Matrix: (Units=1/GPa)
#
#
# Indices 1 2 3 4 5 6 
#
# 1 0.014944 0.002873 0.012430 -0.013044 0.009162 -0.014494
# 2 0.002873 0.016690 0.022999 -0.026214 0.012979 -0.003825
# 3 0.012430 0.022999 0.098662 -0.074726 0.047754 -0.026854
# 4 -0.013044 -0.026214 -0.074726 0.090857 -0.038183 0.027569
# 5 0.009162 0.012979 0.047754 -0.038183 0.048909 -0.018033
# 6 -0.014494 -0.003825 -0.026854 0.027569 -0.018033 0.052080
#
#
# Mechanical properties :
#
#
# Convention : Reuss Voigt Hill
#
# Bulk Modulus (GPa) = 4.83318 27.47232 16.15275
# Shear Modulus (GPa) = 15.89798 38.63225 27.26511
#
# Velocity S-wave (km/s) = 2.49257 3.88554 3.26422
# Velocity P-wave (km/s) = 3.18946 5.55572 4.52982
#
# Compressibility (1/GPa) = 0.20690294
#
# Stress axis : x y z
#
# Youngs Moduli (GPa) = 66.91529 59.91435 10.13557
#
# Poissons Ratio (x) = -0.17216 -0.12598
# Poissons Ratio (y) = -0.19228 -0.23311
# Poissons Ratio (z) = -0.83176 -1.37800
#
# Static dielectric constant tensor:
#      x y z
#    x 2.063000 -0.060530 0.037300 
#    y -0.060530 2.000070 -0.002360 
#    z 0.037300 -0.002360 2.150880 
# 
# From -- ./inp_files/540762.got.cif
#   From: 2010.05.17/outbox.cif.g08.bks.cpg/sg2_271_cif.got.tgz:540762.got - 2010.06.03 11:33:40.
