data_PCOD9017922
_publ_section_title
;
Structure prediction by ZEFSAII (Michael W. Deem and Ramdas Pophale) SiO2 
 PCOD9017922
Probable space group: P -1
;
_chemical_formula_sum "Si O2"
_cell_formula_units_Z 16
_cell_length_a 8.955473
_cell_length_b 14.930582
_cell_length_c 5.752633
_cell_angle_alpha 84.316733
_cell_angle_beta 84.609127
_cell_angle_gamma 66.870987
_cell_volume 702.609986
_symmetry_space_group_name_H-M "P -1"
_symmetry_group_IT_number 2
_symmetry_cell_setting 'triclinic'
loop_
_space_group_symop_operation_xyz
x,y,z
-x,-y,-z
loop_
_atom_site_type_symbol
_atom_site_label
_atom_site_fract_x
_atom_site_fract_y
_atom_site_fract_z
Si Si1 0.300317 0.843238 0.477215
Si Si2 0.098233 0.424536 0.314376
Si Si3 0.952496 0.099758 0.124323
Si Si4 0.098410 0.608268 0.026162
Si Si5 0.409290 0.267520 0.211855
Si Si6 0.321610 0.711139 0.116879
Si Si7 0.187826 0.201544 0.930131
Si Si8 0.508424 0.947547 0.263783
O O1 0.127623 0.898604 0.611530
O O2 0.445188 0.811063 0.651231
O O3 0.313171 0.742535 0.378908
O O4 0.361542 0.908898 0.285281
O O5 0.134208 0.496890 0.108606
O O6 0.274066 0.345521 0.372489
O O7 0.000000 0.500000 0.500000
O O8 0.978572 0.379113 0.224741
O O9 0.806566 0.187076 0.995394
O O10 0.097603 0.138264 0.079454
O O11 0.000000 0.000000 0.000000
O O12 0.252541 0.632314 0.062168
O O13 0.948896 0.694665 0.156605
O O14 0.501215 0.312515 0.008176
O O15 0.305721 0.222570 0.088690
O O16 0.311606 0.138464 0.734837
O O17 0.500000 0.000000 0.500000
O O18 0.500000 0.000000 0.000000
#
# Coordination Sequence:
#
# PCOD9017922 Si02
#       8
#     2   2   2   2   2   2   2   2
#     4  11  24  42  65  92 136 179 226 280 346 415
#     4  10  22  39  68  97 126 163 227 277 337 420
#     4  10  23  42  63  93 132 174 229 290 342 402
#     4   9  22  42  63  94 130 168 215 282 340 406
#     4  10  22  41  65  95 129 177 220 281 344 415
#     4  10  22  42  62  91 131 173 220 271 354 404
#     4  10  21  43  67  93 133 179 227 281 350 407
#     4  12  26  43  69 101 136 184 241 293 342 414
#
# _framework density 22.772238000000002
#
# number of rings (size 3 to 8) (size 9 to 14) (size 15 to 20)
#    0.000    1.750    1.250    1.500    5.250    6.000 
#    6.750    1.250    0.000    0.000    0.000    0.000 
#    0.000    0.000    0.000    0.000    0.000    0.000 
#
# Total GULP energy -89280.628423 kJ/mol
# GULP energy per Si atom -5580.039276 kJ/mol
# Density = 2.272041 g / cm^3
# Si number density = 22.772238 Si / 1000 Ang^3
#
#
#
# Elastic Constant Matrix: (Units=GPa)
#
#
# Indices 1 2 3 4 5 6 
#
# 1 164.8959 34.5663 39.9740 20.8270 -14.3943 33.2828
# 2 34.5663 57.1939 5.0511 15.0371 -11.4145 6.7373
# 3 39.9740 5.0511 64.6326 24.2129 -18.9628 5.9446
# 4 20.8270 15.0371 24.2129 41.7943 -10.6923 -1.2024
# 5 -14.3943 -11.4145 -18.9628 -10.6923 37.4894 7.6561
# 6 33.2828 6.7373 5.9446 -1.2024 7.6561 45.6918
#
#
#
# Elastic Compliance Matrix: (Units=1/GPa)
#
#
# Indices 1 2 3 4 5 6 
#
# 1 0.009352 -0.004232 -0.004417 -0.000458 0.001125 -0.005814
# 2 -0.004232 0.023271 0.006032 -0.008115 0.006702 -0.002470
# 3 -0.004417 0.006032 0.025608 -0.012280 0.010212 -0.003038
# 4 -0.000458 -0.008115 -0.012280 0.034334 0.000115 0.004012
# 5 0.001125 0.006702 0.010212 0.000115 0.036224 -0.009203
# 6 -0.005814 -0.002470 -0.003038 0.004012 -0.009203 0.028528
#
#
# Mechanical properties :
#
#
# Convention : Reuss Voigt Hill
#
# Bulk Modulus (GPa) = 18.86849 49.54501 34.20675
# Shear Modulus (GPa) = 27.74442 38.80385 33.27414
#
# Velocity S-wave (km/s) = 3.49427 4.13243 3.82667
# Velocity P-wave (km/s) = 4.95818 6.67632 5.88034
#
# Compressibility (1/GPa) = 0.05299841
#
# Stress axis : x y z
#
# Youngs Moduli (GPa) = 106.93062 42.97114 39.04985
#
# Poissons Ratio (x) = 0.18186 0.17248
# Poissons Ratio (y) = 0.45254 -0.23556
# Poissons Ratio (z) = 0.47229 -0.25922
#
# Static dielectric constant tensor:
#      x y z
#    x 1.834760 0.004770 0.007540 
#    y 0.004770 1.916400 -0.046710 
#    z 0.007540 -0.046710 2.000360 
# 
# From -- ./inp_files/38612.got.cif
#   From: 2010.05.17/outbox.cif.g08.bks.cpg/sg2_20_cif.got.tgz:38612.got - 2010.06.03 11:33:40.
