data_PCOD9017140
_publ_section_title
;
Structure prediction by ZEFSAII (Michael W. Deem and Ramdas Pophale) SiO2 
 PCOD9017140
Probable space group: P -1
;
_chemical_formula_sum "Si O2"
_cell_formula_units_Z 15
_cell_length_a 12.351551
_cell_length_b 12.241099
_cell_length_c 15.266023
_cell_angle_alpha 112.068561
_cell_angle_beta 34.632429
_cell_angle_gamma 138.250612
_cell_volume 678.793081
_symmetry_space_group_name_H-M "P -1"
_symmetry_group_IT_number 2
_symmetry_cell_setting 'triclinic'
loop_
_space_group_symop_operation_xyz
x,y,z
-x,-y,-z
loop_
_atom_site_type_symbol
_atom_site_label
_atom_site_fract_x
_atom_site_fract_y
_atom_site_fract_z
Si Si1 0.771415 0.630171 0.487945
Si Si2 0.682162 0.046564 0.109879
Si Si3 0.760492 0.404903 0.714595
Si Si4 0.062092 0.372316 0.807856
Si Si5 0.586323 0.180743 0.505601
Si Si6 0.000000 0.000000 0.500000
Si Si7 0.371203 0.276500 0.784702
Si Si8 0.530462 0.200977 0.353205
O O1 0.408544 0.489420 0.648350
O O2 0.966963 0.674733 0.288851
O O3 0.967069 0.840159 0.461846
O O4 0.664443 0.487030 0.593205
O O5 0.570408 0.085395 0.267178
O O6 0.416503 0.805340 0.197923
O O7 0.769741 0.168223 0.001628
O O8 0.025126 0.161243 0.952196
O O9 0.469179 0.333175 0.838689
O O10 0.000000 0.500000 0.500000
O O11 0.011311 0.595559 0.673533
O O12 0.135197 0.549723 0.820849
O O13 0.380367 0.145138 0.707192
O O14 0.492772 0.194054 0.479953
O O15 0.500000 0.000000 0.500000
O O16 0.782176 0.906648 0.525050
#
# Coordination Sequence:
#
# PCOD9017140 Si02
#       8
#     2   2   2   2   2   1   2   2
#     4   9  18  37  63  95 123 179 212 263 327 403
#     4  11  23  40  69 100 134 174 218 286 334 393
#     4  10  23  42  66  96 126 177 223 269 336 398
#     4   9  19  38  63  92 133 168 215 267 334 393
#     4  11  24  42  70  96 129 181 228 276 327 407
#     4  10  24  34  68  94 134 178 224 268 320 410
#     4  10  21  42  71  93 135 172 224 273 338 389
#     4  11  22  41  63  98 138 171 229 267 340 391
#
# _framework density 22.098044999999999
#
# number of rings (size 3 to 8) (size 9 to 14) (size 15 to 20)
#    0.000    1.867    1.333    2.400    7.467    0.000 
#    0.000    9.333    0.000    0.000    0.000    0.000 
#    0.000    0.000    0.000    0.000    0.000    0.000 
#
# Total GULP energy -83553.413000 kJ/mol
# GULP energy per Si atom -5570.227533 kJ/mol
# Density = 2.204775 g / cm^3
# Si number density = 22.098045 Si / 1000 Ang^3
#
#
#
# Elastic Constant Matrix: (Units=GPa)
#
#
# Indices 1 2 3 4 5 6 
#
# 1 130.0967 55.4081 23.8116 -21.6741 2.6248 14.5277
# 2 55.4081 138.1433 0.6388 -23.4650 4.1007 6.5766
# 3 23.8116 0.6388 31.0483 -12.9032 -2.4706 13.0735
# 4 -21.6741 -23.4650 -12.9032 28.7400 -4.5169 -4.4522
# 5 2.6248 4.1007 -2.4706 -4.5169 36.4313 2.1449
# 6 14.5277 6.5766 13.0735 -4.4522 2.1449 37.6905
#
#
#
# Elastic Compliance Matrix: (Units=1/GPa)
#
#
# Indices 1 2 3 4 5 6 
#
# 1 0.011187 -0.004163 -0.007664 0.001383 -0.000643 -0.000727
# 2 -0.004163 0.010373 0.007308 0.008457 0.000782 -0.001786
# 3 -0.007664 0.007308 0.054540 0.023503 0.007218 -0.014873
# 4 0.001383 0.008457 0.023503 0.053813 0.007463 -0.004229
# 5 -0.000643 0.000782 0.007218 0.007463 0.029008 -0.003161
# 6 -0.000727 -0.001786 -0.014873 -0.004229 -0.003161 0.031963
#
#
# Mechanical properties :
#
#
# Convention : Reuss Voigt Hill
#
# Bulk Modulus (GPa) = 14.91160 51.00059 32.95609
# Shear Modulus (GPa) = 22.49462 35.20101 28.84781
#
# Velocity S-wave (km/s) = 3.19399 3.99550 3.61702
# Velocity P-wave (km/s) = 4.51272 6.66444 5.69119
#
# Compressibility (1/GPa) = 0.06706190
#
# Stress axis : x y z
#
# Youngs Moduli (GPa) = 89.39028 96.40365 18.33525
#
# Poissons Ratio (x) = 0.40132 0.14052
# Poissons Ratio (y) = 0.37212 -0.13399
# Poissons Ratio (z) = 0.68507 -0.70450
#
# Static dielectric constant tensor:
#      x y z
#    x 1.870320 -0.018610 -0.024250 
#    y -0.018610 1.802530 -0.028020 
#    z -0.024250 -0.028020 1.841440 
# 
# From -- ./inp_files/518990.got.cif
#   From: 2010.05.17/outbox.cif.g08.bks.cpg/sg2_260_cif.got.tgz:518990.got - 2010.06.03 11:33:40.
