data_PCOD9017812
_publ_section_title
;
Structure prediction by ZEFSAII (Michael W. Deem and Ramdas Pophale) SiO2 
 PCOD9017812
Probable space group: P -1
;
_chemical_formula_sum "Si O2"
_cell_formula_units_Z 16
_cell_length_a 20.252714
_cell_length_b 5.461722
_cell_length_c 9.749200
_cell_angle_alpha 125.362631
_cell_angle_beta 96.458017
_cell_angle_gamma 71.371826
_cell_volume 829.707461
_symmetry_space_group_name_H-M "P -1"
_symmetry_group_IT_number 2
_symmetry_cell_setting 'triclinic'
loop_
_space_group_symop_operation_xyz
x,y,z
-x,-y,-z
loop_
_atom_site_type_symbol
_atom_site_label
_atom_site_fract_x
_atom_site_fract_y
_atom_site_fract_z
Si Si1 0.688120 0.882347 0.349532
Si Si2 0.520013 0.316285 0.087701
Si Si3 0.686953 0.171099 0.142223
Si Si4 0.807431 0.726206 0.832575
Si Si5 0.536942 0.249614 0.542204
Si Si6 0.053632 0.238828 0.515533
Si Si7 0.796152 0.020021 0.622840
Si Si8 0.968860 0.411792 0.819670
O O1 0.699547 0.509653 0.240466
O O2 0.698354 0.015671 0.245896
O O3 0.609628 0.054936 0.432954
O O4 0.734334 0.981507 0.505157
O O5 0.604014 0.236117 0.107894
O O6 0.468189 0.546264 0.257983
O O7 0.500000 0.500000 0.000000
O O8 0.500000 0.000000 0.000000
O O9 0.746635 0.937900 0.985620
O O10 0.798262 0.377832 0.724341
O O11 0.890555 0.665980 0.866641
O O12 0.794160 0.897877 0.737333
O O13 0.500000 0.500000 0.500000
O O14 0.500000 0.000000 0.500000
O O15 0.000000 0.500000 0.500000
O O16 0.029973 0.361466 0.703668
O O17 0.133038 0.210369 0.501176
O O18 0.046850 0.915491 0.338128
O O19 0.000000 0.500000 0.000000
#
# Coordination Sequence:
#
# PCOD9017812 Si02
#       8
#     2   2   2   2   2   2   2   2
#     4  12  25  44  68  96 128 177 215 269 330 390
#     4  12  26  42  67  96 128 172 215 271 331 380
#     4  12  26  45  64  98 136 166 222 271 321 400
#     4  11  25  45  64  98 136 170 216 273 326 399
#     4  12  23  45  67  92 128 165 219 272 316 385
#     4  10  21  43  66  95 136 170 225 284 320 403
#     4  11  25  44  68  96 132 176 217 266 338 386
#     4  10  23  41  68  97 131 179 224 274 339 392
#
# _framework density 19.283905000000001
#
# number of rings (size 3 to 8) (size 9 to 14) (size 15 to 20)
#    0.000    0.750    3.750    3.000    5.250    1.500 
#    0.000    0.000    0.000    0.000    0.000    0.000 
#    0.000    0.000    0.000    0.000    0.000    0.000 
#
# Total GULP energy -89107.240769 kJ/mol
# GULP energy per Si atom -5569.202548 kJ/mol
# Density = 1.924001 g / cm^3
# Si number density = 19.283905 Si / 1000 Ang^3
#
#
#
# Elastic Constant Matrix: (Units=GPa)
#
#
# Indices 1 2 3 4 5 6 
#
# 1 94.7108 49.0977 36.4349 -6.0427 -16.4691 -1.1518
# 2 49.0977 128.1726 50.9447 -5.6750 4.6272 30.4103
# 3 36.4349 50.9447 112.7783 -5.9565 -12.1662 20.2002
# 4 -6.0427 -5.6750 -5.9565 47.4042 -5.3887 -9.4828
# 5 -16.4691 4.6272 -12.1662 -5.3887 43.4656 -2.8809
# 6 -1.1518 30.4103 20.2002 -9.4828 -2.8809 23.0919
#
#
#
# Elastic Compliance Matrix: (Units=1/GPa)
#
#
# Indices 1 2 3 4 5 6 
#
# 1 0.021457 -0.012735 -0.004258 0.007080 0.010884 0.025831
# 2 -0.012735 0.020440 -0.001085 -0.006582 -0.010147 -0.030573
# 3 -0.004258 -0.001085 0.012619 -0.000957 0.001249 -0.010059
# 4 0.007080 -0.006582 -0.000957 0.026305 0.007811 0.021636
# 5 0.010884 -0.010147 0.001249 0.007811 0.030846 0.019870
# 6 0.025831 -0.030573 -0.010059 0.021636 0.019870 0.105019
#
#
# Mechanical properties :
#
#
# Convention : Reuss Voigt Hill
#
# Bulk Modulus (GPa) = 54.46893 67.62405 61.04649
# Shear Modulus (GPa) = 19.30783 36.07130 27.68957
#
# Velocity S-wave (km/s) = 3.16767 4.32967 3.79342
# Velocity P-wave (km/s) = 6.45647 7.75490 7.13528
#
# Compressibility (1/GPa) = 0.01835909
#
# Stress axis : x y z
#
# Youngs Moduli (GPa) = 46.60565 48.92287 79.24745
#
# Poissons Ratio (x) = 0.62303 0.33743
# Poissons Ratio (y) = 0.59352 0.08601
# Poissons Ratio (z) = 0.19844 0.05310
#
# Static dielectric constant tensor:
#      x y z
#    x 1.680880 0.045140 0.026270 
#    y 0.045140 1.699290 -0.031370 
#    z 0.026270 -0.031370 1.629940 
# 
# From -- ./inp_files/340017.got.cif
#   From: 2010.05.17/outbox.cif.g08.bks.cpg/sg2_171_cif.got.tgz:340017.got - 2010.06.03 11:33:40.
