data_PCOD9017963
_publ_section_title
;
Structure prediction by ZEFSAII (Michael W. Deem and Ramdas Pophale) SiO2 
 PCOD9017963
Probable space group: P -1
;
_chemical_formula_sum "Si O2"
_cell_formula_units_Z 13
_cell_length_a 8.430698
_cell_length_b 9.449957
_cell_length_c 7.807493
_cell_angle_alpha 115.219729
_cell_angle_beta 111.549602
_cell_angle_gamma 86.214197
_cell_volume 520.360569
_symmetry_space_group_name_H-M "P -1"
_symmetry_group_IT_number 2
_symmetry_cell_setting 'triclinic'
loop_
_space_group_symop_operation_xyz
x,y,z
-x,-y,-z
loop_
_atom_site_type_symbol
_atom_site_label
_atom_site_fract_x
_atom_site_fract_y
_atom_site_fract_z
Si Si1 0.026843 0.737568 0.754155
Si Si2 0.658413 0.148183 0.817614
Si Si3 0.129809 0.377125 0.047272
Si Si4 0.463390 0.582944 0.278686
Si Si5 0.500000 0.000000 0.000000
Si Si6 0.951009 0.046861 0.692818
Si Si7 0.682488 0.344502 0.368806
O O1 0.115559 0.667039 0.588703
O O2 0.878759 0.644227 0.760210
O O3 0.178900 0.762537 0.969253
O O4 0.979383 0.906509 0.761972
O O5 0.531390 0.270266 0.768539
O O6 0.755404 0.081598 0.659202
O O7 0.571172 0.018018 0.840775
O O8 0.314646 0.448071 0.094179
O O9 0.000000 0.500000 0.000000
O O10 0.076900 0.203016 0.866019
O O11 0.629682 0.494716 0.321467
O O12 0.389604 0.636857 0.459712
O O13 0.588309 0.181952 0.170397
O O14 0.000000 0.000000 0.500000
#
# Coordination Sequence:
#
# PCOD9017963 Si02
#       7
#     2   2   2   2   1   2   2
#     4  10  22  40  66  96 132 169 221 271 324 393
#     4  10  21  43  67  96 130 172 221 272 324 388
#     4  11  22  42  67  97 128 176 214 269 339 382
#     4  11  23  44  67  93 139 166 220 273 328 395
#     4  10  24  42  68  90 128 178 222 258 328 386
#     4  11  23  42  67 100 133 169 221 277 324 389
#     4  10  25  43  63  99 130 178 215 272 323 396
#
# _framework density 24.982673999999999
#
# number of rings (size 3 to 8) (size 9 to 14) (size 15 to 20)
#    0.000    1.538    3.077    2.769    6.462    3.692 
#    0.000    0.000    0.000    0.000    0.000    0.000 
#    0.000    0.000    0.000    0.000    0.000    0.000 
#
# Total GULP energy -72515.494164 kJ/mol
# GULP energy per Si atom -5578.114936 kJ/mol
# Density = 2.492581 g / cm^3
# Si number density = 24.982674 Si / 1000 Ang^3
#
#
#
# Elastic Constant Matrix: (Units=GPa)
#
#
# Indices 1 2 3 4 5 6 
#
# 1 75.3109 35.4246 13.3915 9.6323 -20.0754 9.9926
# 2 35.4246 116.4927 17.9143 3.5417 2.1078 -1.9721
# 3 13.3915 17.9143 84.4712 18.5805 -21.4644 2.0307
# 4 9.6323 3.5417 18.5805 29.0638 -4.0961 -2.4173
# 5 -20.0754 2.1078 -21.4644 -4.0961 35.9705 -7.1605
# 6 9.9926 -1.9721 2.0307 -2.4173 -7.1605 35.1261
#
#
#
# Elastic Compliance Matrix: (Units=1/GPa)
#
#
# Indices 1 2 3 4 5 6 
#
# 1 0.020544 -0.006758 0.002709 -0.006410 0.011872 -0.004401
# 2 -0.006758 0.011216 -0.003339 0.002331 -0.005813 0.001721
# 3 0.002709 -0.003339 0.017010 -0.009904 0.010639 -0.000454
# 4 -0.006410 0.002331 -0.009904 0.042421 -0.003866 0.004658
# 5 0.011872 -0.005813 0.010639 -0.003866 0.041445 0.003864
# 6 -0.004401 0.001721 -0.000454 0.004658 0.003864 0.030952
#
#
# Mechanical properties :
#
#
# Convention : Reuss Voigt Hill
#
# Bulk Modulus (GPa) = 29.41705 45.52619 37.47162
# Shear Modulus (GPa) = 26.35798 34.00171 30.17984
#
# Velocity S-wave (km/s) = 3.25168 3.69319 3.47944
# Velocity P-wave (km/s) = 5.08905 6.03729 5.58334
#
# Compressibility (1/GPa) = 0.03399389
#
# Stress axis : x y z
#
# Youngs Moduli (GPa) = 48.67577 89.15634 58.78967
#
# Poissons Ratio (x) = 0.60255 -0.15925
# Poissons Ratio (y) = 0.32897 0.19628
# Poissons Ratio (z) = -0.13185 0.29766
#
# Static dielectric constant tensor:
#      x y z
#    x 1.967660 -0.025530 -0.012880 
#    y -0.025530 1.960860 -0.019320 
#    z -0.012880 -0.019320 2.087750 
# 
# From -- ./inp_files/156253.got.cif
#   From: 2010.05.17/outbox.cif.g08.bks.cpg/sg2_79_cif.got.tgz:156253.got - 2010.06.03 11:33:40.
