data_PCOD9017960
_publ_section_title
;
Structure prediction by ZEFSAII (Michael W. Deem and Ramdas Pophale) SiO2 
 PCOD9017960
Probable space group: P -1
;
_chemical_formula_sum "Si O2"
_cell_formula_units_Z 14
_cell_length_a 5.595441
_cell_length_b 13.074161
_cell_length_c 9.308686
_cell_angle_alpha 116.534762
_cell_angle_beta 74.713347
_cell_angle_gamma 117.169920
_cell_volume 540.499543
_symmetry_space_group_name_H-M "P -1"
_symmetry_group_IT_number 2
_symmetry_cell_setting 'triclinic'
loop_
_space_group_symop_operation_xyz
x,y,z
-x,-y,-z
loop_
_atom_site_type_symbol
_atom_site_label
_atom_site_fract_x
_atom_site_fract_y
_atom_site_fract_z
Si Si1 0.517288 0.985938 0.815965
Si Si2 0.064186 0.595983 0.893867
Si Si3 0.692045 0.781663 0.570901
Si Si4 0.795706 0.426058 0.608480
Si Si5 0.955892 0.783323 0.810941
Si Si6 0.271187 0.349595 0.769617
Si Si7 0.550727 0.780780 0.090827
O O1 0.711281 0.918746 0.692109
O O2 0.213831 0.891800 0.771447
O O3 0.582062 0.118953 0.818809
O O4 0.500000 0.000000 0.000000
O O5 0.979996 0.463146 0.745765
O O6 0.034662 0.686224 0.829855
O O7 0.870536 0.597531 0.056412
O O8 0.355661 0.664594 0.957003
O O9 0.385844 0.706834 0.514551
O O10 0.753238 0.727621 0.675773
O O11 0.863470 0.748345 0.399679
O O12 0.537400 0.454390 0.720592
O O13 0.000000 0.500000 0.500000
O O14 0.816944 0.838110 0.987255
O O15 0.388680 0.268017 0.800607
#
# Coordination Sequence:
#
# PCOD9017960 Si02
#       7
#     2   2   2   2   2   2   2
#     4  12  22  39  68  96 126 170 217 262 319 374
#     4  11  22  42  68  94 131 174 208 260 327 375
#     4  10  24  41  60 100 129 164 217 263 312 381
#     4  10  21  43  67  96 130 163 220 263 311 385
#     4  11  21  39  66  98 126 166 219 263 314 379
#     4   9  25  43  61  98 135 164 211 264 326 376
#     4  11  23  40  66  96 128 172 215 261 317 382
#
# _framework density 25.901962000000001
#
# number of rings (size 3 to 8) (size 9 to 14) (size 15 to 20)
#    0.857    0.571    2.857    2.571    0.000    2.857 
#    0.000    4.286    0.000    0.000    0.000    0.000 
#    0.000    0.000    0.000    0.000    0.000    0.000 
#
# Total GULP energy -78204.576984 kJ/mol
# GULP energy per Si atom -5586.041213 kJ/mol
# Density = 2.584301 g / cm^3
# Si number density = 25.901962 Si / 1000 Ang^3
#
#
#
# Elastic Constant Matrix: (Units=GPa)
#
#
# Indices 1 2 3 4 5 6 
#
# 1 45.6420 23.3134 39.5399 1.0373 -16.0617 -18.0650
# 2 23.3134 68.4358 43.2072 3.2671 -8.2817 -16.4284
# 3 39.5399 43.2072 194.2963 -4.4736 -8.0483 -21.9689
# 4 1.0373 3.2671 -4.4736 44.5745 -3.4862 -7.1151
# 5 -16.0617 -8.2817 -8.0483 -3.4862 54.5268 -2.9268
# 6 -18.0650 -16.4284 -21.9689 -7.1151 -2.9268 50.2088
#
#
#
# Elastic Compliance Matrix: (Units=1/GPa)
#
#
# Indices 1 2 3 4 5 6 
#
# 1 0.036129 -0.006023 -0.004464 0.001483 0.009692 0.009850
# 2 -0.006023 0.019207 -0.002714 -0.001023 0.000829 0.002833
# 3 -0.004464 -0.002714 0.006718 0.001015 -0.000641 0.000552
# 4 0.001483 -0.001023 0.001015 0.023396 0.002146 0.004084
# 5 0.009692 0.000829 -0.000641 0.002146 0.021634 0.005043
# 6 0.009850 0.002833 0.000552 0.004084 0.005043 0.025502
#
#
# Mechanical properties :
#
#
# Convention : Reuss Voigt Hill
#
# Bulk Modulus (GPa) = 28.04882 57.83279 42.94080
# Shear Modulus (GPa) = 29.26177 43.34960 36.30568
#
# Velocity S-wave (km/s) = 3.36477 4.09541 3.74793
# Velocity P-wave (km/s) = 5.09391 6.68874 5.94504
#
# Compressibility (1/GPa) = 0.03565212
#
# Stress axis : x y z
#
# Youngs Moduli (GPa) = 27.67894 52.06431 148.85477
#
# Poissons Ratio (x) = 0.31357 0.66442
# Poissons Ratio (y) = 0.16670 0.40405
# Poissons Ratio (z) = 0.12355 0.14132
#
# Static dielectric constant tensor:
#      x y z
#    x 2.215420 -0.004740 -0.043090 
#    y -0.004740 2.053740 0.050110 
#    z -0.043090 0.050110 2.035460 
# 
# From -- ./inp_files/138065.got.cif
#   From: 2010.05.17/outbox.cif.g08.bks.cpg/sg2_70_cif.got.tgz:138065.got - 2010.06.03 11:33:40.
