data_PCOD9017804
_publ_section_title
;
Structure prediction by ZEFSAII (Michael W. Deem and Ramdas Pophale) SiO2 
 PCOD9017804
Probable space group: P -1
;
_chemical_formula_sum "Si O2"
_cell_formula_units_Z 16
_cell_length_a 7.613255
_cell_length_b 12.139766
_cell_length_c 10.654398
_cell_angle_alpha 107.377082
_cell_angle_beta 136.229443
_cell_angle_gamma 91.756149
_cell_volume 603.166820
_symmetry_space_group_name_H-M "P -1"
_symmetry_group_IT_number 2
_symmetry_cell_setting 'triclinic'
loop_
_space_group_symop_operation_xyz
x,y,z
-x,-y,-z
loop_
_atom_site_type_symbol
_atom_site_label
_atom_site_fract_x
_atom_site_fract_y
_atom_site_fract_z
Si Si1 0.723938 0.949350 0.957257
Si Si2 0.119820 0.214675 0.842105
Si Si3 0.332108 0.162718 0.671958
Si Si4 0.952619 0.558907 0.697670
Si Si5 0.560852 0.576271 0.726215
Si Si6 0.860067 0.186301 0.258849
Si Si7 0.429198 0.928393 0.569203
Si Si8 0.269854 0.585582 0.092272
O O1 0.422016 0.868961 0.828887
O O2 0.676866 0.919648 0.775569
O O3 0.914697 0.899508 0.120871
O O4 0.804498 0.093175 0.079936
O O5 0.281439 0.203127 0.798200
O O6 0.821686 0.199740 0.631763
O O7 0.287792 0.328124 0.055316
O O8 0.622238 0.265331 0.810166
O O9 0.100729 0.172170 0.462264
O O10 0.323336 0.023111 0.623407
O O11 0.763290 0.592865 0.717408
O O12 0.736034 0.436793 0.479719
O O13 0.074994 0.675480 0.709670
O O14 0.191897 0.539273 0.894018
O O15 0.505496 0.445530 0.724109
O O16 0.500000 0.000000 0.500000
O O17 0.000000 0.500000 0.000000
#
# Coordination Sequence:
#
# PCOD9017804 Si02
#       8
#     2   2   2   2   2   2   2   2
#     4  11  24  43  67 101 133 180 220 279 339 402
#     4  12  26  45  69 102 139 178 230 278 334 412
#     4  12  23  47  71  99 137 185 222 280 342 399
#     4  10  21  43  66  95 132 175 220 281 336 394
#     4  10  24  41  65  98 131 174 228 277 330 397
#     4  11  21  42  74  95 134 180 228 271 344 400
#     4  12  28  44  69 105 140 174 225 280 339 408
#     4  10  22  41  69  96 133 177 221 278 337 392
#
# _framework density 26.52666
#
# number of rings (size 3 to 8) (size 9 to 14) (size 15 to 20)
#    0.000    1.000    3.750    3.375    5.250    3.000 
#    0.000    1.250    0.000    0.000    0.000    0.000 
#    0.000    0.000    0.000    0.000    0.000    0.000 
#
# Total GULP energy -89576.153455 kJ/mol
# GULP energy per Si atom -5598.509591 kJ/mol
# Density = 2.646628 g / cm^3
# Si number density = 26.526660 Si / 1000 Ang^3
#
#
#
# Elastic Constant Matrix: (Units=GPa)
#
#
# Indices 1 2 3 4 5 6 
#
# 1 72.8513 24.4100 43.4549 4.5165 -13.0244 20.0390
# 2 24.4100 80.8228 25.4220 -3.7714 -4.4735 29.0885
# 3 43.4549 25.4220 183.4614 -3.0137 -7.0020 18.6714
# 4 4.5165 -3.7714 -3.0137 55.3041 -2.1516 3.8209
# 5 -13.0244 -4.4735 -7.0020 -2.1516 44.4326 0.5968
# 6 20.0390 29.0885 18.6714 3.8209 0.5968 27.6535
#
#
#
# Elastic Compliance Matrix: (Units=1/GPa)
#
#
# Indices 1 2 3 4 5 6 
#
# 1 0.020151 -0.000532 -0.003302 -0.000834 0.005451 -0.011816
# 2 -0.000532 0.020694 -0.000409 0.003012 0.002299 -0.021572
# 3 -0.003302 -0.000409 0.006471 0.000711 0.000067 -0.001646
# 4 -0.000834 0.003012 0.000711 0.018831 0.001159 -0.005671
# 5 0.005451 0.002299 0.000067 0.001159 0.024497 -0.007102
# 6 -0.011816 -0.021572 -0.001646 -0.005671 -0.007102 0.069463
#
#
# Mechanical properties :
#
#
# Convention : Reuss Voigt Hill
#
# Bulk Modulus (GPa) = 25.75364 58.18992 41.97178
# Shear Modulus (GPa) = 27.54260 41.73462 34.63861
#
# Velocity S-wave (km/s) = 3.22576 3.97080 3.61751
# Velocity P-wave (km/s) = 4.85836 6.55797 5.77108
#
# Compressibility (1/GPa) = 0.03882946
#
# Stress axis : x y z
#
# Youngs Moduli (GPa) = 49.62537 48.32430 154.52707
#
# Poissons Ratio (x) = 0.02571 0.51031
# Poissons Ratio (y) = 0.02640 0.06318
# Poissons Ratio (z) = 0.16388 0.01976
#
# Static dielectric constant tensor:
#      x y z
#    x 2.156100 -0.045830 0.011610 
#    y -0.045830 2.077190 -0.027610 
#    z 0.011610 -0.027610 2.085830 
# 
# From -- ./inp_files/208057.got.cif
#   From: 2010.05.17/outbox.cif.g08.bks.cpg/sg2_105_cif.got.tgz:208057.got - 2010.06.03 11:33:40.
