data_PCOD9017329
_publ_section_title
;
Structure prediction by ZEFSAII (Michael W. Deem and Ramdas Pophale) SiO2 
 PCOD9017329
Probable space group: P -1
;
_chemical_formula_sum "Si O2"
_cell_formula_units_Z 16
_cell_length_a 5.275671
_cell_length_b 6.149452
_cell_length_c 23.766916
_cell_angle_alpha 85.789852
_cell_angle_beta 60.404120
_cell_angle_gamma 78.509471
_cell_volume 656.738563
_symmetry_space_group_name_H-M "P -1"
_symmetry_group_IT_number 2
_symmetry_cell_setting 'triclinic'
loop_
_space_group_symop_operation_xyz
x,y,z
-x,-y,-z
loop_
_atom_site_type_symbol
_atom_site_label
_atom_site_fract_x
_atom_site_fract_y
_atom_site_fract_z
Si Si1 0.866447 0.080662 0.923283
Si Si2 0.904795 0.868004 0.461029
Si Si3 0.306721 0.519231 0.352246
Si Si4 0.845584 0.245455 0.197461
Si Si5 0.299283 0.136427 0.707241
Si Si6 0.769991 0.726920 0.036089
Si Si7 0.376360 0.855550 0.598344
Si Si8 0.783194 0.520769 0.758592
O O1 0.582225 0.266118 0.932190
O O2 0.128260 0.197569 0.915755
O O3 0.960593 0.906569 0.866721
O O4 0.803143 0.923537 0.984824
O O5 0.601693 0.813923 0.521589
O O6 0.076437 0.640775 0.420616
O O7 0.915792 0.045124 0.406015
O O8 0.000000 0.000000 0.500000
O O9 0.486432 0.697487 0.303563
O O10 0.541509 0.348430 0.365503
O O11 0.166615 0.427497 0.314392
O O12 0.572879 0.418199 0.196237
O O13 0.053604 0.347203 0.216377
O O14 0.679756 0.077011 0.252857
O O15 0.962197 0.269066 0.747992
O O16 0.385269 0.063571 0.635112
O O17 0.000000 0.500000 0.000000
#
# Coordination Sequence:
#
# PCOD9017329 Si02
#       8
#     2   2   2   2   2   2   2   2
#     4  10  23  43  67 107 141 185 231 282 330 402
#     4  11  24  42  68  94 128 169 223 287 357 423
#     4  12  25  45  69  97 132 177 229 283 355 422
#     4  12  28  45  71 103 146 182 237 283 338 405
#     4  12  25  44  69  95 136 182 229 283 355 412
#     4  10  21  42  74 102 145 185 228 280 342 385
#     4  11  24  43  64  97 129 169 221 291 349 422
#     4  12  26  45  68 100 133 189 227 285 341 412
#
# _framework density 24.362815000000001
#
# number of rings (size 3 to 8) (size 9 to 14) (size 15 to 20)
#    0.000    0.750    5.000    1.500    1.750    5.500 
#    0.000    0.000    0.000    0.000    0.000    0.000 
#    0.000    0.000    0.000    0.000    0.000    0.000 
#
# Total GULP energy -89293.392109 kJ/mol
# GULP energy per Si atom -5580.837007 kJ/mol
# Density = 2.430736 g / cm^3
# Si number density = 24.362815 Si / 1000 Ang^3
#
#
#
# Elastic Constant Matrix: (Units=GPa)
#
#
# Indices 1 2 3 4 5 6 
#
# 1 142.8356 47.4732 47.6024 20.7809 28.4008 -20.2285
# 2 47.4732 82.9822 13.5318 23.4072 9.1113 -27.8958
# 3 47.6024 13.5318 82.9969 39.6483 19.2160 -3.0146
# 4 20.7809 23.4072 39.6483 48.1731 5.6227 -10.7967
# 5 28.4008 9.1113 19.2160 5.6227 36.1504 12.1342
# 6 -20.2285 -27.8958 -3.0146 -10.7967 12.1342 32.2689
#
#
#
# Elastic Compliance Matrix: (Units=1/GPa)
#
#
# Indices 1 2 3 4 5 6 
#
# 1 0.012973 -0.003177 -0.006478 0.004735 -0.010095 0.010162
# 2 -0.003177 0.023660 0.005705 -0.008805 -0.012037 0.020575
# 3 -0.006478 0.005705 0.026517 -0.021301 -0.006709 -0.001256
# 4 0.004735 -0.008805 -0.021301 0.042005 0.000913 0.007078
# 5 -0.010095 -0.012037 -0.006709 0.000913 0.054678 -0.037616
# 6 0.010162 0.020575 -0.001256 0.007078 -0.037616 0.071542
#
#
# Mechanical properties :
#
#
# Convention : Reuss Voigt Hill
#
# Bulk Modulus (GPa) = 18.09949 58.44772 38.27361
# Shear Modulus (GPa) = 19.40295 36.66564 28.03429
#
# Velocity S-wave (km/s) = 2.82515 3.88362 3.39588
# Velocity P-wave (km/s) = 4.25291 6.64474 5.57852
#
# Compressibility (1/GPa) = 0.05525016
#
# Stress axis : x y z
#
# Youngs Moduli (GPa) = 77.08035 42.26587 37.71126
#
# Poissons Ratio (x) = 0.13426 0.24431
# Poissons Ratio (y) = 0.24485 -0.21513
# Poissons Ratio (z) = 0.49935 -0.24112
#
# Static dielectric constant tensor:
#      x y z
#    x 2.050370 -0.022460 -0.049600 
#    y -0.022460 2.084780 0.093570 
#    z -0.049600 0.093570 2.047970 
# 
# From -- ./inp_files/121838.got.cif
#   From: 2010.05.17/outbox.cif.g08.bks.cpg/sg2_61_cif.got.tgz:121838.got - 2010.06.03 11:33:40.
