data_PCOD9017167
_publ_section_title
;
Structure prediction by ZEFSAII (Michael W. Deem and Ramdas Pophale) SiO2 
 PCOD9017167
Probable space group: P -1
;
_chemical_formula_sum "Si O2"
_cell_formula_units_Z 12
_cell_length_a 9.370601
_cell_length_b 7.968203
_cell_length_c 8.032309
_cell_angle_alpha 57.003682
_cell_angle_beta 83.778134
_cell_angle_gamma 88.718240
_cell_volume 499.565029
_symmetry_space_group_name_H-M "P -1"
_symmetry_group_IT_number 2
_symmetry_cell_setting 'triclinic'
loop_
_space_group_symop_operation_xyz
x,y,z
-x,-y,-z
loop_
_atom_site_type_symbol
_atom_site_label
_atom_site_fract_x
_atom_site_fract_y
_atom_site_fract_z
Si Si1 0.421605 0.205144 0.737933
Si Si2 0.442067 0.446056 0.279240
Si Si3 0.866915 0.863618 0.025015
Si Si4 0.660887 0.153650 0.497919
Si Si5 0.804583 0.781324 0.703991
Si Si6 0.932372 0.428818 0.374316
O O1 0.383617 0.368960 0.511185
O O2 0.492241 0.333621 0.812216
O O3 0.277479 0.094708 0.877472
O O4 0.545776 0.090176 0.690599
O O5 0.569756 0.294080 0.313843
O O6 0.313933 0.402391 0.190934
O O7 0.900735 0.630839 0.171594
O O8 0.835026 0.878134 0.826583
O O9 0.000000 0.000000 0.000000
O O10 0.786349 0.296835 0.479221
O O11 0.730846 0.960662 0.516439
O O12 0.951209 0.705363 0.655556
O O13 0.000000 0.500000 0.500000
#
# Coordination Sequence:
#
# PCOD9017167 Si02
#       6
#     2   2   2   2   2   2
#     4   9  19  42  70  90 133 175 226 262 328 387
#     4   9  19  42  69  98 126 174 229 268 320 388
#     4  12  26  45  63 100 142 174 217 278 339 394
#     4  10  21  42  71  99 126 174 227 272 320 392
#     4  12  25  39  67 107 136 171 217 277 341 391
#     4  12  24  46  71  93 133 181 228 272 327 401
#
# _framework density 24.020897999999999
#
# number of rings (size 3 to 8) (size 9 to 14) (size 15 to 20)
#    1.000    0.333    1.667    4.500    0.000    2.667 
#    0.000    0.000    0.000    0.000    0.000    0.000 
#    0.000    0.000    0.000    0.000    0.000    0.000 
#
# Total GULP energy -67114.310482 kJ/mol
# GULP energy per Si atom -5592.859207 kJ/mol
# Density = 2.396622 g / cm^3
# Si number density = 24.020898 Si / 1000 Ang^3
#
#
#
# Elastic Constant Matrix: (Units=GPa)
#
#
# Indices 1 2 3 4 5 6 
#
# 1 179.9300 59.9129 26.3710 16.1068 -25.2961 17.3665
# 2 59.9129 97.4465 15.0953 4.2230 -14.0293 9.5559
# 3 26.3710 15.0953 43.9548 8.4205 -9.3901 -0.9846
# 4 16.1068 4.2230 8.4205 26.7637 2.6473 12.1475
# 5 -25.2961 -14.0293 -9.3901 2.6473 29.4299 -4.8318
# 6 17.3665 9.5559 -0.9846 12.1475 -4.8318 73.5765
#
#
#
# Elastic Compliance Matrix: (Units=1/GPa)
#
#
# Indices 1 2 3 4 5 6 
#
# 1 0.008196 -0.003831 -0.001783 -0.004042 0.004936 -0.000469
# 2 -0.003831 0.013282 -0.002019 0.001029 0.002158 -0.000876
# 3 -0.001783 -0.002019 0.028119 -0.009674 0.007868 0.003173
# 4 -0.004042 0.001029 -0.009674 0.047415 -0.011633 -0.007901
# 5 0.004936 0.002158 0.007868 -0.011633 0.043370 0.003429
# 6 -0.000469 -0.000876 0.003173 -0.007901 0.003429 0.015388
#
#
# Mechanical properties :
#
#
# Convention : Reuss Voigt Hill
#
# Bulk Modulus (GPa) = 29.12809 58.23220 43.68014
# Shear Modulus (GPa) = 27.40042 40.61749 34.00896
#
# Velocity S-wave (km/s) = 3.38108 4.11654 3.76680
# Velocity P-wave (km/s) = 5.23399 6.84759 6.09443
#
# Compressibility (1/GPa) = 0.03433112
#
# Stress axis : x y z
#
# Youngs Moduli (GPa) = 122.01455 75.28894 35.56330
#
# Poissons Ratio (x) = 0.28843 0.06341
# Poissons Ratio (y) = 0.46743 0.07179
# Poissons Ratio (z) = 0.21757 0.15199
#
# Static dielectric constant tensor:
#      x y z
#    x 1.943870 -0.015240 0.091980 
#    y -0.015240 1.918220 -0.041330 
#    z 0.091980 -0.041330 2.101610 
# 
# From -- ./inp_files/144851.got.cif
#   From: 2010.05.17/outbox.cif.g08.bks.cpg/sg2_73_cif.got.tgz:144851.got - 2010.06.03 11:33:40.
