data_PCOD9017011
_publ_section_title
;
Structure prediction by ZEFSAII (Michael W. Deem and Ramdas Pophale) SiO2 
 PCOD9017011
Probable space group: P -1
;
_chemical_formula_sum "Si O2"
_cell_formula_units_Z 15
_cell_length_a 9.997185
_cell_length_b 12.637132
_cell_length_c 10.141845
_cell_angle_alpha 87.653248
_cell_angle_beta 77.944034
_cell_angle_gamma 146.201323
_cell_volume 640.545434
_symmetry_space_group_name_H-M "P -1"
_symmetry_group_IT_number 2
_symmetry_cell_setting 'triclinic'
loop_
_space_group_symop_operation_xyz
x,y,z
-x,-y,-z
loop_
_atom_site_type_symbol
_atom_site_label
_atom_site_fract_x
_atom_site_fract_y
_atom_site_fract_z
Si Si1 0.504279 0.253092 0.226929
Si Si2 0.834628 0.644011 0.838127
Si Si3 0.211631 0.233014 0.407659
Si Si4 0.000000 0.500000 0.000000
Si Si5 0.271231 0.805664 0.156795
Si Si6 0.249504 0.243295 0.922687
Si Si7 0.586100 0.069173 0.327490
Si Si8 0.053397 0.204272 0.710786
O O1 0.469158 0.331449 0.321633
O O2 0.220361 0.049405 0.222571
O O3 0.760760 0.427856 0.074169
O O4 0.545297 0.398477 0.885755
O O5 0.857696 0.746019 0.708636
O O6 0.105709 0.756422 0.770659
O O7 0.808926 0.696609 0.972612
O O8 0.186822 0.291798 0.535632
O O9 0.000000 0.000000 0.500000
O O10 0.869440 0.378327 0.888390
O O11 0.456895 0.836267 0.707391
O O12 0.059178 0.757319 0.228051
O O13 0.413173 0.886087 0.266263
O O14 0.500000 0.000000 0.000000
O O15 0.247510 0.280769 0.771323
O O16 0.000000 0.000000 0.000000
O O17 0.500000 0.000000 0.500000
#
# Coordination Sequence:
#
# PCOD9017011 Si02
#       8
#     2   2   2   1   2   2   2   2
#     4  10  23  40  72  98 136 184 235 296 342 427
#     4  11  25  43  69 102 139 187 229 291 367 425
#     4  10  21  43  70 102 137 184 238 290 354 428
#     4  12  24  40  72 106 138 180 252 290 352 420
#     4  11  22  44  69 104 138 187 238 298 348 425
#     4  11  25  43  66 100 141 179 234 298 358 423
#     4  11  23  46  71 102 150 188 231 296 372 431
#     4  10  21  42  70  95 135 182 236 290 356 410
#
# _framework density 23.417542000000001
#
# number of rings (size 3 to 8) (size 9 to 14) (size 15 to 20)
#    0.000    1.333    2.667    4.800    1.867    2.667 
#    2.400    0.667    0.000    0.000    0.000    0.000 
#    0.000    0.000    0.000    0.000    0.000    0.000 
#
# Total GULP energy -83631.903408 kJ/mol
# GULP energy per Si atom -5575.460227 kJ/mol
# Density = 2.336424 g / cm^3
# Si number density = 23.417542 Si / 1000 Ang^3
#
#
#
# Elastic Constant Matrix: (Units=GPa)
#
#
# Indices 1 2 3 4 5 6 
#
# 1 115.1103 44.1924 35.8388 20.7808 -27.7549 14.2905
# 2 44.1924 144.6775 41.0632 10.0906 -4.1300 21.0504
# 3 35.8388 41.0632 122.1528 35.8851 -23.2884 1.8905
# 4 20.7808 10.0906 35.8851 41.7179 -0.7604 -1.3265
# 5 -27.7549 -4.1300 -23.2884 -0.7604 60.1178 0.7790
# 6 14.2905 21.0504 1.8905 -1.3265 0.7790 44.4105
#
#
#
# Elastic Compliance Matrix: (Units=1/GPa)
#
#
# Indices 1 2 3 4 5 6 
#
# 1 0.012471 -0.002846 0.000027 -0.005539 0.005540 -0.002927
# 2 -0.002846 0.008898 -0.002935 0.001659 -0.001779 -0.003096
# 3 0.000027 -0.002935 0.013159 -0.010522 0.004770 0.000424
# 4 -0.005539 0.001659 -0.010522 0.035351 -0.006106 0.002607
# 5 0.005540 -0.001779 0.004770 -0.006106 0.020862 -0.001691
# 6 -0.002927 -0.003096 0.000424 0.002607 -0.001691 0.025016
#
#
# Mechanical properties :
#
#
# Convention : Reuss Voigt Hill
#
# Bulk Modulus (GPa) = 43.44197 69.34771 56.39484
# Shear Modulus (GPa) = 37.05360 46.63898 41.84629
#
# Velocity S-wave (km/s) = 3.98213 4.46760 4.23183
# Velocity P-wave (km/s) = 6.30353 7.50270 6.92910
#
# Compressibility (1/GPa) = 0.02301921
#
# Stress axis : x y z
#
# Youngs Moduli (GPa) = 80.18625 112.38050 75.99288
#
# Poissons Ratio (x) = 0.31989 -0.00202
# Poissons Ratio (y) = 0.22825 0.22302
# Poissons Ratio (z) = -0.00213 0.32981
#
# Static dielectric constant tensor:
#      x y z
#    x 1.907900 -0.097620 0.083010 
#    y -0.097620 2.100650 -0.139800 
#    z 0.083010 -0.139800 1.960240 
# 
# From -- ./inp_files/272938.got.cif
#   From: 2010.05.17/outbox.cif.g08.bks.cpg/sg2_137_cif.got.tgz:272938.got - 2010.06.03 11:33:40.
