data_PCOD9017953
_publ_section_title
;
Structure prediction by ZEFSAII (Michael W. Deem and Ramdas Pophale) SiO2 
 PCOD9017953
Probable space group: P -1
;
_chemical_formula_sum "Si O2"
_cell_formula_units_Z 15
_cell_length_a 16.924898
_cell_length_b 11.610800
_cell_length_c 14.726961
_cell_angle_alpha 28.306463
_cell_angle_beta 25.539861
_cell_angle_gamma 41.304115
_cell_volume 578.309715
_symmetry_space_group_name_H-M "P -1"
_symmetry_group_IT_number 2
_symmetry_cell_setting 'triclinic'
loop_
_space_group_symop_operation_xyz
x,y,z
-x,-y,-z
loop_
_atom_site_type_symbol
_atom_site_label
_atom_site_fract_x
_atom_site_fract_y
_atom_site_fract_z
Si Si1 0.500000 0.000000 0.000000
Si Si2 0.882504 0.746388 0.111556
Si Si3 0.732226 0.844684 0.574456
Si Si4 0.928342 0.480942 0.691136
Si Si5 0.246333 0.283006 0.933066
Si Si6 0.149866 0.752431 0.437007
Si Si7 0.629864 0.166574 0.592304
Si Si8 0.704389 0.939050 0.335802
O O1 0.631370 0.208841 0.789470
O O2 0.687795 0.026506 0.715763
O O3 0.760784 0.741905 0.150638
O O4 0.941471 0.481374 0.244634
O O5 0.763528 0.797265 0.286553
O O6 0.066481 0.963019 0.759911
O O7 0.591923 0.994048 0.664237
O O8 0.705251 0.798974 0.527811
O O9 0.749054 0.608100 0.780204
O O10 0.000000 0.500000 0.500000
O O11 0.083545 0.642561 0.482754
O O12 0.857101 0.202275 0.994781
O O13 0.452390 0.240289 0.781932
O O14 0.248253 0.569721 0.745717
O O15 0.114807 0.032720 0.277564
O O16 0.500000 0.000000 0.500000
#
# Coordination Sequence:
#
# PCOD9017953 Si02
#       8
#     1   2   2   2   2   2   2   2
#     4  10  22  44  70  98 144 186 232 290 362 424
#     4  12  22  43  71  99 142 186 233 299 354 422
#     4  12  25  44  71 104 140 184 242 297 357 428
#     4  12  24  46  73 106 145 191 239 297 367 424
#     4  10  21  43  67  95 136 183 227 292 352 422
#     4  11  22  41  71 103 133 192 233 284 362 419
#     4  10  23  43  67 101 140 182 238 290 355 426
#     4  12  27  45  71 107 143 189 244 301 361 427
#
# _framework density 25.937657999999999
#
# number of rings (size 3 to 8) (size 9 to 14) (size 15 to 20)
#    0.000    0.800    5.333    2.000    0.000    4.267 
#    7.200    1.333    0.000    0.000    0.000    0.000 
#    0.000    0.000    0.000    0.000    0.000    0.000 
#
# Total GULP energy -83578.420267 kJ/mol
# GULP energy per Si atom -5571.894684 kJ/mol
# Density = 2.587862 g / cm^3
# Si number density = 25.937658 Si / 1000 Ang^3
#
#
#
# Elastic Constant Matrix: (Units=GPa)
#
#
# Indices 1 2 3 4 5 6 
#
# 1 136.6685 19.8466 21.4874 4.2269 -1.4901 3.1331
# 2 19.8466 61.7238 42.9103 3.5602 23.8377 10.9200
# 3 21.4874 42.9103 104.8990 -11.8456 10.5650 4.6949
# 4 4.2269 3.5602 -11.8456 44.8639 -8.6569 5.4814
# 5 -1.4901 23.8377 10.5650 -8.6569 46.7002 -3.7559
# 6 3.1331 10.9200 4.6949 5.4814 -3.7559 24.8191
#
#
#
# Elastic Compliance Matrix: (Units=1/GPa)
#
#
# Indices 1 2 3 4 5 6 
#
# 1 0.007860 -0.002862 -0.000710 -0.000439 0.001854 0.000779
# 2 -0.002862 0.035604 -0.012396 -0.007590 -0.017994 -0.014006
# 3 -0.000710 -0.012396 0.014859 0.005510 0.004137 0.002142
# 4 -0.000439 -0.007590 0.005510 0.026071 0.007261 -0.002307
# 5 0.001854 -0.017994 0.004137 0.007261 0.031881 0.010122
# 6 0.000779 -0.014006 0.002142 -0.002307 0.010122 0.047992
#
#
# Mechanical properties :
#
#
# Convention : Reuss Voigt Hill
#
# Bulk Modulus (GPa) = 37.89788 52.41998 45.15893
# Shear Modulus (GPa) = 24.39037 37.87977 31.13507
#
# Velocity S-wave (km/s) = 3.06983 3.82568 3.46841
# Velocity P-wave (km/s) = 5.21613 6.30622 5.78690
#
# Compressibility (1/GPa) = 0.02638670
#
# Stress axis : x y z
#
# Youngs Moduli (GPa) = 127.22361 28.08679 67.29933
#
# Poissons Ratio (x) = 0.08038 0.04782
# Poissons Ratio (y) = 0.36408 0.83424
# Poissons Ratio (z) = 0.09039 0.34816
#
# Static dielectric constant tensor:
#      x y z
#    x 0.394010 1.005250 -0.475970 
#    y 1.005250 1.541290 0.399350 
#    z -0.475970 0.399350 2.152180 
# 
# From -- ./inp_files/538395.got.cif
#   From: 2010.05.17/outbox.cif.g08.bks.cpg/sg2_270_cif.got.tgz:538395.got - 2010.06.03 11:33:40.
