data_PCOD9017986
_publ_section_title
;
Structure prediction by ZEFSAII (Michael W. Deem and Ramdas Pophale) SiO2 
 PCOD9017986
Probable space group: P -1
;
_chemical_formula_sum "Si O2"
_cell_formula_units_Z 16
_cell_length_a 8.243739
_cell_length_b 12.312751
_cell_length_c 9.009907
_cell_angle_alpha 86.171819
_cell_angle_beta 46.199281
_cell_angle_gamma 74.261453
_cell_volume 625.611612
_symmetry_space_group_name_H-M "P -1"
_symmetry_group_IT_number 2
_symmetry_cell_setting 'triclinic'
loop_
_space_group_symop_operation_xyz
x,y,z
-x,-y,-z
loop_
_atom_site_type_symbol
_atom_site_label
_atom_site_fract_x
_atom_site_fract_y
_atom_site_fract_z
Si Si1 0.524083 0.224658 0.540888
Si Si2 0.748760 0.078636 0.195680
Si Si3 0.588415 0.895451 0.836509
Si Si4 0.390656 0.301811 0.938747
Si Si5 0.284188 0.676515 0.939765
Si Si6 0.095121 0.277843 0.569125
Si Si7 0.299343 0.528286 0.338208
Si Si8 0.165920 0.607973 0.717511
O O1 0.678040 0.095892 0.409389
O O2 0.410783 0.238557 0.772261
O O3 0.318974 0.262074 0.539941
O O4 0.710339 0.296824 0.416594
O O5 0.564223 0.047187 0.213413
O O6 0.730315 0.206152 0.141899
O O7 0.000000 0.000000 0.000000
O O8 0.829692 0.819171 0.600631
O O9 0.527766 0.794332 0.976411
O O10 0.500000 0.000000 0.000000
O O11 0.450906 0.406198 0.186078
O O12 0.540813 0.389123 0.811180
O O13 0.107074 0.717777 0.183304
O O14 0.202145 0.600276 0.873046
O O15 0.960519 0.398630 0.562734
O O16 0.112332 0.361749 0.133210
O O17 0.285055 0.512375 0.527542
#
# Coordination Sequence:
#
# PCOD9017986 Si02
#       8
#     2   2   2   2   2   2   2   2
#     4   9  22  41  70  98 134 183 231 271 344 411
#     4  10  24  45  70  97 137 177 229 286 345 405
#     4  11  26  43  68 102 135 178 236 288 342 404
#     4  11  22  45  68 100 140 183 224 282 336 404
#     4  11  23  43  70 100 138 182 228 278 339 414
#     4  11  22  44  66 101 137 181 228 285 343 406
#     4  11  24  42  71 103 142 180 230 276 342 409
#     4  10  21  43  67  96 143 180 226 272 335 402
#
# _framework density 25.574971999999999
#
# number of rings (size 3 to 8) (size 9 to 14) (size 15 to 20)
#    0.000    1.500    2.500    1.500    3.500    1.500 
#    6.750   10.625    0.000    0.000    0.000    0.000 
#    0.000    0.000    0.000    0.000    0.000    0.000 
#
# Total GULP energy -89236.415185 kJ/mol
# GULP energy per Si atom -5577.275949 kJ/mol
# Density = 2.551676 g / cm^3
# Si number density = 25.574972 Si / 1000 Ang^3
#
#
#
# Elastic Constant Matrix: (Units=GPa)
#
#
# Indices 1 2 3 4 5 6 
#
# 1 88.9678 19.1722 34.6403 7.9457 -26.1245 -7.5762
# 2 19.1722 101.1097 67.2293 28.7962 -9.1249 -5.2051
# 3 34.6403 67.2293 248.9384 41.5676 -9.0105 -4.0291
# 4 7.9457 28.7962 41.5676 47.6723 -4.7960 1.4491
# 5 -26.1245 -9.1249 -9.0105 -4.7960 54.9659 11.6556
# 6 -7.5762 -5.2051 -4.0291 1.4491 11.6556 25.7073
#
#
#
# Elastic Compliance Matrix: (Units=1/GPa)
#
#
# Indices 1 2 3 4 5 6 
#
# 1 0.013859 -0.001155 -0.001419 0.000200 0.005989 0.000902
# 2 -0.001155 0.013573 -0.002475 -0.005883 0.000317 0.002208
# 3 -0.001419 -0.002475 0.005373 -0.003018 -0.000539 0.000337
# 4 0.000200 -0.005883 -0.003018 0.027437 0.001865 -0.003998
# 5 0.005989 0.000317 -0.000539 0.001865 0.023033 -0.008804
# 6 0.000902 0.002208 0.000337 -0.003998 -0.008804 0.043882
#
#
# Mechanical properties :
#
#
# Convention : Reuss Voigt Hill
#
# Bulk Modulus (GPa) = 44.03862 75.67772 59.85817
# Shear Modulus (GPa) = 34.52491 46.86736 40.69613
#
# Velocity S-wave (km/s) = 3.67815 4.28547 3.99337
# Velocity P-wave (km/s) = 5.94098 7.35811 6.68719
#
# Compressibility (1/GPa) = 0.02270734
#
# Stress axis : x y z
#
# Youngs Moduli (GPa) = 72.15682 73.67664 186.12326
#
# Poissons Ratio (x) = 0.08506 0.26404
# Poissons Ratio (y) = 0.08331 0.46071
# Poissons Ratio (z) = 0.10236 0.18237
#
# Static dielectric constant tensor:
#      x y z
#    x 2.137790 0.073790 0.053080 
#    y 0.073790 2.099080 0.009840 
#    z 0.053080 0.009840 2.086980 
# 
# From -- ./inp_files/202693.got.cif
#   From: 2010.05.17/outbox.cif.g08.bks.cpg/sg2_102_cif.got.tgz:202693.got - 2010.06.03 11:33:40.
