data_PCOD9017835
_publ_section_title
;
Structure prediction by ZEFSAII (Michael W. Deem and Ramdas Pophale) SiO2 
 PCOD9017835
Probable space group: P -1
;
_chemical_formula_sum "Si O2"
_cell_formula_units_Z 16
_cell_length_a 14.469462
_cell_length_b 20.610211
_cell_length_c 9.149323
_cell_angle_alpha 103.602038
_cell_angle_beta 65.686384
_cell_angle_gamma 158.937020
_cell_volume 795.737355
_symmetry_space_group_name_H-M "P -1"
_symmetry_group_IT_number 2
_symmetry_cell_setting 'triclinic'
loop_
_space_group_symop_operation_xyz
x,y,z
-x,-y,-z
loop_
_atom_site_type_symbol
_atom_site_label
_atom_site_fract_x
_atom_site_fract_y
_atom_site_fract_z
Si Si1 0.789822 0.198290 0.814828
Si Si2 0.168160 0.801922 0.541726
Si Si3 0.121564 0.540277 0.795744
Si Si4 0.729531 0.851366 0.705852
Si Si5 0.902327 0.521288 0.750923
Si Si6 0.820403 0.951296 0.020415
Si Si7 0.775137 0.551325 0.090089
Si Si8 0.863588 0.719126 0.898807
O O1 0.779950 0.160498 0.643308
O O2 0.869460 0.326116 0.812877
O O3 0.086193 0.357474 0.792816
O O4 0.500000 0.000000 0.000000
O O5 0.993693 0.625725 0.612418
O O6 0.002997 0.763587 0.697740
O O7 0.500000 0.000000 0.500000
O O8 0.453162 0.715717 0.721644
O O9 0.108775 0.585907 0.695817
O O10 0.000000 0.500000 0.000000
O O11 0.841776 0.962243 0.834299
O O12 0.577905 0.690012 0.790119
O O13 0.000000 0.000000 0.500000
O O14 0.546371 0.279776 0.834768
O O15 0.913040 0.576334 0.916270
O O16 0.000000 0.000000 0.000000
O O17 0.966631 0.107308 0.081378
O O18 0.881098 0.681825 0.006508
O O19 0.500000 0.500000 0.000000
#
# Coordination Sequence:
#
# PCOD9017835 Si02
#       8
#     2   2   2   2   2   2   2   2
#     4  11  23  40  66  94 140 173 218 275 344 396
#     4  11  26  44  63 100 141 177 223 281 335 401
#     4  11  21  40  70  97 127 181 224 279 335 395
#     4  10  22  41  64  97 138 168 223 282 338 398
#     4  10  21  43  66  97 132 170 234 276 329 405
#     4  11  23  42  71  95 131 183 223 278 343 404
#     4   9  20  40  64  90 128 173 212 276 332 396
#     4  11  24  46  68  94 135 182 227 272 344 405
#
# _framework density 20.107137999999999
#
# number of rings (size 3 to 8) (size 9 to 14) (size 15 to 20)
#    0.000    1.500    3.750    3.750    3.500    4.500 
#    4.500    1.250    0.000    0.000    0.000    0.000 
#    0.000    0.000    0.000    0.000    0.000    0.000 
#
# Total GULP energy -89271.327644 kJ/mol
# GULP energy per Si atom -5579.457978 kJ/mol
# Density = 2.006137 g / cm^3
# Si number density = 20.107138 Si / 1000 Ang^3
#
#
#
# Elastic Constant Matrix: (Units=GPa)
#
#
# Indices 1 2 3 4 5 6 
#
# 1 113.3078 55.7167 40.7865 5.2794 -4.1382 -12.6000
# 2 55.7167 125.8427 60.7064 11.7580 -9.6622 -2.0419
# 3 40.7865 60.7064 145.6578 0.5608 1.4241 -1.7868
# 4 5.2794 11.7580 0.5608 27.6730 9.6133 1.5064
# 5 -4.1382 -9.6622 1.4241 9.6133 30.6911 -2.3145
# 6 -12.6000 -2.0419 -1.7868 1.5064 -2.3145 38.3069
#
#
#
# Elastic Compliance Matrix: (Units=1/GPa)
#
#
# Indices 1 2 3 4 5 6 
#
# 1 0.012008 -0.004383 -0.001495 -0.000905 0.000874 0.003735
# 2 -0.004383 0.012963 -0.004210 -0.006552 0.005712 -0.000344
# 3 -0.001495 -0.004210 0.009049 0.002933 -0.002910 -0.000585
# 4 -0.000905 -0.006552 0.002933 0.045001 -0.016664 -0.003287
# 5 0.000874 0.005712 -0.002910 -0.016664 0.040120 0.003535
# 6 0.003735 -0.000344 -0.000585 -0.003287 0.003535 0.027631
#
#
# Mechanical properties :
#
#
# Convention : Reuss Voigt Hill
#
# Bulk Modulus (GPa) = 72.23618 77.69193 74.96406
# Shear Modulus (GPa) = 29.14370 34.50745 31.82557
#
# Velocity S-wave (km/s) = 3.81126 4.14717 3.98276
# Velocity P-wave (km/s) = 7.44118 7.85207 7.64938
#
# Compressibility (1/GPa) = 0.01384348
#
# Stress axis : x y z
#
# Youngs Moduli (GPa) = 83.27478 77.14117 110.51327
#
# Poissons Ratio (x) = 0.33813 0.16521
# Poissons Ratio (y) = 0.36502 0.46528
# Poissons Ratio (z) = 0.12449 0.32478
#
# Static dielectric constant tensor:
#      x y z
#    x 1.699300 -0.017520 0.019780 
#    y -0.017520 1.722430 -0.004430 
#    z 0.019780 -0.004430 1.703130 
# 
# From -- ./inp_files/319395.got.cif
#   From: 2010.05.17/outbox.cif.g08.bks.cpg/sg2_160_cif.got.tgz:319395.got - 2010.06.03 11:33:40.
