data_PCOD9017504
_publ_section_title
;
Structure prediction by ZEFSAII (Michael W. Deem and Ramdas Pophale) SiO2 
 PCOD9017504
Probable space group: P -1
;
_chemical_formula_sum "Si O2"
_cell_formula_units_Z 16
_cell_length_a 11.501597
_cell_length_b 10.227363
_cell_length_c 11.631497
_cell_angle_alpha 99.277786
_cell_angle_beta 36.879708
_cell_angle_gamma 73.645921
_cell_volume 584.130419
_symmetry_space_group_name_H-M "P -1"
_symmetry_group_IT_number 2
_symmetry_cell_setting 'triclinic'
loop_
_space_group_symop_operation_xyz
x,y,z
-x,-y,-z
loop_
_atom_site_type_symbol
_atom_site_label
_atom_site_fract_x
_atom_site_fract_y
_atom_site_fract_z
Si Si1 0.903622 0.687860 0.962031
Si Si2 0.799466 0.204285 0.235191
Si Si3 0.509175 0.122528 0.862446
Si Si4 0.900819 0.752962 0.392906
Si Si5 0.183493 0.015648 0.187879
Si Si6 0.671830 0.735384 0.370087
Si Si7 0.331591 0.690696 0.898633
Si Si8 0.749796 0.405472 0.700282
O O1 0.054342 0.747012 0.808863
O O2 0.110530 0.480472 0.807913
O O3 0.705951 0.715983 0.030564
O O4 0.754968 0.798081 0.214171
O O5 0.577417 0.225724 0.478351
O O6 0.659472 0.329775 0.248071
O O7 0.000000 0.000000 0.000000
O O8 0.769545 0.953211 0.562776
O O9 0.629457 0.135466 0.879558
O O10 0.355447 0.061618 0.016975
O O11 0.661243 0.799628 0.515910
O O12 0.024213 0.638292 0.398346
O O13 0.138542 0.670228 0.103523
O O14 0.910111 0.204326 0.487363
O O15 0.190528 0.897136 0.071738
O O16 0.617313 0.544023 0.716737
O O17 0.500000 0.500000 0.000000
#
# Coordination Sequence:
#
# PCOD9017504 Si02
#       8
#     2   2   2   2   2   2   2   2
#     4  11  25  46  68 102 133 184 226 288 349 400
#     4  12  26  45  70  99 136 182 232 283 344 416
#     4  10  23  42  68  93 137 173 229 281 341 411
#     4  10  21  43  63  99 135 177 226 284 339 414
#     4  10  22  44  65 104 133 177 229 282 339 418
#     4  11  25  44  68 100 138 175 237 284 340 418
#     4  11  23  42  70  99 137 183 225 281 351 404
#     4   9  22  40  66  99 138 173 227 280 337 414
#
# _framework density 27.391145000000002
#
# number of rings (size 3 to 8) (size 9 to 14) (size 15 to 20)
#    0.000    1.500    1.250    2.625    5.250    5.500 
#    4.500    2.500    0.000    0.000    0.000    0.000 
#    0.000    0.000    0.000    0.000    0.000    0.000 
#
# Total GULP energy -89523.967671 kJ/mol
# GULP energy per Si atom -5595.247979 kJ/mol
# Density = 2.732880 g / cm^3
# Si number density = 27.391145 Si / 1000 Ang^3
#
#
#
# Elastic Constant Matrix: (Units=GPa)
#
#
# Indices 1 2 3 4 5 6 
#
# 1 137.6071 19.5269 24.9577 9.4088 4.5788 -14.9681
# 2 19.5269 70.4588 21.8976 7.9692 -8.4629 -1.9870
# 3 24.9577 21.8976 85.2233 5.4248 -4.3746 -6.5902
# 4 9.4088 7.9692 5.4248 39.9310 -3.7013 -2.4085
# 5 4.5788 -8.4629 -4.3746 -3.7013 39.1180 11.7910
# 6 -14.9681 -1.9870 -6.5902 -2.4085 11.7910 31.3291
#
#
#
# Elastic Compliance Matrix: (Units=1/GPa)
#
#
# Indices 1 2 3 4 5 6 
#
# 1 0.008564 -0.001926 -0.001723 -0.001410 -0.003158 0.004687
# 2 -0.001926 0.016457 -0.003503 -0.002131 0.003865 -0.002232
# 3 -0.001723 -0.003503 0.013317 -0.000572 0.000409 0.001558
# 4 -0.001410 -0.002131 -0.000572 0.026084 0.002012 0.000319
# 5 -0.003158 0.003865 0.000409 0.002012 0.030809 -0.012618
# 6 0.004687 -0.002232 0.001558 0.000319 -0.012618 0.039118
#
#
# Mechanical properties :
#
#
# Convention : Reuss Voigt Hill
#
# Bulk Modulus (GPa) = 41.60755 47.33929 44.47342
# Shear Modulus (GPa) = 31.91524 37.20275 34.55900
#
# Velocity S-wave (km/s) = 3.41716 3.68938 3.55587
# Velocity P-wave (km/s) = 5.54909 5.95558 5.75592
#
# Compressibility (1/GPa) = 0.02403410
#
# Stress axis : x y z
#
# Youngs Moduli (GPa) = 116.76573 60.76266 75.09473
#
# Poissons Ratio (x) = 0.11701 0.12940
# Poissons Ratio (y) = 0.22485 0.26307
# Poissons Ratio (z) = 0.20121 0.21287
#
# Static dielectric constant tensor:
#      x y z
#    x 2.151420 0.008760 0.010970 
#    y 0.008760 2.144470 0.003010 
#    z 0.010970 0.003010 2.173010 
# 
# From -- ./inp_files/428315.got.cif
#   From: 2010.05.17/outbox.cif.g08.bks.cpg/sg2_215_cif.got.tgz:428315.got - 2010.06.03 11:33:40.
