data_PCOD9017733
_publ_section_title
;
Structure prediction by ZEFSAII (Michael W. Deem and Ramdas Pophale) SiO2 
 PCOD9017733
Probable space group: P -1
;
_chemical_formula_sum "Si O2"
_cell_formula_units_Z 14
_cell_length_a 22.694347
_cell_length_b 19.633651
_cell_length_c 8.336045
_cell_angle_alpha 38.073371
_cell_angle_beta 136.374835
_cell_angle_gamma 162.754085
_cell_volume 671.086424
_symmetry_space_group_name_H-M "P -1"
_symmetry_group_IT_number 2
_symmetry_cell_setting 'triclinic'
loop_
_space_group_symop_operation_xyz
x,y,z
-x,-y,-z
loop_
_atom_site_type_symbol
_atom_site_label
_atom_site_fract_x
_atom_site_fract_y
_atom_site_fract_z
Si Si1 0.525046 0.241300 0.802810
Si Si2 0.228643 0.312177 0.068813
Si Si3 0.091236 0.292243 0.110318
Si Si4 0.413748 0.874146 0.239231
Si Si5 0.038433 0.306330 0.646068
Si Si6 0.674881 0.776517 0.416292
Si Si7 0.584251 0.852337 0.607738
O O1 0.756988 0.507138 0.819615
O O2 0.417418 0.216232 0.724991
O O3 0.504980 0.241555 0.573567
O O4 0.425126 0.008123 0.089853
O O5 0.166757 0.270635 0.206817
O O6 0.241633 0.196037 0.316914
O O7 0.079671 0.223290 0.846985
O O8 0.446789 0.610821 0.890502
O O9 0.107415 0.396962 0.800750
O O10 0.863503 0.017072 0.226676
O O11 0.190662 0.561419 0.375599
O O12 0.553576 0.938903 0.461496
O O13 0.500000 0.000000 0.000000
O O14 0.809811 0.075033 0.618752
O O15 0.500000 0.500000 0.500000
#
# Coordination Sequence:
#
# PCOD9017733 Si02
#       7
#     2   2   2   2   2   2   2
#     4  11  25  38  63  95 122 158 212 250 304 360
#     4   9  21  38  64  87 120 165 200 247 305 361
#     4  10  23  40  63  91 124 160 205 249 307 360
#     4   9  21  41  62  89 128 159 202 255 304 359
#     4   9  20  38  66  88 119 167 199 244 311 359
#     4  12  22  39  65  90 126 163 201 253 307 365
#     4  10  21  43  66  88 124 163 205 252 306 360
#
# _framework density 20.861694
#
# number of rings (size 3 to 8) (size 9 to 14) (size 15 to 20)
#    0.857    1.143    1.429    1.286    0.000    8.000 
#    0.000    2.857    0.000    0.000    0.000    0.000 
#    0.000    0.000    0.000    0.000    0.000    0.000 
#
# Total GULP energy -77969.557885 kJ/mol
# GULP energy per Si atom -5569.254135 kJ/mol
# Density = 2.081421 g / cm^3
# Si number density = 20.861694 Si / 1000 Ang^3
#
#
#
# Elastic Constant Matrix: (Units=GPa)
#
#
# Indices 1 2 3 4 5 6 
#
# 1 -46.0098 15.0985 -135.5213 52.1693 -157.3671 21.5198
# 2 15.0985 95.6127 -28.5651 20.3638 -48.6016 19.3758
# 3 -135.5213 -28.5651 -151.1913 80.3881 -227.6806 11.5730
# 4 52.1693 20.3638 80.3881 -10.8059 87.3890 -11.1954
# 5 -157.3671 -48.6016 -227.6806 87.3890 -170.6506 -9.6062
# 6 21.5198 19.3758 11.5730 -11.1954 -9.6062 33.5060
#
#
#
# Elastic Compliance Matrix: (Units=1/GPa)
#
#
# Indices 1 2 3 4 5 6 
#
# 1 0.026846 -0.010461 -0.007044 0.010082 -0.006803 -0.007342
# 2 -0.010461 0.015477 0.000098 -0.008983 0.000793 -0.005039
# 3 -0.007044 0.000098 0.011392 0.006895 -0.005274 0.001325
# 4 0.010082 -0.008983 0.006895 0.051863 0.009695 0.016447
# 5 -0.006803 0.000793 -0.005274 0.009695 0.011499 0.012269
# 6 -0.007342 -0.005039 0.001325 0.016447 0.012269 0.046030
#
#
# Mechanical properties :
#
#
# Convention : Reuss Voigt Hill
#
# Bulk Modulus (GPa) = 52.91078 -44.39603 4.25738
# Shear Modulus (GPa) = 24.48312 -26.43013 -0.97351
#
# Velocity S-wave (km/s) = 3.42949 -3.56325 -0.68386
# Velocity P-wave (km/s) = 6.41089 6.18517 1.19233
#
# Compressibility (1/GPa) = 0.01889974
#
# Stress axis : x y z
#
# Youngs Moduli (GPa) = 37.24960 64.61137 87.78365
#
# Poissons Ratio (x) = 0.67592 0.61833
# Poissons Ratio (y) = 0.38968 -0.00856
# Poissons Ratio (z) = 0.26238 -0.00630
#
# Static dielectric constant tensor:
#      x y z
#    x 1.814490 -0.039860 0.035890 
#    y -0.039860 1.764510 0.040860 
#    z 0.035890 0.040860 1.770070 
# 
# From -- ./inp_files/39923.got.cif
#   From: 2010.05.17/outbox.cif.g08.bks.cpg/sg2_20_cif.got.tgz:39923.got - 2010.06.03 11:33:40.
