data_PCOD9017764
_publ_section_title
;
Structure prediction by ZEFSAII (Michael W. Deem and Ramdas Pophale) SiO2 
 PCOD9017764
Probable space group: P -1
;
_chemical_formula_sum "Si O2"
_cell_formula_units_Z 14
_cell_length_a 15.765318
_cell_length_b 15.814779
_cell_length_c 15.034248
_cell_angle_alpha 161.978686
_cell_angle_beta 31.600012
_cell_angle_gamma 147.111983
_cell_volume 597.291185
_symmetry_space_group_name_H-M "P -1"
_symmetry_group_IT_number 2
_symmetry_cell_setting 'triclinic'
loop_
_space_group_symop_operation_xyz
x,y,z
-x,-y,-z
loop_
_atom_site_type_symbol
_atom_site_label
_atom_site_fract_x
_atom_site_fract_y
_atom_site_fract_z
Si Si1 0.858031 0.122396 0.054166
Si Si2 0.198485 0.772281 0.150359
Si Si3 0.484819 0.946163 0.188883
Si Si4 0.996012 0.206139 0.826419
Si Si5 0.572199 0.561673 0.152217
Si Si6 0.774536 0.445219 0.623174
Si Si7 0.847191 0.949465 0.178645
O O1 0.830509 0.335337 0.369549
O O2 0.678963 0.941121 0.011494
O O3 0.933853 0.259103 0.032377
O O4 0.993149 0.961756 0.814192
O O5 0.385147 0.870133 0.111718
O O6 0.153530 0.825054 0.141662
O O7 0.081213 0.937358 0.477675
O O8 0.134352 0.452419 0.911541
O O9 0.465229 0.249580 0.542766
O O10 0.400158 0.726666 0.119438
O O11 0.409817 0.506406 0.181256
O O12 0.717499 0.746244 0.152659
O O13 0.776242 0.199621 0.447558
O O14 0.876499 0.732101 0.857165
#
# Coordination Sequence:
#
# PCOD9017764 Si02
#       7
#     2   2   2   2   2   2   2
#     4  11  25  40  60  92 124 159 198 247 306 355
#     4  10  21  43  66  93 120 155 198 244 293 360
#     4  11  23  39  62  91 127 155 195 247 301 357
#     4  10  23  41  68  92 119 155 201 244 295 360
#     4  11  23  41  63  88 118 162 207 247 294 353
#     4  11  24  40  59  88 121 158 204 256 298 346
#     4  12  23  40  63  84 119 163 209 249 293 349
#
# _framework density 23.439152
#
# number of rings (size 3 to 8) (size 9 to 14) (size 15 to 20)
#    0.000    1.143    0.000    6.857    0.000    7.429 
#    0.000    0.000    0.000    9.429    0.000    0.000 
#    0.000    0.000    0.000    0.000    0.000    0.000 
#
# Total GULP energy -78405.642897 kJ/mol
# GULP energy per Si atom -5600.403064 kJ/mol
# Density = 2.338580 g / cm^3
# Si number density = 23.439152 Si / 1000 Ang^3
#
#
#
# Elastic Constant Matrix: (Units=GPa)
#
#
# Indices 1 2 3 4 5 6 
#
# 1 178.0392 36.4997 17.2729 -0.3162 -4.5188 36.6287
# 2 36.4997 48.2173 -9.3986 1.2084 -4.7914 1.6439
# 3 17.2729 -9.3986 59.0290 23.3141 -0.9763 -4.4880
# 4 -0.3162 1.2084 23.3141 31.9297 -1.9581 6.2799
# 5 -4.5188 -4.7914 -0.9763 -1.9581 22.5704 4.4322
# 6 36.6287 1.6439 -4.4880 6.2799 4.4322 40.4609
#
#
#
# Elastic Compliance Matrix: (Units=1/GPa)
#
#
# Indices 1 2 3 4 5 6 
#
# 1 0.011486 -0.010174 -0.010145 0.010683 0.003204 -0.013119
# 2 -0.010174 0.031379 0.014385 -0.013945 0.001778 0.011501
# 3 -0.010145 0.014385 0.035392 -0.030163 -0.003518 0.017592
# 4 0.010683 -0.013945 -0.030163 0.058832 0.007375 -0.022389
# 5 0.003204 0.001778 -0.003518 0.007375 0.047724 -0.009735
# 6 -0.013119 0.011501 0.017592 -0.022389 -0.009735 0.042617
#
#
# Mechanical properties :
#
#
# Convention : Reuss Voigt Hill
#
# Bulk Modulus (GPa) = 15.06276 41.55929 28.31103
# Shear Modulus (GPa) = 19.12557 35.05298 27.08927
#
# Velocity S-wave (km/s) = 2.85961 3.87135 3.40329
# Velocity P-wave (km/s) = 4.16455 6.14429 5.24861
#
# Compressibility (1/GPa) = 0.06638890
#
# Stress axis : x y z
#
# Youngs Moduli (GPa) = 87.06120 31.86812 28.25476
#
# Poissons Ratio (x) = 0.32424 0.28664
# Poissons Ratio (y) = 0.88579 -0.40644
# Poissons Ratio (z) = 0.88322 -0.45842
#
# Static dielectric constant tensor:
#      x y z
#    x 1.884550 0.019910 0.007000 
#    y 0.019910 1.894390 -0.038060 
#    z 0.007000 -0.038060 1.867970 
# 
# From -- ./inp_files/105631.got.cif
#   From: 2010.05.17/outbox.cif.g08.bks.cpg/sg2_53_cif.got.tgz:105631.got - 2010.06.03 11:33:40.
