data_PCOD9017825
_publ_section_title
;
Structure prediction by ZEFSAII (Michael W. Deem and Ramdas Pophale) SiO2 
 PCOD9017825
Probable space group: P -1
;
_chemical_formula_sum "Si O2"
_cell_formula_units_Z 16
_cell_length_a 12.570793
_cell_length_b 15.760253
_cell_length_c 6.281193
_cell_angle_alpha 117.674753
_cell_angle_beta 129.798285
_cell_angle_gamma 45.229612
_cell_volume 678.551155
_symmetry_space_group_name_H-M "P -1"
_symmetry_group_IT_number 2
_symmetry_cell_setting 'triclinic'
loop_
_space_group_symop_operation_xyz
x,y,z
-x,-y,-z
loop_
_atom_site_type_symbol
_atom_site_label
_atom_site_fract_x
_atom_site_fract_y
_atom_site_fract_z
Si Si1 0.368568 0.804207 0.864608
Si Si2 0.034803 0.897131 0.767615
Si Si3 0.039299 0.447797 0.739338
Si Si4 0.196297 0.627516 0.754724
Si Si5 0.478198 0.467008 0.204198
Si Si6 0.637333 0.751105 0.872051
Si Si7 0.594207 0.838258 0.505145
Si Si8 0.297088 0.084354 0.614912
O O1 0.164791 0.880186 0.730769
O O2 0.453535 0.668751 0.879195
O O3 0.440971 0.800119 0.720167
O O4 0.458726 0.845786 0.179105
O O5 0.135113 0.762852 0.837685
O O6 0.850847 0.926137 0.513055
O O7 0.000000 0.000000 0.000000
O O8 0.244807 0.354208 0.930831
O O9 0.000000 0.500000 0.500000
O O10 0.948138 0.381435 0.534889
O O11 0.000000 0.500000 0.000000
O O12 0.373565 0.538457 0.745359
O O13 0.275723 0.563234 0.005587
O O14 0.500000 0.500000 0.500000
O O15 0.673766 0.845185 0.095347
O O16 0.677245 0.727982 0.646054
O O17 0.733278 0.843318 0.560650
O O18 0.470504 0.956930 0.625497
#
# Coordination Sequence:
#
# PCOD9017825 Si02
#       8
#     2   2   2   2   2   2   2   2
#     4  10  23  40  67 100 138 181 243 289 373 440
#     4  11  21  44  69  95 139 190 236 307 365 442
#     4  12  29  46  75 113 150 194 247 314 376 446
#     4  10  24  44  69 103 136 187 244 298 371 440
#     4  10  23  43  69  94 141 184 232 297 367 441
#     4  11  24  42  70 100 142 182 244 295 371 438
#     4  10  22  41  70  97 135 188 232 304 360 444
#     4  10  21  43  66  96 137 181 241 296 369 426
#
# _framework density 23.579651999999999
#
# number of rings (size 3 to 8) (size 9 to 14) (size 15 to 20)
#    0.000    1.500    2.500    1.125    8.750    2.000 
#    0.000    1.875    0.000    0.000    0.000    0.000 
#    0.000    0.000    0.000    0.000    0.000    0.000 
#
# Total GULP energy -89115.232026 kJ/mol
# GULP energy per Si atom -5569.702002 kJ/mol
# Density = 2.352598 g / cm^3
# Si number density = 23.579652 Si / 1000 Ang^3
#
#
#
# Elastic Constant Matrix: (Units=GPa)
#
#
# Indices 1 2 3 4 5 6 
#
# 1 140.0261 15.7243 45.2296 -12.5863 22.1008 -10.7961
# 2 15.7243 75.6278 28.1036 -1.8573 -4.3152 -6.4242
# 3 45.2296 28.1036 66.9342 -3.8485 -4.8776 0.8644
# 4 -12.5863 -1.8573 -3.8485 33.9957 7.4633 0.3433
# 5 22.1008 -4.3152 -4.8776 7.4633 38.7416 -6.6116
# 6 -10.7961 -6.4242 0.8644 0.3433 -6.6116 36.1313
#
#
#
# Elastic Compliance Matrix: (Units=1/GPa)
#
#
# Indices 1 2 3 4 5 6 
#
# 1 0.011809 0.000566 -0.008555 0.005251 -0.008378 0.002251
# 2 0.000566 0.016100 -0.007102 -0.000004 0.001160 0.003414
# 3 -0.008555 -0.007102 0.024122 -0.002342 0.007051 -0.003084
# 4 0.005251 -0.000004 -0.002342 0.033246 -0.009777 -0.000481
# 5 -0.008378 0.001160 0.007051 -0.009777 0.034154 0.003877
# 6 0.002251 0.003414 -0.003084 -0.000481 0.003877 0.029744
#
#
# Mechanical properties :
#
#
# Convention : Reuss Voigt Hill
#
# Bulk Modulus (GPa) = 45.76946 51.18925 48.47935
# Shear Modulus (GPa) = 26.78933 34.67574 30.73254
#
# Velocity S-wave (km/s) = 3.37430 3.83897 3.61411
# Velocity P-wave (km/s) = 5.88506 6.43479 6.16605
#
# Compressibility (1/GPa) = 0.02184863
#
# Stress axis : x y z
#
# Youngs Moduli (GPa) = 84.67861 62.11070 41.45567
#
# Poissons Ratio (x) = -0.03515 0.35466
# Poissons Ratio (y) = -0.04792 0.29443
# Poissons Ratio (z) = 0.72445 0.44112
#
# Static dielectric constant tensor:
#      x y z
#    x 2.010200 0.052960 -0.097820 
#    y 0.052960 2.043740 -0.081420 
#    z -0.097820 -0.081420 1.934820 
# 
# From -- ./inp_files/81638.got.cif
#   From: 2010.05.17/outbox.cif.g08.bks.cpg/sg2_41_cif.got.tgz:81638.got - 2010.06.03 11:33:40.
