data_PCOD9017440
_publ_section_title
;
Structure prediction by ZEFSAII (Michael W. Deem and Ramdas Pophale) SiO2 
 PCOD9017440
Probable space group: P -1
;
_chemical_formula_sum "Si O2"
_cell_formula_units_Z 16
_cell_length_a 18.583327
_cell_length_b 7.964255
_cell_length_c 12.797325
_cell_angle_alpha 99.969119
_cell_angle_beta 36.347374
_cell_angle_gamma 71.939851
_cell_volume 705.475096
_symmetry_space_group_name_H-M "P -1"
_symmetry_group_IT_number 2
_symmetry_cell_setting 'triclinic'
loop_
_space_group_symop_operation_xyz
x,y,z
-x,-y,-z
loop_
_atom_site_type_symbol
_atom_site_label
_atom_site_fract_x
_atom_site_fract_y
_atom_site_fract_z
Si Si1 0.869565 0.653131 0.911724
Si Si2 0.225374 0.458653 0.556895
Si Si3 0.868260 0.969545 0.801037
Si Si4 0.950097 0.001259 0.241674
Si Si5 0.786761 0.545473 0.796121
Si Si6 0.575864 0.265065 0.812653
Si Si7 0.834190 0.555262 0.156893
Si Si8 0.622969 0.066146 0.946487
O O1 0.807920 0.891196 0.948406
O O2 0.863976 0.512436 0.816045
O O3 0.761275 0.714795 0.150813
O O4 0.079594 0.475759 0.686665
O O5 0.106581 0.764497 0.728227
O O6 0.295838 0.333065 0.577085
O O7 0.401855 0.290220 0.256118
O O8 0.929152 0.067270 0.805993
O O9 0.056389 0.710076 0.488817
O O10 0.705873 0.138099 0.921521
O O11 0.750091 0.136543 0.525334
O O12 0.070757 0.728630 0.012369
O O13 0.730510 0.784224 0.832602
O O14 0.598279 0.635431 0.031772
O O15 0.648241 0.056861 0.793776
O O16 0.500000 0.500000 0.000000
O O17 0.000000 0.500000 0.000000
#
# Coordination Sequence:
#
# PCOD9017440 Si02
#       8
#     2   2   2   2   2   2   2   2
#     4   9  20  39  62  88 116 158 203 244 295 354
#     4  10  21  43  63  88 122 160 209 248 298 352
#     4  10  22  40  59  92 130 162 190 243 313 365
#     4  11  23  40  64  88 127 160 198 248 307 365
#     4  11  23  38  60  91 133 160 193 245 305 365
#     4  12  23  38  59  97 124 158 199 247 301 365
#     4  10  23  40  68  88 112 160 213 254 295 354
#     4  11  23  38  64  91 126 162 201 244 298 361
#
# _framework density 22.679753000000002
#
# number of rings (size 3 to 8) (size 9 to 14) (size 15 to 20)
#    0.000    1.500    2.500    3.000    7.000    1.500 
#    0.000    3.125    2.750    0.000    0.000    0.000 
#    0.000    0.000    0.000    0.000    0.000    0.000 
#
# Total GULP energy -89487.362103 kJ/mol
# GULP energy per Si atom -5592.960131 kJ/mol
# Density = 2.262813 g / cm^3
# Si number density = 22.679753 Si / 1000 Ang^3
#
#
#
# Elastic Constant Matrix: (Units=GPa)
#
#
# Indices 1 2 3 4 5 6 
#
# 1 157.1385 42.2531 32.8520 -12.1798 -9.8953 11.7202
# 2 42.2531 75.1509 15.6917 -17.2614 7.7101 -0.9726
# 3 32.8520 15.6917 32.6377 -19.8191 -12.9875 -1.7197
# 4 -12.1798 -17.2614 -19.8191 29.8221 1.9102 8.7316
# 5 -9.8953 7.7101 -12.9875 1.9102 30.8332 -2.9409
# 6 11.7202 -0.9726 -1.7197 8.7316 -2.9409 35.1393
#
#
#
# Elastic Compliance Matrix: (Units=1/GPa)
#
#
# Indices 1 2 3 4 5 6 
#
# 1 0.009576 -0.004241 -0.010961 -0.005031 -0.000423 -0.002633
# 2 -0.004241 0.019013 -0.003444 0.007748 -0.008126 -0.000833
# 3 -0.010961 -0.003444 0.084315 0.048188 0.029702 -0.001801
# 4 -0.005031 0.007748 0.048188 0.070913 0.011167 -0.012436
# 5 -0.000423 -0.008126 0.029702 0.011167 0.046384 0.002477
# 6 -0.002633 -0.000833 -0.001801 -0.012436 0.002477 0.032522
#
#
# Mechanical properties :
#
#
# Convention : Reuss Voigt Hill
#
# Bulk Modulus (GPa) = 13.22579 49.61340 31.41959
# Shear Modulus (GPa) = 15.37417 30.76759 23.07088
#
# Velocity S-wave (km/s) = 2.60644 3.68722 3.19289
# Velocity P-wave (km/s) = 3.86034 6.32855 5.24179
#
# Compressibility (1/GPa) = 0.07560983
#
# Stress axis : x y z
#
# Youngs Moduli (GPa) = 104.43106 52.59567 11.86026
#
# Poissons Ratio (x) = 0.22308 0.13000
# Poissons Ratio (y) = 0.44293 0.04085
# Poissons Ratio (z) = 1.14469 0.18116
#
# Static dielectric constant tensor:
#      x y z
#    x 1.840400 -0.008060 -0.006360 
#    y -0.008060 1.932420 -0.000350 
#    z -0.006360 -0.000350 1.792880 
# 
# From -- ./inp_files/243521.got.cif
#   From: 2010.05.17/outbox.cif.g08.bks.cpg/sg2_122_cif.got.tgz:243521.got - 2010.06.03 11:33:40.
