data_PCOD9017666
_publ_section_title
;
Structure prediction by ZEFSAII (Michael W. Deem and Ramdas Pophale) SiO2 
 PCOD9017666
Probable space group: P -1
;
_chemical_formula_sum "Si O2"
_cell_formula_units_Z 16
_cell_length_a 13.299349
_cell_length_b 13.914033
_cell_length_c 15.298370
_cell_angle_alpha 27.165420
_cell_angle_beta 51.653120
_cell_angle_gamma 35.431855
_cell_volume 688.423657
_symmetry_space_group_name_H-M "P -1"
_symmetry_group_IT_number 2
_symmetry_cell_setting 'triclinic'
loop_
_space_group_symop_operation_xyz
x,y,z
-x,-y,-z
loop_
_atom_site_type_symbol
_atom_site_label
_atom_site_fract_x
_atom_site_fract_y
_atom_site_fract_z
Si Si1 0.534711 0.952482 0.373631
Si Si2 0.205498 0.673119 0.685576
Si Si3 0.817310 0.144616 0.152869
Si Si4 0.171847 0.479058 0.562765
Si Si5 0.193285 0.284072 0.901699
Si Si6 0.443197 0.406416 0.205591
Si Si7 0.436752 0.571133 0.375493
Si Si8 0.164924 0.495209 0.035947
O O1 0.715022 0.793680 0.347886
O O2 0.574627 0.687533 0.617340
O O3 0.487837 0.175869 0.293966
O O4 0.358821 0.160600 0.234564
O O5 0.273726 0.397350 0.810817
O O6 0.369470 0.648670 0.606824
O O7 0.187078 0.602197 0.849760
O O8 0.000000 0.000000 0.500000
O O9 0.626670 0.331672 0.160768
O O10 0.895283 0.271563 0.043216
O O11 0.743019 0.256852 0.003466
O O12 0.971652 0.787098 0.382071
O O13 0.151090 0.389984 0.738386
O O14 0.303688 0.528451 0.466141
O O15 0.000541 0.473127 0.905576
O O16 0.319169 0.924840 0.132697
O O17 0.500000 0.500000 0.500000
#
# Coordination Sequence:
#
# PCOD9017666 Si02
#       8
#     2   2   2   2   2   2   2   2
#     4  10  23  40  66  98 125 173 219 269 337 401
#     4  12  26  42  68  98 133 183 229 274 327 386
#     4  10  21  43  65  96 130 170 218 271 333 398
#     4  12  25  42  69 101 134 176 221 272 330 400
#     4  12  25  46  66  95 143 179 218 279 328 386
#     4   9  21  44  68  91 134 169 210 281 337 394
#     4  12  26  45  65  96 141 180 223 272 336 383
#     4  11  23  41  67  97 130 176 227 268 325 394
#
# _framework density 23.241502000000001
#
# number of rings (size 3 to 8) (size 9 to 14) (size 15 to 20)
#    0.000    1.000    2.500    3.750    5.250    1.000 
#    2.250    0.000    0.000    0.000    0.000    0.000 
#    0.000    0.000    0.000    0.000    0.000    0.000 
#
# Total GULP energy -89550.459240 kJ/mol
# GULP energy per Si atom -5596.903702 kJ/mol
# Density = 2.318860 g / cm^3
# Si number density = 23.241502 Si / 1000 Ang^3
#
#
#
# Elastic Constant Matrix: (Units=GPa)
#
#
# Indices 1 2 3 4 5 6 
#
# 1 70.1959 16.1341 43.2125 6.6406 13.7140 -8.4461
# 2 16.1341 93.6906 61.2351 17.5263 25.8311 -10.2494
# 3 43.2125 61.2351 189.3958 8.2282 37.8042 -0.6838
# 4 6.6406 17.5263 8.2282 45.9535 -1.0721 -3.1177
# 5 13.7140 25.8311 37.8042 -1.0721 41.8581 -0.7783
# 6 -8.4461 -10.2494 -0.6838 -3.1177 -0.7783 27.2613
#
#
#
# Elastic Compliance Matrix: (Units=1/GPa)
#
#
# Indices 1 2 3 4 5 6 
#
# 1 0.017721 0.001234 -0.003698 -0.002068 -0.003177 0.005534
# 2 0.001234 0.016721 -0.003995 -0.005619 -0.007152 0.005722
# 3 -0.003698 -0.003995 0.008131 0.000346 -0.003704 -0.002510
# 4 -0.002068 -0.005619 0.000346 0.024256 0.004457 0.000157
# 5 -0.003177 -0.007152 -0.003704 0.004457 0.032761 -0.002321
# 6 0.005534 0.005722 -0.002510 0.000157 -0.002321 0.040437
#
#
# Mechanical properties :
#
#
# Convention : Reuss Voigt Hill
#
# Bulk Modulus (GPa) = 33.72298 66.04953 49.88626
# Shear Modulus (GPa) = 30.70677 38.52795 34.61736
#
# Velocity S-wave (km/s) = 3.63878 4.07593 3.86354
# Velocity P-wave (km/s) = 5.67412 7.11558 6.43533
#
# Compressibility (1/GPa) = 0.02965337
#
# Stress axis : x y z
#
# Youngs Moduli (GPa) = 56.42999 59.80402 122.99045
#
# Poissons Ratio (x) = -0.07377 0.45482
# Poissons Ratio (y) = -0.06961 0.49139
# Poissons Ratio (z) = 0.20868 0.23894
#
# Static dielectric constant tensor:
#      x y z
#    x 1.886670 0.001790 -0.041310 
#    y 0.001790 1.871150 -0.021790 
#    z -0.041310 -0.021790 1.875490 
# 
# From -- ./inp_files/534116.got.cif
#   From: 2010.05.17/outbox.cif.g08.bks.cpg/sg2_268_cif.got.tgz:534116.got - 2010.06.03 11:33:40.
