data_PCOD9017200
_publ_section_title
;
Structure prediction by ZEFSAII (Michael W. Deem and Ramdas Pophale) SiO2 
 PCOD9017200
Probable space group: P -1
;
_chemical_formula_sum "Si O2"
_cell_formula_units_Z 16
_cell_length_a 5.389238
_cell_length_b 27.368907
_cell_length_c 8.947989
_cell_angle_alpha 43.304739
_cell_angle_beta 75.494564
_cell_angle_gamma 49.441728
_cell_volume 621.768211
_symmetry_space_group_name_H-M "P -1"
_symmetry_group_IT_number 2
_symmetry_cell_setting 'triclinic'
loop_
_space_group_symop_operation_xyz
x,y,z
-x,-y,-z
loop_
_atom_site_type_symbol
_atom_site_label
_atom_site_fract_x
_atom_site_fract_y
_atom_site_fract_z
Si Si1 0.412492 0.940585 0.073107
Si Si2 0.587683 0.773777 0.122596
Si Si3 0.815134 0.844574 0.691843
Si Si4 0.106054 0.282778 0.477103
Si Si5 0.749535 0.617003 0.253072
Si Si6 0.814453 0.931102 0.789649
Si Si7 0.381066 0.582107 0.212308
Si Si8 0.550499 0.335153 0.224450
O O1 0.624055 0.833798 0.352971
O O2 0.555561 0.922553 0.921943
O O3 0.500000 0.000000 0.000000
O O4 0.000000 0.000000 0.000000
O O5 0.847460 0.728976 0.324963
O O6 0.636520 0.682122 0.269259
O O7 0.691658 0.801725 0.904193
O O8 0.156861 0.868954 0.986398
O O9 0.931861 0.881076 0.718378
O O10 0.112708 0.766933 0.693933
O O11 0.441229 0.950380 0.446953
O O12 0.264064 0.328684 0.305720
O O13 0.726931 0.334571 0.347447
O O14 0.407077 0.650098 0.152124
O O15 0.000000 0.500000 0.500000
O O16 0.009232 0.621882 0.117356
O O17 0.500000 0.500000 0.500000
O O18 0.594618 0.569275 0.064911
#
# Coordination Sequence:
#
# PCOD9017200 Si02
#       8
#     2   2   2   2   2   2   2   2
#     4  12  24  44  64  92 143 200 238 286 350 418
#     4  12  24  44  70  99 146 192 234 301 363 422
#     4  11  24  41  69  98 139 189 245 303 341 409
#     4  12  27  42  66 100 146 187 236 287 365 423
#     4  10  22  41  75 109 131 175 238 292 356 429
#     4  11  24  41  65 103 139 186 257 296 344 407
#     4  10  21  42  72 104 132 170 229 291 348 420
#     4  12  25  45  68 107 137 189 236 293 347 431
#
# _framework density 25.733060999999999
#
# number of rings (size 3 to 8) (size 9 to 14) (size 15 to 20)
#    0.000    0.750    2.500    5.625    1.750    0.000 
#    0.000    0.000    0.000   18.000    0.000    0.000 
#    0.000    0.000    0.000    0.000    0.000    0.000 
#
# Total GULP energy -89355.590061 kJ/mol
# GULP energy per Si atom -5584.724379 kJ/mol
# Density = 2.567449 g / cm^3
# Si number density = 25.733061 Si / 1000 Ang^3
#
#
#
# Elastic Constant Matrix: (Units=GPa)
#
#
# Indices 1 2 3 4 5 6 
#
# 1 174.6103 22.0596 45.4297 5.6624 -18.3234 15.9047
# 2 22.0596 36.5888 9.3304 9.2236 5.8553 8.8968
# 3 45.4297 9.3304 144.5100 5.9876 -8.8043 4.3288
# 4 5.6624 9.2236 5.9876 30.5476 -1.2532 -0.5657
# 5 -18.3234 5.8553 -8.8043 -1.2532 49.7303 8.4209
# 6 15.9047 8.8968 4.3288 -0.5657 8.4209 48.5820
#
#
#
# Elastic Compliance Matrix: (Units=1/GPa)
#
#
# Indices 1 2 3 4 5 6 
#
# 1 0.007193 -0.003980 -0.001765 0.000306 0.003155 -0.002012
# 2 -0.003980 0.034201 -0.000746 -0.009731 -0.005174 -0.004110
# 3 -0.001765 -0.000746 0.007611 -0.000910 0.000781 -0.000110
# 4 0.000306 -0.009731 -0.000910 0.035900 0.001682 0.001889
# 5 0.003155 -0.005174 0.000781 0.001682 0.022752 -0.004079
# 6 -0.002012 -0.004110 -0.000110 0.001889 -0.004079 0.022734
#
#
# Mechanical properties :
#
#
# Convention : Reuss Voigt Hill
#
# Bulk Modulus (GPa) = 27.75851 56.59427 42.17639
# Shear Modulus (GPa) = 32.17914 44.36461 38.27187
#
# Velocity S-wave (km/s) = 3.54007 4.15665 3.86069
# Velocity P-wave (km/s) = 5.24595 6.71398 6.02485
#
# Compressibility (1/GPa) = 0.03602499
#
# Stress axis : x y z
#
# Youngs Moduli (GPa) = 139.01664 29.23886 131.38185
#
# Poissons Ratio (x) = 0.11636 0.23184
# Poissons Ratio (y) = 0.55325 0.09802
# Poissons Ratio (z) = 0.24531 0.02181
#
# Static dielectric constant tensor:
#      x y z
#    x 1.349670 -0.097260 -1.454830 
#    y -0.097260 2.158440 -0.311920 
#    z -1.454830 -0.311920 -0.961710 
# 
# From -- ./inp_files/143361.got.cif
#   From: 2010.05.17/outbox.cif.g08.bks.cpg/sg2_72_cif.got.tgz:143361.got - 2010.06.03 11:33:40.
