data_PCOD9017566
_publ_section_title
;
Structure prediction by ZEFSAII (Michael W. Deem and Ramdas Pophale) SiO2 
 PCOD9017566
Probable space group: P -1
;
_chemical_formula_sum "Si O2"
_cell_formula_units_Z 16
_cell_length_a 5.609448
_cell_length_b 13.837451
_cell_length_c 11.072263
_cell_angle_alpha 121.724512
_cell_angle_beta 93.635576
_cell_angle_gamma 111.611367
_cell_volume 642.718433
_symmetry_space_group_name_H-M "P -1"
_symmetry_group_IT_number 2
_symmetry_cell_setting 'triclinic'
loop_
_space_group_symop_operation_xyz
x,y,z
-x,-y,-z
loop_
_atom_site_type_symbol
_atom_site_label
_atom_site_fract_x
_atom_site_fract_y
_atom_site_fract_z
Si Si1 0.400923 0.351237 0.383375
Si Si2 0.178384 0.845001 0.800168
Si Si3 0.716426 0.881153 0.369619
Si Si4 0.597220 0.590506 0.183891
Si Si5 0.110127 0.062322 0.838627
Si Si6 0.001940 0.492895 0.140314
Si Si7 0.456069 0.138939 0.395579
Si Si8 0.430318 0.741132 0.898401
O O1 0.500000 0.500000 0.500000
O O2 0.395677 0.257266 0.431320
O O3 0.577565 0.334580 0.272287
O O4 0.094275 0.287571 0.285522
O O5 0.307301 0.843852 0.674193
O O6 0.370293 0.853402 0.921387
O O7 0.098946 0.957307 0.863182
O O8 0.709231 0.742454 0.264710
O O9 0.693612 0.920417 0.258552
O O10 0.509528 0.861260 0.459124
O O11 0.000000 0.000000 0.500000
O O12 0.841878 0.569503 0.231517
O O13 0.314912 0.541973 0.216787
O O14 0.500000 0.500000 0.000000
O O15 0.270663 0.200199 0.996813
O O16 0.806130 0.997219 0.736813
O O17 0.801654 0.348058 0.077313
O O18 0.000000 0.500000 0.000000
#
# Coordination Sequence:
#
# PCOD9017566 Si02
#       8
#     2   2   2   2   2   2   2   2
#     4  10  24  42  64  91 130 175 224 281 341 418
#     4  10  23  42  64  95 130 174 229 281 346 410
#     4  10  22  44  68 101 137 184 231 288 359 421
#     4  10  22  44  67 100 141 180 229 288 350 420
#     4  10  21  43  64  96 134 169 229 280 352 415
#     4  10  23  42  66 103 140 177 224 290 351 417
#     4   9  22  42  63  94 132 173 224 280 345 415
#     4  11  24  40  68  99 129 179 225 284 348 417
#
# _framework density 24.894262999999999
#
# number of rings (size 3 to 8) (size 9 to 14) (size 15 to 20)
#    0.000    2.000    0.000    1.875    3.500    9.000 
#   18.000    0.000    0.000    0.000    0.000    0.000 
#    0.000    0.000    0.000    0.000    0.000    0.000 
#
# Total GULP energy -89373.464056 kJ/mol
# GULP energy per Si atom -5585.841504 kJ/mol
# Density = 2.483760 g / cm^3
# Si number density = 24.894263 Si / 1000 Ang^3
#
#
#
# Elastic Constant Matrix: (Units=GPa)
#
#
# Indices 1 2 3 4 5 6 
#
# 1 111.2019 26.3254 12.2437 6.7400 -6.9079 17.8102
# 2 26.3254 135.1564 50.6414 7.5165 -10.7403 17.5829
# 3 12.2437 50.6414 87.7404 9.3668 -3.3132 8.5092
# 4 6.7400 7.5165 9.3668 47.9131 11.7531 -1.2785
# 5 -6.9079 -10.7403 -3.3132 11.7531 13.2714 1.2557
# 6 17.8102 17.5829 8.5092 -1.2785 1.2557 37.0966
#
#
#
# Elastic Compliance Matrix: (Units=1/GPa)
#
#
# Indices 1 2 3 4 5 6 
#
# 1 0.010764 -0.000473 0.000049 -0.003835 0.009139 -0.005396
# 2 -0.000473 0.011015 -0.005096 -0.003442 0.010852 -0.004311
# 3 0.000049 -0.005096 0.014803 -0.002632 0.002038 -0.001163
# 4 -0.003835 -0.003442 -0.002632 0.030804 -0.033312 0.006266
# 5 0.009139 0.010852 0.002038 -0.033312 0.120339 -0.015220
# 6 -0.005396 -0.004311 -0.001163 0.006266 -0.015220 0.032588
#
#
# Mechanical properties :
#
#
# Convention : Reuss Voigt Hill
#
# Bulk Modulus (GPa) = 39.15398 56.94663 48.05031
# Shear Modulus (GPa) = 20.84491 35.98209 28.41350
#
# Velocity S-wave (km/s) = 2.89682 3.80596 3.38208
# Velocity P-wave (km/s) = 5.19144 6.49914 5.88175
#
# Compressibility (1/GPa) = 0.02554019
#
# Stress axis : x y z
#
# Youngs Moduli (GPa) = 92.90463 90.78443 67.55566
#
# Poissons Ratio (x) = 0.04298 -0.00331
# Poissons Ratio (y) = 0.04398 0.34428
# Poissons Ratio (z) = -0.00456 0.46266
#
# Static dielectric constant tensor:
#      x y z
#    x 2.001960 -0.033800 -0.053090 
#    y -0.033800 1.964960 -0.006330 
#    z -0.053090 -0.006330 1.943410 
# 
# From -- ./inp_files/367959.got.cif
#   From: 2010.05.17/outbox.cif.g08.bks.cpg/sg2_184_cif.got.tgz:367959.got - 2010.06.03 11:33:40.
