data_PCOD9017630
_publ_section_title
;
Structure prediction by ZEFSAII (Michael W. Deem and Ramdas Pophale) SiO2 
 PCOD9017630
Probable space group: P -1
;
_chemical_formula_sum "Si O2"
_cell_formula_units_Z 14
_cell_length_a 11.839590
_cell_length_b 11.770947
_cell_length_c 8.924810
_cell_angle_alpha 40.369031
_cell_angle_beta 69.728596
_cell_angle_gamma 69.769692
_cell_volume 748.830550
_symmetry_space_group_name_H-M "P -1"
_symmetry_group_IT_number 2
_symmetry_cell_setting 'triclinic'
loop_
_space_group_symop_operation_xyz
x,y,z
-x,-y,-z
loop_
_atom_site_type_symbol
_atom_site_label
_atom_site_fract_x
_atom_site_fract_y
_atom_site_fract_z
Si Si1 0.722701 0.793570 0.266646
Si Si2 0.546240 0.047442 0.268811
Si Si3 0.874655 0.451940 0.173900
Si Si4 0.701269 0.812792 0.902758
Si Si5 0.883025 0.433804 0.545233
Si Si6 0.812935 0.096483 0.081715
Si Si7 0.130468 0.923626 0.582814
O O1 0.770994 0.588637 0.471870
O O2 0.598959 0.868562 0.334000
O O3 0.708444 0.834821 0.056182
O O4 0.819697 0.912440 0.172597
O O5 0.436659 0.157125 0.119966
O O6 0.500000 0.000000 0.500000
O O7 0.667033 0.142674 0.128760
O O8 0.894184 0.420068 0.374438
O O9 0.840839 0.276948 0.286192
O O10 0.771871 0.619102 0.030259
O O11 0.000000 0.500000 0.000000
O O12 0.771916 0.956237 0.643258
O O13 0.860699 0.249390 0.812168
O O14 0.000000 0.500000 0.500000
O O15 0.873456 0.071506 0.240759
O O16 0.000000 0.000000 0.500000
#
# Coordination Sequence:
#
# PCOD9017630 Si02
#       7
#     2   2   2   2   2   2   2
#     4   9  23  41  65  91 127 162 213 260 313 372
#     4  10  21  43  65  92 128 164 213 261 309 378
#     4  11  24  41  62  95 127 166 210 259 313 377
#     4  11  21  44  64  91 125 170 206 262 317 367
#     4  11  24  41  65  92 131 166 208 261 317 374
#     4  10  24  42  62  97 124 164 214 256 319 367
#     4  12  24  38  66  92 129 165 209 259 317 376
#
# _framework density 18.695817999999999
#
# number of rings (size 3 to 8) (size 9 to 14) (size 15 to 20)
#    0.857    0.571    2.857    2.143    4.000    4.000 
#    2.571    2.857    0.000    0.000    0.000    0.000 
#    0.000    0.000    0.000    0.000    0.000    0.000 
#
# Total GULP energy -78166.339613 kJ/mol
# GULP energy per Si atom -5583.309972 kJ/mol
# Density = 1.865327 g / cm^3
# Si number density = 18.695818 Si / 1000 Ang^3
#
#
#
# Elastic Constant Matrix: (Units=GPa)
#
#
# Indices 1 2 3 4 5 6 
#
# 1 87.3085 17.6207 23.9414 1.7304 19.7992 0.9616
# 2 17.6207 110.0608 42.1054 0.0518 17.2540 4.6816
# 3 23.9414 42.1054 85.2146 7.6586 4.6379 8.5381
# 4 1.7304 0.0518 7.6586 21.6427 3.6411 -4.9509
# 5 19.7992 17.2540 4.6379 3.6411 38.8851 2.7340
# 6 0.9616 4.6816 8.5381 -4.9509 2.7340 35.6674
#
#
#
# Elastic Compliance Matrix: (Units=1/GPa)
#
#
# Indices 1 2 3 4 5 6 
#
# 1 0.014045 0.000345 -0.004026 0.001798 -0.007086 0.001332
# 2 0.000345 0.012180 -0.006189 0.003169 -0.005189 0.000711
# 3 -0.004026 -0.006189 0.016811 -0.007255 0.003779 -0.004400
# 4 0.001798 0.003169 -0.007255 0.051848 -0.006944 0.009001
# 5 -0.007086 -0.005189 0.003779 -0.006944 0.032069 -0.003455
# 6 0.001332 0.000711 -0.004400 0.009001 -0.003455 0.030475
#
#
# Mechanical properties :
#
#
# Convention : Reuss Voigt Hill
#
# Bulk Modulus (GPa) = 42.92482 49.99101 46.45792
# Shear Modulus (GPa) = 27.03679 32.50013 29.76846
#
# Velocity S-wave (km/s) = 3.80694 4.17389 3.99463
# Velocity P-wave (km/s) = 6.50639 7.07288 6.79555
#
# Compressibility (1/GPa) = 0.02329654
#
# Stress axis : x y z
#
# Youngs Moduli (GPa) = 71.20195 82.10207 59.48398
#
# Poissons Ratio (x) = -0.02832 0.23947
# Poissons Ratio (y) = -0.02456 0.36813
# Poissons Ratio (z) = 0.28664 0.50811
#
# Static dielectric constant tensor:
#      x y z
#    x 1.640990 -0.007920 0.001240 
#    y -0.007920 1.648460 -0.003610 
#    z 0.001240 -0.003610 1.607580 
# 
# From -- ./inp_files/255730.got.cif
#   From: 2010.05.17/outbox.cif.g08.bks.cpg/sg2_128_cif.got.tgz:255730.got - 2010.06.03 11:33:40.
