data_PCOD9017545
_publ_section_title
;
Structure prediction by ZEFSAII (Michael W. Deem and Ramdas Pophale) SiO2 
 PCOD9017545
Probable space group: P -1
;
_chemical_formula_sum "Si O2"
_cell_formula_units_Z 16
_cell_length_a 13.850953
_cell_length_b 8.856409
_cell_length_c 11.868581
_cell_angle_alpha 141.579609
_cell_angle_beta 131.443507
_cell_angle_gamma 65.318795
_cell_volume 662.072279
_symmetry_space_group_name_H-M "P -1"
_symmetry_group_IT_number 2
_symmetry_cell_setting 'triclinic'
loop_
_space_group_symop_operation_xyz
x,y,z
-x,-y,-z
loop_
_atom_site_type_symbol
_atom_site_label
_atom_site_fract_x
_atom_site_fract_y
_atom_site_fract_z
Si Si1 0.275190 0.914424 0.242054
Si Si2 0.545869 0.315696 0.510400
Si Si3 0.472895 0.322413 0.700367
Si Si4 0.170849 0.509404 0.090379
Si Si5 0.172651 0.809557 0.868825
Si Si6 0.459245 0.889897 0.029424
Si Si7 0.047182 0.250375 0.512609
Si Si8 0.065661 0.781184 0.358698
O O1 0.393986 0.767515 0.217451
O O2 0.168345 0.719528 0.117904
O O3 0.339288 0.121453 0.507058
O O4 0.204890 0.959901 0.098450
O O5 0.500000 0.500000 0.500000
O O6 0.453422 0.268394 0.519249
O O7 0.677899 0.471011 0.758802
O O8 0.545608 0.071880 0.294601
O O9 0.478835 0.608466 0.894323
O O10 0.119536 0.580074 0.211852
O O11 0.085529 0.261896 0.828740
O O12 0.305583 0.877056 0.935085
O O13 0.138627 0.516378 0.706919
O O14 0.043864 0.842882 0.720585
O O15 0.500000 0.000000 0.000000
O O16 0.945711 0.274484 0.551118
O O17 0.123954 0.053830 0.513000
#
# Coordination Sequence:
#
# PCOD9017545 Si02
#       8
#     2   2   2   2   2   2   2   2
#     4  10  21  43  64  93 137 183 213 278 346 403
#     4  11  23  42  64  97 137 172 219 280 346 402
#     4  10  23  41  63  96 136 176 225 268 337 416
#     4  10  23  40  67  95 129 173 227 278 333 411
#     4  11  24  43  64  95 139 174 226 283 342 406
#     4  12  26  41  67 103 134 181 228 278 348 414
#     4  10  24  43  65  96 130 179 224 285 338 396
#     4  10  22  43  68  96 126 175 234 277 337 400
#
# _framework density 24.166547000000001
#
# number of rings (size 3 to 8) (size 9 to 14) (size 15 to 20)
#    0.000    1.500    3.750    0.000    5.250    1.500 
#    0.000    0.625    0.000    0.000    0.000    0.000 
#    0.000    0.000    0.000    0.000    0.000    0.000 
#
# Total GULP energy -89271.033720 kJ/mol
# GULP energy per Si atom -5579.439608 kJ/mol
# Density = 2.411154 g / cm^3
# Si number density = 24.166547 Si / 1000 Ang^3
#
#
#
# Elastic Constant Matrix: (Units=GPa)
#
#
# Indices 1 2 3 4 5 6 
#
# 1 55.4865 3.2272 -1.9269 0.6220 -2.4024 27.6351
# 2 3.2272 67.0814 23.0904 4.4161 -1.9400 18.7285
# 3 -1.9269 23.0904 71.1575 -0.3530 -0.3732 -2.2751
# 4 0.6220 4.4161 -0.3530 48.2463 4.5490 -6.6606
# 5 -2.4024 -1.9400 -0.3732 4.5490 38.8072 2.8035
# 6 27.6351 18.7285 -2.2751 -6.6606 2.8035 31.1743
#
#
#
# Elastic Compliance Matrix: (Units=1/GPa)
#
#
# Indices 1 2 3 4 5 6 
#
# 1 0.041517 0.014028 -0.004976 -0.009255 0.007796 -0.048273
# 2 0.014028 0.026841 -0.009341 -0.007527 0.005266 -0.031324
# 3 -0.004976 -0.009341 0.017340 0.002884 -0.001818 0.012068
# 4 -0.009255 -0.007527 0.002884 0.024619 -0.005155 0.018660
# 5 0.007796 0.005266 -0.001818 -0.005155 0.028101 -0.013835
# 6 -0.048273 -0.031324 0.012068 0.018660 -0.013835 0.099800
#
#
# Mechanical properties :
#
#
# Convention : Reuss Voigt Hill
#
# Bulk Modulus (GPa) = 11.74822 26.94519 19.34671
# Shear Modulus (GPa) = 18.71467 34.93455 26.82461
#
# Velocity S-wave (km/s) = 2.78583 3.80620 3.33526
# Velocity P-wave (km/s) = 3.90124 5.52179 4.78068
#
# Compressibility (1/GPa) = 0.08511926
#
# Stress axis : x y z
#
# Youngs Moduli (GPa) = 24.08632 37.25671 57.66889
#
# Poissons Ratio (x) = -0.52262 0.28697
# Poissons Ratio (y) = -0.33787 0.53869
# Poissons Ratio (z) = 0.11986 0.34802
#
# Static dielectric constant tensor:
#      x y z
#    x 2.134670 0.110150 0.117720 
#    y 0.110150 1.927400 -0.087000 
#    z 0.117720 -0.087000 1.605800 
# 
# From -- ./inp_files/448427.got.cif
#   From: 2010.05.17/outbox.cif.g08.bks.cpg/sg2_225_cif.got.tgz:448427.got - 2010.06.03 11:33:40.
