data_PCOD9017464
_publ_section_title
;
Structure prediction by ZEFSAII (Michael W. Deem and Ramdas Pophale) SiO2 
 PCOD9017464
Probable space group: P -1
;
_chemical_formula_sum "Si O2"
_cell_formula_units_Z 14
_cell_length_a 26.295118
_cell_length_b 5.309436
_cell_length_c 6.667105
_cell_angle_alpha 108.649765
_cell_angle_beta 43.854895
_cell_angle_gamma 106.914183
_cell_volume 608.446748
_symmetry_space_group_name_H-M "P -1"
_symmetry_group_IT_number 2
_symmetry_cell_setting 'triclinic'
loop_
_space_group_symop_operation_xyz
x,y,z
-x,-y,-z
loop_
_atom_site_type_symbol
_atom_site_label
_atom_site_fract_x
_atom_site_fract_y
_atom_site_fract_z
Si Si1 0.283380 0.890295 0.562975
Si Si2 0.498171 0.691314 0.362392
Si Si3 0.167191 0.203951 0.120408
Si Si4 0.622405 0.564656 0.660339
Si Si5 0.938131 0.137211 0.447314
Si Si6 0.822183 0.318341 0.520542
Si Si7 0.907041 0.590359 0.973439
O O1 0.321459 0.634571 0.462492
O O2 0.246433 0.832808 0.435992
O O3 0.337614 0.159549 0.466281
O O4 0.217738 0.961204 0.916587
O O5 0.500000 0.500000 0.500000
O O6 0.426109 0.595644 0.412556
O O7 0.500000 0.000000 0.500000
O O8 0.567261 0.643387 0.011761
O O9 0.203302 0.454927 0.201763
O O10 0.152709 0.265334 0.946344
O O11 0.086524 0.133907 0.432266
O O12 0.876336 0.155044 0.457312
O O13 0.927713 0.358614 0.704423
O O14 0.019948 0.209194 0.152906
O O15 0.872559 0.462312 0.238732
#
# Coordination Sequence:
#
# PCOD9017464 Si02
#       7
#     2   2   2   2   2   2   2
#     4  12  26  47  68 101 153 185 229 281 347 419
#     4  11  24  49  80 113 144 178 233 277 327 400
#     4  11  25  41  64  95 134 182 238 297 354 429
#     4  11  27  47  74 109 145 188 223 279 337 406
#     4  10  22  40  66  92 126 177 245 302 366 416
#     4  11  25  41  65  94 134 183 237 293 361 426
#     4  10  21  43  63  92 129 177 239 315 365 409
#
# _framework density 23.009411
#
# number of rings (size 3 to 8) (size 9 to 14) (size 15 to 20)
#    0.000    1.143    1.429    3.429    6.000    6.286 
#    0.000    0.000    0.000    0.000    0.000    0.000 
#    0.000    0.000    0.000    0.000    0.000    0.000 
#
# Total GULP energy -78413.109398 kJ/mol
# GULP energy per Si atom -5600.936386 kJ/mol
# Density = 2.295704 g / cm^3
# Si number density = 23.009411 Si / 1000 Ang^3
#
#
#
# Elastic Constant Matrix: (Units=GPa)
#
#
# Indices 1 2 3 4 5 6 
#
# 1 104.8167 34.0667 46.0487 14.8706 12.9528 5.5533
# 2 34.0667 116.1068 32.3337 3.6832 2.8498 11.3359
# 3 46.0487 32.3337 60.8523 -4.6911 6.9063 6.0453
# 4 14.8706 3.6832 -4.6911 52.6832 -2.8511 1.9649
# 5 12.9528 2.8498 6.9063 -2.8511 34.2439 -5.0704
# 6 5.5533 11.3359 6.0453 1.9649 -5.0704 43.0578
#
#
#
# Elastic Compliance Matrix: (Units=1/GPa)
#
#
# Indices 1 2 3 4 5 6 
#
# 1 0.016477 -0.001238 -0.011732 -0.005827 -0.004307 -0.000393
# 2 -0.001238 0.010430 -0.004488 -0.000699 0.000165 -0.001905
# 3 -0.011732 -0.004488 0.028410 0.006182 -0.000649 -0.001652
# 4 -0.005827 -0.000699 0.006182 0.021394 0.002710 -0.000589
# 5 -0.004307 0.000165 -0.000649 0.002710 0.031799 0.004224
# 6 -0.000393 -0.001905 -0.001652 -0.000589 0.004224 0.024533
#
#
# Mechanical properties :
#
#
# Convention : Reuss Voigt Hill
#
# Bulk Modulus (GPa) = 49.01965 56.29713 52.65839
# Shear Modulus (GPa) = 28.61049 37.28544 32.94796
#
# Velocity S-wave (km/s) = 3.53005 4.02984 3.78820
# Velocity P-wave (km/s) = 6.16161 6.79507 6.48608
#
# Compressibility (1/GPa) = 0.02039998
#
# Stress axis : x y z
#
# Youngs Moduli (GPa) = 60.69124 95.87613 35.19851
#
# Poissons Ratio (x) = 0.11873 0.41295
# Poissons Ratio (y) = 0.07516 0.15798
# Poissons Ratio (z) = 0.71202 0.43033
#
# Static dielectric constant tensor:
#      x y z
#    x 1.831580 0.018800 -0.015870 
#    y 0.018800 1.897100 -0.004760 
#    z -0.015870 -0.004760 1.859850 
# 
# From -- ./inp_files/7998.got.cif
#   From: 2010.05.17/outbox.cif.g08.bks.cpg/sg2_4_cif.got.tgz:7998.got - 2010.06.03 11:33:40.
