data_PCOD9017044
_publ_section_title
;
Structure prediction by ZEFSAII (Michael W. Deem and Ramdas Pophale) SiO2 
 PCOD9017044
Probable space group: P -1
;
_chemical_formula_sum "Si O2"
_cell_formula_units_Z 12
_cell_length_a 5.676991
_cell_length_b 10.172046
_cell_length_c 9.389361
_cell_angle_alpha 59.865616
_cell_angle_beta 87.490705
_cell_angle_gamma 92.014271
_cell_volume 467.450347
_symmetry_space_group_name_H-M "P -1"
_symmetry_group_IT_number 2
_symmetry_cell_setting 'triclinic'
loop_
_space_group_symop_operation_xyz
x,y,z
-x,-y,-z
loop_
_atom_site_type_symbol
_atom_site_label
_atom_site_fract_x
_atom_site_fract_y
_atom_site_fract_z
Si Si1 0.739229 0.937287 0.603214
Si Si2 0.946587 0.128111 0.727577
Si Si3 0.363557 0.842627 0.039349
Si Si4 0.444385 0.664694 0.851829
Si Si5 0.760330 0.395305 0.400266
Si Si6 0.652171 0.691785 0.343346
O O1 0.669933 0.758317 0.721739
O O2 0.500000 0.000000 0.500000
O O3 0.785307 0.995623 0.732291
O O4 0.000000 0.000000 0.500000
O O5 0.888800 0.146761 0.884450
O O6 0.891138 0.269932 0.550328
O O7 0.227879 0.143210 0.705665
O O8 0.483396 0.717193 0.201733
O O9 0.360090 0.776660 0.917102
O O10 0.500000 0.000000 0.000000
O O11 0.250753 0.636714 0.748245
O O12 0.500000 0.500000 0.000000
O O13 0.826541 0.568015 0.349134
O O14 0.494260 0.370706 0.484222
#
# Coordination Sequence:
#
# PCOD9017044 Si02
#       6
#     2   2   2   2   2   2
#     4  12  27  50  80 113 152 208 265 319 381 473
#     4  11  23  42  71  99 139 196 253 300 376 465
#     4  11  24  43  65 100 146 187 242 308 388 447
#     4  12  24  48  74 111 155 196 255 330 393 453
#     4  10  21  42  70  97 141 185 252 301 379 454
#     4  10  22  42  68  99 137 193 242 310 371 460
#
# _framework density 25.671175000000002
#
# number of rings (size 3 to 8) (size 9 to 14) (size 15 to 20)
#    0.000    1.000    5.000    1.500    2.333    0.667 
#    6.000    1.667    0.000    0.000    0.000    0.000 
#    0.000    0.000    0.000    0.000    0.000    0.000 
#
# Total GULP energy -66964.267279 kJ/mol
# GULP energy per Si atom -5580.355607 kJ/mol
# Density = 2.561275 g / cm^3
# Si number density = 25.671175 Si / 1000 Ang^3
#
#
#
# Elastic Constant Matrix: (Units=GPa)
#
#
# Indices 1 2 3 4 5 6 
#
# 1 68.2102 35.0215 27.7695 -1.7144 0.1357 12.2864
# 2 35.0215 153.9280 64.4162 19.4945 5.5900 18.7472
# 3 27.7695 64.4162 115.6187 13.5349 -2.3428 1.6591
# 4 -1.7144 19.4945 13.5349 71.1632 4.4593 3.8689
# 5 0.1357 5.5900 -2.3428 4.4593 42.5085 -6.6514
# 6 12.2864 18.7472 1.6591 3.8689 -6.6514 40.4970
#
#
#
# Elastic Compliance Matrix: (Units=1/GPa)
#
#
# Indices 1 2 3 4 5 6 
#
# 1 0.018082 -0.002464 -0.003157 0.002010 -0.000830 -0.004544
# 2 -0.002464 0.009711 -0.004627 -0.001514 -0.001950 -0.003734
# 3 -0.003157 -0.004627 0.012145 -0.001404 0.001913 0.003051
# 4 0.002010 -0.001514 -0.001404 0.014974 -0.001700 -0.001561
# 5 -0.000830 -0.001950 0.001913 -0.001700 0.024901 0.005328
# 6 -0.004544 -0.003734 0.003051 -0.001561 0.005328 0.028700
#
#
# Mechanical properties :
#
#
# Convention : Reuss Voigt Hill
#
# Bulk Modulus (GPa) = 51.43759 65.79680 58.61720
# Shear Modulus (GPa) = 36.90357 44.87040 40.88698
#
# Velocity S-wave (km/s) = 3.79562 4.18531 3.99522
# Velocity P-wave (km/s) = 6.26814 7.00300 6.64573
#
# Compressibility (1/GPa) = 0.01944103
#
# Stress axis : x y z
#
# Youngs Moduli (GPa) = 55.30514 102.97771 82.33979
#
# Poissons Ratio (x) = 0.25370 0.25996
# Poissons Ratio (y) = 0.13625 0.38101
# Poissons Ratio (z) = 0.17461 0.47650
#
# Static dielectric constant tensor:
#      x y z
#    x 2.199810 -0.039030 -0.014240 
#    y -0.039030 2.152560 0.009530 
#    z -0.014240 0.009530 2.074700 
# 
# From -- ./inp_files/60856.got.cif
#   From: 2010.05.17/outbox.cif.g08.bks.cpg/sg2_31_cif.got.tgz:60856.got - 2010.06.03 11:33:40.
