data_PCOD9017317
_publ_section_title
;
Structure prediction by ZEFSAII (Michael W. Deem and Ramdas Pophale) SiO2 
 PCOD9017317
Probable space group: P -1
;
_chemical_formula_sum "Si O2"
_cell_formula_units_Z 12
_cell_length_a 5.811691
_cell_length_b 7.908982
_cell_length_c 10.859044
_cell_angle_alpha 91.756193
_cell_angle_beta 106.635954
_cell_angle_gamma 83.789990
_cell_volume 475.432801
_symmetry_space_group_name_H-M "P -1"
_symmetry_group_IT_number 2
_symmetry_cell_setting 'triclinic'
loop_
_space_group_symop_operation_xyz
x,y,z
-x,-y,-z
loop_
_atom_site_type_symbol
_atom_site_label
_atom_site_fract_x
_atom_site_fract_y
_atom_site_fract_z
Si Si1 0.557492 0.127274 0.622008
Si Si2 0.957788 0.973803 0.848665
Si Si3 0.007898 0.199349 0.545196
Si Si4 0.838073 0.357819 0.271490
Si Si5 0.635264 0.542377 0.897536
Si Si6 0.043388 0.320363 0.859808
O O1 0.771553 0.231048 0.599642
O O2 0.292165 0.217584 0.616473
O O3 0.500000 0.000000 0.500000
O O4 0.689766 0.020312 0.752885
O O5 0.065238 0.796362 0.806338
O O6 0.099812 0.128535 0.820964
O O7 0.000000 0.000000 0.000000
O O8 0.946525 0.316367 0.419404
O O9 0.000000 0.000000 0.500000
O O10 0.548619 0.367262 0.224859
O O11 0.900359 0.532532 0.222194
O O12 0.765607 0.371645 0.855998
O O13 0.500000 0.500000 0.000000
O O14 0.824882 0.657115 0.988231
#
# Coordination Sequence:
#
# PCOD9017317 Si02
#       6
#     2   2   2   2   2   2
#     4  10  22  45  69 103 142 187 240 291 354 434
#     4  12  24  43  71 107 136 182 237 296 356 420
#     4  10  21  42  73  97 136 193 240 283 355 431
#     4  11  23  42  71  98 135 191 230 292 357 421
#     4   9  19  40  62  91 142 181 223 283 357 418
#     4  10  23  41  61 100 141 177 231 294 352 426
#
# _framework density 25.240161000000001
#
# number of rings (size 3 to 8) (size 9 to 14) (size 15 to 20)
#    0.000    1.667    3.333    3.000    2.333    3.333 
#    9.000    1.667    0.000    0.000    0.000    0.000 
#    0.000    0.000    0.000    0.000    0.000    0.000 
#
# Total GULP energy -67037.234459 kJ/mol
# GULP energy per Si atom -5586.436205 kJ/mol
# Density = 2.518271 g / cm^3
# Si number density = 25.240161 Si / 1000 Ang^3
#
#
#
# Elastic Constant Matrix: (Units=GPa)
#
#
# Indices 1 2 3 4 5 6 
#
# 1 160.9238 42.0019 65.2552 -7.9207 8.5129 -18.3109
# 2 42.0019 130.1119 25.5925 4.6897 0.0241 10.2043
# 3 65.2552 25.5925 159.1341 -14.6398 21.9538 -14.2330
# 4 -7.9207 4.6897 -14.6398 37.4983 -9.0632 -6.3125
# 5 8.5129 0.0241 21.9538 -9.0632 58.0805 -10.0861
# 6 -18.3109 10.2043 -14.2330 -6.3125 -10.0861 32.8056
#
#
#
# Elastic Compliance Matrix: (Units=1/GPa)
#
#
# Indices 1 2 3 4 5 6 
#
# 1 0.008643 -0.002793 -0.002540 0.002320 0.000984 0.005340
# 2 -0.002793 0.009378 -0.001092 -0.003339 -0.000712 -0.005811
# 3 -0.002540 -0.001092 0.008235 0.002773 -0.001882 0.002450
# 4 0.002320 -0.003339 0.002773 0.031923 0.005573 0.011393
# 5 0.000984 -0.000712 -0.001882 0.005573 0.019895 0.007143
# 6 0.005340 -0.005811 0.002450 0.011393 0.007143 0.040722
#
#
# Mechanical properties :
#
#
# Convention : Reuss Voigt Hill
#
# Bulk Modulus (GPa) = 74.58654 79.54102 77.06378
# Shear Modulus (GPa) = 36.73408 46.83156 41.78282
#
# Velocity S-wave (km/s) = 3.81909 4.31215 4.07309
# Velocity P-wave (km/s) = 7.00443 7.50833 7.26075
#
# Compressibility (1/GPa) = 0.01340725
#
# Stress axis : x y z
#
# Youngs Moduli (GPa) = 115.70489 106.62894 121.43679
#
# Poissons Ratio (x) = 0.29782 0.30839
# Poissons Ratio (y) = 0.32317 0.13257
# Poissons Ratio (z) = 0.29384 0.11640
#
# Static dielectric constant tensor:
#      x y z
#    x 2.070710 0.089400 0.030960 
#    y 0.089400 2.003980 0.024530 
#    z 0.030960 0.024530 2.076640 
# 
# From -- ./inp_files/360202.got.cif
#   From: 2010.05.17/outbox.cif.g08.bks.cpg/sg2_181_cif.got.tgz:360202.got - 2010.06.03 11:33:40.
