data_PCOD9017039
_publ_section_title
;
Structure prediction by ZEFSAII (Michael W. Deem and Ramdas Pophale) SiO2 
 PCOD9017039
Probable space group: P -1
;
_chemical_formula_sum "Si O2"
_cell_formula_units_Z 16
_cell_length_a 24.011973
_cell_length_b 5.214811
_cell_length_c 6.502675
_cell_angle_alpha 103.309034
_cell_angle_beta 121.776466
_cell_angle_gamma 91.817873
_cell_volume 661.999024
_symmetry_space_group_name_H-M "P -1"
_symmetry_group_IT_number 2
_symmetry_cell_setting 'triclinic'
loop_
_space_group_symop_operation_xyz
x,y,z
-x,-y,-z
loop_
_atom_site_type_symbol
_atom_site_label
_atom_site_fract_x
_atom_site_fract_y
_atom_site_fract_z
Si Si1 0.757933 0.032204 0.041431
Si Si2 0.644180 0.269391 0.734656
Si Si3 0.081117 0.264882 0.083619
Si Si4 0.966968 0.328707 0.207639
Si Si5 0.547243 0.554153 0.795745
Si Si6 0.439282 0.170560 0.756092
Si Si7 0.792942 0.606963 0.357437
Si Si8 0.299960 0.378386 0.455095
O O1 0.778783 0.834367 0.214885
O O2 0.800290 0.330593 0.205997
O O3 0.751406 0.877813 0.782604
O O4 0.681848 0.086698 0.914389
O O5 0.617390 0.493358 0.851068
O O6 0.692406 0.403587 0.671616
O O7 0.582175 0.096598 0.463453
O O8 0.144351 0.289461 0.357872
O O9 0.022573 0.297929 0.137664
O O10 0.083113 0.503129 0.967536
O O11 0.066561 0.981715 0.881420
O O12 0.000000 0.500000 0.500000
O O13 0.500000 0.500000 0.500000
O O14 0.508006 0.332687 0.832822
O O15 0.554701 0.829784 0.986341
O O16 0.374223 0.313013 0.618778
O O17 0.731586 0.536315 0.384205
#
# Coordination Sequence:
#
# PCOD9017039 Si02
#       8
#     2   2   2   2   2   2   2   2
#     4  11  26  45  66  96 132 182 220 273 334 397
#     4  11  23  45  67  93 131 169 222 276 330 406
#     4  10  23  41  65 104 134 175 228 271 322 392
#     4  10  21  42  70  97 138 179 223 275 327 372
#     4  11  22  43  63  92 125 165 217 277 338 403
#     4  10  24  40  63  92 123 168 215 270 338 400
#     4  12  26  43  70  99 142 177 221 277 331 392
#     4  11  25  44  65  98 131 175 221 270 333 407
#
# _framework density 24.169221
#
# number of rings (size 3 to 8) (size 9 to 14) (size 15 to 20)
#    0.000    1.250    2.500    2.250    3.500    2.500 
#    2.250    0.000    0.000    0.000    0.000    0.000 
#    0.000    0.000    0.000    0.000    0.000    0.000 
#
# Total GULP energy -89434.618289 kJ/mol
# GULP energy per Si atom -5589.663643 kJ/mol
# Density = 2.411421 g / cm^3
# Si number density = 24.169221 Si / 1000 Ang^3
#
#
#
# Elastic Constant Matrix: (Units=GPa)
#
#
# Indices 1 2 3 4 5 6 
#
# 1 22.7121 19.8996 8.6348 -7.9251 6.0240 -3.6843
# 2 19.8996 142.4893 59.7359 0.2265 -0.0272 -14.3960
# 3 8.6348 59.7359 166.1145 6.9462 13.0468 -21.5120
# 4 -7.9251 0.2265 6.9462 48.0211 -10.2771 6.9017
# 5 6.0240 -0.0272 13.0468 -10.2771 36.0416 3.2641
# 6 -3.6843 -14.3960 -21.5120 6.9017 3.2641 15.1240
#
#
#
# Elastic Compliance Matrix: (Units=1/GPa)
#
#
# Indices 1 2 3 4 5 6 
#
# 1 0.055834 -0.007581 0.001152 0.006227 -0.008617 0.007043
# 2 -0.007581 0.009558 -0.002652 -0.001094 0.001593 0.003635
# 3 0.001152 -0.002652 0.009516 -0.004645 -0.006302 0.014771
# 4 0.006227 -0.001094 -0.004645 0.027801 0.010476 -0.021079
# 5 -0.008617 0.001593 -0.006302 0.010476 0.036466 -0.022197
# 6 0.007043 0.003635 0.014771 -0.021079 -0.022197 0.106716
#
#
# Mechanical properties :
#
#
# Convention : Reuss Voigt Hill
#
# Bulk Modulus (GPa) = 17.62197 56.42850 37.02523
# Shear Modulus (GPa) = 17.66998 36.04039 26.85519
#
# Velocity S-wave (km/s) = 2.70681 3.86575 3.33698
# Velocity P-wave (km/s) = 4.13231 6.58205 5.49542
#
# Compressibility (1/GPa) = 0.05674735
#
# Stress axis : x y z
#
# Youngs Moduli (GPa) = 17.91016 104.62803 105.08970
#
# Poissons Ratio (x) = 0.79315 -0.12108
# Poissons Ratio (y) = 0.13577 0.27866
# Poissons Ratio (z) = -0.02064 0.27743
#
# Static dielectric constant tensor:
#      x y z
#    x 1.760680 -0.000870 0.176760 
#    y -0.000870 1.933270 0.012240 
#    z 0.176760 0.012240 1.778660 
# 
# From -- ./inp_files/125629.got.cif
#   From: 2010.05.17/outbox.cif.g08.bks.cpg/sg2_63_cif.got.tgz:125629.got - 2010.06.03 11:33:40.
