data_PCOD9017002
_publ_section_title
;
Structure prediction by ZEFSAII (Michael W. Deem and Ramdas Pophale) SiO2 
 PCOD9017002
Probable space group: P -1
;
_chemical_formula_sum "Si O2"
_cell_formula_units_Z 16
_cell_length_a 12.411023
_cell_length_b 10.531900
_cell_length_c 11.920797
_cell_angle_alpha 111.402148
_cell_angle_beta 69.143747
_cell_angle_gamma 52.694236
_cell_volume 722.987342
_symmetry_space_group_name_H-M "P -1"
_symmetry_group_IT_number 2
_symmetry_cell_setting 'triclinic'
loop_
_space_group_symop_operation_xyz
x,y,z
-x,-y,-z
loop_
_atom_site_type_symbol
_atom_site_label
_atom_site_fract_x
_atom_site_fract_y
_atom_site_fract_z
Si Si1 0.757219 0.888654 0.135128
Si Si2 0.980695 0.923511 0.787295
Si Si3 0.726664 0.923383 0.887352
Si Si4 0.830806 0.501972 0.983591
Si Si5 0.431171 0.418011 0.541833
Si Si6 0.396397 0.510198 0.832004
Si Si7 0.214307 0.431276 0.229713
Si Si8 0.176951 0.759973 0.435994
O O1 0.732586 0.750988 0.119704
O O2 0.564282 0.173368 0.345861
O O3 0.757454 0.908766 0.006861
O O4 0.974533 0.710365 0.066925
O O5 0.833156 0.949529 0.803538
O O6 0.174659 0.663760 0.700447
O O7 0.104305 0.874667 0.624438
O O8 0.822246 0.181545 0.996310
O O9 0.833797 0.670687 0.738300
O O10 0.474216 0.169304 0.029650
O O11 0.660402 0.550994 0.079628
O O12 0.899326 0.433453 0.805299
O O13 0.500000 0.500000 0.500000
O O14 0.465039 0.372034 0.646238
O O15 0.592318 0.417639 0.749757
O O16 0.174224 0.599442 0.377575
O O17 0.000000 0.000000 0.500000
#
# Coordination Sequence:
#
# PCOD9017002 Si02
#       8
#     2   2   2   2   2   2   2   2
#     4  10  22  44  68  99 134 166 223 267 328 391
#     4  12  24  43  68  95 130 173 217 271 331 380
#     4  10  21  42  70  95 127 172 211 272 326 383
#     4  10  23  42  70  96 132 180 208 271 329 389
#     4  12  23  40  67  98 130 167 216 275 321 388
#     4  12  25  43  66  96 132 174 219 264 328 386
#     4  10  22  43  67  95 131 167 219 267 323 385
#     4  12  27  42  63  97 133 171 220 268 313 400
#
# _framework density 22.130400000000002
#
# number of rings (size 3 to 8) (size 9 to 14) (size 15 to 20)
#    0.000    1.000    2.500    4.125    3.500    2.000 
#    2.250    0.000    0.000    0.000    0.000    0.000 
#    0.000    0.000    0.000    0.000    0.000    0.000 
#
# Total GULP energy -89411.717702 kJ/mol
# GULP energy per Si atom -5588.232356 kJ/mol
# Density = 2.208003 g / cm^3
# Si number density = 22.130400 Si / 1000 Ang^3
#
#
#
# Elastic Constant Matrix: (Units=GPa)
#
#
# Indices 1 2 3 4 5 6 
#
# 1 70.0004 -2.3565 32.2374 12.4971 -3.2546 5.7898
# 2 -2.3565 60.2668 14.2509 9.4846 -4.1493 -12.2653
# 3 32.2374 14.2509 100.6779 21.1082 7.8938 8.2013
# 4 12.4971 9.4846 21.1082 26.4630 3.3159 0.2888
# 5 -3.2546 -4.1493 7.8938 3.3159 19.8852 -4.4754
# 6 5.7898 -12.2653 8.2013 0.2888 -4.4754 34.9055
#
#
#
# Elastic Compliance Matrix: (Units=1/GPa)
#
#
# Indices 1 2 3 4 5 6 
#
# 1 0.018475 0.003694 -0.005709 -0.006410 0.007256 0.000558
# 2 0.003694 0.021490 -0.004209 -0.007455 0.010092 0.009283
# 3 -0.005709 -0.004209 0.014728 -0.006527 -0.007679 -0.004923
# 4 -0.006410 -0.007455 -0.006527 0.049797 -0.008665 -0.001546
# 5 0.007256 0.010092 -0.007679 -0.008665 0.060779 0.012012
# 6 0.000558 0.009283 -0.004923 -0.001546 0.012012 0.034528
#
#
# Mechanical properties :
#
#
# Convention : Reuss Voigt Hill
#
# Bulk Modulus (GPa) = 23.67133 35.46762 29.56947
# Shear Modulus (GPa) = 22.09200 28.70495 25.39847
#
# Velocity S-wave (km/s) = 3.16296 3.60541 3.39141
# Velocity P-wave (km/s) = 4.90496 5.77870 5.35967
#
# Compressibility (1/GPa) = 0.04224520
#
# Stress axis : x y z
#
# Youngs Moduli (GPa) = 54.12793 46.53299 67.89710
#
# Poissons Ratio (x) = -0.17191 0.38763
# Poissons Ratio (y) = -0.19997 0.28580
# Poissons Ratio (z) = 0.30902 0.19587
#
# Static dielectric constant tensor:
#      x y z
#    x 1.516240 0.085650 -0.205000 
#    y 0.085650 1.819090 0.044110 
#    z -0.205000 0.044110 1.659350 
# 
# From -- ./inp_files/364076.got.cif
#   From: 2010.05.17/outbox.cif.g08.bks.cpg/sg2_183_cif.got.tgz:364076.got - 2010.06.03 11:33:40.
