data_PCOD9017132
_publ_section_title
;
Structure prediction by ZEFSAII (Michael W. Deem and Ramdas Pophale) SiO2 
 PCOD9017132
Probable space group: P -1
;
_chemical_formula_sum "Si O2"
_cell_formula_units_Z 12
_cell_length_a 11.944965
_cell_length_b 6.934169
_cell_length_c 7.564566
_cell_angle_alpha 89.655920
_cell_angle_beta 114.979035
_cell_angle_gamma 121.883444
_cell_volume 462.692694
_symmetry_space_group_name_H-M "P -1"
_symmetry_group_IT_number 2
_symmetry_cell_setting 'triclinic'
loop_
_space_group_symop_operation_xyz
x,y,z
-x,-y,-z
loop_
_atom_site_type_symbol
_atom_site_label
_atom_site_fract_x
_atom_site_fract_y
_atom_site_fract_z
Si Si1 0.942765 0.806470 0.616973
Si Si2 0.592687 0.846162 0.071187
Si Si3 0.353542 0.499831 0.398918
Si Si4 0.391592 0.874868 0.214847
Si Si5 0.861037 0.353894 0.195262
Si Si6 0.194175 0.269355 0.923275
O O1 0.764906 0.657537 0.527565
O O2 0.987763 0.621546 0.656636
O O3 0.000000 0.000000 0.500000
O O4 0.053844 0.995058 0.840505
O O5 0.730452 0.117776 0.214462
O O6 0.465300 0.781382 0.128398
O O7 0.671003 0.712692 0.097366
O O8 0.546269 0.875801 0.841709
O O9 0.500000 0.500000 0.500000
O O10 0.397544 0.765986 0.403256
O O11 0.256320 0.363323 0.159117
O O12 0.211445 0.738944 0.050502
O O13 0.859259 0.581145 0.206337
#
# Coordination Sequence:
#
# PCOD9017132 Si02
#       6
#     2   2   2   2   2   2
#     4  11  25  44  67  92 131 171 211 267 319 379
#     4   8  16  35  63  97 121 166 207 259 316 376
#     4  11  25  41  64  99 131 164 214 270 315 375
#     4   8  17  36  61  92 130 162 206 265 311 371
#     4   8  18  36  64  91 120 165 217 253 307 384
#     4  10  21  42  71  91 125 177 212 258 321 382
#
# _framework density 25.935141000000002
#
# number of rings (size 3 to 8) (size 9 to 14) (size 15 to 20)
#    1.000    1.667    0.000    0.500    4.667    6.000 
#    3.000    0.833    0.000    0.000    0.000    0.000 
#    0.000    0.000    0.000    0.000    0.000    0.000 
#
# Total GULP energy -66875.408166 kJ/mol
# GULP energy per Si atom -5572.950680 kJ/mol
# Density = 2.587611 g / cm^3
# Si number density = 25.935141 Si / 1000 Ang^3
#
#
#
# Elastic Constant Matrix: (Units=GPa)
#
#
# Indices 1 2 3 4 5 6 
#
# 1 131.3432 63.4594 27.1423 -25.7949 39.7948 -3.8670
# 2 63.4594 126.3916 24.2536 -16.6365 10.6107 -7.1458
# 3 27.1423 24.2536 71.2587 -33.2985 19.1894 7.6033
# 4 -25.7949 -16.6365 -33.2985 48.3284 -8.4878 3.2521
# 5 39.7948 10.6107 19.1894 -8.4878 40.4752 -1.8671
# 6 -3.8670 -7.1458 7.6033 3.2521 -1.8671 55.7572
#
#
#
# Elastic Compliance Matrix: (Units=1/GPa)
#
#
# Indices 1 2 3 4 5 6 
#
# 1 0.015291 -0.006379 0.002633 0.005468 -0.013504 -0.000887
# 2 -0.006379 0.011317 -0.003421 -0.001144 0.004766 0.001701
# 3 0.002633 -0.003421 0.024976 0.015939 -0.010419 -0.004940
# 4 0.005468 -0.001144 0.015939 0.033453 -0.005806 -0.004086
# 5 -0.013504 0.004766 -0.010419 -0.005806 0.040585 0.002793
# 6 -0.000887 0.001701 -0.004940 -0.004086 0.002793 0.019097
#
#
# Mechanical properties :
#
#
# Convention : Reuss Voigt Hill
#
# Bulk Modulus (GPa) = 26.84693 62.07825 44.46259
# Shear Modulus (GPa) = 29.15955 43.18805 36.17380
#
# Velocity S-wave (km/s) = 3.35673 4.08515 3.73873
# Velocity P-wave (km/s) = 5.03960 6.79994 5.98485
#
# Compressibility (1/GPa) = 0.03724821
#
# Stress axis : x y z
#
# Youngs Moduli (GPa) = 65.39777 88.36288 40.03913
#
# Poissons Ratio (x) = 0.56371 -0.10543
# Poissons Ratio (y) = 0.41720 0.13699
# Poissons Ratio (z) = -0.17221 0.30233
#
# Static dielectric constant tensor:
#      x y z
#    x 2.053190 -0.026080 -0.068200 
#    y -0.026080 2.099600 0.062740 
#    z -0.068200 0.062740 2.209990 
# 
# From -- ./inp_files/192679.got.cif
#   From: 2010.05.17/outbox.cif.g08.bks.cpg/sg2_97_cif.got.tgz:192679.got - 2010.06.03 11:33:40.
