data_PCOD9017055
_publ_section_title
;
Structure prediction by ZEFSAII (Michael W. Deem and Ramdas Pophale) SiO2 
 PCOD9017055
Probable space group: P -1
;
_chemical_formula_sum "Si O2"
_cell_formula_units_Z 16
_cell_length_a 9.639648
_cell_length_b 10.991051
_cell_length_c 15.235000
_cell_angle_alpha 30.117397
_cell_angle_beta 94.099666
_cell_angle_gamma 109.723500
_cell_volume 674.302956
_symmetry_space_group_name_H-M "P -1"
_symmetry_group_IT_number 2
_symmetry_cell_setting 'triclinic'
loop_
_space_group_symop_operation_xyz
x,y,z
-x,-y,-z
loop_
_atom_site_type_symbol
_atom_site_label
_atom_site_fract_x
_atom_site_fract_y
_atom_site_fract_z
Si Si1 0.945460 0.069054 0.545493
Si Si2 0.145078 0.353766 0.037612
Si Si3 0.136873 0.516859 0.430234
Si Si4 0.378718 0.969579 0.437799
Si Si5 0.558078 0.625532 0.049136
Si Si6 0.784597 0.910655 0.222656
Si Si7 0.414992 0.955320 0.744029
Si Si8 0.635863 0.932539 0.019854
O O1 0.073158 0.321445 0.460360
O O2 0.882995 0.787293 0.779554
O O3 0.809542 0.151962 0.471287
O O4 0.000000 0.000000 0.500000
O O5 0.259066 0.271564 0.040763
O O6 0.256308 0.702011 0.838269
O O7 0.966271 0.194335 0.081547
O O8 0.213405 0.372403 0.580574
O O9 0.252657 0.835282 0.195962
O O10 0.000000 0.500000 0.500000
O O11 0.446351 0.301329 0.209420
O O12 0.426999 0.849222 0.433412
O O13 0.500000 0.000000 0.500000
O O14 0.476291 0.793529 0.908100
O O15 0.553103 0.631730 0.150516
O O16 0.649074 0.893724 0.292770
O O17 0.738293 0.942060 0.102421
O O18 0.500000 0.000000 0.000000
#
# Coordination Sequence:
#
# PCOD9017055 Si02
#       8
#     2   2   2   2   2   2   2   2
#     4  11  24  41  71 104 145 179 238 307 358 423
#     4  10  21  42  70  98 140 184 230 293 362 430
#     4  11  29  50  74 105 151 198 242 305 379 438
#     4  11  25  40  69 108 142 184 235 297 366 433
#     4  11  22  46  70  96 142 194 230 283 372 429
#     4  11  26  44  74 110 138 192 252 296 361 442
#     4  11  21  43  71 100 142 186 230 296 364 427
#     4  12  27  46  74 103 147 194 245 304 358 444
#
# _framework density 23.728206
#
# number of rings (size 3 to 8) (size 9 to 14) (size 15 to 20)
#    0.000    1.000    3.750    2.625    7.000    5.500 
#    0.000    0.000    0.000    0.000    0.000    0.000 
#    0.000    0.000    0.000    0.000    0.000    0.000 
#
# Total GULP energy -89462.681870 kJ/mol
# GULP energy per Si atom -5591.417617 kJ/mol
# Density = 2.367420 g / cm^3
# Si number density = 23.728206 Si / 1000 Ang^3
#
#
#
# Elastic Constant Matrix: (Units=GPa)
#
#
# Indices 1 2 3 4 5 6 
#
# 1 143.1040 61.1730 32.0340 22.1815 16.8346 -13.3542
# 2 61.1730 150.4057 26.9556 23.6889 -2.7155 -7.0609
# 3 32.0340 26.9556 59.2577 15.6313 20.8668 -6.9016
# 4 22.1815 23.6889 15.6313 29.8619 2.1946 6.5076
# 5 16.8346 -2.7155 20.8668 2.1946 37.1920 10.3920
# 6 -13.3542 -7.0609 -6.9016 6.5076 10.3920 58.3033
#
#
#
# Elastic Compliance Matrix: (Units=1/GPa)
#
#
# Indices 1 2 3 4 5 6 
#
# 1 0.010183 -0.003182 -0.000460 -0.005155 -0.005229 0.003400
# 2 -0.003182 0.009086 -0.002940 -0.003536 0.004047 -0.000303
# 3 -0.000460 -0.002940 0.028900 -0.012801 -0.017567 0.007520
# 4 -0.005155 -0.003536 -0.012801 0.048360 0.009246 -0.010170
# 5 -0.005229 0.004047 -0.017567 0.009246 0.042020 -0.011309
# 6 0.003400 -0.000303 0.007520 -0.010170 -0.011309 0.021935
#
#
# Mechanical properties :
#
#
# Convention : Reuss Voigt Hill
#
# Bulk Modulus (GPa) = 28.56820 65.89919 47.23370
# Shear Modulus (GPa) = 26.98114 40.57843 33.77978
#
# Velocity S-wave (km/s) = 3.37574 4.13986 3.77717
# Velocity P-wave (km/s) = 5.22111 7.11928 6.24276
#
# Compressibility (1/GPa) = 0.03500395
#
# Stress axis : x y z
#
# Youngs Moduli (GPa) = 98.20718 110.06508 34.60202
#
# Poissons Ratio (x) = 0.35021 0.01591
# Poissons Ratio (y) = 0.31248 0.10174
# Poissons Ratio (z) = 0.04517 0.32363
#
# Static dielectric constant tensor:
#      x y z
#    x 1.958910 0.011380 -0.039730 
#    y 0.011380 2.018920 -0.037870 
#    z -0.039730 -0.037870 2.006840 
# 
# From -- ./inp_files/499727.got.cif
#   From: 2010.05.17/outbox.cif.g08.bks.cpg/sg2_250_cif.got.tgz:499727.got - 2010.06.03 11:33:40.
