data_PCOD9017439
_publ_section_title
;
Structure prediction by ZEFSAII (Michael W. Deem and Ramdas Pophale) SiO2 
 PCOD9017439
Probable space group: P -1
;
_chemical_formula_sum "Si O2"
_cell_formula_units_Z 16
_cell_length_a 28.553428
_cell_length_b 13.052688
_cell_length_c 10.430830
_cell_angle_alpha 32.113837
_cell_angle_beta 149.628511
_cell_angle_gamma 160.055073
_cell_volume 655.739053
_symmetry_space_group_name_H-M "P -1"
_symmetry_group_IT_number 2
_symmetry_cell_setting 'triclinic'
loop_
_space_group_symop_operation_xyz
x,y,z
-x,-y,-z
loop_
_atom_site_type_symbol
_atom_site_label
_atom_site_fract_x
_atom_site_fract_y
_atom_site_fract_z
Si Si1 0.140226 0.606593 0.269913
Si Si2 0.190835 0.367428 0.429510
Si Si3 0.669160 0.485568 0.824738
Si Si4 0.662858 0.792278 0.020166
Si Si5 0.855784 0.091875 0.558736
Si Si6 0.623033 0.954997 0.248023
Si Si7 0.719367 0.135704 0.027392
Si Si8 0.940494 0.781640 0.279455
O O1 0.148041 0.436284 0.372875
O O2 0.116851 0.483622 0.485512
O O3 0.000000 0.500000 0.000000
O O4 0.287620 0.978261 0.216372
O O5 0.268470 0.304898 0.733736
O O6 0.291269 0.668136 0.258777
O O7 0.060419 0.085813 0.326978
O O8 0.516301 0.303318 0.718131
O O9 0.727623 0.727125 0.599534
O O10 0.809464 0.715981 0.007381
O O11 0.657550 0.239384 0.031540
O O12 0.735479 0.019226 0.071427
O O13 0.500000 0.500000 0.000000
O O14 0.863782 0.306987 0.268634
O O15 0.995676 0.200565 0.722403
O O16 0.762649 0.039831 0.511021
O O17 0.592715 0.882003 0.100253
#
# Coordination Sequence:
#
# PCOD9017439 Si02
#       8
#     2   2   2   2   2   2   2   2
#     4  11  24  45  62  95 135 169 215 263 328 391
#     4  11  21  43  66  90 133 172 205 271 326 376
#     4  11  23  41  63  96 125 162 225 263 321 381
#     4  11  24  42  68 100 127 172 220 265 321 394
#     4  10  21  43  63  87 130 164 213 256 325 379
#     4   9  22  42  63  86 130 175 201 270 321 381
#     4   9  21  39  68  89 126 173 212 255 328 386
#     4  12  23  40  66  98 125 170 215 272 319 387
#
# _framework density 24.39995
#
# number of rings (size 3 to 8) (size 9 to 14) (size 15 to 20)
#    0.750    0.750    2.500    2.625    0.000    4.500 
#    6.750    0.000    0.000    0.000    0.000    0.000 
#    0.000    0.000    0.000    0.000    0.000    0.000 
#
# Total GULP energy -89078.449327 kJ/mol
# GULP energy per Si atom -5567.403083 kJ/mol
# Density = 2.434441 g / cm^3
# Si number density = 24.399950 Si / 1000 Ang^3
#
#
#
# Elastic Constant Matrix: (Units=GPa)
#
#
# Indices 1 2 3 4 5 6 
#
# 1 97.4050 42.4316 53.2331 -0.9424 32.9155 18.1462
# 2 42.4316 91.8342 37.7758 -16.6806 16.2240 28.9221
# 3 53.2331 37.7758 109.0860 -22.8194 37.5918 7.3494
# 4 -0.9424 -16.6806 -22.8194 39.0121 4.5700 -0.9039
# 5 32.9155 16.2240 37.5918 4.5700 46.0114 -6.0621
# 6 18.1462 28.9221 7.3494 -0.9039 -6.0621 29.0058
#
#
#
# Elastic Compliance Matrix: (Units=1/GPa)
#
#
# Indices 1 2 3 4 5 6 
#
# 1 0.019389 -0.002029 -0.004928 -0.002325 -0.010360 -0.011095
# 2 -0.002029 0.023193 0.001074 0.011331 -0.011927 -0.024268
# 3 -0.004928 0.001074 0.019481 0.013343 -0.014833 -0.005608
# 4 -0.002325 0.011331 0.013343 0.040119 -0.019328 -0.016013
# 5 -0.010360 -0.011927 -0.014833 -0.019328 0.051648 0.032323
# 6 -0.011095 -0.024268 -0.005608 -0.016013 0.032323 0.073293
#
#
# Mechanical properties :
#
#
# Convention : Reuss Voigt Hill
#
# Bulk Modulus (GPa) = 19.88217 62.80068 41.34142
# Shear Modulus (GPa) = 19.55767 33.79818 26.67792
#
# Velocity S-wave (km/s) = 2.83423 3.72583 3.31019
# Velocity P-wave (km/s) = 4.34472 6.65605 5.62048
#
# Compressibility (1/GPa) = 0.05029633
#
# Stress axis : x y z
#
# Youngs Moduli (GPa) = 51.57628 43.11590 51.33326
#
# Poissons Ratio (x) = 0.08750 0.25296
# Poissons Ratio (y) = 0.10466 -0.05513
# Poissons Ratio (z) = 0.25415 -0.04630
#
# Static dielectric constant tensor:
#      x y z
#    x 1.956710 0.004990 -0.043770 
#    y 0.004990 2.419640 -0.070970 
#    z -0.043770 -0.070970 2.096750 
# 
# From -- ./inp_files/477667.got.cif
#   From: 2010.05.17/outbox.cif.g08.bks.cpg/sg2_239_cif.got.tgz:477667.got - 2010.06.03 11:33:40.
