data_PCOD9017631
_publ_section_title
;
Structure prediction by ZEFSAII (Michael W. Deem and Ramdas Pophale) SiO2 
 PCOD9017631
Probable space group: P -1
;
_chemical_formula_sum "Si O2"
_cell_formula_units_Z 14
_cell_length_a 17.643275
_cell_length_b 18.056662
_cell_length_c 12.756690
_cell_angle_alpha 158.934541
_cell_angle_beta 139.593737
_cell_angle_gamma 29.189816
_cell_volume 678.813797
_symmetry_space_group_name_H-M "P -1"
_symmetry_group_IT_number 2
_symmetry_cell_setting 'triclinic'
loop_
_space_group_symop_operation_xyz
x,y,z
-x,-y,-z
loop_
_atom_site_type_symbol
_atom_site_label
_atom_site_fract_x
_atom_site_fract_y
_atom_site_fract_z
Si Si1 0.690693 0.219244 0.350391
Si Si2 0.246288 0.058960 0.730236
Si Si3 0.898313 0.691493 0.392936
Si Si4 0.109071 0.608421 0.208254
Si Si5 0.325534 0.276665 0.638614
Si Si6 0.856015 0.676413 0.670587
Si Si7 0.341526 0.720836 0.196380
O O1 0.500000 0.500000 0.500000
O O2 0.791685 0.305754 0.589838
O O3 0.700963 0.070179 0.269829
O O4 0.784330 0.980298 0.040464
O O5 0.081327 0.132751 0.624301
O O6 0.370857 0.841245 0.482797
O O7 0.196723 0.357494 0.055806
O O8 0.793650 0.700501 0.381077
O O9 0.066797 0.525988 0.412545
O O10 0.802363 0.006555 0.665813
O O11 0.905016 0.519456 0.078131
O O12 0.291347 0.252543 0.451152
O O13 0.500000 0.000000 0.500000
O O14 0.301450 0.549285 0.976270
O O15 0.000000 0.500000 0.500000
O O16 0.500000 0.500000 0.000000
#
# Coordination Sequence:
#
# PCOD9017631 Si02
#       7
#     2   2   2   2   2   2   2
#     4  12  26  41  68  99 136 175 217 277 339 386
#     4  10  23  41  69  96 124 172 228 264 327 401
#     4  10  21  43  65  92 129 164 220 272 316 394
#     4  10  22  43  69  92 128 170 222 271 323 394
#     4  11  23  40  66  90 134 171 211 268 332 388
#     4  10  25  42  62  99 130 170 221 267 323 395
#     4  11  23  38  67 100 125 173 220 268 329 391
#
# _framework density 20.624213000000001
#
# number of rings (size 3 to 8) (size 9 to 14) (size 15 to 20)
#    0.000    1.429    2.857    1.286    8.000    1.143 
#    0.000    2.857    0.000    0.000    0.000    0.000 
#    0.000    0.000    0.000    0.000    0.000    0.000 
#
# Total GULP energy -78106.792353 kJ/mol
# GULP energy per Si atom -5579.056597 kJ/mol
# Density = 2.057727 g / cm^3
# Si number density = 20.624213 Si / 1000 Ang^3
#
#
#
# Elastic Constant Matrix: (Units=GPa)
#
#
# Indices 1 2 3 4 5 6 
#
# 1 59.1536 28.5925 17.9908 15.0631 -10.3289 21.5924
# 2 28.5925 118.4706 56.7014 19.8513 -7.9047 23.9744
# 3 17.9908 56.7014 104.7306 21.2824 -16.5374 15.1824
# 4 15.0631 19.8513 21.2824 25.9015 4.7050 4.3540
# 5 -10.3289 -7.9047 -16.5374 4.7050 34.9927 8.5448
# 6 21.5924 23.9744 15.1824 4.3540 8.5448 31.7717
#
#
#
# Elastic Compliance Matrix: (Units=1/GPa)
#
#
# Indices 1 2 3 4 5 6 
#
# 1 0.038950 0.000184 0.008442 -0.029036 0.027767 -0.034133
# 2 0.000184 0.013428 -0.004151 -0.006294 0.004048 -0.008500
# 3 0.008442 -0.004151 0.018280 -0.017392 0.015753 -0.013194
# 4 -0.029036 -0.006294 -0.017392 0.075787 -0.036254 0.032158
# 5 0.027767 0.004048 0.015753 -0.036254 0.059922 -0.040601
# 6 -0.034133 -0.008500 -0.013194 0.032158 -0.040601 0.073903
#
#
# Mechanical properties :
#
#
# Convention : Reuss Voigt Hill
#
# Bulk Modulus (GPa) = 12.56141 54.32494 33.44318
# Shear Modulus (GPa) = 16.78664 30.47118 23.62891
#
# Velocity S-wave (km/s) = 2.85604 3.84793 3.38847
# Velocity P-wave (km/s) = 4.12065 6.79261 5.61780
#
# Compressibility (1/GPa) = 0.07960888
#
# Stress axis : x y z
#
# Youngs Moduli (GPa) = 25.67398 74.47013 54.70487
#
# Poissons Ratio (x) = -0.01372 -0.46184
# Poissons Ratio (y) = -0.00473 0.22709
# Poissons Ratio (z) = -0.21675 0.30914
#
# Static dielectric constant tensor:
#      x y z
#    x 1.741330 0.020080 -0.037580 
#    y 0.020080 1.752420 -0.010740 
#    z -0.037580 -0.010740 1.751390 
# 
# From -- ./inp_files/257229.got.cif
#   From: 2010.05.17/outbox.cif.g08.bks.cpg/sg2_129_cif.got.tgz:257229.got - 2010.06.03 11:33:40.
