data_PCOD9017546
_publ_section_title
;
Structure prediction by ZEFSAII (Michael W. Deem and Ramdas Pophale) SiO2 
 PCOD9017546
Probable space group: P -1
;
_chemical_formula_sum "Si O2"
_cell_formula_units_Z 16
_cell_length_a 15.865333
_cell_length_b 5.220415
_cell_length_c 18.348744
_cell_angle_alpha 102.146576
_cell_angle_beta 37.800079
_cell_angle_gamma 120.662225
_cell_volume 745.871377
_symmetry_space_group_name_H-M "P -1"
_symmetry_group_IT_number 2
_symmetry_cell_setting 'triclinic'
loop_
_space_group_symop_operation_xyz
x,y,z
-x,-y,-z
loop_
_atom_site_type_symbol
_atom_site_label
_atom_site_fract_x
_atom_site_fract_y
_atom_site_fract_z
Si Si1 0.843017 0.370194 0.545231
Si Si2 0.592770 0.619411 0.080980
Si Si3 0.311932 0.487708 0.562889
Si Si4 0.771955 0.693466 0.714105
Si Si5 0.540611 0.149097 0.205463
Si Si6 0.484324 0.822453 0.609747
Si Si7 0.004233 0.681529 0.313665
Si Si8 0.311348 0.679064 0.111058
O O1 0.800424 0.625584 0.609241
O O2 0.000000 0.500000 0.500000
O O3 0.897721 0.389847 0.426351
O O4 0.663839 0.043613 0.665312
O O5 0.402535 0.348595 0.169533
O O6 0.620867 0.470053 0.123358
O O7 0.590716 0.923976 0.121232
O O8 0.695656 0.608504 0.943080
O O9 0.345584 0.595608 0.630616
O O10 0.384907 0.278064 0.486860
O O11 0.121681 0.331831 0.658930
O O12 0.424366 0.814487 0.458695
O O13 0.738402 0.419580 0.776926
O O14 0.920045 0.016426 0.666731
O O15 0.584866 0.208972 0.263955
O O16 0.166547 0.700801 0.176794
O O17 0.500000 0.000000 0.000000
#
# Coordination Sequence:
#
# PCOD9017546 Si02
#       8
#     2   2   2   2   2   2   2   2
#     4  11  21  36  53  92 126 160 196 246 318 380
#     4  11  24  40  61  88 120 172 220 246 300 366
#     4  10  23  39  66  96 127 159 203 247 324 384
#     4  11  24  37  60  83 127 169 203 260 301 369
#     4  11  23  39  65  88 123 164 204 261 311 371
#     4  10  21  43  64  94 129 159 195 262 315 386
#     4  12  24  37  62  90 126 169 197 264 302 382
#     4  12  24  43  58  84 128 175 221 256 296 354
#
# _framework density 21.451418
#
# number of rings (size 3 to 8) (size 9 to 14) (size 15 to 20)
#    0.000    1.000    3.750    3.750    7.000    0.000 
#    0.000    0.000    0.000    1.500    0.000    0.000 
#    0.000    0.000    0.000    0.000    0.000    0.000 
#
# Total GULP energy -89369.689518 kJ/mol
# GULP energy per Si atom -5585.605595 kJ/mol
# Density = 2.140259 g / cm^3
# Si number density = 21.451418 Si / 1000 Ang^3
#
#
#
# Elastic Constant Matrix: (Units=GPa)
#
#
# Indices 1 2 3 4 5 6 
#
# 1 114.9241 16.7866 24.5889 13.3488 -4.7004 5.6554
# 2 16.7866 54.8596 9.1028 6.3398 -0.0684 -7.2736
# 3 24.5889 9.1028 77.5824 18.1636 -5.7588 -0.4907
# 4 13.3488 6.3398 18.1636 22.7504 -3.8791 3.3168
# 5 -4.7004 -0.0684 -5.7588 -3.8791 32.9008 1.7652
# 6 5.6554 -7.2736 -0.4907 3.3168 1.7652 39.1919
#
#
#
# Elastic Compliance Matrix: (Units=1/GPa)
#
#
# Indices 1 2 3 4 5 6 
#
# 1 0.010003 -0.002583 -0.002096 -0.003091 0.000785 -0.001723
# 2 -0.002583 0.020240 -0.000550 -0.004556 -0.001205 0.004562
# 3 -0.002096 -0.000550 0.016465 -0.011768 0.001121 0.001352
# 4 -0.003091 -0.004556 -0.011768 0.058051 0.004638 -0.005669
# 5 0.000785 -0.001205 0.001121 0.004638 0.031361 -0.002128
# 6 -0.001723 0.004562 0.001352 -0.005669 -0.002128 0.027203
#
#
# Mechanical properties :
#
#
# Convention : Reuss Voigt Hill
#
# Bulk Modulus (GPa) = 27.58674 38.70252 33.14463
# Shear Modulus (GPa) = 26.90101 32.09447 29.49774
#
# Velocity S-wave (km/s) = 3.54509 3.87220 3.71225
# Velocity P-wave (km/s) = 5.44471 6.17034 5.81885
#
# Compressibility (1/GPa) = 0.03624930
#
# Stress axis : x y z
#
# Youngs Moduli (GPa) = 99.96858 49.40727 60.73321
#
# Poissons Ratio (x) = 0.12763 0.12731
# Poissons Ratio (y) = 0.25825 0.03340
# Poissons Ratio (z) = 0.20956 0.02717
#
# Static dielectric constant tensor:
#      x y z
#    x 1.803870 -0.042040 0.004590 
#    y -0.042040 1.831900 0.004530 
#    z 0.004590 0.004530 1.844660 
# 
# From -- ./inp_files/82844.got.cif
#   From: 2010.05.17/outbox.cif.g08.bks.cpg/sg2_42_cif.got.tgz:82844.got - 2010.06.03 11:33:40.
