data_PCOD9017604
_publ_section_title
;
Structure prediction by ZEFSAII (Michael W. Deem and Ramdas Pophale) SiO2 
 PCOD9017604
Probable space group: P -1
;
_chemical_formula_sum "Si O2"
_cell_formula_units_Z 16
_cell_length_a 5.150170
_cell_length_b 14.564290
_cell_length_c 13.228534
_cell_angle_alpha 116.099180
_cell_angle_beta 47.175961
_cell_angle_gamma 108.967734
_cell_volume 653.046624
_symmetry_space_group_name_H-M "P -1"
_symmetry_group_IT_number 2
_symmetry_cell_setting 'triclinic'
loop_
_space_group_symop_operation_xyz
x,y,z
-x,-y,-z
loop_
_atom_site_type_symbol
_atom_site_label
_atom_site_fract_x
_atom_site_fract_y
_atom_site_fract_z
Si Si1 0.208339 0.408627 0.944663
Si Si2 0.073712 0.465100 0.219002
Si Si3 0.812608 0.066841 0.499098
Si Si4 0.476257 0.272767 0.647363
Si Si5 0.928840 0.090332 0.983707
Si Si6 0.760385 0.654564 0.470038
Si Si7 0.928529 0.264859 0.221182
Si Si8 0.889742 0.915810 0.777279
O O1 0.615168 0.452652 0.855558
O O2 0.204203 0.317530 0.821816
O O3 0.038833 0.397248 0.093767
O O4 0.000000 0.500000 0.000000
O O5 0.762479 0.537680 0.370294
O O6 0.158351 0.371774 0.227047
O O7 0.617018 0.171935 0.615419
O O8 0.103496 0.090795 0.347387
O O9 0.500000 0.000000 0.500000
O O10 0.000000 0.000000 0.500000
O O11 0.298314 0.278280 0.585775
O O12 0.854992 0.335506 0.573024
O O13 0.045447 0.195243 0.060157
O O14 0.510195 0.099501 0.086612
O O15 0.044757 0.029325 0.823221
O O16 0.000000 0.000000 0.000000
O O17 0.463038 0.688755 0.644070
O O18 0.923084 0.179491 0.269542
#
# Coordination Sequence:
#
# PCOD9017604 Si02
#       8
#     2   2   2   2   2   2   2   2
#     4  10  21  43  65  87 138 172 222 272 322 401
#     4  10  23  40  63 100 127 176 219 271 329 395
#     4  12  27  44  70 101 133 175 227 278 334 403
#     4  11  23  44  69  94 130 184 215 271 345 382
#     4   9  21  40  67  88 127 176 216 276 336 387
#     4  11  22  42  70  95 136 171 218 274 332 397
#     4  11  22  39  67  97 131 170 223 275 333 396
#     4  10  22  43  65  92 134 172 220 279 332 396
#
# _framework density 24.500547000000001
#
# number of rings (size 3 to 8) (size 9 to 14) (size 15 to 20)
#    0.000    1.500    2.500    1.875    3.500    2.000 
#    4.500    1.875    0.000    0.000    0.000    0.000 
#    0.000    0.000    0.000    0.000    0.000    0.000 
#
# Total GULP energy -89073.382676 kJ/mol
# GULP energy per Si atom -5567.086417 kJ/mol
# Density = 2.444478 g / cm^3
# Si number density = 24.500547 Si / 1000 Ang^3
#
#
#
# Elastic Constant Matrix: (Units=GPa)
#
#
# Indices 1 2 3 4 5 6 
#
# 1 80.9500 10.5785 4.3147 7.3425 -4.1215 -17.8323
# 2 10.5785 111.5227 23.9207 38.7972 1.4445 -26.5154
# 3 4.3147 23.9207 110.9721 34.8791 -4.6580 -19.8823
# 4 7.3425 38.7972 34.8791 42.9132 -5.9182 -11.1646
# 5 -4.1215 1.4445 -4.6580 -5.9182 23.8910 1.6443
# 6 -17.8323 -26.5154 -19.8823 -11.1646 1.6443 27.6718
#
#
#
# Elastic Compliance Matrix: (Units=1/GPa)
#
#
# Indices 1 2 3 4 5 6 
#
# 1 0.014876 0.001800 0.001980 -0.002566 0.001408 0.011615
# 2 0.001800 0.016695 0.003378 -0.015234 -0.004758 0.013721
# 3 0.001980 0.003378 0.013698 -0.012175 -0.000861 0.009494
# 4 -0.002566 -0.015234 -0.012175 0.047103 0.010227 -0.006602
# 5 0.001408 -0.004758 -0.000861 0.010227 0.044947 -0.002815
# 6 0.011615 0.013721 0.009494 -0.006602 -0.002815 0.061095
#
#
# Mechanical properties :
#
#
# Convention : Reuss Voigt Hill
#
# Bulk Modulus (GPa) = 16.78265 42.34138 29.56202
# Shear Modulus (GPa) = 24.51489 36.53725 30.52607
#
# Velocity S-wave (km/s) = 3.16663 3.86590 3.53361
# Velocity P-wave (km/s) = 4.49832 6.10297 5.36102
#
# Compressibility (1/GPa) = 0.05958535
#
# Stress axis : x y z
#
# Youngs Moduli (GPa) = 67.22419 59.89820 73.00582
#
# Poissons Ratio (x) = -0.10784 -0.14457
# Poissons Ratio (y) = -0.12103 -0.24661
# Poissons Ratio (z) = -0.13312 -0.20233
#
# Static dielectric constant tensor:
#      x y z
#    x 1.995050 0.048010 0.094280 
#    y 0.048010 1.505090 0.065600 
#    z 0.094280 0.065600 2.039760 
# 
# From -- ./inp_files/484369.got.cif
#   From: 2010.05.17/outbox.cif.g08.bks.cpg/sg2_243_cif.got.tgz:484369.got - 2010.06.03 11:33:40.
