data_PCOD9017936
_publ_section_title
;
Structure prediction by ZEFSAII (Michael W. Deem and Ramdas Pophale) SiO2 
 PCOD9017936
Probable space group: P -1
;
_chemical_formula_sum "Si O2"
_cell_formula_units_Z 16
_cell_length_a 9.223029
_cell_length_b 10.896569
_cell_length_c 14.323611
_cell_angle_alpha 68.497205
_cell_angle_beta 146.107991
_cell_angle_gamma 124.607219
_cell_volume 643.198192
_symmetry_space_group_name_H-M "P -1"
_symmetry_group_IT_number 2
_symmetry_cell_setting 'triclinic'
loop_
_space_group_symop_operation_xyz
x,y,z
-x,-y,-z
loop_
_atom_site_type_symbol
_atom_site_label
_atom_site_fract_x
_atom_site_fract_y
_atom_site_fract_z
Si Si1 0.353016 0.619210 0.467463
Si Si2 0.420776 0.725653 0.665515
Si Si3 0.205736 0.707890 0.013032
Si Si4 0.357661 0.920595 0.713152
Si Si5 0.475196 0.530493 0.265692
Si Si6 0.949771 0.958098 0.121778
Si Si7 0.796614 0.221121 0.793552
Si Si8 0.042159 0.889582 0.740204
O O1 0.266195 0.686851 0.492076
O O2 0.345547 0.468837 0.545104
O O3 0.183689 0.632103 0.285286
O O4 0.702574 0.746304 0.602580
O O5 0.246644 0.767394 0.635955
O O6 0.464734 0.578987 0.740623
O O7 0.750666 0.879071 0.791020
O O8 0.473234 0.669891 0.175032
O O9 0.165799 0.753357 0.083540
O O10 0.236836 0.830074 0.919191
O O11 0.872531 0.563762 0.858839
O O12 0.152852 0.924854 0.684082
O O13 0.469444 0.062962 0.662032
O O14 0.653408 0.939372 0.919398
O O15 0.996105 0.826299 0.139395
O O16 0.939935 0.976482 0.222478
#
# Coordination Sequence:
#
# PCOD9017936 Si02
#       8
#     2   2   2   2   2   2   2   2
#     4   8  19  35  48  74  99 128 165 200 243 287
#     4   8  16  32  48  67  99 127 160 200 237 282
#     4  10  17  30  53  74  96 128 164 203 247 278
#     4  11  19  29  52  74 103 129 160 200 246 290
#     4   8  16  33  52  70  98 124 165 211 238 274
#     4  10  18  30  49  74 103 121 164 204 238 285
#     4  11  20  30  53  77  97 133 161 199 243 291
#     4  10  20  33  47  75 106 129 157 199 247 296
#
# _framework density 24.875691
#
# number of rings (size 3 to 8) (size 9 to 14) (size 15 to 20)
#    0.750    1.750    2.500    2.625    0.000    5.500 
#    0.000    0.625    0.000    0.000    0.000    1.750 
#    0.000    0.000    0.000    0.000    0.000    0.000 
#
# Total GULP energy -89214.171836 kJ/mol
# GULP energy per Si atom -5575.885740 kJ/mol
# Density = 2.481907 g / cm^3
# Si number density = 24.875691 Si / 1000 Ang^3
#
#
#
# Elastic Constant Matrix: (Units=GPa)
#
#
# Indices 1 2 3 4 5 6 
#
# 1 132.5889 38.4032 16.4415 1.2190 -2.5312 -26.1790
# 2 38.4032 62.4356 19.9975 -16.1102 2.6466 -18.1371
# 3 16.4415 19.9975 53.1852 -24.8037 -5.6963 3.5161
# 4 1.2190 -16.1102 -24.8037 30.4343 0.2436 1.9955
# 5 -2.5312 2.6466 -5.6963 0.2436 22.9660 7.7402
# 6 -26.1790 -18.1371 3.5161 1.9955 7.7402 47.2251
#
#
#
# Elastic Compliance Matrix: (Units=1/GPa)
#
#
# Indices 1 2 3 4 5 6 
#
# 1 0.010841 -0.005580 -0.005494 -0.008171 -0.001054 0.004794
# 2 -0.005580 0.026256 -0.005103 0.009485 -0.007786 0.008246
# 3 -0.005494 -0.005103 0.038201 0.029284 0.012924 -0.011205
# 4 -0.008171 0.009485 0.029284 0.062465 0.006912 -0.006840
# 5 -0.001054 -0.007786 0.012924 0.006912 0.051953 -0.013344
# 6 0.004794 0.008246 -0.011205 -0.006840 -0.013344 0.030310
#
#
# Mechanical properties :
#
#
# Convention : Reuss Voigt Hill
#
# Bulk Modulus (GPa) = 23.28583 44.21046 33.74815
# Shear Modulus (GPa) = 18.74811 31.68291 25.21551
#
# Velocity S-wave (km/s) = 2.74829 3.57269 3.18726
# Velocity P-wave (km/s) = 4.41044 5.90169 5.20970
#
# Compressibility (1/GPa) = 0.04294456
#
# Stress axis : x y z
#
# Youngs Moduli (GPa) = 92.24248 38.08708 26.17719
#
# Poissons Ratio (x) = 0.21251 0.14382
# Poissons Ratio (y) = 0.51468 0.13358
# Poissons Ratio (z) = 0.50678 0.19436
#
# Static dielectric constant tensor:
#      x y z
#    x 1.989730 -0.008610 -0.001900 
#    y -0.008610 2.056180 0.001480 
#    z -0.001900 0.001480 2.043170 
# 
# From -- ./inp_files/497908.got.cif
#   From: 2010.05.17/outbox.cif.g08.bks.cpg/sg2_249_cif.got.tgz:497908.got - 2010.06.03 11:33:40.
