data_PCOD9017028
_publ_section_title
;
Structure prediction by ZEFSAII (Michael W. Deem and Ramdas Pophale) SiO2 
 PCOD9017028
Probable space group: P -1
;
_chemical_formula_sum "Si O2"
_cell_formula_units_Z 14
_cell_length_a 5.493428
_cell_length_b 5.098271
_cell_length_c 20.128696
_cell_angle_alpha 72.717153
_cell_angle_beta 87.510310
_cell_angle_gamma 96.946939
_cell_volume 532.462284
_symmetry_space_group_name_H-M "P -1"
_symmetry_group_IT_number 2
_symmetry_cell_setting 'triclinic'
loop_
_space_group_symop_operation_xyz
x,y,z
-x,-y,-z
loop_
_atom_site_type_symbol
_atom_site_label
_atom_site_fract_x
_atom_site_fract_y
_atom_site_fract_z
Si Si1 0.614320 0.417252 0.416324
Si Si2 0.663122 0.277748 0.040490
Si Si3 0.329763 0.670612 0.288895
Si Si4 0.208852 0.110242 0.542399
Si Si5 0.723137 0.908385 0.174990
Si Si6 0.916545 0.351381 0.906429
Si Si7 0.115647 0.240815 0.229534
O O1 0.435120 0.576088 0.363205
O O2 0.443949 0.259845 0.487767
O O3 0.832426 0.646007 0.424642
O O4 0.720733 0.159881 0.401106
O O5 0.882365 0.448932 0.068011
O O6 0.561832 0.043708 0.111919
O O7 0.500000 0.500000 0.000000
O O8 0.767425 0.167613 0.978942
O O9 0.555970 0.673745 0.234458
O O10 0.123711 0.440775 0.277623
O O11 0.249520 0.975323 0.264376
O O12 0.000000 0.000000 0.500000
O O13 0.941123 0.812612 0.135816
O O14 0.848164 0.115836 0.214306
O O15 0.778362 0.560776 0.848521
#
# Coordination Sequence:
#
# PCOD9017028 Si02
#       7
#     2   2   2   2   2   2   2
#     4  10  23  41  64 104 132 170 226 266 307 401
#     4  10  22  39  66  92 125 172 221 281 342 391
#     4  12  26  42  70  97 137 177 218 270 338 385
#     4  10  21  42  70  96 138 174 216 267 323 367
#     4  11  25  42  67  93 135 171 225 274 337 410
#     4  10  22  42  62  94 128 168 226 279 329 405
#     4  11  25  44  64  94 133 175 217 277 328 399
#
# _framework density 26.292943000000001
#
# number of rings (size 3 to 8) (size 9 to 14) (size 15 to 20)
#    0.000    1.429    1.429    2.571    6.000    2.857 
#    0.000    0.000    0.000    0.000    0.000    0.000 
#    0.000    0.000    0.000    0.000    0.000    0.000 
#
# Total GULP energy -78358.841378 kJ/mol
# GULP energy per Si atom -5597.060098 kJ/mol
# Density = 2.623310 g / cm^3
# Si number density = 26.292943 Si / 1000 Ang^3
#
#
#
# Elastic Constant Matrix: (Units=GPa)
#
#
# Indices 1 2 3 4 5 6 
#
# 1 39.7217 23.4949 19.2663 -15.0372 10.0198 -1.5057
# 2 23.4949 152.2252 49.6932 -11.6406 22.4191 6.1790
# 3 19.2663 49.6932 122.6831 -28.6599 32.9739 -8.2646
# 4 -15.0372 -11.6406 -28.6599 34.7702 -2.1444 24.5049
# 5 10.0198 22.4191 32.9739 -2.1444 55.0380 -0.8058
# 6 -1.5057 6.1790 -8.2646 24.5049 -0.8058 48.1784
#
#
#
# Elastic Compliance Matrix: (Units=1/GPa)
#
#
# Indices 1 2 3 4 5 6 
#
# 1 0.035623 -0.003162 0.001685 0.022116 -0.005485 -0.009533
# 2 -0.003162 0.008171 -0.002455 0.000601 -0.001286 -0.001895
# 3 0.001685 -0.002455 0.013737 0.013963 -0.007059 -0.004496
# 4 0.022116 0.000601 0.013963 0.073889 -0.010267 -0.034744
# 5 -0.005485 -0.001286 -0.007059 -0.010267 0.023585 0.004399
# 6 -0.009533 -0.001895 -0.004496 -0.034744 0.004399 0.037676
#
#
# Mechanical properties :
#
#
# Convention : Reuss Voigt Hill
#
# Bulk Modulus (GPa) = 20.13399 55.50430 37.81915
# Shear Modulus (GPa) = 23.03086 42.40902 32.71994
#
# Velocity S-wave (km/s) = 2.96283 4.02050 3.53149
# Velocity P-wave (km/s) = 4.40212 6.53517 5.57167
#
# Compressibility (1/GPa) = 0.04966725
#
# Stress axis : x y z
#
# Youngs Moduli (GPa) = 28.07183 122.38553 72.79636
#
# Poissons Ratio (x) = 0.38702 -0.12267
# Poissons Ratio (y) = 0.08877 0.17869
# Poissons Ratio (z) = -0.04731 0.30041
#
# Static dielectric constant tensor:
#      x y z
#    x 2.103110 -0.022790 -0.026140 
#    y -0.022790 2.110980 -0.005420 
#    z -0.026140 -0.005420 2.043270 
# 
# From -- ./inp_files/580943.got.cif
#   From: 2010.05.17/outbox.cif.g08.bks.cpg/sg2_291_cif.got.tgz:580943.got - 2010.06.03 11:33:40.
