data_PCOD9017290
_publ_section_title
;
Structure prediction by ZEFSAII (Michael W. Deem and Ramdas Pophale) SiO2 
 PCOD9017290
Probable space group: P -1
;
_chemical_formula_sum "Si O2"
_cell_formula_units_Z 16
_cell_length_a 10.426840
_cell_length_b 19.243292
_cell_length_c 11.612617
_cell_angle_alpha 23.532387
_cell_angle_beta 132.547158
_cell_angle_gamma 134.713474
_cell_volume 657.111919
_symmetry_space_group_name_H-M "P -1"
_symmetry_group_IT_number 2
_symmetry_cell_setting 'triclinic'
loop_
_space_group_symop_operation_xyz
x,y,z
-x,-y,-z
loop_
_atom_site_type_symbol
_atom_site_label
_atom_site_fract_x
_atom_site_fract_y
_atom_site_fract_z
Si Si1 0.335278 0.819313 0.686110
Si Si2 0.284286 0.428857 0.306360
Si Si3 0.721207 0.207680 0.570970
Si Si4 0.604658 0.297739 0.590510
Si Si5 0.801203 0.855308 0.111492
Si Si6 0.897064 0.671008 0.252445
Si Si7 0.135209 0.871523 0.887727
Si Si8 0.011211 0.793978 0.683149
O O1 0.296300 0.749883 0.636818
O O2 0.167132 0.869216 0.568926
O O3 0.500000 0.000000 0.500000
O O4 0.771125 0.768072 0.099820
O O5 0.439584 0.349994 0.468140
O O6 0.215107 0.308092 0.561262
O O7 0.352506 0.645229 0.034001
O O8 0.118559 0.383332 0.184395
O O9 0.589453 0.264475 0.494846
O O10 0.923733 0.304003 0.596881
O O11 0.688128 0.988818 0.883987
O O12 0.779654 0.469717 0.461001
O O13 0.674365 0.137622 0.931738
O O14 0.000000 0.000000 0.000000
O O15 0.975992 0.768337 0.034700
O O16 0.103115 0.781736 0.879392
O O17 0.112584 0.072404 0.569385
#
# Coordination Sequence:
#
# PCOD9017290 Si02
#       8
#     2   2   2   2   2   2   2   2
#     4  12  30  50  74 109 155 199 254 318 379 443
#     4  12  28  46  76 112 150 200 254 307 381 447
#     4  10  22  45  74 103 146 203 246 302 381 440
#     4  11  26  42  73 112 152 189 252 311 364 452
#     4  10  22  43  74 102 140 193 247 301 359 442
#     4  10  21  42  73 103 145 195 246 302 364 445
#     4  10  23  44  75 107 148 196 245 307 383 440
#     4  11  25  46  75 107 148 198 246 309 378 457
#
# _framework density 24.348973000000001
#
# number of rings (size 3 to 8) (size 9 to 14) (size 15 to 20)
#    0.000    1.250    0.000    6.375    8.750    6.000 
#    0.000    0.000    0.000    0.000    0.000    0.000 
#    0.000    0.000    0.000    0.000    0.000    0.000 
#
# Total GULP energy -89524.866980 kJ/mol
# GULP energy per Si atom -5595.304186 kJ/mol
# Density = 2.429355 g / cm^3
# Si number density = 24.348973 Si / 1000 Ang^3
#
#
#
# Elastic Constant Matrix: (Units=GPa)
#
#
# Indices 1 2 3 4 5 6 
#
# 1 139.1893 56.9177 40.3329 -7.9509 -5.3919 -22.7491
# 2 56.9177 83.1127 33.0257 -13.6115 -15.4072 3.3039
# 3 40.3329 33.0257 106.7012 -18.7741 -17.3616 -3.5732
# 4 -7.9509 -13.6115 -18.7741 30.3263 -5.6757 -3.3781
# 5 -5.3919 -15.4072 -17.3616 -5.6757 45.9361 -2.0460
# 6 -22.7491 3.3039 -3.5732 -3.3781 -2.0460 40.7338
#
#
#
# Elastic Compliance Matrix: (Units=1/GPa)
#
#
# Indices 1 2 3 4 5 6 
#
# 1 0.012324 -0.008429 -0.002471 -0.001705 -0.002209 0.007097
# 2 -0.008429 0.020774 -0.001229 0.006871 0.006113 -0.005623
# 3 -0.002471 -0.001229 0.012943 0.007871 0.005196 0.000768
# 4 -0.001705 0.006871 0.007871 0.042816 0.010515 0.003260
# 5 -0.002209 0.006113 0.005196 0.010515 0.026866 0.000948
# 6 0.007097 -0.005623 0.000768 0.003260 0.000948 0.029355
#
#
# Mechanical properties :
#
#
# Convention : Reuss Voigt Hill
#
# Bulk Modulus (GPa) = 45.90617 65.50620 55.70619
# Shear Modulus (GPa) = 28.31315 36.64772 32.48043
#
# Velocity S-wave (km/s) = 3.41369 3.88377 3.65630
# Velocity P-wave (km/s) = 5.86789 6.86098 6.38378
#
# Compressibility (1/GPa) = 0.02178356
#
# Stress axis : x y z
#
# Youngs Moduli (GPa) = 81.13965 48.13624 77.26436
#
# Poissons Ratio (x) = 0.40573 0.19096
# Poissons Ratio (y) = 0.68392 0.09492
# Poissons Ratio (z) = 0.20054 0.05914
#
# Static dielectric constant tensor:
#      x y z
#    x 1.933720 0.010530 0.044230 
#    y 0.010530 1.942390 0.006600 
#    z 0.044230 0.006600 2.041400 
# 
# From -- ./inp_files/405312.got.cif
#   From: 2010.05.17/outbox.cif.g08.bks.cpg/sg2_203_cif.got.tgz:405312.got - 2010.06.03 11:33:40.
