data_PCOD9017563
_publ_section_title
;
Structure prediction by ZEFSAII (Michael W. Deem and Ramdas Pophale) SiO2 
 PCOD9017563
Probable space group: P -1
;
_chemical_formula_sum "Si O2"
_cell_formula_units_Z 14
_cell_length_a 22.216166
_cell_length_b 13.614956
_cell_length_c 6.149601
_cell_angle_alpha 94.801821
_cell_angle_beta 86.597012
_cell_angle_gamma 18.761581
_cell_volume 537.515712
_symmetry_space_group_name_H-M "P -1"
_symmetry_group_IT_number 2
_symmetry_cell_setting 'triclinic'
loop_
_space_group_symop_operation_xyz
x,y,z
-x,-y,-z
loop_
_atom_site_type_symbol
_atom_site_label
_atom_site_fract_x
_atom_site_fract_y
_atom_site_fract_z
Si Si1 0.457997 0.181844 0.052864
Si Si2 0.778690 0.147504 0.794311
Si Si3 0.894508 0.520906 0.956467
Si Si4 0.778982 0.318593 0.503559
Si Si5 0.161653 0.256086 0.616042
Si Si6 0.444762 0.658891 0.343244
Si Si7 0.050493 0.788091 0.018159
O O1 0.369714 0.359257 0.335880
O O2 0.687651 0.868416 0.924847
O O3 0.273137 0.486443 0.975464
O O4 0.500000 0.000000 0.000000
O O5 0.700591 0.349781 0.675062
O O6 0.760480 0.070455 0.669793
O O7 0.624624 0.377115 0.073786
O O8 0.993659 0.849796 0.794721
O O9 0.843332 0.633179 0.235908
O O10 0.946955 0.323958 0.889848
O O11 0.083787 0.293455 0.807951
O O12 0.863695 0.144865 0.224492
O O13 0.000000 0.000000 0.500000
O O14 0.000000 0.500000 0.500000
O O15 0.388949 0.859260 0.440801
O O16 0.500000 0.500000 0.500000
#
# Coordination Sequence:
#
# PCOD9017563 Si02
#       7
#     2   2   2   2   2   2   2
#     4   9  21  40  64  91 126 172 208 263 334 384
#     4  11  23  38  69  96 133 170 224 270 327 394
#     4  10  22  40  65  88 135 165 213 270 330 382
#     4  10  22  39  66  93 129 169 219 267 330 381
#     4  11  24  39  63  94 127 174 220 266 330 391
#     4  11  25  42  64 100 137 177 221 274 334 392
#     4  10  21  43  64  96 128 170 214 272 324 394
#
# _framework density 26.045750000000002
#
# number of rings (size 3 to 8) (size 9 to 14) (size 15 to 20)
#    0.000    1.714    0.000    3.429    6.000    4.571 
#    0.000    2.857    0.000   12.000    0.000    0.000 
#    0.000    0.000    0.000    0.000    0.000    0.000 
#
# Total GULP energy -78238.067269 kJ/mol
# GULP energy per Si atom -5588.433376 kJ/mol
# Density = 2.598647 g / cm^3
# Si number density = 26.045750 Si / 1000 Ang^3
#
#
#
# Elastic Constant Matrix: (Units=GPa)
#
#
# Indices 1 2 3 4 5 6 
#
# 1 102.9774 28.9265 24.4811 3.9242 29.4919 2.4294
# 2 28.9265 126.4389 28.5538 -0.7602 12.4243 -2.4473
# 3 24.4811 28.5538 58.0475 5.1827 3.5488 18.8964
# 4 3.9242 -0.7602 5.1827 41.0874 2.4910 9.2216
# 5 29.4919 12.4243 3.5488 2.4910 51.2081 -0.9974
# 6 2.4294 -2.4473 18.8964 9.2216 -0.9974 59.4562
#
#
#
# Elastic Compliance Matrix: (Units=1/GPa)
#
#
# Indices 1 2 3 4 5 6 
#
# 1 0.013170 -0.001243 -0.004766 -0.000458 -0.006913 0.000880
# 2 -0.001243 0.009407 -0.004668 0.000549 -0.001234 0.001816
# 3 -0.004766 -0.004668 0.023907 -0.001118 0.002131 -0.007387
# 4 -0.000458 0.000549 -0.001118 0.025399 -0.001097 -0.003561
# 5 -0.006913 -0.001234 0.002131 -0.001097 0.023717 0.000122
# 6 0.000880 0.001816 -0.007387 -0.003561 0.000122 0.019760
#
#
# Mechanical properties :
#
#
# Convention : Reuss Voigt Hill
#
# Bulk Modulus (GPa) = 39.79153 50.15406 44.97280
# Shear Modulus (GPa) = 34.46116 44.05051 39.25584
#
# Velocity S-wave (km/s) = 3.64139 4.11697 3.88646
# Velocity P-wave (km/s) = 5.74372 6.47281 6.11913
#
# Compressibility (1/GPa) = 0.02513098
#
# Stress axis : x y z
#
# Youngs Moduli (GPa) = 75.93206 106.30143 41.82791
#
# Poissons Ratio (x) = 0.13214 0.19934
# Poissons Ratio (y) = 0.09439 0.19524
# Poissons Ratio (z) = 0.36188 0.49620
#
# Static dielectric constant tensor:
#      x y z
#    x 2.118510 -0.037910 0.031650 
#    y -0.037910 2.063860 -0.028770 
#    z 0.031650 -0.028770 2.087670 
# 
# From -- ./inp_files/124232.got.cif
#   From: 2010.05.17/outbox.cif.g08.bks.cpg/sg2_63_cif.got.tgz:124232.got - 2010.06.03 11:33:40.
