data_PCOD9017411
_publ_section_title
;
Structure prediction by ZEFSAII (Michael W. Deem and Ramdas Pophale) SiO2 
 PCOD9017411
Probable space group: P -1
;
_chemical_formula_sum "Si O2"
_cell_formula_units_Z 16
_cell_length_a 18.549484
_cell_length_b 12.822122
_cell_length_c 7.538242
_cell_angle_alpha 130.349316
_cell_angle_beta 120.533508
_cell_angle_gamma 26.697320
_cell_volume 600.786627
_symmetry_space_group_name_H-M "P -1"
_symmetry_group_IT_number 2
_symmetry_cell_setting 'triclinic'
loop_
_space_group_symop_operation_xyz
x,y,z
-x,-y,-z
loop_
_atom_site_type_symbol
_atom_site_label
_atom_site_fract_x
_atom_site_fract_y
_atom_site_fract_z
Si Si1 0.181205 0.598097 0.171450
Si Si2 0.227942 0.820010 0.329145
Si Si3 0.136779 0.617360 0.565008
Si Si4 0.551269 0.774826 0.249710
Si Si5 0.488373 0.655371 0.328870
Si Si6 0.357772 0.098310 0.861438
Si Si7 0.774103 0.801790 0.863006
Si Si8 0.816133 0.046185 0.179645
O O1 0.267198 0.610215 0.209518
O O2 0.186177 0.579912 0.375483
O O3 0.260339 0.352870 0.908705
O O4 0.990095 0.875012 0.190825
O O5 0.360669 0.712743 0.263109
O O6 0.217631 0.912524 0.606054
O O7 0.048683 0.075443 0.301193
O O8 0.264923 0.494978 0.732800
O O9 0.144570 0.441719 0.396826
O O10 0.473789 0.754698 0.237411
O O11 0.500000 0.000000 0.500000
O O12 0.424369 0.937672 0.105919
O O13 0.666803 0.340690 0.237258
O O14 0.443289 0.845176 0.610995
O O15 0.209028 0.250537 0.964324
O O16 0.500000 0.000000 0.000000
O O17 0.829214 0.871238 0.944868
#
# Coordination Sequence:
#
# PCOD9017411 Si02
#       8
#     2   2   2   2   2   2   2   2
#     4  10  22  37  64  93 128 163 203 253 309 375
#     4  11  21  36  62  97 127 153 200 270 313 346
#     4   9  19  37  63  88 124 167 210 239 309 375
#     4  10  21  43  62  87 120 176 207 240 301 387
#     4  12  24  38  65  96 126 155 207 262 311 354
#     4  11  22  38  63  98 125 155 206 262 314 349
#     4  10  22  37  64  90 123 166 213 249 293 381
#     4  11  22  38  64  95 124 163 208 251 311 367
#
# _framework density 26.631751000000001
#
# number of rings (size 3 to 8) (size 9 to 14) (size 15 to 20)
#    0.000    1.500    1.250    6.375    3.500    2.000 
#    0.000    2.500    2.750    1.500    0.000    0.000 
#    0.000    0.000    0.000    0.000    0.000    0.000 
#
# Total GULP energy -89436.427821 kJ/mol
# GULP energy per Si atom -5589.776739 kJ/mol
# Density = 2.657114 g / cm^3
# Si number density = 26.631751 Si / 1000 Ang^3
#
#
#
# Elastic Constant Matrix: (Units=GPa)
#
#
# Indices 1 2 3 4 5 6 
#
# 1 139.0887 43.9299 22.6892 16.2788 49.3294 16.5115
# 2 43.9299 129.6558 4.9257 21.6524 5.6606 -9.2027
# 3 22.6892 4.9257 88.3629 17.0708 33.1497 3.2910
# 4 16.2788 21.6524 17.0708 43.7586 7.8974 -2.7006
# 5 49.3294 5.6606 33.1497 7.8974 39.6707 6.6810
# 6 16.5115 -9.2027 3.2910 -2.7006 6.6810 26.5615
#
#
#
# Elastic Compliance Matrix: (Units=1/GPa)
#
#
# Indices 1 2 3 4 5 6 
#
# 1 0.017702 -0.005329 0.005518 -0.002222 -0.024124 -0.007692
# 2 -0.005329 0.010248 -0.000868 -0.003459 0.005705 0.005184
# 3 0.005518 -0.000868 0.019035 -0.005266 -0.021385 -0.001246
# 4 -0.002222 -0.003459 -0.005266 0.027340 0.001677 0.003193
# 5 -0.024124 0.005705 -0.021385 0.001677 0.071628 0.001776
# 6 -0.007692 0.005184 -0.001246 0.003193 0.001776 0.044258
#
#
# Mechanical properties :
#
#
# Convention : Reuss Voigt Hill
#
# Bulk Modulus (GPa) = 21.91716 55.57745 38.74730
# Shear Modulus (GPa) = 24.18050 41.03568 32.60809
#
# Velocity S-wave (km/s) = 3.01650 3.92963 3.50295
# Velocity P-wave (km/s) = 4.51442 6.44232 5.56253
#
# Compressibility (1/GPa) = 0.04562636
#
# Stress axis : x y z
#
# Youngs Moduli (GPa) = 56.49156 97.58138 52.53449
#
# Poissons Ratio (x) = 0.52001 -0.28987
# Poissons Ratio (y) = 0.30104 0.04560
# Poissons Ratio (z) = -0.31171 0.08469
#
# Static dielectric constant tensor:
#      x y z
#    x 2.167880 -0.016490 -0.143410 
#    y -0.016490 2.109620 0.042180 
#    z -0.143410 0.042180 2.300330 
# 
# From -- ./inp_files/278952.got.cif
#   From: 2010.05.17/outbox.cif.g08.bks.cpg/sg2_140_cif.got.tgz:278952.got - 2010.06.03 11:33:40.
