data_PCOD9017233
_publ_section_title
;
Structure prediction by ZEFSAII (Michael W. Deem and Ramdas Pophale) SiO2 
 PCOD9017233
Probable space group: P -1
;
_chemical_formula_sum "Si O2"
_cell_formula_units_Z 16
_cell_length_a 6.794752
_cell_length_b 16.529115
_cell_length_c 9.312670
_cell_angle_alpha 131.571782
_cell_angle_beta 91.490000
_cell_angle_gamma 101.204065
_cell_volume 750.263188
_symmetry_space_group_name_H-M "P -1"
_symmetry_group_IT_number 2
_symmetry_cell_setting 'triclinic'
loop_
_space_group_symop_operation_xyz
x,y,z
-x,-y,-z
loop_
_atom_site_type_symbol
_atom_site_label
_atom_site_fract_x
_atom_site_fract_y
_atom_site_fract_z
Si Si1 0.595486 0.041455 0.897760
Si Si2 0.950462 0.560512 0.712717
Si Si3 0.282559 0.664051 0.429604
Si Si4 0.088067 0.185843 0.662132
Si Si5 0.684116 0.973941 0.382891
Si Si6 0.029019 0.764985 0.771243
Si Si7 0.894497 0.379272 0.927495
Si Si8 0.724339 0.824394 0.640150
O O1 0.411353 0.049262 0.803267
O O2 0.692912 0.943378 0.733628
O O3 0.776251 0.154723 0.050175
O O4 0.500000 0.000000 0.000000
O O5 0.769740 0.467176 0.680325
O O6 0.000000 0.500000 0.500000
O O7 0.912814 0.671243 0.772401
O O8 0.135720 0.593547 0.873538
O O9 0.120082 0.710793 0.573172
O O10 0.262778 0.676057 0.269905
O O11 0.505241 0.738354 0.568533
O O12 0.241439 0.131447 0.686767
O O13 0.182897 0.219547 0.547699
O O14 0.036152 0.295428 0.850137
O O15 0.877600 0.084672 0.523801
O O16 0.500000 0.000000 0.500000
O O17 0.881142 0.832697 0.782903
O O18 0.000000 0.500000 0.000000
#
# Coordination Sequence:
#
# PCOD9017233 Si02
#       8
#     2   2   2   2   2   2   2   2
#     4  12  24  41  64  99 135 179 216 269 343 385
#     4   9  22  41  67  95 127 171 213 273 337 384
#     4  10  21  43  66  93 128 175 220 270 329 384
#     4  11  24  41  70 101 130 177 230 269 331 394
#     4  11  25  44  67  98 140 178 219 278 326 396
#     4  11  23  40  65  94 135 172 217 275 331 391
#     4  10  21  42  72  93 131 173 221 276 327 394
#     4  12  23  40  69  96 133 175 222 274 321 404
#
# _framework density 21.325849999999999
#
# number of rings (size 3 to 8) (size 9 to 14) (size 15 to 20)
#    0.000    1.250    3.750    1.875    1.750    1.500 
#    0.000    2.500    5.500    0.000    0.000    0.000 
#    0.000    0.000    0.000    0.000    0.000    0.000 
#
# Total GULP energy -89282.802471 kJ/mol
# GULP energy per Si atom -5580.175154 kJ/mol
# Density = 2.127731 g / cm^3
# Si number density = 21.325850 Si / 1000 Ang^3
#
#
#
# Elastic Constant Matrix: (Units=GPa)
#
#
# Indices 1 2 3 4 5 6 
#
# 1 84.9784 41.8219 23.4081 -4.2586 13.3465 -19.0048
# 2 41.8219 113.0097 29.4137 -0.3513 10.0741 -28.4568
# 3 23.4081 29.4137 91.9308 -13.9542 9.9483 -10.8917
# 4 -4.2586 -0.3513 -13.9542 46.7128 -4.6737 1.7036
# 5 13.3465 10.0741 9.9483 -4.6737 19.7254 -12.6154
# 6 -19.0048 -28.4568 -10.8917 1.7036 -12.6154 24.4587
#
#
#
# Elastic Compliance Matrix: (Units=1/GPa)
#
#
# Indices 1 2 3 4 5 6 
#
# 1 0.015956 -0.003871 -0.001708 0.000250 -0.004995 0.004540
# 2 -0.003871 0.014412 -0.002578 -0.000938 0.006632 0.016098
# 3 -0.001708 -0.002578 0.012965 0.003351 -0.003726 -0.000708
# 4 0.000250 -0.000938 0.003351 0.022873 0.005075 0.001619
# 5 -0.004995 0.006632 -0.003726 0.005075 0.081978 0.044106
# 6 0.004540 0.016098 -0.000708 0.001619 0.044106 0.085463
#
#
# Mechanical properties :
#
#
# Convention : Reuss Voigt Hill
#
# Bulk Modulus (GPa) = 37.01190 53.24513 45.12851
# Shear Modulus (GPa) = 19.30749 31.19773 25.25261
#
# Velocity S-wave (km/s) = 3.01218 3.82895 3.44485
# Velocity P-wave (km/s) = 5.43054 6.67603 6.08523
#
# Compressibility (1/GPa) = 0.02701834
#
# Stress axis : x y z
#
# Youngs Moduli (GPa) = 62.67420 69.38724 77.12777
#
# Poissons Ratio (x) = 0.26860 0.13172
# Poissons Ratio (y) = 0.24261 0.19887
# Poissons Ratio (z) = 0.10704 0.17891
#
# Static dielectric constant tensor:
#      x y z
#    x 1.783720 -0.023020 -0.024550 
#    y -0.023020 1.769800 0.019280 
#    z -0.024550 0.019280 1.876590 
# 
# From -- ./inp_files/139589.got.cif
#   From: 2010.05.17/outbox.cif.g08.bks.cpg/sg2_70_cif.got.tgz:139589.got - 2010.06.03 11:33:40.
