data_PCOD9017721
_publ_section_title
;
Structure prediction by ZEFSAII (Michael W. Deem and Ramdas Pophale) SiO2 
 PCOD9017721
Probable space group: P -1
;
_chemical_formula_sum "Si O2"
_cell_formula_units_Z 12
_cell_length_a 7.211817
_cell_length_b 10.801713
_cell_length_c 9.265299
_cell_angle_alpha 55.616096
_cell_angle_beta 128.178531
_cell_angle_gamma 101.450976
_cell_volume 455.455332
_symmetry_space_group_name_H-M "P -1"
_symmetry_group_IT_number 2
_symmetry_cell_setting 'triclinic'
loop_
_space_group_symop_operation_xyz
x,y,z
-x,-y,-z
loop_
_atom_site_type_symbol
_atom_site_label
_atom_site_fract_x
_atom_site_fract_y
_atom_site_fract_z
Si Si1 0.724150 0.714276 0.747248
Si Si2 0.336707 0.212276 0.013240
Si Si3 0.166486 0.968974 0.959605
Si Si4 0.219609 0.631808 0.879877
Si Si5 0.971153 0.729708 0.421821
Si Si6 0.508145 0.320616 0.622591
O O1 0.967813 0.723061 0.772002
O O2 0.509826 0.738949 0.510472
O O3 0.687040 0.810818 0.812553
O O4 0.750911 0.539760 0.933126
O O5 0.386115 0.049411 0.060376
O O6 0.082990 0.299772 0.753710
O O7 0.548865 0.298477 0.031233
O O8 0.034747 0.087090 0.697054
O O9 0.268005 0.788521 0.116834
O O10 0.000000 0.000000 0.000000
O O11 0.181955 0.636990 0.684291
O O12 0.731188 0.699073 0.399343
O O13 0.500000 0.500000 0.500000
#
# Coordination Sequence:
#
# PCOD9017721 Si02
#       6
#     2   2   2   2   2   2
#     4  10  23  40  68 106 140 180 235 285 354 416
#     4  10  23  42  67  99 138 182 230 290 348 407
#     4  10  25  45  68 106 137 183 239 288 349 417
#     4  10  21  43  66 102 144 183 231 283 348 428
#     4   9  23  44  67 102 132 185 232 282 347 419
#     4  11  23  45  73  98 142 187 233 287 353 420
#
# _framework density 26.347256999999999
#
# number of rings (size 3 to 8) (size 9 to 14) (size 15 to 20)
#    1.000    1.000    0.000    2.000    2.333    6.667 
#    0.000    1.667    0.000    0.000    0.000    0.000 
#    0.000    0.000    0.000    0.000    0.000    0.000 
#
# Total GULP energy -67099.972294 kJ/mol
# GULP energy per Si atom -5591.664358 kJ/mol
# Density = 2.628729 g / cm^3
# Si number density = 26.347257 Si / 1000 Ang^3
#
#
#
# Elastic Constant Matrix: (Units=GPa)
#
#
# Indices 1 2 3 4 5 6 
#
# 1 81.6089 28.1817 17.1688 -3.7229 -8.8385 10.1496
# 2 28.1817 85.7764 38.2678 -5.8086 -1.3187 8.8222
# 3 17.1688 38.2678 145.8715 11.5933 -4.0113 14.7519
# 4 -3.7229 -5.8086 11.5933 67.6014 2.2948 -6.7358
# 5 -8.8385 -1.3187 -4.0113 2.2948 42.4122 5.6094
# 6 10.1496 8.8222 14.7519 -6.7358 5.6094 37.7135
#
#
#
# Elastic Compliance Matrix: (Units=1/GPa)
#
#
# Indices 1 2 3 4 5 6 
#
# 1 0.014553 -0.004318 -0.000152 0.000011 0.003325 -0.003340
# 2 -0.004318 0.014773 -0.003461 0.001598 -0.000783 -0.000538
# 3 -0.000152 -0.003461 0.008271 -0.002054 0.001141 -0.002921
# 4 0.000011 0.001598 -0.002054 0.015675 -0.001446 0.003441
# 5 0.003325 -0.000783 0.001141 -0.001446 0.025114 -0.005151
# 6 -0.003340 -0.000538 -0.002921 0.003441 -0.005151 0.030064
#
#
# Mechanical properties :
#
#
# Convention : Reuss Voigt Hill
#
# Bulk Modulus (GPa) = 46.01068 53.38814 49.69941
# Shear Modulus (GPa) = 38.00645 44.85464 41.43055
#
# Velocity S-wave (km/s) = 3.80217 4.13054 3.96975
# Velocity P-wave (km/s) = 6.06436 6.56169 6.31792
#
# Compressibility (1/GPa) = 0.02173408
#
# Stress axis : x y z
#
# Youngs Moduli (GPa) = 68.71601 67.69245 120.89997
#
# Poissons Ratio (x) = 0.29231 0.01834
# Poissons Ratio (y) = 0.29673 0.41848
# Poissons Ratio (z) = 0.01042 0.23431
#
# Static dielectric constant tensor:
#      x y z
#    x 2.105900 -0.034160 -0.030020 
#    y -0.034160 2.157750 0.024650 
#    z -0.030020 0.024650 2.086630 
# 
# From -- ./inp_files/165066.got.cif
#   From: 2010.05.17/outbox.cif.g08.bks.cpg/sg2_83_cif.got.tgz:165066.got - 2010.06.03 11:33:40.
