data_PCOD9017388
_publ_section_title
;
Structure prediction by ZEFSAII (Michael W. Deem and Ramdas Pophale) SiO2 
 PCOD9017388
Probable space group: P -1
;
_chemical_formula_sum "Si O2"
_cell_formula_units_Z 15
_cell_length_a 13.759952
_cell_length_b 13.856239
_cell_length_c 7.679873
_cell_angle_alpha 92.198314
_cell_angle_beta 104.655210
_cell_angle_gamma 150.234778
_cell_volume 593.212150
_symmetry_space_group_name_H-M "P -1"
_symmetry_group_IT_number 2
_symmetry_cell_setting 'triclinic'
loop_
_space_group_symop_operation_xyz
x,y,z
-x,-y,-z
loop_
_atom_site_type_symbol
_atom_site_label
_atom_site_fract_x
_atom_site_fract_y
_atom_site_fract_z
Si Si1 0.446866 0.654185 0.400972
Si Si2 0.844125 0.463616 0.293285
Si Si3 0.034025 0.718200 0.708378
Si Si4 0.771502 0.768706 0.990829
Si Si5 0.394377 0.565433 0.975102
Si Si6 0.238833 0.754597 0.045004
Si Si7 0.500000 0.500000 0.500000
Si Si8 0.337771 0.968429 0.545020
O O1 0.395840 0.613404 0.169753
O O2 0.603754 0.702166 0.535682
O O3 0.551289 0.849948 0.506074
O O4 0.186259 0.406098 0.351975
O O5 0.717877 0.268973 0.116724
O O6 0.910791 0.519244 0.532564
O O7 0.694992 0.431391 0.196877
O O8 0.105805 0.714190 0.344586
O O9 0.167632 0.797468 0.945072
O O10 0.217212 0.912939 0.659141
O O11 0.783481 0.682620 0.109056
O O12 0.575535 0.567350 0.743523
O O13 0.652287 0.749768 0.047483
O O14 0.000000 0.000000 0.000000
O O15 0.462208 0.929595 0.283878
O O16 0.000000 0.500000 0.000000
#
# Coordination Sequence:
#
# PCOD9017388 Si02
#       8
#     2   2   2   2   2   2   1   2
#     4  11  21  45  64  96 129 171 208 272 316 374
#     4  10  23  40  63  94 128 170 211 264 314 381
#     4  10  23  40  65  93 129 165 220 255 319 381
#     4  10  23  41  65  92 122 170 209 262 325 373
#     4  10  21  43  60  92 132 156 217 265 309 385
#     4  12  21  44  65  93 135 167 209 276 310 375
#     4  10  24  40  68  94 130 160 220 258 314 384
#     4  10  24  39  67  91 127 170 215 253 327 375
#
# _framework density 25.286061
#
# number of rings (size 3 to 8) (size 9 to 14) (size 15 to 20)
#    0.800    0.800    2.667    1.600    1.867    2.667 
#    0.000    2.667    0.000    0.000    0.000    0.000 
#    0.000    0.000    0.000    0.000    0.000    0.000 
#
# Total GULP energy -83557.078623 kJ/mol
# GULP energy per Si atom -5570.471908 kJ/mol
# Density = 2.522851 g / cm^3
# Si number density = 25.286061 Si / 1000 Ang^3
#
#
#
# Elastic Constant Matrix: (Units=GPa)
#
#
# Indices 1 2 3 4 5 6 
#
# 1 34.8348 14.0007 10.6366 7.7526 -8.8978 2.0259
# 2 14.0007 113.0210 -11.2288 8.4110 13.2725 11.5182
# 3 10.6366 -11.2288 71.9186 -4.5400 -1.7096 -12.4822
# 4 7.7526 8.4110 -4.5400 34.5534 -1.7208 6.7923
# 5 -8.8978 13.2725 -1.7096 -1.7208 18.6074 -13.2667
# 6 2.0259 11.5182 -12.4822 6.7923 -13.2667 50.7310
#
#
#
# Elastic Compliance Matrix: (Units=1/GPa)
#
#
# Indices 1 2 3 4 5 6 
#
# 1 0.044949 -0.010500 -0.006442 -0.008457 0.034056 0.009042
# 2 -0.010500 0.013391 0.001908 -0.000204 -0.019582 -0.007245
# 3 -0.006442 0.001908 0.015870 0.002397 -0.000408 0.003301
# 4 -0.008457 -0.000204 0.002397 0.031856 -0.003784 -0.004281
# 5 0.034056 -0.019582 -0.000408 -0.003784 0.105830 0.031168
# 6 0.009042 -0.007245 0.003301 -0.004281 0.031168 0.030532
#
#
# Mechanical properties :
#
#
# Convention : Reuss Voigt Hill
#
# Bulk Modulus (GPa) = 22.65405 27.39905 25.02655
# Shear Modulus (GPa) = 17.40886 34.53608 25.97247
#
# Velocity S-wave (km/s) = 2.62673 3.69970 3.20839
# Velocity P-wave (km/s) = 4.26359 5.39533 4.86250
#
# Compressibility (1/GPa) = 0.04414221
#
# Stress axis : x y z
#
# Youngs Moduli (GPa) = 22.24731 74.67509 63.01264
#
# Poissons Ratio (x) = 0.78407 0.40594
# Poissons Ratio (y) = 0.23359 -0.12022
# Poissons Ratio (z) = 0.14332 -0.14247
#
# Static dielectric constant tensor:
#      x y z
#    x 2.051090 0.078470 0.031390 
#    y 0.078470 1.930370 -0.007260 
#    z 0.031390 -0.007260 1.954020 
# 
# From -- ./inp_files/315315.got.cif
#   From: 2010.05.17/outbox.cif.g08.bks.cpg/sg2_158_cif.got.tgz:315315.got - 2010.06.03 11:33:40.
