data_PCOD9017277
_publ_section_title
;
Structure prediction by ZEFSAII (Michael W. Deem and Ramdas Pophale) SiO2 
 PCOD9017277
Probable space group: P -1
;
_chemical_formula_sum "Si O2"
_cell_formula_units_Z 16
_cell_length_a 9.084083
_cell_length_b 8.722146
_cell_length_c 11.933616
_cell_angle_alpha 98.447589
_cell_angle_beta 91.862835
_cell_angle_gamma 127.012852
_cell_volume 738.009742
_symmetry_space_group_name_H-M "P -1"
_symmetry_group_IT_number 2
_symmetry_cell_setting 'triclinic'
loop_
_space_group_symop_operation_xyz
x,y,z
-x,-y,-z
loop_
_atom_site_type_symbol
_atom_site_label
_atom_site_fract_x
_atom_site_fract_y
_atom_site_fract_z
Si Si1 0.426908 0.328035 0.818343
Si Si2 0.977654 0.432709 0.364662
Si Si3 0.743369 0.929555 0.829645
Si Si4 0.614093 0.260358 0.635141
Si Si5 0.936351 0.108818 0.203978
Si Si6 0.580733 0.361314 0.058598
Si Si7 0.561157 0.184972 0.364714
Si Si8 0.856239 0.278511 0.013385
O O1 0.536778 0.357601 0.711601
O O2 0.343064 0.445597 0.846396
O O3 0.263449 0.098316 0.804787
O O4 0.571245 0.400441 0.932378
O O5 0.986377 0.254505 0.323550
O O6 0.761348 0.333118 0.324168
O O7 0.000000 0.500000 0.500000
O O8 0.162683 0.617488 0.328237
O O9 0.628583 0.792824 0.918616
O O10 0.599661 0.839485 0.713793
O O11 0.915596 0.931104 0.810792
O O12 0.801644 0.138406 0.891329
O O13 0.580374 0.255898 0.500621
O O14 0.501217 0.035459 0.648390
O O15 0.932354 0.215399 0.105500
O O16 0.683570 0.264422 0.056978
O O17 0.000000 0.500000 0.000000
#
# Coordination Sequence:
#
# PCOD9017277 Si02
#       8
#     2   2   2   2   2   2   2   2
#     4  11  23  43  68 100 141 176 227 287 347 407
#     4  10  22  42  71 101 131 179 228 280 342 408
#     4  12  25  45  67 101 137 182 231 286 343 406
#     4  10  21  42  73 101 135 183 221 287 346 408
#     4  12  25  44  68  98 141 183 225 288 345 406
#     4  11  25  41  66  97 135 181 226 284 346 406
#     4  10  22  43  71 101 135 175 236 283 339 409
#     4  12  27  42  66 100 135 184 233 279 345 416
#
# _framework density 21.679932000000001
#
# number of rings (size 3 to 8) (size 9 to 14) (size 15 to 20)
#    0.000    1.000    2.500    3.750    7.000    0.000 
#    2.250    7.500    0.000    0.000    0.000    0.000 
#    0.000    0.000    0.000    0.000    0.000    0.000 
#
# Total GULP energy -89438.706358 kJ/mol
# GULP energy per Si atom -5589.919147 kJ/mol
# Density = 2.163059 g / cm^3
# Si number density = 21.679932 Si / 1000 Ang^3
#
#
#
# Elastic Constant Matrix: (Units=GPa)
#
#
# Indices 1 2 3 4 5 6 
#
# 1 134.4741 31.9170 75.4831 -3.8887 -12.5925 8.2384
# 2 31.9170 113.0219 40.9208 17.9161 -5.9425 11.7874
# 3 75.4831 40.9208 109.5141 15.9367 -22.3385 -5.0609
# 4 -3.8887 17.9161 15.9367 22.7452 -6.3414 -4.4153
# 5 -12.5925 -5.9425 -22.3385 -6.3414 34.1256 1.1113
# 6 8.2384 11.7874 -5.0609 -4.4153 1.1113 33.6296
#
#
#
# Elastic Compliance Matrix: (Units=1/GPa)
#
#
# Indices 1 2 3 4 5 6 
#
# 1 0.014634 -0.001410 -0.011321 0.010856 -0.000130 -0.003365
# 2 -0.001410 0.012273 -0.002865 -0.009497 -0.001842 -0.005574
# 3 -0.011321 -0.002865 0.021370 -0.011694 0.006969 0.005228
# 4 0.010856 -0.009497 -0.011694 0.064699 0.006486 0.007190
# 5 -0.000130 -0.001842 0.006969 0.006486 0.034655 0.001432
# 6 -0.003365 -0.005574 0.005228 0.007190 0.001432 0.034197
#
#
# Mechanical properties :
#
#
# Convention : Reuss Voigt Hill
#
# Bulk Modulus (GPa) = 58.53606 72.62799 65.58203
# Shear Modulus (GPa) = 22.86069 32.01271 27.43670
#
# Velocity S-wave (km/s) = 3.25077 3.84683 3.56129
# Velocity P-wave (km/s) = 6.41473 7.30093 6.87213
#
# Compressibility (1/GPa) = 0.01708349
#
# Stress axis : x y z
#
# Youngs Moduli (GPa) = 68.33482 81.47739 46.79503
#
# Poissons Ratio (x) = 0.11491 0.52977
# Poissons Ratio (y) = 0.09638 0.13408
# Poissons Ratio (z) = 0.77363 0.23346
#
# Static dielectric constant tensor:
#      x y z
#    x 1.824760 0.005410 -0.013440 
#    y 0.005410 1.823300 0.023060 
#    z -0.013440 0.023060 1.806070 
# 
# From -- ./inp_files/382658.got.cif
#   From: 2010.05.17/outbox.cif.g08.bks.cpg/sg2_192_cif.got.tgz:382658.got - 2010.06.03 11:33:40.
