data_PCOD9017123
_publ_section_title
;
Structure prediction by ZEFSAII (Michael W. Deem and Ramdas Pophale) SiO2 
 PCOD9017123
Probable space group: P -1
;
_chemical_formula_sum "Si O2"
_cell_formula_units_Z 14
_cell_length_a 9.470752
_cell_length_b 11.542925
_cell_length_c 16.492433
_cell_angle_alpha 131.711528
_cell_angle_beta 150.374245
_cell_angle_gamma 39.118101
_cell_volume 562.078172
_symmetry_space_group_name_H-M "P -1"
_symmetry_group_IT_number 2
_symmetry_cell_setting 'triclinic'
loop_
_space_group_symop_operation_xyz
x,y,z
-x,-y,-z
loop_
_atom_site_type_symbol
_atom_site_label
_atom_site_fract_x
_atom_site_fract_y
_atom_site_fract_z
Si Si1 0.677343 0.546626 0.914574
Si Si2 0.353673 0.959005 0.986693
Si Si3 0.617434 0.044495 0.321627
Si Si4 0.217687 0.310281 0.675556
Si Si5 0.597757 0.149724 0.635792
Si Si6 0.530445 0.448341 0.632602
Si Si7 0.013414 0.446051 0.186964
O O1 0.487458 0.744913 0.952186
O O2 0.464731 0.541382 0.732175
O O3 0.000000 0.500000 0.000000
O O4 0.832890 0.410385 0.005097
O O5 0.955052 0.062842 0.819568
O O6 0.500000 0.000000 0.000000
O O7 0.508774 0.006250 0.162011
O O8 0.326642 0.256518 0.289734
O O9 0.609474 0.899444 0.309011
O O10 0.000000 0.000000 0.500000
O O11 0.333244 0.300814 0.637448
O O12 0.811628 0.418655 0.523241
O O13 0.250775 0.427835 0.817403
O O14 0.611161 0.248071 0.605608
O O15 0.500000 0.000000 0.500000
O O16 0.822875 0.449674 0.728170
#
# Coordination Sequence:
#
# PCOD9017123 Si02
#       7
#     2   2   2   2   2   2   2
#     4  10  21  42  71 108 144 193 253 317 366 439
#     4  12  25  48  78 110 151 202 266 311 369 464
#     4  12  27  45  79 120 154 196 259 321 379 450
#     4  12  27  46  72 113 158 196 248 315 392 447
#     4  12  30  49  78 114 157 203 254 319 392 456
#     4  11  23  47  74 107 151 204 261 304 376 462
#     4  11  23  46  77 110 151 201 256 318 373 452
#
# _framework density 24.907568999999999
#
# number of rings (size 3 to 8) (size 9 to 14) (size 15 to 20)
#    0.000    0.571    2.857    6.000    4.000    0.571 
#    0.000    1.429    0.000    0.000    0.000    0.000 
#    0.000    0.000    0.000    0.000    0.000    0.000 
#
# Total GULP energy -78288.067081 kJ/mol
# GULP energy per Si atom -5592.004791 kJ/mol
# Density = 2.485088 g / cm^3
# Si number density = 24.907569 Si / 1000 Ang^3
#
#
#
# Elastic Constant Matrix: (Units=GPa)
#
#
# Indices 1 2 3 4 5 6 
#
# 1 112.3348 42.6603 42.7850 6.3062 -9.2636 -0.8877
# 2 42.6603 139.0001 26.8131 1.8489 -1.5550 14.2575
# 3 42.7850 26.8131 144.8309 4.9960 -16.7671 1.2186
# 4 6.3062 1.8489 4.9960 46.5762 -0.4673 -8.2967
# 5 -9.2636 -1.5550 -16.7671 -0.4673 38.0233 -3.9961
# 6 -0.8877 14.2575 1.2186 -8.2967 -3.9961 43.7283
#
#
#
# Elastic Compliance Matrix: (Units=1/GPa)
#
#
# Indices 1 2 3 4 5 6 
#
# 1 0.011223 -0.003055 -0.002544 -0.000882 0.001611 0.001275
# 2 -0.003055 0.008582 -0.000770 -0.000391 -0.001054 -0.003009
# 3 -0.002544 -0.000770 0.008155 -0.000442 0.002956 0.000158
# 4 -0.000882 -0.000391 -0.000442 0.022441 0.000313 0.004408
# 5 0.001611 -0.001054 0.002956 0.000313 0.028265 0.002936
# 6 0.001275 -0.003009 0.000158 0.004408 0.002936 0.024976
#
#
# Mechanical properties :
#
#
# Convention : Reuss Voigt Hill
#
# Bulk Modulus (GPa) = 65.68620 68.96476 67.32548
# Shear Modulus (GPa) = 41.16808 44.59271 42.88039
#
# Velocity S-wave (km/s) = 4.06992 4.23582 4.15369
# Velocity P-wave (km/s) = 6.96526 7.18827 7.07764
#
# Compressibility (1/GPa) = 0.01522390
#
# Stress axis : x y z
#
# Youngs Moduli (GPa) = 89.10001 116.51840 122.62898
#
# Poissons Ratio (x) = 0.35594 0.31194
# Poissons Ratio (y) = 0.27218 0.09438
# Poissons Ratio (z) = 0.22665 0.08968
#
# Static dielectric constant tensor:
#      x y z
#    x 2.013860 0.008810 0.025410 
#    y 0.008810 1.969760 0.064720 
#    z 0.025410 0.064720 2.061070 
# 
# From -- ./inp_files/569575.got.cif
#   From: 2010.05.17/outbox.cif.g08.bks.cpg/sg2_285_cif.got.tgz:569575.got - 2010.06.03 11:33:40.
