data_PCOD9017998
_publ_section_title
;
Structure prediction by ZEFSAII (Michael W. Deem and Ramdas Pophale) SiO2 
 PCOD9017998
Probable space group: P -1
;
_chemical_formula_sum "Si O2"
_cell_formula_units_Z 13
_cell_length_a 8.248408
_cell_length_b 14.194072
_cell_length_c 10.871357
_cell_angle_alpha 137.683215
_cell_angle_beta 40.312108
_cell_angle_gamma 123.278466
_cell_volume 554.029460
_symmetry_space_group_name_H-M "P -1"
_symmetry_group_IT_number 2
_symmetry_cell_setting 'triclinic'
loop_
_space_group_symop_operation_xyz
x,y,z
-x,-y,-z
loop_
_atom_site_type_symbol
_atom_site_label
_atom_site_fract_x
_atom_site_fract_y
_atom_site_fract_z
Si Si1 0.702925 0.519531 0.515146
Si Si2 0.788455 0.752431 0.527995
Si Si3 0.199453 0.791205 0.867335
Si Si4 0.143079 0.997506 0.599321
Si Si5 0.000000 0.500000 0.000000
Si Si6 0.445774 0.445811 0.843780
Si Si7 0.362736 0.875415 0.607912
O O1 0.500000 0.500000 0.500000
O O2 0.824494 0.664703 0.549947
O O3 0.852715 0.371397 0.282609
O O4 0.575846 0.524793 0.728297
O O5 0.494217 0.797657 0.738031
O O6 0.851968 0.642105 0.277374
O O7 0.968166 0.880661 0.534079
O O8 0.181244 0.870075 0.824169
O O9 0.024573 0.863692 0.139489
O O10 0.391646 0.035623 0.419404
O O11 0.240280 0.937072 0.615654
O O12 0.843251 0.518600 0.982283
O O13 0.537058 0.284045 0.627229
O O14 0.500000 0.500000 0.000000
#
# Coordination Sequence:
#
# PCOD9017998 Si02
#       7
#     2   2   2   2   1   2   2
#     4   9  19  42  68  96 142 173 230 295 347 412
#     4  11  23  42  68 107 131 185 235 289 363 417
#     4  10  21  43  67  97 136 179 232 290 348 422
#     4  11  24  42  68  93 144 182 230 291 350 424
#     4  12  22  42  72  98 148 180 232 304 346 420
#     4  11  23  43  70 102 138 185 238 290 352 423
#     4  10  23  46  61  98 139 182 237 279 359 416
#
# _framework density 23.464454
#
# number of rings (size 3 to 8) (size 9 to 14) (size 15 to 20)
#    0.000    1.538    4.615    1.846    2.154    0.615 
#   11.077    2.308    0.000    0.000    0.000    0.000 
#    0.000    0.000    0.000    0.000    0.000    0.000 
#
# Total GULP energy -72426.615233 kJ/mol
# GULP energy per Si atom -5571.278095 kJ/mol
# Density = 2.341105 g / cm^3
# Si number density = 23.464454 Si / 1000 Ang^3
#
#
#
# Elastic Constant Matrix: (Units=GPa)
#
#
# Indices 1 2 3 4 5 6 
#
# 1 99.5635 12.6196 12.9497 -8.0667 5.7118 -16.4848
# 2 12.6196 65.5654 -5.8159 -2.9815 22.8001 -24.7950
# 3 12.9497 -5.8159 57.6343 -2.8274 -0.0461 -16.6227
# 4 -8.0667 -2.9815 -2.8274 19.7524 -12.4187 2.1658
# 5 5.7118 22.8001 -0.0461 -12.4187 35.6881 0.1996
# 6 -16.4848 -24.7950 -16.6227 2.1658 0.1996 27.2807
#
#
#
# Elastic Compliance Matrix: (Units=1/GPa)
#
#
# Indices 1 2 3 4 5 6 
#
# 1 0.011555 0.002059 0.000288 0.002665 -0.002286 0.008834
# 2 0.002059 0.061617 0.026295 -0.025072 -0.048808 0.075616
# 3 0.000288 0.026295 0.032366 -0.008828 -0.020125 0.044643
# 4 0.002665 -0.025072 -0.008828 0.077053 0.042577 -0.032985
# 5 -0.002286 -0.048808 -0.020125 0.042577 0.074705 -0.061932
# 6 0.008834 0.075616 0.044643 -0.032985 -0.061932 0.140994
#
#
# Mechanical properties :
#
#
# Convention : Reuss Voigt Hill
#
# Bulk Modulus (GPa) = 6.14169 29.14110 17.64139
# Shear Modulus (GPa) = 12.64930 30.07824 21.36377
#
# Velocity S-wave (km/s) = 2.32434 3.58420 3.02068
# Velocity P-wave (km/s) = 3.13473 5.43828 4.43854
#
# Compressibility (1/GPa) = 0.16282171
#
# Stress axis : x y z
#
# Youngs Moduli (GPa) = 86.54116 16.22936 30.89667
#
# Poissons Ratio (x) = -0.03341 -0.00891
# Poissons Ratio (y) = -0.17815 -0.81243
# Poissons Ratio (z) = -0.02495 -0.42675
#
# Static dielectric constant tensor:
#      x y z
#    x 1.909960 0.024470 -0.018480 
#    y 0.024470 1.972320 -0.039340 
#    z -0.018480 -0.039340 1.854630 
# 
# From -- ./inp_files/394676.got.cif
#   From: 2010.05.17/outbox.cif.g08.bks.cpg/sg2_198_cif.got.tgz:394676.got - 2010.06.03 11:33:40.
