data_PCOD9017609
_publ_section_title
;
Structure prediction by ZEFSAII (Michael W. Deem and Ramdas Pophale) SiO2 
 PCOD9017609
Probable space group: P -1
;
_chemical_formula_sum "Si O2"
_cell_formula_units_Z 14
_cell_length_a 9.921197
_cell_length_b 7.205785
_cell_length_c 11.991635
_cell_angle_alpha 84.220113
_cell_angle_beta 49.349763
_cell_angle_gamma 81.492698
_cell_volume 643.253010
_symmetry_space_group_name_H-M "P -1"
_symmetry_group_IT_number 2
_symmetry_cell_setting 'triclinic'
loop_
_space_group_symop_operation_xyz
x,y,z
-x,-y,-z
loop_
_atom_site_type_symbol
_atom_site_label
_atom_site_fract_x
_atom_site_fract_y
_atom_site_fract_z
Si Si1 0.235919 0.860491 0.391616
Si Si2 0.983261 0.443751 0.382048
Si Si3 0.952834 0.878817 0.138862
Si Si4 0.646818 0.280415 0.051583
Si Si5 0.330767 0.310985 0.052394
Si Si6 0.360850 0.103757 0.834126
Si Si7 0.944065 0.854984 0.373793
O O1 0.147392 0.716242 0.528253
O O2 0.445901 0.826995 0.277448
O O3 0.141668 0.850885 0.322035
O O4 0.177817 0.064357 0.463519
O O5 0.907146 0.648260 0.366326
O O6 0.000000 0.500000 0.500000
O O7 0.166606 0.371707 0.222631
O O8 0.773935 0.805217 0.191922
O O9 0.911132 0.978546 0.273467
O O10 0.138744 0.755452 0.073977
O O11 0.000000 0.000000 0.000000
O O12 0.506661 0.239250 0.032784
O O13 0.613745 0.124534 0.171924
O O14 0.620085 0.506323 0.054660
O O15 0.284225 0.160988 0.995009
#
# Coordination Sequence:
#
# PCOD9017609 Si02
#       7
#     2   2   2   2   2   2   2
#     4  10  24  39  69  97 124 170 214 269 317 377
#     4  10  23  39  65  96 129 161 211 269 326 369
#     4  10  22  42  63  92 136 173 208 261 317 391
#     4  10  23  40  64  92 128 166 215 269 314 367
#     4  11  23  39  71  94 124 166 220 274 313 372
#     4  11  25  40  64  99 130 167 218 255 326 385
#     4  10  21  43  65  88 134 166 214 260 321 371
#
# _framework density 21.764375000000001
#
# number of rings (size 3 to 8) (size 9 to 14) (size 15 to 20)
#    0.000    1.714    1.429    1.286   16.000    1.143 
#    0.000    0.714    0.000    0.000    0.000    0.000 
#    0.000    0.000    0.000    0.000    0.000    0.000 
#
# Total GULP energy -77937.361834 kJ/mol
# GULP energy per Si atom -5566.954417 kJ/mol
# Density = 2.171484 g / cm^3
# Si number density = 21.764375 Si / 1000 Ang^3
#
#
#
# Elastic Constant Matrix: (Units=GPa)
#
#
# Indices 1 2 3 4 5 6 
#
# 1 153.2533 27.8057 59.5604 11.6007 -8.8862 -12.5347
# 2 27.8057 76.4432 32.8387 -0.2760 -0.0828 -2.9337
# 3 59.5604 32.8387 104.1104 3.1203 -7.4220 3.4363
# 4 11.6007 -0.2760 3.1203 25.9946 -5.4662 -2.4578
# 5 -8.8862 -0.0828 -7.4220 -5.4662 30.5950 -4.1885
# 6 -12.5347 -2.9337 3.4363 -2.4578 -4.1885 20.5241
#
#
#
# Elastic Compliance Matrix: (Units=1/GPa)
#
#
# Indices 1 2 3 4 5 6 
#
# 1 0.009569 -0.001019 -0.005154 -0.002620 0.001969 0.006649
# 2 -0.001019 0.015462 -0.004464 0.001204 -0.000805 0.002315
# 3 -0.005154 -0.004464 0.014233 0.000234 0.001178 -0.005900
# 4 -0.002620 0.001204 0.000234 0.041663 0.007432 0.005039
# 5 0.001969 -0.000805 0.001178 0.007432 0.036121 0.009152
# 6 0.006649 0.002315 -0.005900 0.005039 0.009152 0.056574
#
#
# Mechanical properties :
#
#
# Convention : Reuss Voigt Hill
#
# Bulk Modulus (GPa) = 55.58210 63.80185 59.69198
# Shear Modulus (GPa) = 24.88877 29.66287 27.27582
#
# Velocity S-wave (km/s) = 3.38532 3.69577 3.54394
# Velocity P-wave (km/s) = 6.39328 6.89855 6.65072
#
# Compressibility (1/GPa) = 0.01799140
#
# Stress axis : x y z
#
# Youngs Moduli (GPa) = 104.50098 64.67353 70.25757
#
# Poissons Ratio (x) = 0.06590 0.36209
# Poissons Ratio (y) = 0.10648 0.31364
# Poissons Ratio (z) = 0.53857 0.28871
#
# Static dielectric constant tensor:
#      x y z
#    x 1.818420 -0.015370 0.009660 
#    y -0.015370 1.943270 -0.064000 
#    z 0.009660 -0.064000 1.873430 
# 
# From -- ./inp_files/378972.got.cif
#   From: 2010.05.17/outbox.cif.g08.bks.cpg/sg2_190_cif.got.tgz:378972.got - 2010.06.03 11:33:40.
