data_PCOD9017551
_publ_section_title
;
Structure prediction by ZEFSAII (Michael W. Deem and Ramdas Pophale) SiO2 
 PCOD9017551
Probable space group: P -1
;
_chemical_formula_sum "Si O2"
_cell_formula_units_Z 16
_cell_length_a 13.796081
_cell_length_b 11.730287
_cell_length_c 8.866907
_cell_angle_alpha 65.703436
_cell_angle_beta 47.168848
_cell_angle_gamma 38.524244
_cell_volume 632.258689
_symmetry_space_group_name_H-M "P -1"
_symmetry_group_IT_number 2
_symmetry_cell_setting 'triclinic'
loop_
_space_group_symop_operation_xyz
x,y,z
-x,-y,-z
loop_
_atom_site_type_symbol
_atom_site_label
_atom_site_fract_x
_atom_site_fract_y
_atom_site_fract_z
Si Si1 0.782829 0.580291 0.265199
Si Si2 0.226661 0.618603 0.090167
Si Si3 0.426877 0.041094 0.831963
Si Si4 0.878974 0.500861 0.514765
Si Si5 0.926264 0.035051 0.297875
Si Si6 0.934901 0.792750 0.017987
Si Si7 0.762610 0.927675 0.689031
Si Si8 0.544165 0.392516 0.359247
O O1 0.671674 0.750538 0.175498
O O2 0.816565 0.621973 0.368007
O O3 0.633197 0.577898 0.478794
O O4 0.965969 0.387054 0.089849
O O5 0.268309 0.474200 0.236557
O O6 0.422312 0.533038 0.849246
O O7 0.112260 0.813169 0.187657
O O8 0.061861 0.701621 0.088565
O O9 0.655860 0.922891 0.669345
O O10 0.306241 0.055114 0.818884
O O11 0.368315 0.004148 0.062017
O O12 0.000000 0.500000 0.500000
O O13 0.025814 0.291948 0.401270
O O14 0.756757 0.168627 0.273538
O O15 0.006613 0.118826 0.177168
O O16 0.803011 0.044283 0.548557
O O17 0.500000 0.500000 0.500000
#
# Coordination Sequence:
#
# PCOD9017551 Si02
#       8
#     2   2   2   2   2   2   2   2
#     4  12  23  40  70  96 131 169 226 268 323 393
#     4  10  23  42  66  91 138 172 211 270 335 386
#     4  11  23  40  65  99 126 166 223 269 316 382
#     4  11  25  45  61  94 134 178 210 272 338 385
#     4  10  21  43  64  94 136 170 209 270 336 381
#     4  11  21  39  70  97 125 174 219 267 325 393
#     4  10  23  42  64  93 133 168 210 274 323 381
#     4  11  20  38  68 100 126 170 222 270 321 387
#
# _framework density 25.306097999999999
#
# number of rings (size 3 to 8) (size 9 to 14) (size 15 to 20)
#    0.000    1.250    5.000    2.625    1.750    1.000 
#    4.500    1.875    0.000    0.000    0.000    0.000 
#    0.000    0.000    0.000    0.000    0.000    0.000 
#
# Total GULP energy -89354.786661 kJ/mol
# GULP energy per Si atom -5584.674166 kJ/mol
# Density = 2.524850 g / cm^3
# Si number density = 25.306098 Si / 1000 Ang^3
#
#
#
# Elastic Constant Matrix: (Units=GPa)
#
#
# Indices 1 2 3 4 5 6 
#
# 1 76.7749 3.9960 -4.0474 -4.7088 -7.4958 -2.2920
# 2 3.9960 60.8599 31.7170 -21.2284 4.3484 4.3088
# 3 -4.0474 31.7170 101.1680 -28.8756 -11.2319 4.9338
# 4 -4.7088 -21.2284 -28.8756 41.8032 -3.9461 -4.1396
# 5 -7.4958 4.3484 -11.2319 -3.9461 38.9861 1.1803
# 6 -2.2920 4.3088 4.9338 -4.1396 1.1803 28.3945
#
#
#
# Elastic Compliance Matrix: (Units=1/GPa)
#
#
# Indices 1 2 3 4 5 6 
#
# 1 0.013774 -0.001391 0.002128 0.002780 0.003661 0.001206
# 2 -0.001391 0.022052 -0.005325 0.006894 -0.003521 -0.001382
# 3 0.002128 -0.005325 0.014682 0.008189 0.006081 -0.000630
# 4 0.002780 0.006894 0.008189 0.034160 0.005507 0.002507
# 5 0.003661 -0.003521 0.006081 0.005507 0.029075 -0.000633
# 6 0.001206 -0.001382 -0.000630 0.002507 -0.000633 0.036026
#
#
# Mechanical properties :
#
#
# Convention : Reuss Voigt Hill
#
# Bulk Modulus (GPa) = 24.19354 33.57044 28.88199
# Shear Modulus (GPa) = 28.94825 35.64592 32.29709
#
# Velocity S-wave (km/s) = 3.38586 3.75719 3.57635
# Velocity P-wave (km/s) = 4.98664 5.66714 5.33775
#
# Compressibility (1/GPa) = 0.04133334
#
# Stress axis : x y z
#
# Youngs Moduli (GPa) = 72.60214 45.34802 68.10922
#
# Poissons Ratio (x) = 0.06306 -0.14496
# Poissons Ratio (y) = 0.10097 0.36267
# Poissons Ratio (z) = -0.15452 0.24147
#
# Static dielectric constant tensor:
#      x y z
#    x 2.077040 -0.008000 -0.021730 
#    y -0.008000 1.970360 -0.006700 
#    z -0.021730 -0.006700 2.099050 
# 
# From -- ./inp_files/306908.got.cif
#   From: 2010.05.17/outbox.cif.g08.bks.cpg/sg2_154_cif.got.tgz:306908.got - 2010.06.03 11:33:40.
