data_PCOD9017991
_publ_section_title
;
Structure prediction by ZEFSAII (Michael W. Deem and Ramdas Pophale) SiO2 
 PCOD9017991
Probable space group: P -1
;
_chemical_formula_sum "Si O2"
_cell_formula_units_Z 14
_cell_length_a 8.220721
_cell_length_b 9.394903
_cell_length_c 9.453203
_cell_angle_alpha 122.403715
_cell_angle_beta 88.291836
_cell_angle_gamma 81.753050
_cell_volume 605.050374
_symmetry_space_group_name_H-M "P -1"
_symmetry_group_IT_number 2
_symmetry_cell_setting 'triclinic'
loop_
_space_group_symop_operation_xyz
x,y,z
-x,-y,-z
loop_
_atom_site_type_symbol
_atom_site_label
_atom_site_fract_x
_atom_site_fract_y
_atom_site_fract_z
Si Si1 0.110125 0.694752 0.945391
Si Si2 0.307618 0.909435 0.902937
Si Si3 0.195645 0.466700 0.245224
Si Si4 0.583550 0.664527 0.587250
Si Si5 0.024154 0.814006 0.327534
Si Si6 0.682627 0.676436 0.277017
Si Si7 0.432822 0.208824 0.943794
O O1 0.150668 0.822932 0.889771
O O2 0.260989 0.529145 0.857430
O O3 0.955574 0.607588 0.859021
O O4 0.085377 0.786826 0.147937
O O5 0.447017 0.802659 0.741919
O O6 0.295677 0.097660 0.940534
O O7 0.398982 0.887659 0.041333
O O8 0.246413 0.389528 0.357286
O O9 0.144805 0.671054 0.342287
O O10 0.361098 0.393936 0.112320
O O11 0.500000 0.500000 0.500000
O O12 0.616627 0.713779 0.454878
O O13 0.846853 0.756436 0.298747
O O14 0.000000 0.000000 0.500000
O O15 0.559087 0.764825 0.207356
#
# Coordination Sequence:
#
# PCOD9017991 Si02
#       7
#     2   2   2   2   2   2   2
#     4  11  21  44  71  98 131 184 226 274 341 411
#     4  10  24  40  68 103 135 174 232 272 336 407
#     4  10  22  44  71  92 140 181 222 276 342 404
#     4  11  24  43  65 105 135 178 226 281 334 395
#     4  11  24  41  68 108 134 170 231 286 341 398
#     4  11  22  44  70  94 140 177 227 275 336 409
#     4  10  21  43  67  97 134 185 220 277 335 406
#
# _framework density 23.138570000000001
#
# number of rings (size 3 to 8) (size 9 to 14) (size 15 to 20)
#    0.000    1.429    4.286    0.857    0.000    9.714 
#    2.571    0.000    0.000    0.000    0.000    0.000 
#    0.000    0.000    0.000    0.000    0.000    0.000 
#
# Total GULP energy -78267.282266 kJ/mol
# GULP energy per Si atom -5590.520162 kJ/mol
# Density = 2.308591 g / cm^3
# Si number density = 23.138570 Si / 1000 Ang^3
#
#
#
# Elastic Constant Matrix: (Units=GPa)
#
#
# Indices 1 2 3 4 5 6 
#
# 1 49.4490 22.9364 25.7240 -3.3057 -10.2573 8.4044
# 2 22.9364 113.0952 72.8207 -5.7570 -12.3544 -12.5390
# 3 25.7240 72.8207 143.0483 -13.5245 -10.1119 -3.3562
# 4 -3.3057 -5.7570 -13.5245 65.4358 2.7846 3.6948
# 5 -10.2573 -12.3544 -10.1119 2.7846 24.0826 -5.5957
# 6 8.4044 -12.5390 -3.3562 3.6948 -5.5957 36.9256
#
#
#
# Elastic Compliance Matrix: (Units=1/GPa)
#
#
# Indices 1 2 3 4 5 6 
#
# 1 0.025614 -0.003611 -0.002404 0.000561 0.006509 -0.006344
# 2 -0.003611 0.014971 -0.006554 -0.000775 0.004904 0.006130
# 3 -0.002404 -0.006554 0.010876 0.001609 -0.000211 -0.000883
# 4 0.000561 -0.000775 0.001609 0.015769 -0.001793 -0.002094
# 5 0.006509 0.004904 -0.000211 -0.001793 0.048726 0.007728
# 6 -0.006344 0.006130 -0.000883 -0.002094 0.007728 0.031908
#
#
# Mechanical properties :
#
#
# Convention : Reuss Voigt Hill
#
# Bulk Modulus (GPa) = 37.98983 60.95051 49.47017
# Shear Modulus (GPa) = 27.50635 37.56291 32.53463
#
# Velocity S-wave (km/s) = 3.45159 4.03350 3.75384
# Velocity P-wave (km/s) = 5.68671 6.93476 6.34151
#
# Compressibility (1/GPa) = 0.02632283
#
# Stress axis : x y z
#
# Youngs Moduli (GPa) = 39.04112 66.79716 91.94539
#
# Poissons Ratio (x) = 0.24119 0.22101
# Poissons Ratio (y) = 0.14097 0.60266
# Poissons Ratio (z) = 0.09384 0.43782
#
# Static dielectric constant tensor:
#      x y z
#    x 1.914850 -0.037690 -0.023650 
#    y -0.037690 2.075670 0.282800 
#    z -0.023650 0.282800 2.344260 
# 
# From -- ./inp_files/156742.got.cif
#   From: 2010.05.17/outbox.cif.g08.bks.cpg/sg2_79_cif.got.tgz:156742.got - 2010.06.03 11:33:40.
