data_PCOD9017079
_publ_section_title
;
Structure prediction by ZEFSAII (Michael W. Deem and Ramdas Pophale) SiO2 
 PCOD9017079
Probable space group: P -1
;
_chemical_formula_sum "Si O2"
_cell_formula_units_Z 16
_cell_length_a 5.285651
_cell_length_b 17.105452
_cell_length_c 8.454046
_cell_angle_alpha 81.940249
_cell_angle_beta 57.649469
_cell_angle_gamma 92.507770
_cell_volume 632.866144
_symmetry_space_group_name_H-M "P -1"
_symmetry_group_IT_number 2
_symmetry_cell_setting 'triclinic'
loop_
_space_group_symop_operation_xyz
x,y,z
-x,-y,-z
loop_
_atom_site_type_symbol
_atom_site_label
_atom_site_fract_x
_atom_site_fract_y
_atom_site_fract_z
Si Si1 0.062511 0.925663 0.697473
Si Si2 0.645553 0.917972 0.310513
Si Si3 0.204208 0.238761 0.510817
Si Si4 0.673848 0.488741 0.691130
Si Si5 0.754610 0.661024 0.220899
Si Si6 0.575940 0.199577 0.813601
Si Si7 0.760855 0.427159 0.031950
Si Si8 0.435163 0.827978 0.826754
O O1 0.321262 0.939945 0.470012
O O2 0.193939 0.862167 0.786733
O O3 0.736287 0.892577 0.744758
O O4 0.100536 0.008582 0.756766
O O5 0.717370 0.841478 0.406927
O O6 0.607256 0.883997 0.156469
O O7 0.220331 0.306824 0.617898
O O8 0.420881 0.243022 0.287113
O O9 0.850821 0.220817 0.592262
O O10 0.455112 0.424511 0.681453
O O11 0.686365 0.447967 0.870774
O O12 0.000000 0.500000 0.500000
O O13 0.527181 0.568026 0.760919
O O14 0.609863 0.727405 0.153936
O O15 0.053683 0.645710 0.032065
O O16 0.698770 0.192793 0.950032
O O17 0.000000 0.500000 0.000000
#
# Coordination Sequence:
#
# PCOD9017079 Si02
#       8
#     2   2   2   2   2   2   2   2
#     4  10  22  41  64  98 127 175 229 287 349 399
#     4   9  21  38  67  88 131 174 219 286 346 398
#     4  10  22  43  61  88 132 176 221 274 335 404
#     4  10  21  42  71 101 132 166 216 271 326 396
#     4  10  22  42  65  93 134 178 218 265 340 398
#     4  11  23  41  64  89 130 178 221 274 335 398
#     4   9  20  41  66  95 133 165 206 267 319 397
#     4  11  25  41  65  93 134 172 237 284 334 406
#
# _framework density 25.28181
#
# number of rings (size 3 to 8) (size 9 to 14) (size 15 to 20)
#    0.000    2.000    1.250    0.750    5.250    4.500 
#    0.000   16.250    0.000    0.000    0.000    0.000 
#    0.000    0.000    0.000    0.000    0.000    0.000 
#
# Total GULP energy -89557.447687 kJ/mol
# GULP energy per Si atom -5597.340480 kJ/mol
# Density = 2.522427 g / cm^3
# Si number density = 25.281810 Si / 1000 Ang^3
#
#
#
# Elastic Constant Matrix: (Units=GPa)
#
#
# Indices 1 2 3 4 5 6 
#
# 1 74.5949 28.0293 28.1458 9.2125 -11.4113 7.3917
# 2 28.0293 117.4479 46.9205 38.5370 -8.9256 16.6678
# 3 28.1458 46.9205 135.0253 23.2122 -27.0188 5.4528
# 4 9.2125 38.5370 23.2122 40.9360 2.9827 2.5313
# 5 -11.4113 -8.9256 -27.0188 2.9827 49.7051 5.5643
# 6 7.3917 16.6678 5.4528 2.5313 5.5643 47.8328
#
#
#
# Elastic Compliance Matrix: (Units=1/GPa)
#
#
# Indices 1 2 3 4 5 6 
#
# 1 0.015574 -0.002543 -0.001807 -0.000158 0.002323 -0.001576
# 2 -0.002543 0.014536 -0.001862 -0.011964 0.002189 -0.004082
# 3 -0.001807 -0.001862 0.010143 -0.003924 0.005068 -0.000610
# 4 -0.000158 -0.011964 -0.003924 0.038249 -0.006997 0.003430
# 5 0.002323 0.002189 0.005068 -0.006997 0.024690 -0.004201
# 6 -0.001576 -0.004082 -0.000610 0.003430 -0.004201 0.022949
#
#
# Mechanical properties :
#
#
# Convention : Reuss Voigt Hill
#
# Bulk Modulus (GPa) = 35.93235 59.25102 47.59168
# Shear Modulus (GPa) = 33.82018 42.62628 38.22323
#
# Velocity S-wave (km/s) = 3.66146 4.11060 3.89252
# Velocity P-wave (km/s) = 5.66733 6.78355 6.25041
#
# Compressibility (1/GPa) = 0.02783008
#
# Stress axis : x y z
#
# Youngs Moduli (GPa) = 64.20918 68.79445 98.59081
#
# Poissons Ratio (x) = 0.17492 0.17818
# Poissons Ratio (y) = 0.16326 0.18353
# Poissons Ratio (z) = 0.11604 0.12807
#
# Static dielectric constant tensor:
#      x y z
#    x 2.046190 0.031890 0.012670 
#    y 0.031890 2.021520 -0.008260 
#    z 0.012670 -0.008260 2.031690 
# 
# From -- ./inp_files/119890.got.cif
#   From: 2010.05.17/outbox.cif.g08.bks.cpg/sg2_60_cif.got.tgz:119890.got - 2010.06.03 11:33:40.
