data_PCOD9017143
_publ_section_title
;
Structure prediction by ZEFSAII (Michael W. Deem and Ramdas Pophale) SiO2 
 PCOD9017143
Probable space group: P -1
;
_chemical_formula_sum "Si O2"
_cell_formula_units_Z 16
_cell_length_a 14.662027
_cell_length_b 14.013461
_cell_length_c 14.750878
_cell_angle_alpha 40.403683
_cell_angle_beta 140.741941
_cell_angle_gamma 159.525343
_cell_volume 661.893769
_symmetry_space_group_name_H-M "P -1"
_symmetry_group_IT_number 2
_symmetry_cell_setting 'triclinic'
loop_
_space_group_symop_operation_xyz
x,y,z
-x,-y,-z
loop_
_atom_site_type_symbol
_atom_site_label
_atom_site_fract_x
_atom_site_fract_y
_atom_site_fract_z
Si Si1 0.556598 0.754259 0.296800
Si Si2 0.568120 0.417297 0.996916
Si Si3 0.033947 0.703594 0.884545
Si Si4 0.257885 0.128108 0.134347
Si Si5 0.982805 0.375156 0.871424
Si Si6 0.227086 0.023222 0.383608
Si Si7 0.621546 0.024094 0.308151
Si Si8 0.331008 0.346298 0.698787
O O1 0.624868 0.873828 0.362408
O O2 0.678305 0.716784 0.366949
O O3 0.233360 0.462047 0.248576
O O4 0.691486 0.000543 0.161656
O O5 0.395292 0.185878 0.107816
O O6 0.864871 0.603527 0.095008
O O7 0.550985 0.574660 0.895377
O O8 0.464414 0.334435 0.873929
O O9 0.000000 0.500000 0.000000
O O10 0.024848 0.722269 0.970769
O O11 0.208111 0.987220 0.286552
O O12 0.000000 0.000000 0.000000
O O13 0.685575 0.185196 0.769386
O O14 0.191726 0.693842 0.801796
O O15 0.261610 0.906276 0.553022
O O16 0.481569 0.348074 0.368388
O O17 0.960206 0.873212 0.324031
#
# Coordination Sequence:
#
# PCOD9017143 Si02
#       8
#     2   2   2   2   2   2   2   2
#     4  12  23  37  62  96 128 168 217 261 313 360
#     4  10  23  39  66 104 121 151 212 276 329 361
#     4  12  21  36  59  92 127 168 216 259 304 360
#     4  10  21  42  71  95 120 157 207 279 328 364
#     4  12  25  40  66  94 133 169 212 261 311 379
#     4  11  25  44  64  92 131 170 214 257 320 386
#     4  12  26  43  60  91 138 183 206 244 314 388
#     4  11  23  39  67  96 124 165 215 275 311 362
#
# _framework density 24.173062999999999
#
# number of rings (size 3 to 8) (size 9 to 14) (size 15 to 20)
#    0.000    0.750    5.000    2.625    3.500    1.000 
#    0.000    1.250    0.000    0.000    0.000    0.000 
#    0.000    0.000    0.000    0.000    0.000    0.000 
#
# Total GULP energy -89434.435152 kJ/mol
# GULP energy per Si atom -5589.652197 kJ/mol
# Density = 2.411804 g / cm^3
# Si number density = 24.173063 Si / 1000 Ang^3
#
#
#
# Elastic Constant Matrix: (Units=GPa)
#
#
# Indices 1 2 3 4 5 6 
#
# 1 73.2977 5.0609 12.1841 -0.7411 -13.9375 25.5026
# 2 5.0609 80.4325 16.4257 -4.8833 0.1591 16.2584
# 3 12.1841 16.4257 80.8870 5.4625 -32.8281 10.7801
# 4 -0.7411 -4.8833 5.4625 26.3741 -3.4285 9.2731
# 5 -13.9375 0.1591 -32.8281 -3.4285 28.7486 -8.3845
# 6 25.5026 16.2584 10.7801 9.2731 -8.3845 33.5927
#
#
#
# Elastic Compliance Matrix: (Units=1/GPa)
#
#
# Indices 1 2 3 4 5 6 
#
# 1 0.020969 0.002581 0.001026 0.008089 0.007046 -0.017972
# 2 0.002581 0.016424 -0.005994 0.007543 -0.008327 -0.012145
# 3 0.001026 -0.005994 0.025476 -0.003285 0.029906 0.002318
# 4 0.008089 0.007543 -0.003285 0.047917 -0.000607 -0.022116
# 5 0.007046 -0.008327 0.029906 -0.000607 0.074621 0.007876
# 6 -0.017972 -0.012145 0.002318 -0.022116 0.007876 0.056617
#
#
# Mechanical properties :
#
#
# Convention : Reuss Voigt Hill
#
# Bulk Modulus (GPa) = 17.21355 33.55096 25.38226
# Shear Modulus (GPa) = 18.78547 31.13952 24.96249
#
# Velocity S-wave (km/s) = 2.79072 3.59303 3.21698
# Velocity P-wave (km/s) = 4.18576 5.57878 4.93170
#
# Compressibility (1/GPa) = 0.05809377
#
# Stress axis : x y z
#
# Youngs Moduli (GPa) = 47.69002 60.88653 39.25287
#
# Poissons Ratio (x) = -0.15715 -0.04027
# Poissons Ratio (y) = -0.12309 0.23530
# Poissons Ratio (z) = -0.04893 0.36497
#
# Static dielectric constant tensor:
#      x y z
#    x 2.007670 -0.077110 -0.032760 
#    y -0.077110 1.975630 -0.010350 
#    z -0.032760 -0.010350 1.942200 
# 
# From -- ./inp_files/483878.got.cif
#   From: 2010.05.17/outbox.cif.g08.bks.cpg/sg2_242_cif.got.tgz:483878.got - 2010.06.03 11:33:40.
