data_PCOD9017257
_publ_section_title
;
Structure prediction by ZEFSAII (Michael W. Deem and Ramdas Pophale) SiO2 
 PCOD9017257
Probable space group: P -1
;
_chemical_formula_sum "Si O2"
_cell_formula_units_Z 16
_cell_length_a 8.156153
_cell_length_b 9.041993
_cell_length_c 16.417423
_cell_angle_alpha 140.314388
_cell_angle_beta 73.082430
_cell_angle_gamma 87.284336
_cell_volume 662.750546
_symmetry_space_group_name_H-M "P -1"
_symmetry_group_IT_number 2
_symmetry_cell_setting 'triclinic'
loop_
_space_group_symop_operation_xyz
x,y,z
-x,-y,-z
loop_
_atom_site_type_symbol
_atom_site_label
_atom_site_fract_x
_atom_site_fract_y
_atom_site_fract_z
Si Si1 0.872692 0.359412 0.485204
Si Si2 0.557188 0.847003 0.671770
Si Si3 0.191200 0.761318 0.403810
Si Si4 0.366081 0.014078 0.599402
Si Si5 0.011104 0.509919 0.100997
Si Si6 0.294803 0.040896 0.943715
Si Si7 0.542966 0.328971 0.092147
Si Si8 0.793010 0.159064 0.824703
O O1 0.677498 0.547850 0.549261
O O2 0.869832 0.421151 0.611754
O O3 0.000000 0.500000 0.500000
O O4 0.995191 0.078716 0.305367
O O5 0.485398 0.899002 0.613071
O O6 0.386402 0.939798 0.800000
O O7 0.667706 0.026959 0.747551
O O8 0.378524 0.615192 0.260677
O O9 0.256849 0.850759 0.515484
O O10 0.000000 0.000000 0.500000
O O11 0.199608 0.297151 0.758207
O O12 0.500000 0.000000 0.500000
O O13 0.164451 0.629710 0.141107
O O14 0.087009 0.258150 0.040154
O O15 0.000000 0.500000 0.000000
O O16 0.334047 0.813055 0.905782
O O17 0.416683 0.181507 0.022958
O O18 0.684707 0.290359 0.979702
#
# Coordination Sequence:
#
# PCOD9017257 Si02
#       8
#     2   2   2   2   2   2   2   2
#     4  10  22  43  72 102 135 188 231 285 351 418
#     4  10  22  46  72  99 143 181 238 287 349 418
#     4  12  26  46  71 104 142 182 238 291 352 419
#     4  12  29  44  68 106 141 184 233 299 351 409
#     4  12  25  46  68 100 144 182 232 283 353 416
#     4  10  21  42  72  98 139 178 223 292 335 410
#     4  10  23  42  71 105 130 177 239 277 347 406
#     4  10  24  45  73 104 132 189 234 283 349 421
#
# _framework density 24.141814
#
# number of rings (size 3 to 8) (size 9 to 14) (size 15 to 20)
#    0.000    1.250    3.750    0.750    7.000    3.500 
#    2.250    0.625    0.000    0.000    0.000    0.000 
#    0.000    0.000    0.000    0.000    0.000    0.000 
#
# Total GULP energy -89312.935214 kJ/mol
# GULP energy per Si atom -5582.058451 kJ/mol
# Density = 2.408687 g / cm^3
# Si number density = 24.141814 Si / 1000 Ang^3
#
#
#
# Elastic Constant Matrix: (Units=GPa)
#
#
# Indices 1 2 3 4 5 6 
#
# 1 32.9969 39.9330 29.1593 -5.3087 -8.9602 -14.0083
# 2 39.9330 173.8770 77.8380 0.5748 -29.1112 -52.4346
# 3 29.1593 77.8380 176.3894 -9.1193 -43.5102 -21.2286
# 4 -5.3087 0.5748 -9.1193 40.7916 -1.2972 -4.4485
# 5 -8.9602 -29.1112 -43.5102 -1.2972 44.6558 -4.1641
# 6 -14.0083 -52.4346 -21.2286 -4.4485 -4.1641 37.8138
#
#
#
# Elastic Compliance Matrix: (Units=1/GPa)
#
#
# Indices 1 2 3 4 5 6 
#
# 1 0.045594 -0.006523 -0.002643 0.006350 0.003201 0.007461
# 2 -0.006523 0.014910 -0.000849 0.001116 0.009383 0.018947
# 3 -0.002643 -0.000849 0.009158 0.002436 0.008300 0.004186
# 4 0.006350 0.001116 0.002436 0.027055 0.006010 0.009112
# 5 0.003201 0.009383 0.008300 0.006010 0.039646 0.023930
# 6 0.007461 0.018947 0.004186 0.009112 0.023930 0.061539
#
#
# Mechanical properties :
#
#
# Convention : Reuss Voigt Hill
#
# Bulk Modulus (GPa) = 20.14805 75.23600 47.69202
# Shear Modulus (GPa) = 21.32413 40.40779 30.86596
#
# Velocity S-wave (km/s) = 2.97524 4.09561 3.57953
# Velocity P-wave (km/s) = 4.49072 7.32101 6.07304
#
# Compressibility (1/GPa) = 0.04963260
#
# Stress axis : x y z
#
# Youngs Moduli (GPa) = 21.93268 67.06814 109.19551
#
# Poissons Ratio (x) = 0.43751 0.28857
# Poissons Ratio (y) = 0.14307 0.09268
# Poissons Ratio (z) = 0.05796 0.05692
#
# Static dielectric constant tensor:
#      x y z
#    x 1.875670 -0.146330 0.048480 
#    y -0.146330 1.655180 0.048710 
#    z 0.048480 0.048710 2.027240 
# 
# From -- ./inp_files/495706.got.cif
#   From: 2010.05.17/outbox.cif.g08.bks.cpg/sg2_248_cif.got.tgz:495706.got - 2010.06.03 11:33:40.
