data_PCOD9017521
_publ_section_title
;
Structure prediction by ZEFSAII (Michael W. Deem and Ramdas Pophale) SiO2 
 PCOD9017521
Probable space group: P -1
;
_chemical_formula_sum "Si O2"
_cell_formula_units_Z 16
_cell_length_a 9.447442
_cell_length_b 19.644386
_cell_length_c 8.290715
_cell_angle_alpha 33.140001
_cell_angle_beta 95.465336
_cell_angle_gamma 95.396254
_cell_volume 837.056058
_symmetry_space_group_name_H-M "P -1"
_symmetry_group_IT_number 2
_symmetry_cell_setting 'triclinic'
loop_
_space_group_symop_operation_xyz
x,y,z
-x,-y,-z
loop_
_atom_site_type_symbol
_atom_site_label
_atom_site_fract_x
_atom_site_fract_y
_atom_site_fract_z
Si Si1 0.856489 0.774055 0.029965
Si Si2 0.104121 0.504061 0.351214
Si Si3 0.908608 0.881812 0.163329
Si Si4 0.894246 0.681215 0.847811
Si Si5 0.462244 0.135105 0.165720
Si Si6 0.425327 0.116812 0.835830
Si Si7 0.433388 0.380770 0.135555
Si Si8 0.589007 0.387032 0.808235
O O1 0.846332 0.636949 0.383179
O O2 0.935156 0.848940 0.039827
O O3 0.904258 0.750012 0.893003
O O4 0.702105 0.833578 0.879231
O O5 0.245662 0.582308 0.248824
O O6 0.000000 0.500000 0.500000
O O7 0.010738 0.573738 0.071331
O O8 0.923675 0.772206 0.517613
O O9 0.741959 0.911190 0.101769
O O10 0.000000 0.000000 0.000000
O O11 0.734248 0.619794 0.934280
O O12 0.500000 0.000000 0.500000
O O13 0.489324 0.135086 0.980732
O O14 0.553457 0.251309 0.007646
O O15 0.443501 0.248082 0.487667
O O16 0.500000 0.000000 0.000000
O O17 0.500000 0.500000 0.000000
O O18 0.535045 0.378731 0.999020
O O19 0.500000 0.500000 0.500000
#
# Coordination Sequence:
#
# PCOD9017521 Si02
#       8
#     2   2   2   2   2   2   2   2
#     4  10  21  43  64  89 132 168 210 272 328 380
#     4  10  22  40  64  97 129 166 216 265 328 390
#     4  10  24  42  63  89 127 173 216 258 327 395
#     4  10  22  43  66  91 136 166 210 275 326 384
#     4  11  22  38  67  95 124 169 216 267 327 386
#     4  10  23  42  60  89 133 160 210 274 322 382
#     4  11  23  40  66  98 127 168 216 270 331 385
#     4  12  21  39  69  95 128 170 220 270 318 393
#
# _framework density 19.114612000000001
#
# number of rings (size 3 to 8) (size 9 to 14) (size 15 to 20)
#    0.000    1.500    2.500    2.250    5.250    4.000 
#    6.750    0.000    0.000    0.000    0.000    0.000 
#    0.000    0.000    0.000    0.000    0.000    0.000 
#
# Total GULP energy -89110.315779 kJ/mol
# GULP energy per Si atom -5569.394736 kJ/mol
# Density = 1.907111 g / cm^3
# Si number density = 19.114612 Si / 1000 Ang^3
#
#
#
# Elastic Constant Matrix: (Units=GPa)
#
#
# Indices 1 2 3 4 5 6 
#
# 1 84.1113 48.2583 63.5414 -5.5765 1.1954 13.8010
# 2 48.2583 144.9062 59.8131 -12.6671 -6.3589 21.0681
# 3 63.5414 59.8131 110.8348 -14.3075 14.9234 9.7439
# 4 -5.5765 -12.6671 -14.3075 36.9243 -2.2142 -5.5192
# 5 1.1954 -6.3589 14.9234 -2.2142 41.6581 -8.1372
# 6 13.8010 21.0681 9.7439 -5.5192 -8.1372 27.2376
#
#
#
# Elastic Compliance Matrix: (Units=1/GPa)
#
#
# Indices 1 2 3 4 5 6 
#
# 1 0.022989 -0.001890 -0.012303 -0.002657 0.002212 -0.005663
# 2 -0.001890 0.010075 -0.004130 0.001037 0.002253 -0.004475
# 3 -0.012303 -0.004130 0.019656 0.004105 -0.006871 0.001175
# 4 -0.002657 0.001037 0.004105 0.029531 0.001404 0.005479
# 5 0.002212 0.002253 -0.006871 0.001404 0.028459 0.008381
# 6 -0.005663 -0.004475 0.001175 0.005479 0.008381 0.046239
#
#
# Mechanical properties :
#
#
# Convention : Reuss Voigt Hill
#
# Bulk Modulus (GPa) = 62.20584 75.89754 69.05169
# Shear Modulus (GPa) = 25.13194 32.37998 28.75596
#
# Velocity S-wave (km/s) = 3.62995 4.12028 3.88286
# Velocity P-wave (km/s) = 7.08400 7.90116 7.50371
#
# Compressibility (1/GPa) = 0.01607566
#
# Stress axis : x y z
#
# Youngs Moduli (GPa) = 43.49968 99.25418 50.87530
#
# Poissons Ratio (x) = 0.18756 0.62589
# Poissons Ratio (y) = 0.08220 0.21011
# Poissons Ratio (z) = 0.53516 0.40990
#
# Static dielectric constant tensor:
#      x y z
#    x 1.642280 0.004880 0.021180 
#    y 0.004880 1.670900 0.037510 
#    z 0.021180 0.037510 1.650010 
# 
# From -- ./inp_files/222868.got.cif
#   From: 2010.05.17/outbox.cif.g08.bks.cpg/sg2_112_cif.got.tgz:222868.got - 2010.06.03 11:33:40.
