data_PCOD9017816
_publ_section_title
;
Structure prediction by ZEFSAII (Michael W. Deem and Ramdas Pophale) SiO2 
 PCOD9017816
Probable space group: P -1
;
_chemical_formula_sum "Si O2"
_cell_formula_units_Z 13
_cell_length_a 8.690147
_cell_length_b 9.204052
_cell_length_c 18.098565
_cell_angle_alpha 43.065738
_cell_angle_beta 144.361557
_cell_angle_gamma 113.708624
_cell_volume 504.727576
_symmetry_space_group_name_H-M "P -1"
_symmetry_group_IT_number 2
_symmetry_cell_setting 'triclinic'
loop_
_space_group_symop_operation_xyz
x,y,z
-x,-y,-z
loop_
_atom_site_type_symbol
_atom_site_label
_atom_site_fract_x
_atom_site_fract_y
_atom_site_fract_z
Si Si1 0.176956 0.691185 0.833417
Si Si2 0.266800 0.929250 0.071645
Si Si3 0.783371 0.907827 0.371446
Si Si4 0.000000 0.500000 0.500000
Si Si5 0.622269 0.901899 0.717910
Si Si6 0.773370 0.504137 0.809961
Si Si7 0.052762 0.044058 0.781112
O O1 0.938803 0.591458 0.782861
O O2 0.072147 0.923770 0.654312
O O3 0.198312 0.789051 0.887246
O O4 0.500000 0.500000 0.000000
O O5 0.486236 0.006807 0.166683
O O6 0.417854 0.632653 0.235841
O O7 0.186211 0.026807 0.921226
O O8 0.000000 0.000000 0.000000
O O9 0.978054 0.633600 0.523951
O O10 0.632047 0.963921 0.371333
O O11 0.938074 0.751936 0.340176
O O12 0.592002 0.728183 0.710420
O O13 0.713989 0.086969 0.645757
O O14 0.933165 0.711456 0.953398
#
# Coordination Sequence:
#
# PCOD9017816 Si02
#       7
#     2   2   2   1   2   2   2
#     4  10  17  30  52  85 115 148 179 236 285 341
#     4  11  19  35  59  95 113 141 187 256 291 320
#     4  11  21  35  60  86 119 148 194 231 292 335
#     4  10  24  38  50  86 120 162 186 228 278 362
#     4   9  16  32  55  83 108 153 189 235 272 350
#     4   9  17  30  54  84 120 134 190 240 293 327
#     4   9  20  35  56  83 119 145 196 231 286 336
#
# _framework density 25.756464999999999
#
# number of rings (size 3 to 8) (size 9 to 14) (size 15 to 20)
#    0.000    2.154    4.615    0.923    0.000    3.077 
#    0.000    0.000    0.000    9.231    4.000    0.000 
#    0.000    0.000    0.000    0.000    0.000    0.000 
#
# Total GULP energy -72530.572430 kJ/mol
# GULP energy per Si atom -5579.274802 kJ/mol
# Density = 2.569784 g / cm^3
# Si number density = 25.756465 Si / 1000 Ang^3
#
#
#
# Elastic Constant Matrix: (Units=GPa)
#
#
# Indices 1 2 3 4 5 6 
#
# 1 183.9244 53.8353 53.0854 -16.0167 -20.7310 -34.1764
# 2 53.8353 132.9200 50.3341 -6.6999 -17.6369 -10.5816
# 3 53.0854 50.3341 66.9122 -6.1683 1.4404 -0.0946
# 4 -16.0167 -6.6999 -6.1683 54.8522 3.9458 -3.3834
# 5 -20.7310 -17.6369 1.4404 3.9458 41.0748 -22.5126
# 6 -34.1764 -10.5816 -0.0946 -3.3834 -22.5126 47.8433
#
#
#
# Elastic Compliance Matrix: (Units=1/GPa)
#
#
# Indices 1 2 3 4 5 6 
#
# 1 0.016393 0.005122 -0.017042 0.003265 0.024127 0.024393
# 2 0.005122 0.015052 -0.015637 0.001239 0.017974 0.015502
# 3 -0.017042 -0.015637 0.040746 -0.001816 -0.033910 -0.031637
# 4 0.003265 0.001239 -0.001816 0.019227 0.003461 0.005591
# 5 0.024127 0.017974 -0.033910 0.003461 0.076566 0.057416
# 6 0.024393 0.015502 -0.031637 0.005591 0.057416 0.069105
#
#
# Mechanical properties :
#
#
# Convention : Reuss Voigt Hill
#
# Bulk Modulus (GPa) = 58.56067 77.58513 68.07290
# Shear Modulus (GPa) = 16.78435 43.85418 30.31927
#
# Velocity S-wave (km/s) = 2.55552 4.13079 3.43469
# Velocity P-wave (km/s) = 5.61189 7.27593 6.49740
#
# Compressibility (1/GPa) = 0.01707631
#
# Stress axis : x y z
#
# Youngs Moduli (GPa) = 61.00106 66.43787 24.54218
#
# Poissons Ratio (x) = -0.34029 0.41826
# Poissons Ratio (y) = -0.31244 0.38376
# Poissons Ratio (z) = 1.03961 1.03887
#
# Static dielectric constant tensor:
#      x y z
#    x 1.902700 0.030670 -0.032220 
#    y 0.030670 2.048630 0.042650 
#    z -0.032220 0.042650 2.035080 
# 
# From -- ./inp_files/150880.got.cif
#   From: 2010.05.17/outbox.cif.g08.bks.cpg/sg2_76_cif.got.tgz:150880.got - 2010.06.03 11:33:40.
