data_PCOD9017357
_publ_section_title
;
Structure prediction by ZEFSAII (Michael W. Deem and Ramdas Pophale) SiO2 
 PCOD9017357
Probable space group: P -1
;
_chemical_formula_sum "Si O2"
_cell_formula_units_Z 14
_cell_length_a 9.433507
_cell_length_b 10.075785
_cell_length_c 11.361271
_cell_angle_alpha 102.344026
_cell_angle_beta 53.180964
_cell_angle_gamma 135.663679
_cell_volume 557.831535
_symmetry_space_group_name_H-M "P -1"
_symmetry_group_IT_number 2
_symmetry_cell_setting 'triclinic'
loop_
_space_group_symop_operation_xyz
x,y,z
-x,-y,-z
loop_
_atom_site_type_symbol
_atom_site_label
_atom_site_fract_x
_atom_site_fract_y
_atom_site_fract_z
Si Si1 0.739830 0.045902 0.345340
Si Si2 0.211000 0.405024 0.613661
Si Si3 0.877568 0.071403 0.541808
Si Si4 0.983268 0.810636 0.089816
Si Si5 0.902749 0.506157 0.816825
Si Si6 0.406848 0.239129 0.842363
Si Si7 0.395971 0.835954 0.918332
O O1 0.845688 0.048111 0.414576
O O2 0.960603 0.269471 0.219943
O O3 0.500000 0.000000 0.500000
O O4 0.623940 0.871899 0.278604
O O5 0.500000 0.500000 0.500000
O O6 0.061477 0.234469 0.758119
O O7 0.084663 0.303229 0.530002
O O8 0.131480 0.517505 0.698669
O O9 0.610582 0.937851 0.728118
O O10 0.000000 0.000000 0.500000
O O11 0.709430 0.684499 0.132078
O O12 0.146268 0.768908 0.971051
O O13 0.184868 0.050885 0.007683
O O14 0.692890 0.385077 0.788116
O O15 0.715747 0.357613 0.992569
O O16 0.500000 0.000000 0.000000
#
# Coordination Sequence:
#
# PCOD9017357 Si02
#       7
#     2   2   2   2   2   2   2
#     4  12  29  44  69 115 153 188 242 314 375 432
#     4  11  24  44  69 103 142 193 250 294 373 439
#     4  12  26  47  74 109 151 188 243 317 368 432
#     4  10  21  42  75 101 137 197 246 304 359 446
#     4  11  25  48  80 102 146 204 249 298 373 446
#     4  11  23  46  73 103 147 186 249 306 369 437
#     4  11  20  49  78 101 141 205 250 293 372 451
#
# _framework density 25.097183999999999
#
# number of rings (size 3 to 8) (size 9 to 14) (size 15 to 20)
#    0.000    0.857    4.286    2.571    6.000    1.143 
#    2.571    5.714    0.000    0.000    0.000    0.000 
#    0.000    0.000    0.000    0.000    0.000    0.000 
#
# Total GULP energy -78364.805241 kJ/mol
# GULP energy per Si atom -5597.486089 kJ/mol
# Density = 2.504006 g / cm^3
# Si number density = 25.097184 Si / 1000 Ang^3
#
#
#
# Elastic Constant Matrix: (Units=GPa)
#
#
# Indices 1 2 3 4 5 6 
#
# 1 200.0028 45.1031 49.5269 4.2619 9.9723 17.8425
# 2 45.1031 78.8474 45.4264 5.2223 10.4177 15.8147
# 3 49.5269 45.4264 125.0611 4.1205 0.4177 13.4949
# 4 4.2619 5.2223 4.1205 24.3536 0.9486 -3.0486
# 5 9.9723 10.4177 0.4177 0.9486 57.6837 2.4068
# 6 17.8425 15.8147 13.4949 -3.0486 2.4068 40.6533
#
#
#
# Elastic Compliance Matrix: (Units=1/GPa)
#
#
# Indices 1 2 3 4 5 6 
#
# 1 0.006011 -0.002268 -0.001400 -0.000469 -0.000558 -0.001294
# 2 -0.002268 0.018445 -0.005200 -0.003142 -0.002661 -0.004532
# 3 -0.001400 -0.005200 0.010561 -0.000595 0.001155 -0.000981
# 4 -0.000469 -0.003142 -0.000595 0.042532 -0.000248 0.004830
# 5 -0.000558 -0.002661 0.001155 -0.000248 0.017916 -0.000183
# 6 -0.001294 -0.004532 -0.000981 0.004830 -0.000183 0.027628
#
#
# Mechanical properties :
#
#
# Convention : Reuss Voigt Hill
#
# Bulk Modulus (GPa) = 57.86723 76.00268 66.93496
# Shear Modulus (GPa) = 34.10891 42.12844 38.11867
#
# Velocity S-wave (km/s) = 3.69056 4.10153 3.90146
# Velocity P-wave (km/s) = 6.42399 7.26493 6.85736
#
# Compressibility (1/GPa) = 0.01728094
#
# Stress axis : x y z
#
# Youngs Moduli (GPa) = 166.35537 54.21647 94.68809
#
# Poissons Ratio (x) = 0.12296 0.13256
# Poissons Ratio (y) = 0.37727 0.49239
# Poissons Ratio (z) = 0.23288 0.28193
#
# Static dielectric constant tensor:
#      x y z
#    x 1.969170 -0.068690 -0.036760 
#    y -0.068690 1.847490 -0.048730 
#    z -0.036760 -0.048730 1.992940 
# 
# From -- ./inp_files/392591.got.cif
#   From: 2010.05.17/outbox.cif.g08.bks.cpg/sg2_197_cif.got.tgz:392591.got - 2010.06.03 11:33:40.
