data_PCOD9017470
_publ_section_title
;
Structure prediction by ZEFSAII (Michael W. Deem and Ramdas Pophale) SiO2 
 PCOD9017470
Probable space group: P -1
;
_chemical_formula_sum "Si O2"
_cell_formula_units_Z 14
_cell_length_a 5.814863
_cell_length_b 16.618626
_cell_length_c 6.557908
_cell_angle_alpha 79.512718
_cell_angle_beta 77.555405
_cell_angle_gamma 83.680604
_cell_volume 606.838192
_symmetry_space_group_name_H-M "P -1"
_symmetry_group_IT_number 2
_symmetry_cell_setting 'triclinic'
loop_
_space_group_symop_operation_xyz
x,y,z
-x,-y,-z
loop_
_atom_site_type_symbol
_atom_site_label
_atom_site_fract_x
_atom_site_fract_y
_atom_site_fract_z
Si Si1 0.732577 0.159689 0.976004
Si Si2 0.070398 0.447297 0.209546
Si Si3 0.442240 0.111089 0.681145
Si Si4 0.406976 0.312944 0.997548
Si Si5 0.827900 0.033028 0.338799
Si Si6 0.124498 0.259030 0.719246
Si Si7 0.220698 0.593274 0.382058
O O1 0.562727 0.112241 0.880689
O O2 0.583201 0.237123 0.073579
O O3 0.907934 0.202524 0.772656
O O4 0.880138 0.101530 0.131894
O O5 0.191870 0.508617 0.310831
O O6 0.819777 0.422466 0.363850
O O7 0.263913 0.373910 0.149805
O O8 0.000000 0.500000 0.000000
O O9 0.615888 0.078921 0.485409
O O10 0.340554 0.203856 0.608499
O O11 0.246891 0.045307 0.736273
O O12 0.205207 0.270951 0.929630
O O13 0.561597 0.363253 0.781060
O O14 0.000000 0.000000 0.500000
O O15 0.019484 0.347734 0.633290
#
# Coordination Sequence:
#
# PCOD9017470 Si02
#       7
#     2   2   2   2   2   2   2
#     4  10  23  43  65  93 132 178 216 275 331 394
#     4  11  22  42  67  97 131 174 221 272 332 397
#     4  10  23  41  65  93 130 173 218 272 336 393
#     4  10  22  43  64  97 133 177 223 270 336 394
#     4  11  24  41  64  99 128 170 225 273 333 398
#     4  10  21  43  63  93 129 167 224 270 327 391
#     4  10  23  42  64  95 133 172 220 277 327 394
#
# _framework density 23.070401
#
# number of rings (size 3 to 8) (size 9 to 14) (size 15 to 20)
#    0.000    1.714    1.429    1.714    2.000    7.429 
#   10.286    0.000    0.000    0.000    0.000    0.000 
#    0.000    0.000    0.000    0.000    0.000    0.000 
#
# Total GULP energy -78086.425610 kJ/mol
# GULP energy per Si atom -5577.601829 kJ/mol
# Density = 2.301789 g / cm^3
# Si number density = 23.070401 Si / 1000 Ang^3
#
#
#
# Elastic Constant Matrix: (Units=GPa)
#
#
# Indices 1 2 3 4 5 6 
#
# 1 62.4873 31.0783 22.2067 9.3664 6.6898 3.9495
# 2 31.0783 137.9376 31.2569 35.4256 -2.9517 -9.3131
# 3 22.2067 31.2569 81.5615 10.4898 -12.7471 -5.7937
# 4 9.3664 35.4256 10.4898 31.5537 -11.1282 -13.9110
# 5 6.6898 -2.9517 -12.7471 -11.1282 24.1979 1.5776
# 6 3.9495 -9.3131 -5.7937 -13.9110 1.5776 32.5382
#
#
#
# Elastic Compliance Matrix: (Units=1/GPa)
#
#
# Indices 1 2 3 4 5 6 
#
# 1 0.023426 -0.001333 -0.007353 -0.012586 -0.015704 -0.009154
# 2 -0.001333 0.012108 -0.003585 -0.016121 -0.007225 -0.003553
# 3 -0.007353 -0.003585 0.017197 0.007874 0.013910 0.005621
# 4 -0.012586 -0.016121 0.007874 0.077978 0.039584 0.029735
# 5 -0.015704 -0.007225 0.013910 0.039584 0.069282 0.015879
# 6 -0.009154 -0.003553 0.005621 0.029735 0.015879 0.043771
#
#
# Mechanical properties :
#
#
# Convention : Reuss Voigt Hill
#
# Bulk Modulus (GPa) = 35.47663 50.11890 42.79777
# Shear Modulus (GPa) = 18.00489 30.82091 24.41290
#
# Velocity S-wave (km/s) = 2.79665 3.65903 3.25651
# Velocity P-wave (km/s) = 5.08324 6.29467 5.72111
#
# Compressibility (1/GPa) = 0.02818757
#
# Stress axis : x y z
#
# Youngs Moduli (GPa) = 42.68761 82.58839 58.14919
#
# Poissons Ratio (x) = 0.11013 0.42757
# Poissons Ratio (y) = 0.05692 0.20849
# Poissons Ratio (z) = 0.31388 0.29612
#
# Static dielectric constant tensor:
#      x y z
#    x 1.972100 -0.002960 -0.001150 
#    y -0.002960 1.890780 -0.058030 
#    z -0.001150 -0.058030 1.937840 
# 
# From -- ./inp_files/7419.got.cif
#   From: 2010.05.17/outbox.cif.g08.bks.cpg/sg2_4_cif.got.tgz:7419.got - 2010.06.03 11:33:40.
