data_PCOD9017652
_publ_section_title
;
Structure prediction by ZEFSAII (Michael W. Deem and Ramdas Pophale) SiO2 
 PCOD9017652
Probable space group: P -1
;
_chemical_formula_sum "Si O2"
_cell_formula_units_Z 16
_cell_length_a 13.379703
_cell_length_b 9.531411
_cell_length_c 8.636290
_cell_angle_alpha 107.086395
_cell_angle_beta 78.205471
_cell_angle_gamma 52.484473
_cell_volume 720.443120
_symmetry_space_group_name_H-M "P -1"
_symmetry_group_IT_number 2
_symmetry_cell_setting 'triclinic'
loop_
_space_group_symop_operation_xyz
x,y,z
-x,-y,-z
loop_
_atom_site_type_symbol
_atom_site_label
_atom_site_fract_x
_atom_site_fract_y
_atom_site_fract_z
Si Si1 0.247439 0.594848 0.556875
Si Si2 0.088811 0.026887 0.219974
Si Si3 0.890338 0.723226 0.517106
Si Si4 0.671989 0.636097 0.867757
Si Si5 0.940891 0.258083 0.789532
Si Si6 0.801498 0.063288 0.169422
Si Si7 0.605715 0.835389 0.545951
Si Si8 0.610100 0.014851 0.062478
O O1 0.302233 0.214592 0.103445
O O2 0.273842 0.512929 0.346327
O O3 0.340850 0.387517 0.562906
O O4 0.075686 0.753138 0.692559
O O5 0.726291 0.261397 0.367453
O O6 0.076304 0.897868 0.290196
O O7 0.163973 0.091239 0.290787
O O8 0.752710 0.779376 0.506425
O O9 0.000000 0.500000 0.500000
O O10 0.981959 0.720031 0.357562
O O11 0.774115 0.483955 0.927920
O O12 0.297267 0.969979 0.860330
O O13 0.496957 0.797663 0.967228
O O14 0.051398 0.144614 0.862063
O O15 0.840553 0.095530 0.002809
O O16 0.500000 0.000000 0.500000
O O17 0.506144 0.934452 0.762984
#
# Coordination Sequence:
#
# PCOD9017652 Si02
#       8
#     2   2   2   2   2   2   2   2
#     4  10  21  43  65  94 133 177 214 278 339 390
#     4  11  24  42  69 102 138 171 224 282 336 399
#     4  12  23  42  74  97 130 181 228 270 344 398
#     4  10  22  40  69  88 135 169 226 269 331 386
#     4  11  23  44  67 105 127 176 222 288 322 407
#     4  11  26  41  71  97 141 177 220 272 348 395
#     4  11  24  41  65  97 134 173 227 282 323 399
#     4  10  24  44  61  97 134 180 214 277 329 401
#
# _framework density 22.208552000000001
#
# number of rings (size 3 to 8) (size 9 to 14) (size 15 to 20)
#    0.000    1.250    2.500    3.375    8.750    4.500 
#    2.250    0.625    0.000    0.000    0.000    0.000 
#    0.000    0.000    0.000    0.000    0.000    0.000 
#
# Total GULP energy -89287.399627 kJ/mol
# GULP energy per Si atom -5580.462477 kJ/mol
# Density = 2.215800 g / cm^3
# Si number density = 22.208552 Si / 1000 Ang^3
#
#
#
# Elastic Constant Matrix: (Units=GPa)
#
#
# Indices 1 2 3 4 5 6 
#
# 1 180.6871 71.3494 19.1057 11.1770 11.1251 -10.6772
# 2 71.3494 186.8826 15.9934 9.4604 -7.5451 -13.3540
# 3 19.1057 15.9934 58.2459 0.1735 4.4607 12.5739
# 4 11.1770 9.4604 0.1735 30.8651 9.5920 -6.2589
# 5 11.1251 -7.5451 4.4607 9.5920 26.9197 3.3137
# 6 -10.6772 -13.3540 12.5739 -6.2589 3.3137 26.7356
#
#
#
# Elastic Compliance Matrix: (Units=1/GPa)
#
#
# Indices 1 2 3 4 5 6 
#
# 1 0.007135 -0.002480 -0.002027 -0.000068 -0.003653 0.003001
# 2 -0.002480 0.006871 -0.001873 -0.001823 0.003609 0.002448
# 3 -0.002027 -0.001873 0.020964 -0.000697 -0.001487 -0.011583
# 4 -0.000068 -0.001823 -0.000697 0.040141 -0.015996 0.010770
# 5 -0.003653 0.003609 -0.001487 -0.015996 0.046659 -0.008485
# 6 0.003001 0.002448 -0.011583 0.010770 -0.008485 0.048845
#
#
# Mechanical properties :
#
#
# Convention : Reuss Voigt Hill
#
# Bulk Modulus (GPa) = 45.02436 70.96807 57.99621
# Shear Modulus (GPa) = 26.20847 38.19522 32.20185
#
# Velocity S-wave (km/s) = 3.43900 4.15160 3.81198
# Velocity P-wave (km/s) = 6.00719 7.41658 6.74878
#
# Compressibility (1/GPa) = 0.02221020
#
# Stress axis : x y z
#
# Youngs Moduli (GPa) = 140.16389 145.54008 47.70028
#
# Poissons Ratio (x) = 0.36094 0.09669
# Poissons Ratio (y) = 0.34760 0.08933
# Poissons Ratio (z) = 0.28413 0.27255
#
# Static dielectric constant tensor:
#      x y z
#    x 1.842510 -0.002420 -0.002000 
#    y -0.002420 1.860820 -0.007240 
#    z -0.002000 -0.007240 1.870270 
# 
# From -- ./inp_files/448925.got.cif
#   From: 2010.05.17/outbox.cif.g08.bks.cpg/sg2_225_cif.got.tgz:448925.got - 2010.06.03 11:33:40.
