data_PCOD9017292
_publ_section_title
;
Structure prediction by ZEFSAII (Michael W. Deem and Ramdas Pophale) SiO2 
 PCOD9017292
Probable space group: P -1
;
_chemical_formula_sum "Si O2"
_cell_formula_units_Z 12
_cell_length_a 9.177239
_cell_length_b 8.874205
_cell_length_c 11.070403
_cell_angle_alpha 83.355465
_cell_angle_beta 140.783263
_cell_angle_gamma 75.166204
_cell_volume 472.717880
_symmetry_space_group_name_H-M "P -1"
_symmetry_group_IT_number 2
_symmetry_cell_setting 'triclinic'
loop_
_space_group_symop_operation_xyz
x,y,z
-x,-y,-z
loop_
_atom_site_type_symbol
_atom_site_label
_atom_site_fract_x
_atom_site_fract_y
_atom_site_fract_z
Si Si1 0.149959 0.653064 0.084492
Si Si2 0.709897 0.657165 0.639471
Si Si3 0.108481 0.181573 0.444052
Si Si4 0.611279 0.905308 0.951609
Si Si5 0.069029 0.978528 0.205285
Si Si6 0.462643 0.615402 0.847088
O O1 0.239243 0.535045 0.274505
O O2 0.392598 0.516725 0.160236
O O3 0.863494 0.685691 0.847213
O O4 0.088500 0.852053 0.005966
O O5 0.862185 0.666120 0.617539
O O6 0.394199 0.825404 0.415002
O O7 0.869068 0.251885 0.383463
O O8 0.398935 0.041431 0.702560
O O9 0.047808 0.083948 0.307081
O O10 0.598812 0.729184 0.946958
O O11 0.896655 0.887976 0.117684
O O12 0.500000 0.000000 0.000000
O O13 0.500000 0.500000 0.000000
#
# Coordination Sequence:
#
# PCOD9017292 Si02
#       6
#     2   2   2   2   2   2
#     4  10  21  42  73 104 135 183 232 275 344 409
#     4  10  22  42  71 103 136 186 224 279 345 410
#     4  11  23  44  71  97 138 180 227 279 347 398
#     4  12  26  43  69 104 135 181 232 284 344 407
#     4  11  23  46  71 102 139 180 230 282 341 410
#     4  12  22  44  72 100 136 180 229 285 340 409
#
# _framework density 25.385117999999999
#
# number of rings (size 3 to 8) (size 9 to 14) (size 15 to 20)
#    0.000    1.000    5.000    3.500    2.333    2.000 
#    3.000    3.333    0.000    0.000    0.000    0.000 
#    0.000    0.000    0.000    0.000    0.000    0.000 
#
# Total GULP energy -67271.530136 kJ/mol
# GULP energy per Si atom -5605.960845 kJ/mol
# Density = 2.532734 g / cm^3
# Si number density = 25.385118 Si / 1000 Ang^3
#
#
#
# Elastic Constant Matrix: (Units=GPa)
#
#
# Indices 1 2 3 4 5 6 
#
# 1 170.8539 95.0737 56.1228 -18.5065 24.3159 23.1638
# 2 95.0737 177.4711 57.1236 -36.3256 5.6875 14.4421
# 3 56.1228 57.1236 148.2296 -11.7010 21.1970 17.6956
# 4 -18.5065 -36.3256 -11.7010 35.4061 2.9209 2.4719
# 5 24.3159 5.6875 21.1970 2.9209 61.4811 -15.3023
# 6 23.1638 14.4421 17.6956 2.4719 -15.3023 38.2443
#
#
#
# Elastic Compliance Matrix: (Units=1/GPa)
#
#
# Indices 1 2 3 4 5 6 
#
# 1 0.010189 -0.004241 -0.000591 0.001652 -0.005118 -0.006451
# 2 -0.004241 0.010001 -0.001716 0.007445 0.000852 -0.000554
# 3 -0.000591 -0.001716 0.008884 0.001524 -0.003932 -0.004776
# 4 0.001652 0.007445 0.001524 0.038404 -0.006035 -0.009414
# 5 -0.005118 0.000852 -0.003932 -0.006035 0.023427 0.014361
# 6 -0.006451 -0.000554 -0.004776 -0.009414 0.014361 0.038828
#
#
# Mechanical properties :
#
#
# Convention : Reuss Voigt Hill
#
# Bulk Modulus (GPa) = 62.59043 101.46609 82.02826
# Shear Modulus (GPa) = 33.74832 46.24192 39.99512
#
# Velocity S-wave (km/s) = 3.65012 4.27267 3.97361
# Velocity P-wave (km/s) = 6.51724 8.02486 7.31002
#
# Compressibility (1/GPa) = 0.01597688
#
# Stress axis : x y z
#
# Youngs Moduli (GPa) = 98.14606 99.99226 112.55896
#
# Poissons Ratio (x) = 0.42408 0.06653
# Poissons Ratio (y) = 0.41625 0.19319
# Poissons Ratio (z) = 0.05801 0.17162
#
# Static dielectric constant tensor:
#      x y z
#    x 2.058210 -0.079900 -0.021130 
#    y -0.079900 2.106280 0.017250 
#    z -0.021130 0.017250 2.003380 
# 
# From -- ./inp_files/376248.got.cif
#   From: 2010.05.17/outbox.cif.g08.bks.cpg/sg2_189_cif.got.tgz:376248.got - 2010.06.03 11:33:40.
