data_PCOD9017000
_publ_section_title
;
Structure prediction by ZEFSAII (Michael W. Deem and Ramdas Pophale) SiO2 
 PCOD9017000
Probable space group: P -1
;
_chemical_formula_sum "Si O2"
_cell_formula_units_Z 14
_cell_length_a 8.891200
_cell_length_b 10.905505
_cell_length_c 13.818137
_cell_angle_alpha 57.859287
_cell_angle_beta 80.772500
_cell_angle_gamma 39.772868
_cell_volume 644.898861
_symmetry_space_group_name_H-M "P -1"
_symmetry_group_IT_number 2
_symmetry_cell_setting 'triclinic'
loop_
_space_group_symop_operation_xyz
x,y,z
-x,-y,-z
loop_
_atom_site_type_symbol
_atom_site_label
_atom_site_fract_x
_atom_site_fract_y
_atom_site_fract_z
Si Si1 0.924059 0.973715 0.815672
Si Si2 0.436937 0.670129 0.125059
Si Si3 0.428025 0.734928 0.780724
Si Si4 0.236767 0.430312 0.015308
Si Si5 0.924394 0.227971 0.400699
Si Si6 0.465744 0.867913 0.516741
Si Si7 0.588717 0.598436 0.438294
O O1 0.322855 0.559851 0.731485
O O2 0.128493 0.931307 0.765075
O O3 0.085055 0.701134 0.917352
O O4 0.657138 0.154628 0.704627
O O5 0.419236 0.538839 0.118209
O O6 0.547194 0.718880 0.030883
O O7 0.184562 0.894021 0.123867
O O8 0.439844 0.788448 0.648649
O O9 0.585926 0.717097 0.844399
O O10 0.000000 0.500000 0.000000
O O11 0.851865 0.373627 0.442984
O O12 0.190285 0.090240 0.393340
O O13 0.000000 0.000000 0.500000
O O14 0.637848 0.648553 0.510864
O O15 0.500000 0.000000 0.500000
O O16 0.500000 0.500000 0.500000
#
# Coordination Sequence:
#
# PCOD9017000 Si02
#       7
#     2   2   2   2   2   2   2
#     4  10  22  42  70  94 125 165 223 268 309 389
#     4  10  21  42  70  95 119 169 222 264 322 381
#     4  11  23  41  62  96 126 168 220 266 315 388
#     4  11  26  41  64  92 132 171 212 265 329 384
#     4  11  20  40  67  96 127 168 218 263 322 397
#     4  12  25  38  63  98 141 169 208 275 336 384
#     4  11  21  38  69  98 125 171 217 260 326 392
#
# _framework density 21.708829999999999
#
# number of rings (size 3 to 8) (size 9 to 14) (size 15 to 20)
#    0.000    1.143    2.857    5.143    4.000    3.429 
#    0.000    0.000    0.000    0.000    0.000    0.000 
#    0.000    0.000    0.000    0.000    0.000    0.000 
#
# Total GULP energy -78078.830795 kJ/mol
# GULP energy per Si atom -5577.059342 kJ/mol
# Density = 2.165942 g / cm^3
# Si number density = 21.708830 Si / 1000 Ang^3
#
#
#
# Elastic Constant Matrix: (Units=GPa)
#
#
# Indices 1 2 3 4 5 6 
#
# 1 91.1429 28.4394 24.4222 22.9920 2.9247 21.4329
# 2 28.4394 121.8639 40.9347 40.1975 1.6132 -3.4812
# 3 24.4222 40.9347 86.1352 22.7867 6.1336 2.7904
# 4 22.9920 40.1975 22.7867 45.9562 -5.9514 1.9715
# 5 2.9247 1.6132 6.1336 -5.9514 27.2194 3.9855
# 6 21.4329 -3.4812 2.7904 1.9715 3.9855 33.0360
#
#
#
# Elastic Compliance Matrix: (Units=1/GPa)
#
#
# Indices 1 2 3 4 5 6 
#
# 1 0.015589 -0.001542 -0.001940 -0.005183 -0.000859 -0.009699
# 2 -0.001542 0.012839 -0.003122 -0.009377 -0.002451 0.003472
# 3 -0.001940 -0.003122 0.015052 -0.004296 -0.003996 0.000397
# 4 -0.005183 -0.009377 -0.004296 0.036013 0.010046 -0.000624
# 5 -0.000859 -0.002451 -0.003996 0.010046 0.040788 -0.004883
# 6 -0.009699 0.003472 0.000397 -0.000624 -0.004883 0.037521
#
#
# Mechanical properties :
#
#
# Convention : Reuss Voigt Hill
#
# Bulk Modulus (GPa) = 33.03473 54.08160 43.55817
# Shear Modulus (GPa) = 27.60884 34.93200 31.27042
#
# Velocity S-wave (km/s) = 3.57007 4.01573 3.79944
# Velocity P-wave (km/s) = 5.67839 6.81673 6.27343
#
# Compressibility (1/GPa) = 0.03027117
#
# Stress axis : x y z
#
# Youngs Moduli (GPa) = 64.14805 77.88699 66.43805
#
# Poissons Ratio (x) = 0.12011 0.12892
# Poissons Ratio (y) = 0.09892 0.20740
# Poissons Ratio (z) = 0.12448 0.24314
#
# Static dielectric constant tensor:
#      x y z
#    x 1.750870 -0.177280 -0.072030 
#    y -0.177280 1.868810 0.084980 
#    z -0.072030 0.084980 1.924240 
# 
# From -- ./inp_files/378703.got.cif
#   From: 2010.05.17/outbox.cif.g08.bks.cpg/sg2_190_cif.got.tgz:378703.got - 2010.06.03 11:33:40.
