data_PCOD9017309
_publ_section_title
;
Structure prediction by ZEFSAII (Michael W. Deem and Ramdas Pophale) SiO2 
 PCOD9017309
Probable space group: P -1
;
_chemical_formula_sum "Si O2"
_cell_formula_units_Z 16
_cell_length_a 8.060493
_cell_length_b 16.586738
_cell_length_c 7.406708
_cell_angle_alpha 105.334842
_cell_angle_beta 57.375324
_cell_angle_gamma 74.373842
_cell_volume 693.202054
_symmetry_space_group_name_H-M "P -1"
_symmetry_group_IT_number 2
_symmetry_cell_setting 'triclinic'
loop_
_space_group_symop_operation_xyz
x,y,z
-x,-y,-z
loop_
_atom_site_type_symbol
_atom_site_label
_atom_site_fract_x
_atom_site_fract_y
_atom_site_fract_z
Si Si1 0.136923 0.740777 0.949443
Si Si2 0.325095 0.332981 0.029564
Si Si3 0.608754 0.864350 0.293402
Si Si4 0.373303 0.324527 0.430136
Si Si5 0.021834 0.253221 0.583061
Si Si6 0.393377 0.584740 0.258115
Si Si7 0.806997 0.458450 0.326856
Si Si8 0.605720 0.953603 0.717993
O O1 0.883057 0.829307 0.100886
O O2 0.146517 0.742749 0.160599
O O3 0.354586 0.735968 0.722826
O O4 0.154567 0.636604 0.856282
O O5 0.378202 0.231121 0.852137
O O6 0.461313 0.365008 0.836978
O O7 0.373017 0.324723 0.210833
O O8 0.061621 0.418126 0.226885
O O9 0.537265 0.901137 0.565523
O O10 0.437430 0.954016 0.320738
O O11 0.200423 0.287188 0.560947
O O12 0.272903 0.433538 0.627232
O O13 0.164704 0.139558 0.397458
O O14 0.868105 0.328535 0.565925
O O15 0.378651 0.531247 0.411266
O O16 0.500000 0.500000 0.000000
O O17 0.500000 0.000000 0.000000
#
# Coordination Sequence:
#
# PCOD9017309 Si02
#       8
#     2   2   2   2   2   2   2   2
#     4  10  23  40  60  91 134 168 212 277 322 384
#     4  11  21  38  66  92 132 173 218 269 319 388
#     4   9  22  43  66  97 129 167 216 275 337 388
#     4  12  21  37  64  94 129 178 220 256 330 392
#     4  11  23  39  65  93 122 169 221 261 324 393
#     4  12  22  38  63  96 130 172 218 257 313 387
#     4  11  23  37  59  94 134 174 214 270 319 384
#     4  10  21  42  73  92 128 171 213 277 342 386
#
# _framework density 23.081292999999999
#
# number of rings (size 3 to 8) (size 9 to 14) (size 15 to 20)
#    0.000    1.250    3.750    2.250    1.750    3.500 
#    0.000    1.250    5.500    0.000    0.000    0.000 
#    0.000    0.000    0.000    0.000    0.000    0.000 
#
# Total GULP energy -89105.029558 kJ/mol
# GULP energy per Si atom -5569.064347 kJ/mol
# Density = 2.302876 g / cm^3
# Si number density = 23.081293 Si / 1000 Ang^3
#
#
#
# Elastic Constant Matrix: (Units=GPa)
#
#
# Indices 1 2 3 4 5 6 
#
# 1 55.2657 23.6779 20.6592 6.2673 -9.7239 -1.8306
# 2 23.6779 103.3397 24.8689 14.9752 -7.6858 -8.3337
# 3 20.6592 24.8689 119.7868 14.9231 11.9473 -1.6147
# 4 6.2673 14.9752 14.9231 36.3734 2.9416 -1.4623
# 5 -9.7239 -7.6858 11.9473 2.9416 49.7004 -9.1822
# 6 -1.8306 -8.3337 -1.6147 -1.4623 -9.1822 33.6576
#
#
#
# Elastic Compliance Matrix: (Units=1/GPa)
#
#
# Indices 1 2 3 4 5 6 
#
# 1 0.021921 -0.003552 -0.003352 -0.001277 0.004885 0.001429
# 2 -0.003552 0.011825 -0.001573 -0.003672 0.002307 0.003129
# 3 -0.003352 -0.001573 0.009895 -0.002610 -0.003330 -0.001119
# 4 -0.001277 -0.003672 -0.002610 0.030448 -0.002055 -0.000342
# 5 0.004885 0.002307 -0.003330 -0.002055 0.023656 0.007042
# 6 0.001429 0.003129 -0.001119 -0.000342 0.007042 0.032416
#
#
# Mechanical properties :
#
#
# Convention : Reuss Voigt Hill
#
# Bulk Modulus (GPa) = 37.47162 46.31157 41.89160
# Shear Modulus (GPa) = 32.04889 37.89202 34.97046
#
# Velocity S-wave (km/s) = 3.73033 4.05616 3.89665
# Velocity P-wave (km/s) = 5.90116 6.48418 6.19953
#
# Compressibility (1/GPa) = 0.02668686
#
# Stress axis : x y z
#
# Youngs Moduli (GPa) = 45.61826 84.56401 101.06085
#
# Poissons Ratio (x) = 0.30041 0.33875
# Poissons Ratio (y) = 0.16206 0.15895
# Poissons Ratio (z) = 0.15291 0.13301
#
# Static dielectric constant tensor:
#      x y z
#    x 1.406910 2.108660 -0.120130 
#    y 2.108660 -5.815800 0.457910 
#    z -0.120130 0.457910 1.844270 
# 
# From -- ./inp_files/217988.got.cif
#   From: 2010.05.17/outbox.cif.g08.bks.cpg/sg2_109_cif.got.tgz:217988.got - 2010.06.03 11:33:40.
