data_PCOD9017114
_publ_section_title
;
Structure prediction by ZEFSAII (Michael W. Deem and Ramdas Pophale) SiO2 
 PCOD9017114
Probable space group: P -1
;
_chemical_formula_sum "Si O2"
_cell_formula_units_Z 10
_cell_length_a 10.822154
_cell_length_b 5.290859
_cell_length_c 8.794108
_cell_angle_alpha 90.490020
_cell_angle_beta 109.099471
_cell_angle_gamma 64.832718
_cell_volume 425.598668
_symmetry_space_group_name_H-M "P -1"
_symmetry_group_IT_number 2
_symmetry_cell_setting 'triclinic'
loop_
_space_group_symop_operation_xyz
x,y,z
-x,-y,-z
loop_
_atom_site_type_symbol
_atom_site_label
_atom_site_fract_x
_atom_site_fract_y
_atom_site_fract_z
Si Si1 0.809306 0.422515 0.969212
Si Si2 0.564184 0.687079 0.448708
Si Si3 0.165724 0.294644 0.523196
Si Si4 0.850048 0.887526 0.804673
Si Si5 0.615405 0.765458 0.150394
O O1 0.707780 0.506868 0.076488
O O2 0.976481 0.282318 0.094093
O O3 0.783665 0.699341 0.862251
O O4 0.793692 0.190786 0.858817
O O5 0.500000 0.500000 0.500000
O O6 0.740763 0.555692 0.511974
O O7 0.531695 0.710177 0.256134
O O8 0.500000 0.000000 0.500000
O O9 0.169651 0.097857 0.384549
O O10 0.265158 0.158892 0.712056
O O11 0.000000 0.500000 0.500000
O O12 0.500000 0.000000 0.000000
#
# Coordination Sequence:
#
# PCOD9017114 Si02
#       5
#     2   2   2   2   2
#     4  10  22  42  69 106 150 185 248 313 387 443
#     4  10  25  48  76 107 153 205 253 313 392 467
#     4  10  22  47  78 113 151 202 268 318 383 467
#     4  10  21  42  71 106 142 194 242 318 379 449
#     4  10  24  46  74 110 154 203 258 321 389 461
#
# _framework density 23.496314000000002
#
# number of rings (size 3 to 8) (size 9 to 14) (size 15 to 20)
#    1.200    0.800    2.000    0.000    2.800    3.200 
#    0.000    7.000    0.000    1.200    0.000    0.000 
#    0.000    0.000    0.000    0.000    0.000    0.000 
#
# Total GULP energy -55870.059371 kJ/mol
# GULP energy per Si atom -5587.005937 kJ/mol
# Density = 2.344284 g / cm^3
# Si number density = 23.496314 Si / 1000 Ang^3
#
#
#
# Elastic Constant Matrix: (Units=GPa)
#
#
# Indices 1 2 3 4 5 6 
#
# 1 169.8183 88.4420 61.1331 -6.1989 -16.8234 -18.3786
# 2 88.4420 163.1530 88.1480 29.3866 -26.1690 8.0461
# 3 61.1331 88.1480 199.1342 28.3085 -8.9979 -11.1370
# 4 -6.1989 29.3866 28.3085 39.2495 -12.8135 -4.6498
# 5 -16.8234 -26.1690 -8.9979 -12.8135 49.0791 0.1591
# 6 -18.3786 8.0461 -11.1370 -4.6498 0.1591 34.1196
#
#
#
# Elastic Compliance Matrix: (Units=1/GPa)
#
#
# Indices 1 2 3 4 5 6 
#
# 1 0.012037 -0.007932 -0.001040 0.010496 0.002416 0.009434
# 2 -0.007932 0.014840 -0.003097 -0.010739 0.001855 -0.010255
# 3 -0.001040 -0.003097 0.007230 -0.003321 -0.001556 0.002085
# 4 0.010496 -0.010739 -0.003321 0.041732 0.008117 0.012751
# 5 0.002416 0.001855 -0.001556 0.008117 0.024022 0.001350
# 6 0.009434 -0.010255 0.002085 0.012751 0.001350 0.039221
#
#
# Mechanical properties :
#
#
# Convention : Reuss Voigt Hill
#
# Bulk Modulus (GPa) = 100.29547 111.95018 106.12283
# Shear Modulus (GPa) = 30.02250 44.11515 37.06883
#
# Velocity S-wave (km/s) = 3.57845 4.33775 3.97627
# Velocity P-wave (km/s) = 7.73641 8.53448 8.14523
#
# Compressibility (1/GPa) = 0.00997054
#
# Stress axis : x y z
#
# Youngs Moduli (GPa) = 83.07574 67.38733 138.30835
#
# Poissons Ratio (x) = 0.53449 0.14379
# Poissons Ratio (y) = 0.65893 0.42834
# Poissons Ratio (z) = 0.08637 0.20870
#
# Static dielectric constant tensor:
#      x y z
#    x 1.933290 0.018550 0.040140 
#    y 0.018550 1.874180 -0.028840 
#    z 0.040140 -0.028840 1.965880 
# 
# From -- ./inp_files/229785.got.cif
#   From: 2010.05.17/outbox.cif.g08.bks.cpg/sg2_115_cif.got.tgz:229785.got - 2010.06.03 11:33:40.
