data_PCOD9017559
_publ_section_title
;
Structure prediction by ZEFSAII (Michael W. Deem and Ramdas Pophale) SiO2 
 PCOD9017559
Probable space group: P -1
;
_chemical_formula_sum "Si O2"
_cell_formula_units_Z 14
_cell_length_a 7.835735
_cell_length_b 18.343553
_cell_length_c 10.855979
_cell_angle_alpha 34.796640
_cell_angle_beta 121.140223
_cell_angle_gamma 96.381827
_cell_volume 584.429700
_symmetry_space_group_name_H-M "P -1"
_symmetry_group_IT_number 2
_symmetry_cell_setting 'triclinic'
loop_
_space_group_symop_operation_xyz
x,y,z
-x,-y,-z
loop_
_atom_site_type_symbol
_atom_site_label
_atom_site_fract_x
_atom_site_fract_y
_atom_site_fract_z
Si Si1 0.478676 0.370310 0.234823
Si Si2 0.918706 0.294279 0.662165
Si Si3 0.670336 0.541599 0.446318
Si Si4 0.386727 0.906846 0.106724
Si Si5 0.922827 0.588740 0.663504
Si Si6 0.395727 0.951635 0.323131
Si Si7 0.739724 0.059697 0.253828
O O1 0.686005 0.299836 0.520275
O O2 0.530853 0.224114 0.370259
O O3 0.500000 0.500000 0.000000
O O4 0.172069 0.486383 0.984612
O O5 0.794450 0.446415 0.497428
O O6 0.034422 0.316844 0.553574
O O7 0.149191 0.122332 0.054171
O O8 0.500000 0.500000 0.500000
O O9 0.891813 0.479657 0.715639
O O10 0.490037 0.741589 0.085398
O O11 0.650363 0.717684 0.450426
O O12 0.288295 0.962259 0.130824
O O13 0.210402 0.956616 0.852887
O O14 0.500000 0.000000 0.000000
O O15 0.623652 0.966128 0.376915
O O16 0.000000 0.000000 0.500000
#
# Coordination Sequence:
#
# PCOD9017559 Si02
#       7
#     2   2   2   2   2   2   2
#     4  10  25  42  65 101 129 171 229 281 328 389
#     4  11  22  44  68  92 132 183 222 266 341 402
#     4  11  25  43  67  96 137 178 222 271 340 401
#     4   9  18  38  68  94 130 167 222 267 335 385
#     4  10  21  43  64  95 134 171 219 278 328 394
#     4  11  22  43  69  96 136 180 217 278 336 396
#     4  10  23  42  67 102 132 175 224 276 329 397
#
# _framework density 23.954978000000001
#
# number of rings (size 3 to 8) (size 9 to 14) (size 15 to 20)
#    0.000    1.714    4.286    0.857    6.000    2.857 
#    2.571    0.714    0.000    0.000    0.000    0.000 
#    0.000    0.000    0.000    0.000    0.000    0.000 
#
# Total GULP energy -78095.487284 kJ/mol
# GULP energy per Si atom -5578.249092 kJ/mol
# Density = 2.390046 g / cm^3
# Si number density = 23.954978 Si / 1000 Ang^3
#
#
#
# Elastic Constant Matrix: (Units=GPa)
#
#
# Indices 1 2 3 4 5 6 
#
# 1 114.3207 30.2846 36.4977 -4.1727 3.9780 30.4871
# 2 30.2846 117.3003 40.2148 1.7443 6.1545 29.7396
# 3 36.4977 40.2148 86.8167 12.0978 10.4973 25.1168
# 4 -4.1727 1.7443 12.0978 53.1656 19.8843 7.5968
# 5 3.9780 6.1545 10.4973 19.8843 36.8398 -0.5276
# 6 30.4871 29.7396 25.1168 7.5968 -0.5276 45.5334
#
#
#
# Elastic Compliance Matrix: (Units=1/GPa)
#
#
# Indices 1 2 3 4 5 6 
#
# 1 0.011777 -0.000218 -0.003140 0.003450 -0.002298 -0.006613
# 2 -0.000218 0.011300 -0.003547 0.001971 -0.001998 -0.005630
# 3 -0.003140 -0.003547 0.016335 -0.002288 -0.002549 -0.004240
# 4 0.003450 0.001971 -0.002288 0.025763 -0.014053 -0.006796
# 5 -0.002298 -0.001998 -0.002549 -0.014053 0.036138 0.007012
# 6 -0.006613 -0.005630 -0.004240 -0.006796 0.007012 0.033621
#
#
# Mechanical properties :
#
#
# Convention : Reuss Voigt Hill
#
# Bulk Modulus (GPa) = 39.05872 59.15910 49.10891
# Shear Modulus (GPa) = 31.79081 41.20378 36.49730
#
# Velocity S-wave (km/s) = 3.64690 4.15185 3.90754
# Velocity P-wave (km/s) = 5.83726 6.90893 6.39558
#
# Compressibility (1/GPa) = 0.02560248
#
# Stress axis : x y z
#
# Youngs Moduli (GPa) = 84.91144 88.49192 61.21821
#
# Poissons Ratio (x) = 0.01932 0.19220
# Poissons Ratio (y) = 0.01854 0.21714
# Poissons Ratio (z) = 0.26659 0.31388
#
# Static dielectric constant tensor:
#      x y z
#    x 2.052540 -0.045610 -0.070860 
#    y -0.045610 1.867920 0.085800 
#    z -0.070860 0.085800 1.912750 
# 
# From -- ./inp_files/402880.got.cif
#   From: 2010.05.17/outbox.cif.g08.bks.cpg/sg2_202_cif.got.tgz:402880.got - 2010.06.03 11:33:40.
