data_PCOD9017614
_publ_section_title
;
Structure prediction by ZEFSAII (Michael W. Deem and Ramdas Pophale) SiO2 
 PCOD9017614
Probable space group: P -1
;
_chemical_formula_sum "Si O2"
_cell_formula_units_Z 14
_cell_length_a 13.231942
_cell_length_b 11.768012
_cell_length_c 6.517448
_cell_angle_alpha 57.115601
_cell_angle_beta 127.150483
_cell_angle_gamma 113.428809
_cell_volume 675.587163
_symmetry_space_group_name_H-M "P -1"
_symmetry_group_IT_number 2
_symmetry_cell_setting 'triclinic'
loop_
_space_group_symop_operation_xyz
x,y,z
-x,-y,-z
loop_
_atom_site_type_symbol
_atom_site_label
_atom_site_fract_x
_atom_site_fract_y
_atom_site_fract_z
Si Si1 0.830083 0.608211 0.759649
Si Si2 0.685542 0.102716 0.796939
Si Si3 0.317653 0.209082 0.874913
Si Si4 0.118400 0.648481 0.199857
Si Si5 0.546539 0.246224 0.790622
Si Si6 0.608913 0.596239 0.844909
Si Si7 0.688747 0.320991 0.263932
O O1 0.794895 0.724474 0.445114
O O2 0.835272 0.471708 0.764715
O O3 0.723633 0.597474 0.817163
O O4 0.968174 0.641758 0.997948
O O5 0.810176 0.203568 0.915580
O O6 0.576430 0.120007 0.813047
O O7 0.644746 0.181058 0.466730
O O8 0.710937 0.949123 0.951295
O O9 0.433269 0.221636 0.839307
O O10 0.353469 0.294654 0.039642
O O11 0.173647 0.632120 0.514660
O O12 0.509740 0.362463 0.474659
O O13 0.670827 0.290289 0.034787
O O14 0.602860 0.444048 0.076247
#
# Coordination Sequence:
#
# PCOD9017614 Si02
#       7
#     2   2   2   2   2   2   2
#     4  10  21  43  65  89 118 156 202 249 299 349
#     4  10  23  41  60  90 123 159 198 244 300 354
#     4  11  23  41  61  89 126 157 199 245 295 362
#     4   9  21  43  63  90 118 154 205 248 295 352
#     4  11  23  38  64  87 121 162 199 246 299 349
#     4  11  23  39  62  92 119 160 198 247 301 351
#     4  10  22  39  59  92 121 150 202 247 294 353
#
# _framework density 20.722715999999998
#
# number of rings (size 3 to 8) (size 9 to 14) (size 15 to 20)
#    0.857    0.857    1.429    2.571    0.000    9.143 
#    2.571    0.714    0.000    0.000    0.000    0.000 
#    0.000    0.000    0.000    0.000    0.000    0.000 
#
# Total GULP energy -78140.091134 kJ/mol
# GULP energy per Si atom -5581.435081 kJ/mol
# Density = 2.067555 g / cm^3
# Si number density = 20.722716 Si / 1000 Ang^3
#
#
#
# Elastic Constant Matrix: (Units=GPa)
#
#
# Indices 1 2 3 4 5 6 
#
# 1 56.9211 23.7063 43.7013 3.1676 5.8795 -6.3990
# 2 23.7063 129.0118 84.5502 -27.3563 1.4411 -6.4367
# 3 43.7013 84.5502 173.9970 7.3954 8.3793 4.8936
# 4 3.1676 -27.3563 7.3954 43.7515 7.3077 -1.2212
# 5 5.8795 1.4411 8.3793 7.3077 25.9751 1.2204
# 6 -6.3990 -6.4367 4.8936 -1.2212 1.2204 23.3874
#
#
#
# Elastic Compliance Matrix: (Units=1/GPa)
#
#
# Indices 1 2 3 4 5 6 
#
# 1 0.023375 0.000103 -0.005969 0.000237 -0.003808 0.007884
# 2 0.000103 0.016293 -0.008565 0.012144 -0.001911 0.007039
# 3 -0.005969 -0.008565 0.011891 -0.007181 0.000334 -0.006871
# 4 0.000237 0.012144 -0.007181 0.033193 -0.008081 0.007065
# 5 -0.003808 -0.001911 0.000334 -0.008081 0.041832 -0.004243
# 6 0.007884 0.007039 -0.006871 0.007065 -0.004243 0.048880
#
#
# Mechanical properties :
#
#
# Convention : Reuss Voigt Hill
#
# Bulk Modulus (GPa) = 44.06077 73.76061 58.91069
# Shear Modulus (GPa) = 23.59688 32.48761 28.04225
#
# Velocity S-wave (km/s) = 3.37812 3.96375 3.68260
# Velocity P-wave (km/s) = 6.04349 7.52461 6.82435
#
# Compressibility (1/GPa) = 0.02269593
#
# Stress axis : x y z
#
# Youngs Moduli (GPa) = 42.78134 61.37522 84.09696
#
# Poissons Ratio (x) = -0.00634 0.50201
# Poissons Ratio (y) = -0.00442 0.72032
# Poissons Ratio (z) = 0.25538 0.52570
#
# Static dielectric constant tensor:
#      x y z
#    x 1.763950 0.019780 -0.020460 
#    y 0.019780 1.729450 0.002210 
#    z -0.020460 0.002210 1.762230 
# 
# From -- ./inp_files/92101.got.cif
#   From: 2010.05.17/outbox.cif.g08.bks.cpg/sg2_47_cif.got.tgz:92101.got - 2010.06.03 11:33:40.
