data_PCOD9017255
_publ_section_title
;
Structure prediction by ZEFSAII (Michael W. Deem and Ramdas Pophale) SiO2 
 PCOD9017255
Probable space group: P -1
;
_chemical_formula_sum "Si O2"
_cell_formula_units_Z 16
_cell_length_a 14.127278
_cell_length_b 8.866774
_cell_length_c 9.471314
_cell_angle_alpha 39.520349
_cell_angle_beta 107.830477
_cell_angle_gamma 103.521906
_cell_volume 718.704393
_symmetry_space_group_name_H-M "P -1"
_symmetry_group_IT_number 2
_symmetry_cell_setting 'triclinic'
loop_
_space_group_symop_operation_xyz
x,y,z
-x,-y,-z
loop_
_atom_site_type_symbol
_atom_site_label
_atom_site_fract_x
_atom_site_fract_y
_atom_site_fract_z
Si Si1 0.484040 0.762374 0.366062
Si Si2 0.813123 0.967347 0.383622
Si Si3 0.070725 0.874496 0.235849
Si Si4 0.365794 0.865925 0.977943
Si Si5 0.061577 0.401501 0.430523
Si Si6 0.554453 0.601487 0.811671
Si Si7 0.084688 0.558523 0.885949
Si Si8 0.755221 0.832951 0.752745
O O1 0.500000 0.500000 0.500000
O O2 0.491371 0.734081 0.560706
O O3 0.569275 0.932553 0.217794
O O4 0.389116 0.853626 0.165083
O O5 0.746715 0.062976 0.156634
O O6 0.895825 0.163563 0.306928
O O7 0.857575 0.711351 0.553601
O O8 0.751357 0.951331 0.511059
O O9 0.103758 0.609800 0.394384
O O10 0.989414 0.821953 0.357341
O O11 0.169048 0.012684 0.229785
O O12 0.000000 0.000000 0.000000
O O13 0.396342 0.620644 0.091138
O O14 0.967214 0.517398 0.226941
O O15 0.642891 0.770785 0.785754
O O16 0.500000 0.500000 0.000000
O O17 0.185218 0.415068 0.055749
O O18 0.000000 0.500000 0.000000
#
# Coordination Sequence:
#
# PCOD9017255 Si02
#       8
#     2   2   2   2   2   2   2   2
#     4   9  20  42  71  97 128 174 219 289 360 407
#     4  12  23  40  71 105 129 176 246 279 337 419
#     4  11  24  43  63  93 150 186 221 274 350 413
#     4  10  21  42  72  98 134 173 224 301 347 412
#     4  11  24  40  66  99 139 186 221 279 338 419
#     4  11  24  44  73 100 136 182 236 295 362 422
#     4  12  22  38  70 102 133 172 229 283 335 402
#     4  12  23  42  71 100 133 186 237 289 340 419
#
# _framework density 22.262283
#
# number of rings (size 3 to 8) (size 9 to 14) (size 15 to 20)
#    0.000    1.000    6.250    1.125    0.000    0.500 
#    0.000    5.000    2.750    0.000    0.000    0.000 
#    0.000    0.000    0.000    0.000    0.000    0.000 
#
# Total GULP energy -89246.762458 kJ/mol
# GULP energy per Si atom -5577.922654 kJ/mol
# Density = 2.221161 g / cm^3
# Si number density = 22.262283 Si / 1000 Ang^3
#
#
#
# Elastic Constant Matrix: (Units=GPa)
#
#
# Indices 1 2 3 4 5 6 
#
# 1 74.7576 47.1448 40.8964 12.5600 -9.3491 21.9160
# 2 47.1448 127.1250 38.4679 1.5672 2.0654 27.5995
# 3 40.8964 38.4679 124.8190 34.3100 -2.1968 17.4239
# 4 12.5600 1.5672 34.3100 47.7889 3.8815 5.6465
# 5 -9.3491 2.0654 -2.1968 3.8815 42.7801 -2.1414
# 6 21.9160 27.5995 17.4239 5.6465 -2.1414 28.4636
#
#
#
# Elastic Compliance Matrix: (Units=1/GPa)
#
#
# Indices 1 2 3 4 5 6 
#
# 1 0.022351 -0.005254 -0.003716 -0.002351 0.004709 -0.009020
# 2 -0.005254 0.011976 -0.001950 0.003447 -0.002502 -0.007246
# 3 -0.003716 -0.001950 0.012063 -0.007534 0.000530 -0.001099
# 4 -0.002351 0.003447 -0.007534 0.027451 -0.003690 -0.002644
# 5 0.004709 -0.002502 0.000530 -0.003690 0.024942 0.001084
# 6 -0.009020 -0.007246 -0.001099 -0.002644 0.001084 0.050382
#
#
# Mechanical properties :
#
#
# Convention : Reuss Voigt Hill
#
# Bulk Modulus (GPa) = 40.73020 64.41330 52.57175
# Shear Modulus (GPa) = 27.90392 37.15268 32.52830
#
# Velocity S-wave (km/s) = 3.54420 4.08960 3.82663
# Velocity P-wave (km/s) = 5.92316 7.16215 6.57192
#
# Compressibility (1/GPa) = 0.02455181
#
# Stress axis : x y z
#
# Youngs Moduli (GPa) = 44.74157 83.50173 82.89513
#
# Poissons Ratio (x) = 0.43870 0.30801
# Poissons Ratio (y) = 0.23506 0.16161
# Poissons Ratio (z) = 0.16625 0.16279
#
# Static dielectric constant tensor:
#      x y z
#    x 1.798190 -0.019310 -0.036250 
#    y -0.019310 1.893040 0.083780 
#    z -0.036250 0.083780 1.861580 
# 
# From -- ./inp_files/297331.got.cif
#   From: 2010.05.17/outbox.cif.g08.bks.cpg/sg2_149_cif.got.tgz:297331.got - 2010.06.03 11:33:40.
