data_PCOD9017636
_publ_section_title
;
Structure prediction by ZEFSAII (Michael W. Deem and Ramdas Pophale) SiO2 
 PCOD9017636
Probable space group: P -1
;
_chemical_formula_sum "Si O2"
_cell_formula_units_Z 14
_cell_length_a 20.719739
_cell_length_b 9.766677
_cell_length_c 13.242733
_cell_angle_alpha 141.194692
_cell_angle_beta 21.527981
_cell_angle_gamma 145.746590
_cell_volume 552.800386
_symmetry_space_group_name_H-M "P -1"
_symmetry_group_IT_number 2
_symmetry_cell_setting 'triclinic'
loop_
_space_group_symop_operation_xyz
x,y,z
-x,-y,-z
loop_
_atom_site_type_symbol
_atom_site_label
_atom_site_fract_x
_atom_site_fract_y
_atom_site_fract_z
Si Si1 0.401006 0.291616 0.939780
Si Si2 0.269932 0.022227 0.594915
Si Si3 0.868473 0.185405 0.828048
Si Si4 0.384268 0.867750 0.993488
Si Si5 0.832280 0.651215 0.221965
Si Si6 0.190470 0.655862 0.653676
Si Si7 0.588275 0.569000 0.210390
O O1 0.579263 0.236240 0.607567
O O2 0.341048 0.388499 0.982524
O O3 0.231907 0.051214 0.094487
O O4 0.500000 0.500000 0.000000
O O5 0.453697 0.028070 0.270335
O O6 0.175891 0.147650 0.727378
O O7 0.342022 0.188699 0.685512
O O8 0.151089 0.755084 0.660598
O O9 0.803070 0.110086 0.764367
O O10 0.787665 0.387734 0.086631
O O11 0.095549 0.363017 0.616926
O O12 0.329882 0.590760 0.939210
O O13 0.500000 0.000000 0.000000
O O14 0.649987 0.582457 0.522861
O O15 0.058898 0.724212 0.963419
#
# Coordination Sequence:
#
# PCOD9017636 Si02
#       7
#     2   2   2   2   2   2   2
#     4  12  26  43  63  91 133 180 210 254 325 384
#     4  11  18  39  68  97 126 164 211 269 321 373
#     4  10  21  43  65  93 127 162 216 266 311 373
#     4  11  20  38  67  95 127 169 213 263 319 379
#     4   9  19  37  64  97 122 155 212 272 311 360
#     4  10  22  40  68  90 132 163 216 264 316 378
#     4  11  21  38  66  94 129 168 215 264 314 377
#
# _framework density 25.325596000000001
#
# number of rings (size 3 to 8) (size 9 to 14) (size 15 to 20)
#    0.857    0.571    4.286    2.143    0.000    3.429 
#    2.571    0.714    6.286    0.000    0.000    0.000 
#    0.000    0.000    0.000    0.000    0.000    0.000 
#
# Total GULP energy -78181.809999 kJ/mol
# GULP energy per Si atom -5584.415000 kJ/mol
# Density = 2.526795 g / cm^3
# Si number density = 25.325596 Si / 1000 Ang^3
#
#
#
# Elastic Constant Matrix: (Units=GPa)
#
#
# Indices 1 2 3 4 5 6 
#
# 1 81.2539 32.1681 24.0993 -12.2588 29.3979 -5.3739
# 2 32.1681 140.2096 35.6678 -33.2721 18.3028 -22.3567
# 3 24.0993 35.6678 45.9931 -14.7366 -4.5429 -9.5802
# 4 -12.2588 -33.2721 -14.7366 36.7218 -6.4583 8.8672
# 5 29.3979 18.3028 -4.5429 -6.4583 42.6789 -3.4769
# 6 -5.3739 -22.3567 -9.5802 8.8672 -3.4769 42.8857
#
#
#
# Elastic Compliance Matrix: (Units=1/GPa)
#
#
# Indices 1 2 3 4 5 6 
#
# 1 0.022505 0.000367 -0.014291 -0.000593 -0.017390 -0.001468
# 2 0.000367 0.011300 -0.006887 0.006108 -0.004683 0.002756
# 3 -0.014291 -0.006887 0.039406 0.007206 0.018361 0.003420
# 4 -0.000593 0.006108 0.007206 0.036767 0.003911 -0.002565
# 5 -0.017390 -0.004683 0.018361 0.003911 0.040121 0.001925
# 6 -0.001468 0.002756 0.003420 -0.002565 0.001925 0.026021
#
#
# Mechanical properties :
#
#
# Convention : Reuss Voigt Hill
#
# Bulk Modulus (GPa) = 31.65469 50.14745 40.90107
# Shear Modulus (GPa) = 21.90366 36.15872 29.03119
#
# Velocity S-wave (km/s) = 2.94408 3.78266 3.38941
# Velocity P-wave (km/s) = 4.90745 6.23876 5.61272
#
# Compressibility (1/GPa) = 0.03159089
#
# Stress axis : x y z
#
# Youngs Moduli (GPa) = 44.43391 88.49360 25.37662
#
# Poissons Ratio (x) = -0.03250 0.36265
# Poissons Ratio (y) = -0.01632 0.17477
# Poissons Ratio (z) = 0.63498 0.60947
#
# Static dielectric constant tensor:
#      x y z
#    x 2.049570 -0.008170 -0.041120 
#    y -0.008170 2.100610 0.033050 
#    z -0.041120 0.033050 2.065550 
# 
# From -- ./inp_files/469556.got.cif
#   From: 2010.05.17/outbox.cif.g08.bks.cpg/sg2_235_cif.got.tgz:469556.got - 2010.06.03 11:33:40.
