data_PCOD9017236
_publ_section_title
;
Structure prediction by ZEFSAII (Michael W. Deem and Ramdas Pophale) SiO2 
 PCOD9017236
Probable space group: P -1
;
_chemical_formula_sum "Si O2"
_cell_formula_units_Z 14
_cell_length_a 12.342988
_cell_length_b 8.294430
_cell_length_c 9.246344
_cell_angle_alpha 96.792196
_cell_angle_beta 117.699990
_cell_angle_gamma 50.683866
_cell_volume 626.599082
_symmetry_space_group_name_H-M "P -1"
_symmetry_group_IT_number 2
_symmetry_cell_setting 'triclinic'
loop_
_space_group_symop_operation_xyz
x,y,z
-x,-y,-z
loop_
_atom_site_type_symbol
_atom_site_label
_atom_site_fract_x
_atom_site_fract_y
_atom_site_fract_z
Si Si1 0.697851 0.586327 0.982039
Si Si2 0.155043 0.204546 0.865034
Si Si3 0.861836 0.275842 0.318551
Si Si4 0.810169 0.558439 0.583968
Si Si5 0.202269 0.090578 0.541477
Si Si6 0.539944 0.639199 0.606769
Si Si7 0.381909 0.755475 0.920792
O O1 0.655134 0.522520 0.806394
O O2 0.519301 0.764237 0.962006
O O3 0.777943 0.689355 0.014545
O O4 0.809723 0.393514 0.143969
O O5 0.195638 0.161569 0.711440
O O6 0.960309 0.374543 0.760841
O O7 0.256312 0.963758 0.966082
O O8 0.820594 0.440055 0.434245
O O9 0.748620 0.217786 0.262589
O O10 0.055204 0.092320 0.423540
O O11 0.831790 0.723712 0.562364
O O12 0.639786 0.666571 0.563328
O O13 0.375243 0.868930 0.580402
O O14 0.500000 0.500000 0.500000
O O15 0.500000 0.500000 0.000000
#
# Coordination Sequence:
#
# PCOD9017236 Si02
#       7
#     2   2   2   2   2   2   2
#     4  11  21  44  67  96 131 168 222 269 323 385
#     4  11  21  40  73  99 124 170 228 276 315 384
#     4  10  21  42  72  95 129 165 231 271 318 381
#     4  11  23  42  67 101 130 173 220 268 330 393
#     4  11  22  44  70  95 130 176 221 270 322 394
#     4  12  28  42  64  95 143 174 211 268 341 389
#     4  10  22  34  63 103 128 161 215 277 318 370
#
# _framework density 22.342835999999998
#
# number of rings (size 3 to 8) (size 9 to 14) (size 15 to 20)
#    0.000    1.143    4.286    2.571    2.000    1.714 
#    0.000    3.571    0.000    0.000    0.000    0.000 
#    0.000    0.000    0.000    0.000    0.000    0.000 
#
# Total GULP energy -78131.629028 kJ/mol
# GULP energy per Si atom -5580.830645 kJ/mol
# Density = 2.229198 g / cm^3
# Si number density = 22.342836 Si / 1000 Ang^3
#
#
#
# Elastic Constant Matrix: (Units=GPa)
#
#
# Indices 1 2 3 4 5 6 
#
# 1 92.2787 28.2458 23.7819 -5.7648 27.2747 -18.8394
# 2 28.2458 83.1484 34.3875 -11.2797 9.5121 -9.3430
# 3 23.7819 34.3875 122.6304 -6.1315 30.6832 -1.9538
# 4 -5.7648 -11.2797 -6.1315 35.6633 5.7920 7.5507
# 5 27.2747 9.5121 30.6832 5.7920 34.6457 1.3500
# 6 -18.8394 -9.3430 -1.9538 7.5507 1.3500 36.6149
#
#
#
# Elastic Compliance Matrix: (Units=1/GPa)
#
#
# Indices 1 2 3 4 5 6 
#
# 1 0.017984 -0.003727 0.001685 0.002744 -0.015412 0.008395
# 2 -0.003727 0.015210 -0.003752 0.003089 0.001523 0.001070
# 3 0.001685 -0.003752 0.011855 0.002880 -0.011291 0.000364
# 4 0.002744 0.003089 0.002880 0.032556 -0.010847 -0.003960
# 5 -0.015412 0.001523 -0.011291 -0.010847 0.052698 -0.007850
# 6 0.008395 0.001070 0.000364 -0.003960 -0.007850 0.033029
#
#
# Mechanical properties :
#
#
# Convention : Reuss Voigt Hill
#
# Bulk Modulus (GPa) = 29.88673 52.32090 41.10381
# Shear Modulus (GPa) = 26.87120 35.49428 31.18274
#
# Velocity S-wave (km/s) = 3.47172 3.99007 3.73989
# Velocity P-wave (km/s) = 5.42918 6.68549 6.08981
#
# Compressibility (1/GPa) = 0.03345967
#
# Stress axis : x y z
#
# Youngs Moduli (GPa) = 55.60474 65.74828 84.35394
#
# Poissons Ratio (x) = 0.24507 -0.14212
# Poissons Ratio (y) = 0.20726 0.31647
# Poissons Ratio (z) = -0.09368 0.24667
#
# Static dielectric constant tensor:
#      x y z
#    x 1.897570 0.042900 -0.058970 
#    y 0.042900 1.851270 -0.055000 
#    z -0.058970 -0.055000 1.858760 
# 
# From -- ./inp_files/158368.got.cif
#   From: 2010.05.17/outbox.cif.g08.bks.cpg/sg2_80_cif.got.tgz:158368.got - 2010.06.03 11:33:40.
