data_PCOD9017872
_publ_section_title
;
Structure prediction by ZEFSAII (Michael W. Deem and Ramdas Pophale) SiO2 
 PCOD9017872
Probable space group: P -1
;
_chemical_formula_sum "Si O2"
_cell_formula_units_Z 15
_cell_length_a 5.304195
_cell_length_b 13.788187
_cell_length_c 12.398761
_cell_angle_alpha 136.711714
_cell_angle_beta 83.297625
_cell_angle_gamma 89.118154
_cell_volume 610.765591
_symmetry_space_group_name_H-M "P -1"
_symmetry_group_IT_number 2
_symmetry_cell_setting 'triclinic'
loop_
_space_group_symop_operation_xyz
x,y,z
-x,-y,-z
loop_
_atom_site_type_symbol
_atom_site_label
_atom_site_fract_x
_atom_site_fract_y
_atom_site_fract_z
Si Si1 0.612371 0.608842 0.002944
Si Si2 0.861290 0.330225 0.685835
Si Si3 0.769977 0.753152 0.596383
Si Si4 0.553188 0.112656 0.440580
Si Si5 0.508917 0.307416 0.153116
Si Si6 0.822841 0.856974 0.323148
Si Si7 0.500000 0.500000 0.500000
Si Si8 0.973805 0.834974 0.870276
O O1 0.840486 0.496358 0.848955
O O2 0.448732 0.666984 0.954249
O O3 0.500000 0.500000 0.000000
O O4 0.693961 0.738930 0.169811
O O5 0.622099 0.267818 0.594765
O O6 0.078289 0.296810 0.558804
O O7 0.923264 0.232655 0.711251
O O8 0.558618 0.883265 0.670657
O O9 0.629292 0.630249 0.550993
O O10 0.959872 0.788612 0.708679
O O11 0.335151 0.085465 0.514978
O O12 0.799410 0.993588 0.356195
O O13 0.416596 0.452511 0.341084
O O14 0.287840 0.206241 0.097779
O O15 0.775991 0.247775 0.150614
O O16 0.000000 0.000000 0.000000
#
# Coordination Sequence:
#
# PCOD9017872 Si02
#       8
#     2   2   2   2   2   2   1   2
#     4  12  26  45  70 105 153 192 248 307 377 448
#     4  11  23  42  73 104 140 193 242 304 372 444
#     4  10  25  42  77 104 141 193 241 315 368 455
#     4  10  21  43  67 103 140 185 244 298 363 435
#     4  11  28  46  78 111 146 202 245 318 376 451
#     4  10  23  41  66  99 144 188 239 294 365 437
#     4  10  24  48  72 102 148 180 252 300 380 440
#     4  11  27  50  75 109 153 193 255 313 385 451
#
# _framework density 24.559339000000001
#
# number of rings (size 3 to 8) (size 9 to 14) (size 15 to 20)
#    0.000    1.333    1.333    2.000   11.200    3.200 
#    0.000    0.000    0.000    0.000    0.000    0.000 
#    0.000    0.000    0.000    0.000    0.000    0.000 
#
# Total GULP energy -83644.975437 kJ/mol
# GULP energy per Si atom -5576.331696 kJ/mol
# Density = 2.450344 g / cm^3
# Si number density = 24.559339 Si / 1000 Ang^3
#
#
#
# Elastic Constant Matrix: (Units=GPa)
#
#
# Indices 1 2 3 4 5 6 
#
# 1 101.2324 61.9286 28.7850 -8.9089 27.9963 -22.5062
# 2 61.9286 127.6004 52.6565 -30.3496 8.3131 -5.0861
# 3 28.7850 52.6565 98.1799 -3.2543 29.5386 2.6778
# 4 -8.9089 -30.3496 -3.2543 40.3711 -1.6059 14.7119
# 5 27.9963 8.3131 29.5386 -1.6059 29.3481 7.2029
# 6 -22.5062 -5.0861 2.6778 14.7119 7.2029 29.3749
#
#
#
# Elastic Compliance Matrix: (Units=1/GPa)
#
#
# Indices 1 2 3 4 5 6 
#
# 1 -0.417213 0.318174 -0.233691 0.377967 0.712820 -0.607349
# 2 0.318174 -0.229120 0.169461 -0.277027 -0.537008 0.459078
# 3 -0.233691 0.169461 -0.110450 0.204048 0.379445 -0.334874
# 4 0.377967 -0.277027 0.204048 -0.301866 -0.633970 0.529658
# 5 0.712820 -0.537008 0.379445 -0.633970 -1.160920 1.020749
# 6 -0.607349 0.459078 -0.334874 0.529658 1.020749 -0.836839
#
#
# Mechanical properties :
#
#
# Convention : Reuss Voigt Hill
#
# Bulk Modulus (GPa) = -4.01775 68.19479 32.08852
# Shear Modulus (GPa) = -1.37089 32.06166 15.34538
#
# Velocity S-wave (km/s) = -0.74794 3.61706 2.50237
# Velocity P-wave (km/s) = 1.54446 6.72843 4.63068
#
# Compressibility (1/GPa) = -0.24889563
#
# Stress axis : x y z
#
# Youngs Moduli (GPa) = -2.39686 -4.36452 -9.05390
#
# Poissons Ratio (x) = 1.38868 -2.11582
# Poissons Ratio (y) = 0.76262 1.53428
# Poissons Ratio (z) = -0.56013 0.73962
#
# Static dielectric constant tensor:
#      x y z
#    x 2.023130 -0.071370 -0.097640 
#    y -0.071370 1.993070 0.006170 
#    z -0.097640 0.006170 2.008500 
# 
# From -- ./inp_files/365417.got.cif
#   From: 2010.05.17/outbox.cif.g08.bks.cpg/sg2_183_cif.got.tgz:365417.got - 2010.06.03 11:33:40.
