data_PCOD9017677
_publ_section_title
;
Structure prediction by ZEFSAII (Michael W. Deem and Ramdas Pophale) SiO2 
 PCOD9017677
Probable space group: P -1
;
_chemical_formula_sum "Si O2"
_cell_formula_units_Z 14
_cell_length_a 5.783479
_cell_length_b 26.568358
_cell_length_c 5.117189
_cell_angle_alpha 124.937101
_cell_angle_beta 101.509985
_cell_angle_gamma 57.773596
_cell_volume 538.899700
_symmetry_space_group_name_H-M "P -1"
_symmetry_group_IT_number 2
_symmetry_cell_setting 'triclinic'
loop_
_space_group_symop_operation_xyz
x,y,z
-x,-y,-z
loop_
_atom_site_type_symbol
_atom_site_label
_atom_site_fract_x
_atom_site_fract_y
_atom_site_fract_z
Si Si1 0.388941 0.632759 0.197803
Si Si2 0.840227 0.109570 0.158595
Si Si3 0.169158 0.160772 0.749320
Si Si4 0.667696 0.028643 0.282343
Si Si5 0.174697 0.298945 0.945171
Si Si6 0.669379 0.229467 0.158320
Si Si7 0.256867 0.424339 0.418054
O O1 0.406794 0.701138 0.489465
O O2 0.577339 0.574984 0.288007
O O3 0.523537 0.606779 0.865618
O O4 0.059885 0.663675 0.218559
O O5 0.729448 0.076211 0.241981
O O6 0.602984 0.178365 0.156959
O O7 0.013205 0.136862 0.439133
O O8 0.043725 0.044852 0.816438
O O9 0.463920 0.086132 0.618761
O O10 0.127473 0.236933 0.868198
O O11 0.992561 0.182939 0.037781
O O12 0.500000 0.000000 0.000000
O O13 0.508442 0.252494 0.914929
O O14 0.137130 0.371636 0.284362
O O15 0.000000 0.500000 0.500000
#
# Coordination Sequence:
#
# PCOD9017677 Si02
#       7
#     2   2   2   2   2   2   2
#     4  11  25  47  73 111 148 190 249 295 365 438
#     4  10  21  43  65  97 141 186 244 311 364 443
#     4  11  22  42  63 102 139 189 246 307 367 435
#     4   9  21  39  66  95 140 187 243 302 379 433
#     4  11  24  43  72 104 144 190 239 297 364 430
#     4  11  25  41  71 105 142 188 250 304 365 436
#     4  11  27  49  75 111 151 192 243 300 358 442
#
# _framework density 25.978857000000001
#
# number of rings (size 3 to 8) (size 9 to 14) (size 15 to 20)
#    0.000    1.429    1.429    3.000    2.000    8.571 
#    0.000   10.000    0.000    0.000    0.000    0.000 
#    0.000    0.000    0.000    0.000    0.000    0.000 
#
# Total GULP energy -78174.200573 kJ/mol
# GULP energy per Si atom -5583.871470 kJ/mol
# Density = 2.591973 g / cm^3
# Si number density = 25.978857 Si / 1000 Ang^3
#
#
#
# Elastic Constant Matrix: (Units=GPa)
#
#
# Indices 1 2 3 4 5 6 
#
# 1 78.6714 34.1448 23.9837 6.4367 3.3837 -16.1726
# 2 34.1448 127.4371 -1.6092 8.4521 -3.5372 -35.0571
# 3 23.9837 -1.6092 56.5606 5.1948 -1.0357 3.8504
# 4 6.4367 8.4521 5.1948 49.1359 -2.3831 4.6273
# 5 3.3837 -3.5372 -1.0357 -2.3831 45.2372 0.4123
# 6 -16.1726 -35.0571 3.8504 4.6273 0.4123 42.0258
#
#
#
# Elastic Compliance Matrix: (Units=1/GPa)
#
#
# Indices 1 2 3 4 5 6 
#
# 1 0.017834 -0.003503 -0.007893 -0.001448 -0.001909 0.004842
# 2 -0.003503 0.011223 0.001485 -0.002347 0.000976 0.008126
# 3 -0.007893 0.001485 0.021440 -0.001087 0.001173 -0.003655
# 4 -0.001448 -0.002347 -0.001087 0.021564 0.001080 -0.004800
# 5 -0.001909 0.000976 0.001173 0.001080 0.022412 -0.000367
# 6 0.004842 0.008126 -0.003655 -0.004800 -0.000367 0.033304
#
#
# Mechanical properties :
#
#
# Convention : Reuss Voigt Hill
#
# Bulk Modulus (GPa) = 32.60201 41.74529 37.17365
# Shear Modulus (GPa) = 31.68094 41.02309 36.35202
#
# Velocity S-wave (km/s) = 3.49591 3.97809 3.74477
# Velocity P-wave (km/s) = 5.37325 6.09952 5.74787
#
# Compressibility (1/GPa) = 0.03067295
#
# Stress axis : x y z
#
# Youngs Moduli (GPa) = 56.07336 89.10656 46.64259
#
# Poissons Ratio (x) = 0.31213 0.36817
# Poissons Ratio (y) = 0.19642 -0.06926
# Poissons Ratio (z) = 0.44261 -0.13231
#
# Static dielectric constant tensor:
#      x y z
#    x 2.133430 -0.022650 0.018960 
#    y -0.022650 2.039190 -0.010770 
#    z 0.018960 -0.010770 2.019700 
# 
# From -- ./inp_files/14801.got.cif
#   From: 2010.05.17/outbox.cif.g08.bks.cpg/sg2_8_cif.got.tgz:14801.got - 2010.06.03 11:33:40.
