data_PCOD9017234
_publ_section_title
;
Structure prediction by ZEFSAII (Michael W. Deem and Ramdas Pophale) SiO2 
 PCOD9017234
Probable space group: P -1
;
_chemical_formula_sum "Si O2"
_cell_formula_units_Z 16
_cell_length_a 8.726736
_cell_length_b 15.393182
_cell_length_c 8.932387
_cell_angle_alpha 50.909724
_cell_angle_beta 46.996880
_cell_angle_gamma 63.544949
_cell_volume 680.832098
_symmetry_space_group_name_H-M "P -1"
_symmetry_group_IT_number 2
_symmetry_cell_setting 'triclinic'
loop_
_space_group_symop_operation_xyz
x,y,z
-x,-y,-z
loop_
_atom_site_type_symbol
_atom_site_label
_atom_site_fract_x
_atom_site_fract_y
_atom_site_fract_z
Si Si1 0.215422 0.444342 0.956603
Si Si2 0.542759 0.155917 0.317989
Si Si3 0.883416 0.770407 0.560258
Si Si4 0.429864 0.007111 0.828769
Si Si5 0.023645 0.164560 0.917502
Si Si6 0.491659 0.403272 0.234473
Si Si7 0.709565 0.670094 0.283327
Si Si8 0.328472 0.838730 0.294553
O O1 0.342566 0.548564 0.813771
O O2 0.295620 0.389453 0.807935
O O3 0.176931 0.352994 0.210736
O O4 0.000000 0.500000 0.000000
O O5 0.335818 0.161717 0.344846
O O6 0.493777 0.059985 0.572888
O O7 0.532926 0.280301 0.269496
O O8 0.780098 0.138115 0.123060
O O9 0.936281 0.787714 0.329409
O O10 0.088071 0.805290 0.479172
O O11 0.192832 0.063108 0.943443
O O12 0.617057 0.055074 0.755141
O O13 0.399356 0.880605 0.038290
O O14 0.091423 0.252583 0.904806
O O15 0.294471 0.400371 0.482702
O O16 0.500000 0.500000 0.000000
O O17 0.496420 0.746891 0.341726
#
# Coordination Sequence:
#
# PCOD9017234 Si02
#       8
#     2   2   2   2   2   2   2   2
#     4  12  26  40  64  99 135 173 227 276 328 388
#     4  11  22  43  67  96 139 175 223 269 326 400
#     4  11  24  43  64  99 135 172 221 277 326 391
#     4   9  21  45  67 100 128 177 220 270 338 389
#     4  10  22  42  69  92 138 175 217 270 331 390
#     4  12  22  43  66  93 134 175 223 269 323 395
#     4  11  23  44  66  99 132 178 223 273 334 390
#     4  10  21  42  72  93 139 168 216 284 328 393
#
# _framework density 23.500654999999998
#
# number of rings (size 3 to 8) (size 9 to 14) (size 15 to 20)
#    0.000    1.250    5.000    1.875    3.500    3.000 
#    2.250    5.625    0.000    0.000    0.000    0.000 
#    0.000    0.000    0.000    0.000    0.000    0.000 
#
# Total GULP energy -89245.070051 kJ/mol
# GULP energy per Si atom -5577.816878 kJ/mol
# Density = 2.344717 g / cm^3
# Si number density = 23.500655 Si / 1000 Ang^3
#
#
#
# Elastic Constant Matrix: (Units=GPa)
#
#
# Indices 1 2 3 4 5 6 
#
# 1 131.4377 12.8872 25.5339 10.6339 -25.9793 -5.8936
# 2 12.8872 48.7688 31.0187 -6.5827 0.3670 0.8060
# 3 25.5339 31.0187 130.9105 -7.0177 -10.5699 -22.9425
# 4 10.6339 -6.5827 -7.0177 38.0060 -6.0397 4.1343
# 5 -25.9793 0.3670 -10.5699 -6.0397 49.1298 -2.2725
# 6 -5.8936 0.8060 -22.9425 4.1343 -2.2725 35.6092
#
#
#
# Elastic Compliance Matrix: (Units=1/GPa)
#
#
# Indices 1 2 3 4 5 6 
#
# 1 0.009145 -0.002381 -0.000699 -0.002576 0.004465 0.001701
# 2 -0.002381 0.026122 -0.006769 0.004168 -0.002676 -0.006001
# 3 -0.000699 -0.006769 0.010855 0.000639 0.002424 0.007112
# 4 -0.002576 0.004168 0.000639 0.028565 0.002104 -0.003291
# 5 0.004465 -0.002676 0.002424 0.002104 0.023683 0.003629
# 6 0.001701 -0.006001 0.007112 -0.003291 0.003629 0.033696
#
#
# Mechanical properties :
#
#
# Convention : Reuss Voigt Hill
#
# Bulk Modulus (GPa) = 37.84618 49.99962 43.92290
# Shear Modulus (GPa) = 31.13865 40.66080 35.89972
#
# Velocity S-wave (km/s) = 3.64402 4.16408 3.91270
# Velocity P-wave (km/s) = 5.81760 6.66644 6.25643
#
# Compressibility (1/GPa) = 0.02642274
#
# Stress axis : x y z
#
# Youngs Moduli (GPa) = 109.35408 38.28235 92.11938
#
# Poissons Ratio (x) = 0.09116 0.06437
# Poissons Ratio (y) = 0.26041 0.62359
# Poissons Ratio (z) = 0.07642 0.25915
#
# Static dielectric constant tensor:
#      x y z
#    x 1.882550 0.034420 0.094880 
#    y 0.034420 1.868220 0.109790 
#    z 0.094880 0.109790 1.858250 
# 
# From -- ./inp_files/214226.got.cif
#   From: 2010.05.17/outbox.cif.g08.bks.cpg/sg2_108_cif.got.tgz:214226.got - 2010.06.03 11:33:40.
