data_PCOD9017867
_publ_section_title
;
Structure prediction by ZEFSAII (Michael W. Deem and Ramdas Pophale) SiO2 
 PCOD9017867
Probable space group: P -1
;
_chemical_formula_sum "Si O2"
_cell_formula_units_Z 14
_cell_length_a 7.592583
_cell_length_b 8.809819
_cell_length_c 22.694622
_cell_angle_alpha 49.029767
_cell_angle_beta 39.332298
_cell_angle_gamma 77.151287
_cell_volume 583.857440
_symmetry_space_group_name_H-M "P -1"
_symmetry_group_IT_number 2
_symmetry_cell_setting 'triclinic'
loop_
_space_group_symop_operation_xyz
x,y,z
-x,-y,-z
loop_
_atom_site_type_symbol
_atom_site_label
_atom_site_fract_x
_atom_site_fract_y
_atom_site_fract_z
Si Si1 0.407417 0.197927 0.845964
Si Si2 0.252898 0.807280 0.350951
Si Si3 0.916123 0.220266 0.263075
Si Si4 0.432871 0.652768 0.521806
Si Si5 0.756374 0.576291 0.747254
Si Si6 0.422997 0.346122 0.392183
Si Si7 0.762798 0.285856 0.163186
O O1 0.610704 0.129989 0.767773
O O2 0.525438 0.285540 0.860135
O O3 0.494817 0.443292 0.727334
O O4 0.000000 0.000000 0.000000
O O5 0.000000 0.500000 0.500000
O O6 0.974622 0.841393 0.440478
O O7 0.587041 0.005540 0.254061
O O8 0.572176 0.198240 0.373431
O O9 0.992732 0.338986 0.148051
O O10 0.161341 0.364457 0.219242
O O11 0.775944 0.936126 0.363323
O O12 0.500000 0.500000 0.500000
O O13 0.381137 0.523307 0.630938
O O14 0.107738 0.664798 0.597953
O O15 0.544383 0.683092 0.755317
O O16 0.000000 0.500000 0.000000
#
# Coordination Sequence:
#
# PCOD9017867 Si02
#       7
#     2   2   2   2   2   2   2
#     4  11  23  42  71 102 146 192 242 294 367 435
#     4  10  23  39  69 105 138 190 240 296 359 420
#     4  11  25  44  72 105 144 183 245 300 367 436
#     4  11  24  42  69 108 143 180 240 308 359 428
#     4  11  24  46  71 100 144 189 234 298 366 427
#     4  10  21  43  67 102 140 183 245 293 359 432
#     4  12  26  46  76 104 147 195 244 300 366 450
#
# _framework density 23.978453999999999
#
# number of rings (size 3 to 8) (size 9 to 14) (size 15 to 20)
#    0.000    1.143    1.429    5.143    8.000    1.714 
#    0.000    2.857    0.000    0.000    0.000    0.000 
#    0.000    0.000    0.000    0.000    0.000    0.000 
#
# Total GULP energy -78015.896099 kJ/mol
# GULP energy per Si atom -5572.564007 kJ/mol
# Density = 2.392388 g / cm^3
# Si number density = 23.978454 Si / 1000 Ang^3
#
#
#
# Elastic Constant Matrix: (Units=GPa)
#
#
# Indices 1 2 3 4 5 6 
#
# 1 116.3122 33.5633 38.9004 -5.0278 10.6028 29.6963
# 2 33.5633 124.3985 45.2713 6.7758 2.4605 35.1302
# 3 38.9004 45.2713 103.9695 4.9063 -8.4689 16.4583
# 4 -5.0278 6.7758 4.9063 13.7954 4.5720 -11.2766
# 5 10.6028 2.4605 -8.4689 4.5720 33.3416 0.8359
# 6 29.6963 35.1302 16.4583 -11.2766 0.8359 45.1937
#
#
#
# Elastic Compliance Matrix: (Units=1/GPa)
#
#
# Indices 1 2 3 4 5 6 
#
# 1 0.012018 -0.000402 -0.004109 0.003598 -0.005201 -0.005094
# 2 -0.000402 0.014170 -0.002798 -0.018204 0.001226 -0.014296
# 3 -0.004109 -0.002798 0.013720 -0.009160 0.006317 -0.002524
# 4 0.003598 -0.018204 -0.009160 0.132953 -0.021580 0.048695
# 5 -0.005201 0.001226 0.006317 -0.021580 0.036268 -0.005891
# 6 -0.005094 -0.014296 -0.002524 0.048695 -0.005891 0.049766
#
#
# Mechanical properties :
#
#
# Convention : Reuss Voigt Hill
#
# Bulk Modulus (GPa) = 39.53849 64.46112 51.99980
# Shear Modulus (GPa) = 17.73422 33.59584 25.66503
#
# Velocity S-wave (km/s) = 2.72249 3.74717 3.27515
# Velocity P-wave (km/s) = 5.13883 6.75744 6.00294
#
# Compressibility (1/GPa) = 0.02529181
#
# Stress axis : x y z
#
# Youngs Moduli (GPa) = 83.20875 70.57276 72.88582
#
# Poissons Ratio (x) = 0.02835 0.29946
# Poissons Ratio (y) = 0.03343 0.20391
# Poissons Ratio (z) = 0.34188 0.19743
#
# Static dielectric constant tensor:
#      x y z
#    x 2.063490 0.010000 -0.020830 
#    y 0.010000 2.219120 0.025610 
#    z -0.020830 0.025610 1.891760 
# 
# From -- ./inp_files/606359.got.cif
#   From: 2010.05.17/outbox.cif.g08.bks.cpg/sg2_304_cif.got.tgz:606359.got - 2010.06.03 11:33:40.
