data_PCOD9017594
_publ_section_title
;
Structure prediction by ZEFSAII (Michael W. Deem and Ramdas Pophale) SiO2 
 PCOD9017594
Probable space group: P -1
;
_chemical_formula_sum "Si O2"
_cell_formula_units_Z 16
_cell_length_a 23.408077
_cell_length_b 5.527392
_cell_length_c 7.919230
_cell_angle_alpha 114.688608
_cell_angle_beta 45.670683
_cell_angle_gamma 104.291133
_cell_volume 664.358763
_symmetry_space_group_name_H-M "P -1"
_symmetry_group_IT_number 2
_symmetry_cell_setting 'triclinic'
loop_
_space_group_symop_operation_xyz
x,y,z
-x,-y,-z
loop_
_atom_site_type_symbol
_atom_site_label
_atom_site_fract_x
_atom_site_fract_y
_atom_site_fract_z
Si Si1 0.373246 0.127221 0.409006
Si Si2 0.313135 0.077869 0.084262
Si Si3 0.520547 0.188264 0.355130
Si Si4 0.918682 0.797017 0.927605
Si Si5 0.405585 0.517018 0.156550
Si Si6 0.057508 0.633912 0.785201
Si Si7 0.803128 0.567374 0.369140
Si Si8 0.771176 0.997536 0.112520
O O1 0.459390 0.110845 0.316611
O O2 0.375557 0.370697 0.345289
O O3 0.374656 0.816362 0.264837
O O4 0.295030 0.165905 0.699866
O O5 0.367805 0.335990 0.037064
O O6 0.253680 0.171699 0.386866
O O7 0.385634 0.856579 0.889360
O O8 0.261432 0.999429 0.008877
O O9 0.500000 0.500000 0.500000
O O10 0.500000 0.000000 0.500000
O O11 0.862013 0.637716 0.118778
O O12 0.928988 0.075704 0.083132
O O13 0.862342 0.868168 0.904490
O O14 0.008457 0.655977 0.717055
O O15 0.500000 0.500000 0.000000
O O16 0.144598 0.486294 0.583181
O O17 0.000000 0.500000 0.000000
O O18 0.771148 0.288075 0.289022
#
# Coordination Sequence:
#
# PCOD9017594 Si02
#       8
#     2   2   2   2   2   2   2   2
#     4  12  25  46  70  92 141 183 234 298 357 419
#     4  12  26  44  70 102 139 184 239 301 362 422
#     4  12  27  47  70 102 138 185 244 297 357 428
#     4   9  18  38  67 100 135 187 225 283 352 427
#     4  12  26  46  69 101 131 182 241 299 358 426
#     4   8  16  35  70  98 134 181 228 278 349 423
#     4  10  21  43  65 101 142 176 239 289 353 424
#     4  11  24  41  65  99 142 184 234 294 358 423
#
# _framework density 24.083373000000002
#
# number of rings (size 3 to 8) (size 9 to 14) (size 15 to 20)
#    0.000    1.250    3.750    1.875    0.000    0.000 
#    6.750    0.625    0.000   25.500    0.000    0.000 
#    0.000    0.000    0.000    0.000    0.000    0.000 
#
# Total GULP energy -89186.233235 kJ/mol
# GULP energy per Si atom -5574.139577 kJ/mol
# Density = 2.402856 g / cm^3
# Si number density = 24.083373 Si / 1000 Ang^3
#
#
#
# Elastic Constant Matrix: (Units=GPa)
#
#
# Indices 1 2 3 4 5 6 
#
# 1 193.4527 11.8415 15.1441 16.0820 -7.0920 9.2284
# 2 11.8415 99.6029 11.5683 0.7345 8.9561 0.2984
# 3 15.1441 11.5683 24.8984 18.6965 3.8353 3.2454
# 4 16.0820 0.7345 18.6965 37.2315 -11.1017 -6.6575
# 5 -7.0920 8.9561 3.8353 -11.1017 33.4007 1.4205
# 6 9.2284 0.2984 3.2454 -6.6575 1.4205 42.8896
#
#
#
# Elastic Compliance Matrix: (Units=1/GPa)
#
#
# Indices 1 2 3 4 5 6 
#
# 1 0.005580 -0.000483 -0.002490 -0.000970 0.001329 -0.001203
# 2 -0.000483 0.011046 -0.007684 0.003777 -0.000979 0.001227
# 3 -0.002490 -0.007684 0.093973 -0.056743 -0.027506 -0.014419
# 4 -0.000970 0.003777 -0.056743 0.066134 0.026689 0.013858
# 5 0.001329 -0.000979 -0.027506 0.026689 0.042321 0.004543
# 6 -0.001203 0.001227 -0.014419 0.013858 0.004543 0.026658
#
#
# Mechanical properties :
#
#
# Convention : Reuss Voigt Hill
#
# Bulk Modulus (GPa) = 11.19981 43.89577 27.54779
# Shear Modulus (GPa) = 16.84710 41.33103 29.08906
#
# Velocity S-wave (km/s) = 2.64774 4.14716 3.47918
# Velocity P-wave (km/s) = 3.74271 6.41857 5.25385
#
# Compressibility (1/GPa) = 0.08928724
#
# Stress axis : x y z
#
# Youngs Moduli (GPa) = 179.19778 90.52882 10.64135
#
# Poissons Ratio (x) = 0.04373 0.02649
# Poissons Ratio (y) = 0.08656 0.08176
# Poissons Ratio (z) = 0.44613 0.69558
#
# Static dielectric constant tensor:
#      x y z
#    x 2.104440 -0.006190 -0.037730 
#    y -0.006190 1.967190 -0.014250 
#    z -0.037730 -0.014250 2.023950 
# 
# From -- ./inp_files/351073.got.cif
#   From: 2010.05.17/outbox.cif.g08.bks.cpg/sg2_176_cif.got.tgz:351073.got - 2010.06.03 11:33:40.
