data_PCOD9017801
_publ_section_title
;
Structure prediction by ZEFSAII (Michael W. Deem and Ramdas Pophale) SiO2 
 PCOD9017801
Probable space group: P -1
;
_chemical_formula_sum "Si O2"
_cell_formula_units_Z 14
_cell_length_a 22.904916
_cell_length_b 8.470168
_cell_length_c 14.386582
_cell_angle_alpha 130.441855
_cell_angle_beta 29.831280
_cell_angle_gamma 150.365556
_cell_volume 620.377034
_symmetry_space_group_name_H-M "P -1"
_symmetry_group_IT_number 2
_symmetry_cell_setting 'triclinic'
loop_
_space_group_symop_operation_xyz
x,y,z
-x,-y,-z
loop_
_atom_site_type_symbol
_atom_site_label
_atom_site_fract_x
_atom_site_fract_y
_atom_site_fract_z
Si Si1 0.019985 0.378399 0.766637
Si Si2 0.356597 0.611324 0.079074
Si Si3 0.342851 0.208551 0.823402
Si Si4 0.270485 0.247605 0.222306
Si Si5 0.952061 0.124071 0.049103
Si Si6 0.066416 0.835190 0.540668
Si Si7 0.270748 0.472994 0.592291
O O1 0.070334 0.688397 0.795735
O O2 0.201464 0.501499 0.605996
O O3 0.894858 0.095103 0.747899
O O4 0.856152 0.153461 0.988879
O O5 0.308858 0.521679 0.220873
O O6 0.141336 0.342048 0.230738
O O7 0.429357 0.503093 0.888934
O O8 0.500000 0.000000 0.000000
O O9 0.494915 0.236650 0.608900
O O10 0.252985 0.184502 0.845716
O O11 0.180101 0.068856 0.379101
O O12 0.500000 0.500000 0.000000
O O13 0.145225 0.396494 0.818289
O O14 0.000000 0.000000 0.000000
O O15 0.000000 0.500000 0.500000
O O16 0.191569 0.120034 0.558430
#
# Coordination Sequence:
#
# PCOD9017801 Si02
#       7
#     2   2   2   2   2   2   2
#     4  10  23  43  66  93 133 174 221 276 333 402
#     4  11  22  41  63  98 137 177 223 279 333 403
#     4  10  21  43  66  95 128 172 226 270 337 400
#     4  11  23  41  65 100 136 173 228 272 336 410
#     4  11  25  42  66  95 133 170 222 282 334 399
#     4  12  23  39  68  98 135 182 219 278 343 400
#     4  11  22  43  69  91 130 177 222 276 337 402
#
# _framework density 22.566922000000002
#
# number of rings (size 3 to 8) (size 9 to 14) (size 15 to 20)
#    0.000    1.143    4.286    5.571    2.000    4.000 
#    0.000    0.000    0.000    0.000    0.000    0.000 
#    0.000    0.000    0.000    0.000    0.000    0.000 
#
# Total GULP energy -78030.439392 kJ/mol
# GULP energy per Si atom -5573.602814 kJ/mol
# Density = 2.251556 g / cm^3
# Si number density = 22.566922 Si / 1000 Ang^3
#
#
#
# Elastic Constant Matrix: (Units=GPa)
#
#
# Indices 1 2 3 4 5 6 
#
# 1 114.3406 40.3118 33.9011 -0.8482 -17.2678 -7.7287
# 2 40.3118 98.5692 15.6665 8.1309 10.8895 -27.8914
# 3 33.9011 15.6665 121.3763 -6.1133 -27.4480 -1.0979
# 4 -0.8482 8.1309 -6.1133 36.2618 -2.9544 -8.8711
# 5 -17.2678 10.8895 -27.4480 -2.9544 46.5663 -5.8228
# 6 -7.7287 -27.8914 -1.0979 -8.8711 -5.8228 33.0603
#
#
#
# Elastic Compliance Matrix: (Units=1/GPa)
#
#
# Indices 1 2 3 4 5 6 
#
# 1 0.011776 -0.005417 -0.001434 0.001488 0.004805 -0.000619
# 2 -0.005417 0.016620 -0.001930 -0.001917 -0.005759 0.011163
# 3 -0.001434 -0.001930 0.010448 0.002726 0.006278 0.000221
# 4 0.001488 -0.001917 0.002726 0.030940 0.005584 0.008107
# 5 0.004805 -0.005759 0.006278 0.005584 0.029044 0.003087
# 6 -0.000619 0.011163 0.000221 0.008107 0.003087 0.042247
#
#
# Mechanical properties :
#
#
# Convention : Reuss Voigt Hill
#
# Bulk Modulus (GPa) = 46.98847 57.11610 52.05229
# Shear Modulus (GPa) = 30.16966 39.47145 34.82055
#
# Velocity S-wave (km/s) = 3.66033 4.18674 3.93235
# Velocity P-wave (km/s) = 6.22343 6.98114 6.61315
#
# Compressibility (1/GPa) = 0.02128182
#
# Stress axis : x y z
#
# Youngs Moduli (GPa) = 84.92195 60.16786 95.71620
#
# Poissons Ratio (x) = 0.32591 0.13724
# Poissons Ratio (y) = 0.46000 0.18475
# Poissons Ratio (z) = 0.12176 0.11614
#
# Static dielectric constant tensor:
#      x y z
#    x 1.912080 -0.000720 -0.006900 
#    y -0.000720 2.013490 0.035700 
#    z -0.006900 0.035700 1.871250 
# 
# From -- ./inp_files/542680.got.cif
#   From: 2010.05.17/outbox.cif.g08.bks.cpg/sg2_272_cif.got.tgz:542680.got - 2010.06.03 11:33:40.
