data_PCOD9017286
_publ_section_title
;
Structure prediction by ZEFSAII (Michael W. Deem and Ramdas Pophale) SiO2 
 PCOD9017286
Probable space group: P -1
;
_chemical_formula_sum "Si O2"
_cell_formula_units_Z 16
_cell_length_a 9.019030
_cell_length_b 19.765214
_cell_length_c 19.079255
_cell_angle_alpha 27.342149
_cell_angle_beta 28.697861
_cell_angle_gamma 37.475188
_cell_volume 748.517335
_symmetry_space_group_name_H-M "P -1"
_symmetry_group_IT_number 2
_symmetry_cell_setting 'triclinic'
loop_
_space_group_symop_operation_xyz
x,y,z
-x,-y,-z
loop_
_atom_site_type_symbol
_atom_site_label
_atom_site_fract_x
_atom_site_fract_y
_atom_site_fract_z
Si Si1 0.864548 0.417459 0.698220
Si Si2 0.751380 0.658163 0.055961
Si Si3 0.925899 0.903542 0.053997
Si Si4 0.405584 0.876524 0.099273
Si Si5 0.745502 0.144864 0.324361
Si Si6 0.413346 0.868488 0.758078
Si Si7 0.901555 0.673631 0.559526
Si Si8 0.210174 0.420851 0.158645
O O1 0.519809 0.379938 0.849884
O O2 0.889433 0.527289 0.652252
O O3 0.000000 0.500000 0.500000
O O4 0.067862 0.266343 0.769791
O O5 0.606222 0.735587 0.115328
O O6 0.984393 0.522198 0.109839
O O7 0.969646 0.783219 0.823945
O O8 0.174006 0.903423 0.887566
O O9 0.635550 0.007222 0.054049
O O10 0.000000 0.000000 0.000000
O O11 0.115795 0.794242 0.326753
O O12 0.500000 0.000000 0.000000
O O13 0.767181 0.136273 0.237877
O O14 0.442475 0.251542 0.364776
O O15 0.660507 0.989465 0.532349
O O16 0.612172 0.715812 0.828290
O O17 0.978799 0.633738 0.645091
O O18 0.500000 0.500000 0.000000
#
# Coordination Sequence:
#
# PCOD9017286 Si02
#       8
#     2   2   2   2   2   2   2   2
#     4  12  27  48  67  99 152 193 231 287 362 431
#     4  12  25  46  68 107 141 189 243 291 355 433
#     4  12  24  47  73 100 145 196 233 288 364 428
#     4  12  27  44  74 107 141 184 251 299 354 427
#     4  10  22  42  73 102 139 179 246 288 359 415
#     4  10  21  42  73 103 137 188 225 301 360 417
#     4  11  23  46  72 101 141 194 225 306 364 411
#     4  11  23  42  71 108 139 181 243 299 363 413
#
# _framework density 21.375589999999999
#
# number of rings (size 3 to 8) (size 9 to 14) (size 15 to 20)
#    0.000    0.750    6.250    1.500    5.250    2.000 
#    0.000    0.625    0.000    0.000    0.000    0.000 
#    0.000    0.000    0.000    0.000    0.000    0.000 
#
# Total GULP energy -89249.086898 kJ/mol
# GULP energy per Si atom -5578.067931 kJ/mol
# Density = 2.132694 g / cm^3
# Si number density = 21.375590 Si / 1000 Ang^3
#
#
#
# Elastic Constant Matrix: (Units=GPa)
#
#
# Indices 1 2 3 4 5 6 
#
# 1 5.2178 -16.8708 -4.3920 -22.8038 -8.9936 -3.8242
# 2 -16.8708 111.1208 11.0572 -23.4586 8.7907 12.6153
# 3 -4.3920 11.0572 102.4540 -18.1213 -7.1794 -4.7523
# 4 -22.8038 -23.4586 -18.1213 38.1633 3.1444 5.0668
# 5 -8.9936 8.7907 -7.1794 3.1444 35.7284 -6.1475
# 6 -3.8242 12.6153 -4.7523 5.0668 -6.1475 37.4386
#
#
#
# Elastic Compliance Matrix: (Units=1/GPa)
#
#
# Indices 1 2 3 4 5 6 
#
# 1 -0.046285 -0.014835 -0.007744 -0.040532 -0.005318 0.003900
# 2 -0.014835 0.007078 -0.002908 -0.004741 -0.006449 -0.004687
# 3 -0.007744 -0.002908 0.009517 -0.002247 0.001203 0.001898
# 4 -0.040532 -0.004741 -0.002247 -0.000569 -0.010199 -0.004425
# 5 -0.005318 -0.006449 0.001203 -0.010199 0.030790 0.008219
# 6 0.003900 -0.004687 0.001898 -0.004425 0.008219 0.030877
#
#
# Mechanical properties :
#
#
# Convention : Reuss Voigt Hill
#
# Bulk Modulus (GPa) = -12.39716 22.04240 4.82262
# Shear Modulus (GPa) = 90.09904 37.53263 63.81584
#
# Velocity S-wave (km/s) = 6.49938 4.19485 5.46986
# Velocity P-wave (km/s) = 7.10706 5.81349 6.49257
#
# Compressibility (1/GPa) = -0.08066366
#
# Stress axis : x y z
#
# Youngs Moduli (GPa) = -21.60544 141.29206 105.07167
#
# Poissons Ratio (x) = 2.09612 0.81367
# Poissons Ratio (y) = -0.32052 0.30552
# Poissons Ratio (z) = -0.16731 0.41083
#
# Static dielectric constant tensor:
#      x y z
#    x 1.713470 0.082950 -0.123830 
#    y 0.082950 1.635220 0.138800 
#    z -0.123830 0.138800 1.731090 
# 
# From -- ./inp_files/243981.got.cif
#   From: 2010.05.17/outbox.cif.g08.bks.cpg/sg2_122_cif.got.tgz:243981.got - 2010.06.03 11:33:40.
