data_PCOD9017103
_publ_section_title
;
Structure prediction by ZEFSAII (Michael W. Deem and Ramdas Pophale) SiO2 
 PCOD9017103
Probable space group: P -1
;
_chemical_formula_sum "Si O2"
_cell_formula_units_Z 12
_cell_length_a 5.357865
_cell_length_b 24.429752
_cell_length_c 5.376881
_cell_angle_alpha 45.959622
_cell_angle_beta 92.695986
_cell_angle_gamma 69.467267
_cell_volume 427.272051
_symmetry_space_group_name_H-M "P -1"
_symmetry_group_IT_number 2
_symmetry_cell_setting 'triclinic'
loop_
_space_group_symop_operation_xyz
x,y,z
-x,-y,-z
loop_
_atom_site_type_symbol
_atom_site_label
_atom_site_fract_x
_atom_site_fract_y
_atom_site_fract_z
Si Si1 0.683016 0.894933 0.413644
Si Si2 0.282601 0.375194 0.782044
Si Si3 0.664564 0.530208 0.093755
Si Si4 0.886426 0.060423 0.548965
Si Si5 0.705835 0.267437 0.752805
Si Si6 0.751510 0.755889 0.447669
O O1 0.977144 0.876997 0.621039
O O2 0.732422 0.833535 0.376440
O O3 0.461683 0.890650 0.603184
O O4 0.500000 0.000000 0.000000
O O5 0.381189 0.438138 0.718884
O O6 0.579275 0.287236 0.966815
O O7 0.001069 0.446391 0.381775
O O8 0.149482 0.330918 0.098862
O O9 0.500000 0.500000 0.000000
O O10 0.544185 0.629253 0.668149
O O11 0.000000 0.000000 0.500000
O O12 0.000000 0.000000 0.000000
O O13 0.575765 0.217663 0.741958
O O14 0.006104 0.261364 0.696810
#
# Coordination Sequence:
#
# PCOD9017103 Si02
#       6
#     2   2   2   2   2   2
#     4  10  22  45  71 101 138 184 239 300 364 437
#     4  10  24  45  68 106 140 191 241 296 365 430
#     4  10  22  42  73 101 143 187 240 295 356 440
#     4  10  21  42  71 103 139 179 239 303 368 441
#     4  11  24  43  69 102 143 186 234 297 359 431
#     4  11  25  46  68 102 146 184 242 297 363 431
#
# _framework density 28.085152000000001
#
# number of rings (size 3 to 8) (size 9 to 14) (size 15 to 20)
#    0.000    1.667    0.000    3.000    0.000    9.333 
#   18.000    0.000    3.667    3.000    0.000    0.000 
#    0.000    0.000    0.000    0.000    0.000    0.000 
#
# Total GULP energy -67083.384413 kJ/mol
# GULP energy per Si atom -5590.282034 kJ/mol
# Density = 2.802123 g / cm^3
# Si number density = 28.085152 Si / 1000 Ang^3
#
#
#
# Elastic Constant Matrix: (Units=GPa)
#
#
# Indices 1 2 3 4 5 6 
#
# 1 220.8093 105.6719 11.0363 15.4610 12.3187 -4.3622
# 2 105.6719 216.4023 -15.4218 3.1847 10.9691 15.8123
# 3 11.0363 -15.4218 58.0744 6.4969 -26.3788 -9.0142
# 4 15.4610 3.1847 6.4969 40.0221 3.7089 -4.6250
# 5 12.3187 10.9691 -26.3788 3.7089 61.9914 -3.7190
# 6 -4.3622 15.8123 -9.0142 -4.6250 -3.7190 68.7367
#
#
#
# Elastic Compliance Matrix: (Units=1/GPa)
#
#
# Indices 1 2 3 4 5 6 
#
# 1 0.006435 -0.003264 -0.002571 -0.001583 -0.001663 0.000626
# 2 -0.003264 0.006454 0.002276 0.000185 0.000382 -0.001360
# 3 -0.002571 0.002276 0.024041 -0.003762 0.010731 0.002793
# 4 -0.001583 0.000185 -0.003762 0.026573 -0.002849 0.000997
# 5 -0.001663 0.000382 0.010731 -0.002849 0.021261 0.002172
# 6 0.000626 -0.001360 0.002793 0.000997 0.002172 0.015452
#
#
# Mechanical properties :
#
#
# Convention : Reuss Voigt Hill
#
# Bulk Modulus (GPa) = 33.54230 77.53986 55.54108
# Shear Modulus (GPa) = 42.63636 60.41669 51.52653
#
# Velocity S-wave (km/s) = 3.90052 4.64313 4.28793
# Velocity P-wave (km/s) = 5.67930 7.51090 6.65838
#
# Compressibility (1/GPa) = 0.02981310
#
# Stress axis : x y z
#
# Youngs Moduli (GPa) = 155.39725 154.93785 41.59577
#
# Poissons Ratio (x) = 0.50567 0.10694
# Poissons Ratio (y) = 0.50717 -0.09467
# Poissons Ratio (z) = 0.39950 -0.35263
#
# Static dielectric constant tensor:
#      x y z
#    x 2.207470 0.029870 -0.053600 
#    y 0.029870 2.511920 0.196940 
#    z -0.053600 0.196940 2.311540 
# 
# From -- ./inp_files/12183.got.cif
#   From: 2010.05.17/outbox.cif.g08.bks.cpg/sg2_7_cif.got.tgz:12183.got - 2010.06.03 11:33:40.
