data_PCOD9017603
_publ_section_title
;
Structure prediction by ZEFSAII (Michael W. Deem and Ramdas Pophale) SiO2 
 PCOD9017603
Probable space group: P -1
;
_chemical_formula_sum "Si O2"
_cell_formula_units_Z 16
_cell_length_a 9.235228
_cell_length_b 15.120287
_cell_length_c 15.376376
_cell_angle_alpha 48.586601
_cell_angle_beta 81.308116
_cell_angle_gamma 42.844540
_cell_volume 827.698944
_symmetry_space_group_name_H-M "P -1"
_symmetry_group_IT_number 2
_symmetry_cell_setting 'triclinic'
loop_
_space_group_symop_operation_xyz
x,y,z
-x,-y,-z
loop_
_atom_site_type_symbol
_atom_site_label
_atom_site_fract_x
_atom_site_fract_y
_atom_site_fract_z
Si Si1 0.370265 0.839506 0.633838
Si Si2 0.148318 0.971589 0.079447
Si Si3 0.013210 0.332151 0.884878
Si Si4 0.784770 0.863025 0.403372
Si Si5 0.203950 0.764665 0.370817
Si Si6 0.349607 0.034636 0.210151
Si Si7 0.728884 0.661439 0.270553
Si Si8 0.074109 0.028592 0.352603
O O1 0.701032 0.596545 0.749757
O O2 0.216301 0.956441 0.478979
O O3 0.304611 0.999180 0.594331
O O4 0.236067 0.812972 0.706749
O O5 0.131371 0.910376 0.210013
O O6 0.482002 0.765971 0.171101
O O7 0.000000 0.000000 0.000000
O O8 0.010016 0.195057 0.954828
O O9 0.174995 0.288957 0.821904
O O10 0.184201 0.223925 0.030081
O O11 0.521331 0.992447 0.291318
O O12 0.961440 0.834050 0.348721
O O13 0.003797 0.607101 0.569239
O O14 0.500000 0.500000 0.500000
O O15 0.222665 0.816987 0.427736
O O16 0.577868 0.801457 0.284277
O O17 0.131769 0.099625 0.238604
#
# Coordination Sequence:
#
# PCOD9017603 Si02
#       8
#     2   2   2   2   2   2   2   2
#     4  10  25  42  64  91 123 176 210 254 306 370
#     4  11  24  39  64  98 127 163 200 262 323 373
#     4  11  25  43  61  93 136 166 201 249 328 382
#     4  11  24  40  65  95 121 168 218 257 299 370
#     4  11  21  40  65  96 124 154 218 262 309 368
#     4  11  22  41  65  95 123 164 204 266 321 361
#     4  11  23  43  64  95 130 163 205 260 321 371
#     4  10  21  43  65  87 124 165 214 257 301 366
#
# _framework density 19.3307
#
# number of rings (size 3 to 8) (size 9 to 14) (size 15 to 20)
#    0.000    1.250    3.750    2.625    5.250    4.000 
#    0.000    0.000    0.000    0.000    0.000    0.000 
#    0.000    0.000    0.000    0.000    0.000    0.000 
#
# Total GULP energy -89345.595828 kJ/mol
# GULP energy per Si atom -5584.099739 kJ/mol
# Density = 1.928670 g / cm^3
# Si number density = 19.330700 Si / 1000 Ang^3
#
#
#
# Elastic Constant Matrix: (Units=GPa)
#
#
# Indices 1 2 3 4 5 6 
#
# 1 96.9648 36.3136 29.9374 23.4986 4.7915 9.7075
# 2 36.3136 73.0488 24.3568 18.8658 5.8663 -5.8536
# 3 29.9374 24.3568 50.7429 7.5203 -2.2283 9.5272
# 4 23.4986 18.8658 7.5203 23.3280 -6.4245 0.5611
# 5 4.7915 5.8663 -2.2283 -6.4245 42.0556 18.3256
# 6 9.7075 -5.8536 9.5272 0.5611 18.3256 33.2350
#
#
#
# Elastic Compliance Matrix: (Units=1/GPa)
#
#
# Indices 1 2 3 4 5 6 
#
# 1 0.016960 -0.002437 -0.006687 -0.013891 -0.003502 -0.001300
# 2 -0.002437 0.026631 -0.012347 -0.019550 -0.014634 0.017341
# 3 -0.006687 -0.012347 0.031730 0.010484 0.013036 -0.016682
# 4 -0.013891 -0.019550 0.010484 0.076262 0.023848 -0.016828
# 5 -0.003502 -0.014634 0.013036 0.023848 0.043480 -0.029669
# 6 -0.001300 0.017341 -0.016682 -0.016828 -0.029669 0.054948
#
#
# Mechanical properties :
#
#
# Convention : Reuss Voigt Hill
#
# Bulk Modulus (GPa) = 30.88359 44.66356 37.77358
# Shear Modulus (GPa) = 16.46115 28.40030 22.43073
#
# Velocity S-wave (km/s) = 2.92131 3.83715 3.41011
# Velocity P-wave (km/s) = 5.23353 6.54116 5.92354
#
# Compressibility (1/GPa) = 0.03237966
#
# Stress axis : x y z
#
# Youngs Moduli (GPa) = 58.96311 37.54988 31.51612
#
# Poissons Ratio (x) = 0.09150 0.21076
# Poissons Ratio (y) = 0.14368 0.38912
# Poissons Ratio (z) = 0.39431 0.46361
#
# Static dielectric constant tensor:
#      x y z
#    x 1.691380 -0.014090 -0.003770 
#    y -0.014090 1.682150 0.016030 
#    z -0.003770 0.016030 1.654560 
# 
# From -- ./inp_files/182505.got.cif
#   From: 2010.05.17/outbox.cif.g08.bks.cpg/sg2_92_cif.got.tgz:182505.got - 2010.06.03 11:33:40.
