data_PCOD9017120
_publ_section_title
;
Structure prediction by ZEFSAII (Michael W. Deem and Ramdas Pophale) SiO2 
 PCOD9017120
Probable space group: P -1
;
_chemical_formula_sum "Si O2"
_cell_formula_units_Z 15
_cell_length_a 20.191402
_cell_length_b 5.579780
_cell_length_c 5.297476
_cell_angle_alpha 97.817202
_cell_angle_beta 102.466907
_cell_angle_gamma 100.475002
_cell_volume 563.420158
_symmetry_space_group_name_H-M "P -1"
_symmetry_group_IT_number 2
_symmetry_cell_setting 'triclinic'
loop_
_space_group_symop_operation_xyz
x,y,z
-x,-y,-z
loop_
_atom_site_type_symbol
_atom_site_label
_atom_site_fract_x
_atom_site_fract_y
_atom_site_fract_z
Si Si1 0.579692 0.646493 0.063767
Si Si2 0.878976 0.472385 0.715522
Si Si3 0.543868 0.790716 0.556854
Si Si4 0.190883 0.233272 0.691204
Si Si5 0.265298 0.888011 0.458640
Si Si6 0.943699 0.144191 0.372043
Si Si7 0.304650 0.655453 0.980872
Si Si8 0.000000 0.500000 0.000000
O O1 0.594282 0.781956 0.361664
O O2 0.628443 0.461636 0.011467
O O3 0.500000 0.500000 0.000000
O O4 0.579773 0.835345 0.863623
O O5 0.855116 0.638244 0.510049
O O6 0.812832 0.264048 0.693598
O O7 0.940256 0.342619 0.632236
O O8 0.925848 0.612315 0.992980
O O9 0.500000 0.500000 0.500000
O O10 0.500000 0.000000 0.500000
O O11 0.238052 0.427431 0.942994
O O12 0.249833 0.151396 0.554560
O O13 0.137188 0.001142 0.729289
O O14 0.288916 0.777443 0.721942
O O15 0.308454 0.833293 0.248132
O O16 0.966266 0.270273 0.143850
O O17 0.000000 0.000000 0.500000
#
# Coordination Sequence:
#
# PCOD9017120 Si02
#       8
#     2   2   2   2   2   2   2   1
#     4  10  22  44  73 109 148 194 243 315 381 454
#     4  10  24  43  66  99 144 180 246 311 359 460
#     4  10  21  42  71 107 152 196 242 307 381 457
#     4  10  24  49  70 101 147 192 248 312 378 442
#     4  10  25  45  71 102 143 199 245 311 371 449
#     4  11  24  45  65 107 140 184 246 306 380 448
#     4  11  24  49  73 105 150 191 259 306 373 455
#     4  12  24  40  72 100 138 190 234 310 376 446
#
# _framework density 26.623117000000001
#
# number of rings (size 3 to 8) (size 9 to 14) (size 15 to 20)
#    0.000    1.600    1.333    1.600    5.600    2.667 
#   19.200    0.000    0.000    0.000    0.000    0.000 
#    0.000    0.000    0.000    0.000    0.000    0.000 
#
# Total GULP energy -83872.647455 kJ/mol
# GULP energy per Si atom -5591.509830 kJ/mol
# Density = 2.656252 g / cm^3
# Si number density = 26.623117 Si / 1000 Ang^3
#
#
#
# Elastic Constant Matrix: (Units=GPa)
#
#
# Indices 1 2 3 4 5 6 
#
# 1 137.9884 66.3160 51.3518 -0.1293 7.5398 -27.9920
# 2 66.3160 114.9663 56.0992 2.3650 -11.6095 -18.3739
# 3 51.3518 56.0992 176.8713 -0.5373 -19.0257 -16.9085
# 4 -0.1293 2.3650 -0.5373 46.0629 0.4002 3.2879
# 5 7.5398 -11.6095 -19.0257 0.4002 42.9702 8.2998
# 6 -27.9920 -18.3739 -16.9085 3.2879 8.2998 75.7573
#
#
#
# Elastic Compliance Matrix: (Units=1/GPa)
#
#
# Indices 1 2 3 4 5 6 
#
# 1 0.011599 -0.005858 -0.001757 0.000141 -0.004979 0.003012
# 2 -0.005858 0.013575 -0.002185 -0.000790 0.003683 0.000271
# 3 -0.001757 -0.002185 0.007176 0.000159 0.002874 0.000101
# 4 0.000141 -0.000790 0.000159 0.021827 -0.000172 -0.001033
# 5 -0.004979 0.003683 0.002874 -0.000172 0.027045 -0.003260
# 6 0.003012 0.000271 0.000101 -0.001033 -0.003260 0.014803
#
#
# Mechanical properties :
#
#
# Convention : Reuss Voigt Hill
#
# Bulk Modulus (GPa) = 78.42694 86.37334 82.40014
# Shear Modulus (GPa) = 41.70978 50.02870 45.86924
#
# Velocity S-wave (km/s) = 3.96242 4.33961 4.15530
# Velocity P-wave (km/s) = 7.10328 7.59099 7.35118
#
# Compressibility (1/GPa) = 0.01275072
#
# Stress axis : x y z
#
# Youngs Moduli (GPa) = 86.21241 73.66529 139.34705
#
# Poissons Ratio (x) = 0.43151 0.24482
# Poissons Ratio (y) = 0.50501 0.30451
# Poissons Ratio (z) = 0.15147 0.16098
#
# Static dielectric constant tensor:
#      x y z
#    x 3.303310 -0.677230 4.989130 
#    y -0.677230 1.027460 -0.675590 
#    z 4.989130 -0.675590 19.794960 
# 
# From -- ./inp_files/114660.got.cif
#   From: 2010.05.17/outbox.cif.g08.bks.cpg/sg2_58_cif.got.tgz:114660.got - 2010.06.03 11:33:40.
