data_PCOD9017932
_publ_section_title
;
Structure prediction by ZEFSAII (Michael W. Deem and Ramdas Pophale) SiO2 
 PCOD9017932
Probable space group: P -1
;
_chemical_formula_sum "Si O2"
_cell_formula_units_Z 14
_cell_length_a 9.834311
_cell_length_b 16.841959
_cell_length_c 11.968830
_cell_angle_alpha 28.286372
_cell_angle_beta 133.077969
_cell_angle_gamma 119.056254
_cell_volume 646.651698
_symmetry_space_group_name_H-M "P -1"
_symmetry_group_IT_number 2
_symmetry_cell_setting 'triclinic'
loop_
_space_group_symop_operation_xyz
x,y,z
-x,-y,-z
loop_
_atom_site_type_symbol
_atom_site_label
_atom_site_fract_x
_atom_site_fract_y
_atom_site_fract_z
Si Si1 0.045016 0.849693 0.620578
Si Si2 0.383588 0.146782 0.593639
Si Si3 0.460184 0.166748 0.357298
Si Si4 0.248736 0.197186 0.781456
Si Si5 0.835397 0.688978 0.163022
Si Si6 0.108208 0.940887 0.296508
Si Si7 0.208049 0.463158 0.229150
O O1 0.821499 0.852967 0.468295
O O2 0.126351 0.893079 0.496665
O O3 0.000000 0.000000 0.500000
O O4 0.195931 0.666530 0.980976
O O5 0.367613 0.154445 0.440716
O O6 0.385561 0.333966 0.413769
O O7 0.562311 0.970004 0.940285
O O8 0.679807 0.166659 0.505014
O O9 0.500000 0.000000 0.500000
O O10 0.308755 0.317341 0.011773
O O11 0.275862 0.255732 0.849827
O O12 0.210383 0.363068 0.470917
O O13 0.064283 0.123699 0.767951
O O14 0.000000 0.500000 0.500000
O O15 0.922889 0.849799 0.990297
O O16 0.000000 0.500000 0.000000
#
# Coordination Sequence:
#
# PCOD9017932 Si02
#       7
#     2   2   2   2   2   2   2
#     4  11  24  42  70  92 134 177 224 269 332 402
#     4  11  22  43  70  94 136 179 220 274 335 393
#     4  10  21  43  67  94 135 178 216 270 345 389
#     4  12  23  44  69  99 137 173 228 277 327 397
#     4  11  26  42  68 100 137 175 220 277 340 390
#     4  11  23  44  68  97 132 175 227 267 335 400
#     4  10  23  42  65  97 129 180 218 270 336 391
#
# _framework density 21.649985999999998
#
# number of rings (size 3 to 8) (size 9 to 14) (size 15 to 20)
#    0.000    1.143    5.714    2.571    6.000    0.000 
#    2.571    2.143    0.000    0.000    0.000    0.000 
#    0.000    0.000    0.000    0.000    0.000    0.000 
#
# Total GULP energy -78136.384173 kJ/mol
# GULP energy per Si atom -5581.170298 kJ/mol
# Density = 2.160071 g / cm^3
# Si number density = 21.649986 Si / 1000 Ang^3
#
#
#
# Elastic Constant Matrix: (Units=GPa)
#
#
# Indices 1 2 3 4 5 6 
#
# 1 91.9435 4.8192 38.9213 -6.1652 -19.1739 -11.9945
# 2 4.8192 37.1647 19.6376 -9.3402 -15.3408 -7.7639
# 3 38.9213 19.6376 185.0400 -18.0004 -17.9844 5.6832
# 4 -6.1652 -9.3402 -18.0004 37.0162 -6.7582 4.4233
# 5 -19.1739 -15.3408 -17.9844 -6.7582 35.9849 8.6411
# 6 -11.9945 -7.7639 5.6832 4.4233 8.6411 21.0147
#
#
#
# Elastic Compliance Matrix: (Units=1/GPa)
#
#
# Indices 1 2 3 4 5 6 
#
# 1 0.014412 0.004699 -0.002816 0.002628 0.007019 0.007284
# 2 0.004699 0.040038 -0.002477 0.012157 0.018724 0.007886
# 3 -0.002816 -0.002477 0.007153 0.003781 0.003317 -0.006617
# 4 0.002628 0.012157 0.003781 0.036819 0.017814 -0.010106
# 5 0.007019 0.018724 0.003317 0.017814 0.047720 -0.013345
# 6 0.007284 0.007886 -0.006617 -0.010106 -0.013345 0.064061
#
#
# Mechanical properties :
#
#
# Convention : Reuss Voigt Hill
#
# Bulk Modulus (GPa) = 16.55240 48.98937 32.77089
# Shear Modulus (GPa) = 21.59552 35.52118 28.55835
#
# Velocity S-wave (km/s) = 3.16172 4.05495 3.63587
# Velocity P-wave (km/s) = 4.58156 6.67836 5.72675
#
# Compressibility (1/GPa) = 0.06041419
#
# Stress axis : x y z
#
# Youngs Moduli (GPa) = 69.38521 24.97612 139.80466
#
# Poissons Ratio (x) = -0.11735 0.39369
# Poissons Ratio (y) = -0.32602 0.34633
# Poissons Ratio (z) = 0.19539 0.06187
#
# Static dielectric constant tensor:
#      x y z
#    x 1.316810 -0.630950 0.132850 
#    y -0.630950 0.927080 0.209230 
#    z 0.132850 0.209230 1.763320 
# 
# From -- ./inp_files/216706.got.cif
#   From: 2010.05.17/outbox.cif.g08.bks.cpg/sg2_109_cif.got.tgz:216706.got - 2010.06.03 11:33:40.
