data_PCOD9017855
_publ_section_title
;
Structure prediction by ZEFSAII (Michael W. Deem and Ramdas Pophale) SiO2 
 PCOD9017855
Probable space group: P -1
;
_chemical_formula_sum "Si O2"
_cell_formula_units_Z 16
_cell_length_a 9.197541
_cell_length_b 5.660746
_cell_length_c 13.920801
_cell_angle_alpha 112.714205
_cell_angle_beta 86.646304
_cell_angle_gamma 96.611686
_cell_volume 664.048622
_symmetry_space_group_name_H-M "P -1"
_symmetry_group_IT_number 2
_symmetry_cell_setting 'triclinic'
loop_
_space_group_symop_operation_xyz
x,y,z
-x,-y,-z
loop_
_atom_site_type_symbol
_atom_site_label
_atom_site_fract_x
_atom_site_fract_y
_atom_site_fract_z
Si Si1 0.201783 0.021198 0.420903
Si Si2 0.897774 0.835108 0.901015
Si Si3 0.308651 0.511741 0.619637
Si Si4 0.998869 0.666019 0.124306
Si Si5 0.667792 0.683639 0.194352
Si Si6 0.912247 0.234824 0.432694
Si Si7 0.450170 0.106828 0.284973
Si Si8 0.567703 0.763222 0.911758
O O1 0.260804 0.291979 0.510362
O O2 0.035686 0.036257 0.391424
O O3 0.191609 0.836131 0.483600
O O4 0.315967 0.966635 0.326740
O O5 0.734845 0.765188 0.939249
O O6 0.953160 0.551894 0.836395
O O7 0.906898 0.055683 0.851142
O O8 0.000000 0.000000 0.000000
O O9 0.314629 0.396906 0.707704
O O10 0.185907 0.712536 0.645681
O O11 0.467221 0.661167 0.621186
O O12 0.831788 0.716946 0.155432
O O13 0.000000 0.500000 0.000000
O O14 0.576432 0.925526 0.231466
O O15 0.558878 0.470185 0.109699
O O16 0.000000 0.500000 0.500000
O O17 0.407998 0.208712 0.199543
O O18 0.500000 0.000000 0.000000
#
# Coordination Sequence:
#
# PCOD9017855 Si02
#       8
#     2   2   2   2   2   2   2   2
#     4  10  21  43  67 100 136 180 223 284 355 418
#     4  10  23  44  71 103 132 188 237 296 357 429
#     4  10  22  42  68  99 131 183 222 287 347 426
#     4  10  23  43  71  98 138 182 240 294 357 425
#     4  11  26  43  69 102 137 184 238 296 357 430
#     4   9  20  39  68  95 135 177 227 280 342 416
#     4  11  26  42  67 102 138 175 236 287 354 430
#     4  11  26  46  70  98 140 187 235 297 362 428
#
# _framework density 24.094619999999999
#
# number of rings (size 3 to 8) (size 9 to 14) (size 15 to 20)
#    0.000    1.750    0.000    2.625    8.750    7.500 
#    6.750    0.000    0.000    0.000    0.000    0.000 
#    0.000    0.000    0.000    0.000    0.000    0.000 
#
# Total GULP energy -89388.604626 kJ/mol
# GULP energy per Si atom -5586.787789 kJ/mol
# Density = 2.403978 g / cm^3
# Si number density = 24.094620 Si / 1000 Ang^3
#
#
#
# Elastic Constant Matrix: (Units=GPa)
#
#
# Indices 1 2 3 4 5 6 
#
# 1 106.4052 4.1376 15.6742 0.0990 -2.2737 18.3223
# 2 4.1376 98.5188 -5.7582 7.6679 -1.9753 10.1839
# 3 15.6742 -5.7582 34.7090 15.0027 -2.9941 5.6972
# 4 0.0990 7.6679 15.0027 20.5789 5.3742 4.9164
# 5 -2.2737 -1.9753 -2.9941 5.3742 47.1576 -9.2341
# 6 18.3223 10.1839 5.6972 4.9164 -9.2341 40.5243
#
#
#
# Elastic Compliance Matrix: (Units=1/GPa)
#
#
# Indices 1 2 3 4 5 6 
#
# 1 0.011488 -0.001088 -0.008163 0.008050 -0.001944 -0.005192
# 2 -0.001088 0.011542 0.006843 -0.009234 0.001546 -0.001898
# 3 -0.008163 0.006843 0.053035 -0.043853 0.008610 0.001797
# 4 0.008050 -0.009234 -0.043853 0.090126 -0.014911 -0.009486
# 5 -0.001944 0.001546 0.008610 -0.014911 0.024740 0.006726
# 6 -0.005192 -0.001898 0.001797 -0.009486 0.006726 0.029932
#
#
# Mechanical properties :
#
#
# Convention : Reuss Voigt Hill
#
# Bulk Modulus (GPa) = 14.03567 29.74892 21.89229
# Shear Modulus (GPa) = 20.04576 36.69080 28.36828
#
# Velocity S-wave (km/s) = 2.88750 3.90651 3.43500
# Velocity P-wave (km/s) = 4.11762 5.72025 4.98378
#
# Compressibility (1/GPa) = 0.07124704
#
# Stress axis : x y z
#
# Youngs Moduli (GPa) = 87.04789 86.64104 18.85540
#
# Poissons Ratio (x) = 0.09430 0.15392
# Poissons Ratio (y) = 0.09474 -0.12902
# Poissons Ratio (z) = 0.71059 -0.59285
#
# Static dielectric constant tensor:
#      x y z
#    x 1.936320 -0.026330 0.041640 
#    y -0.026330 2.173230 -0.001470 
#    z 0.041640 -0.001470 1.936090 
# 
# From -- ./inp_files/116993.got.cif
#   From: 2010.05.17/outbox.cif.g08.bks.cpg/sg2_59_cif.got.tgz:116993.got - 2010.06.03 11:33:40.
