data_PCOD9017053
_publ_section_title
;
Structure prediction by ZEFSAII (Michael W. Deem and Ramdas Pophale) SiO2 
 PCOD9017053
Probable space group: P -1
;
_chemical_formula_sum "Si O2"
_cell_formula_units_Z 16
_cell_length_a 15.893440
_cell_length_b 8.583146
_cell_length_c 9.387220
_cell_angle_alpha 97.891959
_cell_angle_beta 117.591010
_cell_angle_gamma 129.007596
_cell_volume 690.084988
_symmetry_space_group_name_H-M "P -1"
_symmetry_group_IT_number 2
_symmetry_cell_setting 'triclinic'
loop_
_space_group_symop_operation_xyz
x,y,z
-x,-y,-z
loop_
_atom_site_type_symbol
_atom_site_label
_atom_site_fract_x
_atom_site_fract_y
_atom_site_fract_z
Si Si1 0.400823 0.499655 0.509412
Si Si2 0.414136 0.602033 0.020035
Si Si3 0.641220 0.827318 0.985797
Si Si4 0.938642 0.025850 0.827235
Si Si5 0.090650 0.603784 0.835663
Si Si6 0.179961 0.784253 0.232387
Si Si7 0.479405 0.812921 0.382109
Si Si8 0.906925 0.738921 0.314837
O O1 0.500000 0.500000 0.500000
O O2 0.520384 0.711887 0.750425
O O3 0.231647 0.239536 0.402346
O O4 0.362955 0.569297 0.361129
O O5 0.370123 0.377240 0.031529
O O6 0.433343 0.753857 0.177000
O O7 0.567136 0.787441 0.070622
O O8 0.267702 0.462466 0.797602
O O9 0.806258 0.124208 0.121581
O O10 0.902547 0.157779 0.861829
O O11 0.061335 0.180749 0.816063
O O12 0.000000 0.000000 0.000000
O O13 0.069739 0.421702 0.695757
O O14 0.920540 0.420156 0.743082
O O15 0.179416 0.691137 0.069684
O O16 0.350280 0.040713 0.454306
O O17 0.500000 0.000000 0.500000
O O18 0.000000 0.000000 0.500000
#
# Coordination Sequence:
#
# PCOD9017053 Si02
#       8
#     2   2   2   2   2   2   2   2
#     4  12  21  41  70  96 133 178 226 278 340 397
#     4  11  25  43  68  97 137 169 233 282 335 411
#     4  11  23  43  69  97 130 184 222 281 346 399
#     4  11  23  39  70 101 130 176 230 278 340 401
#     4  10  22  41  70  93 130 182 219 268 346 399
#     4  10  21  42  70  98 138 173 224 284 339 398
#     4  12  24  42  67 103 135 173 228 286 338 404
#     4  11  25  45  63  93 136 178 221 278 340 407
#
# _framework density 23.185549000000002
#
# number of rings (size 3 to 8) (size 9 to 14) (size 15 to 20)
#    0.000    1.000    3.750    2.250    1.750    5.500 
#    2.250    1.250    0.000    0.000    0.000    0.000 
#    0.000    0.000    0.000    0.000    0.000    0.000 
#
# Total GULP energy -89198.711783 kJ/mol
# GULP energy per Si atom -5574.919486 kJ/mol
# Density = 2.313278 g / cm^3
# Si number density = 23.185549 Si / 1000 Ang^3
#
#
#
# Elastic Constant Matrix: (Units=GPa)
#
#
# Indices 1 2 3 4 5 6 
#
# 1 89.6965 32.1257 22.5978 1.7734 -20.6147 6.3913
# 2 32.1257 116.2191 3.3783 17.1522 -7.6718 21.0595
# 3 22.5978 3.3783 58.2632 14.4604 -20.4540 -10.8829
# 4 1.7734 17.1522 14.4604 30.6352 2.8702 3.9382
# 5 -20.6147 -7.6718 -20.4540 2.8702 41.8865 9.4040
# 6 6.3913 21.0595 -10.8829 3.9382 9.4040 18.3891
#
#
#
# Elastic Compliance Matrix: (Units=1/GPa)
#
#
# Indices 1 2 3 4 5 6 
#
# 1 0.015915 -0.002494 -0.007119 0.004681 0.006044 -0.010981
# 2 -0.002494 0.013349 0.000786 -0.006232 0.005493 -0.015430
# 3 -0.007119 0.000786 0.030985 -0.017949 0.008662 0.019326
# 4 0.004681 -0.006232 -0.017949 0.046504 -0.008366 -0.010794
# 5 0.006044 0.005493 0.008662 -0.008366 0.037267 -0.020531
# 6 -0.010981 -0.015430 0.019326 -0.010794 -0.020531 0.100115
#
#
# Mechanical properties :
#
#
# Convention : Reuss Voigt Hill
#
# Bulk Modulus (GPa) = 23.47747 42.26470 32.87109
# Shear Modulus (GPa) = 18.11677 31.92063 25.01870
#
# Velocity S-wave (km/s) = 2.79835 3.71448 3.28848
# Velocity P-wave (km/s) = 4.53750 6.05516 5.35042
#
# Compressibility (1/GPa) = 0.04259402
#
# Stress axis : x y z
#
# Youngs Moduli (GPa) = 62.83536 74.91016 32.27410
#
# Poissons Ratio (x) = 0.18684 0.22977
# Poissons Ratio (y) = 0.15673 -0.02537
# Poissons Ratio (z) = 0.44734 -0.05889
#
# Static dielectric constant tensor:
#      x y z
#    x 1.944240 -0.065920 0.035510 
#    y -0.065920 1.901850 0.017180 
#    z 0.035510 0.017180 1.896140 
# 
# From -- ./inp_files/298899.got.cif
#   From: 2010.05.17/outbox.cif.g08.bks.cpg/sg2_150_cif.got.tgz:298899.got - 2010.06.03 11:33:40.
