data_PCOD9017031
_publ_section_title
;
Structure prediction by ZEFSAII (Michael W. Deem and Ramdas Pophale) SiO2 
 PCOD9017031
Probable space group: P -1
;
_chemical_formula_sum "Si O2"
_cell_formula_units_Z 16
_cell_length_a 9.047960
_cell_length_b 12.037387
_cell_length_c 21.879288
_cell_angle_alpha 28.839850
_cell_angle_beta 130.973557
_cell_angle_gamma 141.774715
_cell_volume 707.015044
_symmetry_space_group_name_H-M "P -1"
_symmetry_group_IT_number 2
_symmetry_cell_setting 'triclinic'
loop_
_space_group_symop_operation_xyz
x,y,z
-x,-y,-z
loop_
_atom_site_type_symbol
_atom_site_label
_atom_site_fract_x
_atom_site_fract_y
_atom_site_fract_z
Si Si1 0.873515 0.320012 0.737905
Si Si2 0.739818 0.660564 0.624054
Si Si3 0.429569 0.305556 0.014877
Si Si4 0.356329 0.567466 0.475654
Si Si5 0.899971 0.958979 0.635861
Si Si6 0.578864 0.823090 0.140507
Si Si7 0.604783 0.448647 0.239344
Si Si8 0.832914 0.222525 0.126864
O O1 0.803937 0.482565 0.686158
O O2 0.708614 0.245383 0.668693
O O3 0.158233 0.544057 0.697234
O O4 0.809133 0.018507 0.889256
O O5 0.532762 0.674370 0.529760
O O6 0.917600 0.951287 0.569554
O O7 0.639876 0.465764 0.751289
O O8 0.626131 0.239891 0.089343
O O9 0.500000 0.500000 0.000000
O O10 0.435606 0.481922 0.873433
O O11 0.500000 0.500000 0.500000
O O12 0.093460 0.282196 0.553515
O O13 0.639722 0.815059 0.668047
O O14 0.021474 0.812340 0.766470
O O15 0.685900 0.727266 0.166113
O O16 0.733665 0.980448 0.166047
O O17 0.500000 0.000000 0.000000
O O18 0.000000 0.500000 0.000000
#
# Coordination Sequence:
#
# PCOD9017031 Si02
#       8
#     2   2   2   2   2   2   2   2
#     4  11  24  44  64  96 140 179 223 276 347 398
#     4  10  21  42  70  97 129 178 224 280 330 397
#     4  12  26  43  64 102 141 176 224 281 344 404
#     4  10  22  45  71  97 136 174 232 278 328 410
#     4  11  23  42  71 104 132 172 236 273 333 404
#     4  11  19  39  66  92 131 171 228 274 330 394
#     4  11  25  42  64 100 136 179 219 281 344 396
#     4  12  21  38  68  98 128 176 224 276 331 395
#
# _framework density 22.630352999999999
#
# number of rings (size 3 to 8) (size 9 to 14) (size 15 to 20)
#    0.000    1.000    5.000    1.875    3.500    2.500 
#    2.250    2.500    0.000    0.000    0.000    0.000 
#    0.000    0.000    0.000    0.000    0.000    0.000 
#
# Total GULP energy -89265.593582 kJ/mol
# GULP energy per Si atom -5579.099599 kJ/mol
# Density = 2.257885 g / cm^3
# Si number density = 22.630353 Si / 1000 Ang^3
#
#
#
# Elastic Constant Matrix: (Units=GPa)
#
#
# Indices 1 2 3 4 5 6 
#
# 1 99.0524 43.2709 7.9769 10.3367 -2.1128 1.0035
# 2 43.2709 135.4876 13.2598 27.6134 -1.1562 -17.5108
# 3 7.9769 13.2598 67.1083 16.3951 -1.2568 -3.7948
# 4 10.3367 27.6134 16.3951 49.7082 6.0749 -6.4422
# 5 -2.1128 -1.1562 -1.2568 6.0749 15.0666 1.4228
# 6 1.0035 -17.5108 -3.7948 -6.4422 1.4228 49.1997
#
#
#
# Elastic Compliance Matrix: (Units=1/GPa)
#
#
# Indices 1 2 3 4 5 6 
#
# 1 0.011943 -0.003852 -0.000581 -0.000596 0.001740 -0.001788
# 2 -0.003852 0.009943 -0.000212 -0.004480 0.001731 0.002964
# 3 -0.000581 -0.000212 0.016459 -0.005567 0.003484 0.000376
# 4 -0.000596 -0.004480 -0.005567 0.026215 -0.011628 0.001757
# 5 0.001740 0.001731 0.003484 -0.011628 0.071988 -0.002755
# 6 -0.001788 0.002964 0.000376 0.001757 -0.002755 0.021756
#
#
# Mechanical properties :
#
#
# Convention : Reuss Voigt Hill
#
# Bulk Modulus (GPa) = 34.41965 47.85150 41.13557
# Shear Modulus (GPa) = 28.20434 38.60428 33.40431
#
# Velocity S-wave (km/s) = 3.53414 4.13469 3.84615
# Velocity P-wave (km/s) = 5.64765 6.63211 6.15958
#
# Compressibility (1/GPa) = 0.02905317
#
# Stress axis : x y z
#
# Youngs Moduli (GPa) = 83.73364 100.57745 60.75749
#
# Poissons Ratio (x) = 0.38742 0.03532
# Poissons Ratio (y) = 0.32254 0.01289
# Poissons Ratio (z) = 0.04868 0.02134
#
# Static dielectric constant tensor:
#      x y z
#    x 1.859740 0.121110 -0.097480 
#    y 0.121110 1.657380 -0.038110 
#    z -0.097480 -0.038110 1.984820 
# 
# From -- ./inp_files/589398.got.cif
#   From: 2010.05.17/outbox.cif.g08.bks.cpg/sg2_295_cif.got.tgz:589398.got - 2010.06.03 11:33:40.
