data_PCOD9017378
_publ_section_title
;
Structure prediction by ZEFSAII (Michael W. Deem and Ramdas Pophale) SiO2 
 PCOD9017378
Probable space group: P -1
;
_chemical_formula_sum "Si O2"
_cell_formula_units_Z 16
_cell_length_a 9.509946
_cell_length_b 8.084497
_cell_length_c 13.704439
_cell_angle_alpha 121.415144
_cell_angle_beta 113.408967
_cell_angle_gamma 103.343034
_cell_volume 684.162588
_symmetry_space_group_name_H-M "P -1"
_symmetry_group_IT_number 2
_symmetry_cell_setting 'triclinic'
loop_
_space_group_symop_operation_xyz
x,y,z
-x,-y,-z
loop_
_atom_site_type_symbol
_atom_site_label
_atom_site_fract_x
_atom_site_fract_y
_atom_site_fract_z
Si Si1 0.301571 0.649584 0.422778
Si Si2 0.772525 0.204791 0.355310
Si Si3 0.717399 0.011867 0.617391
Si Si4 0.196828 0.247509 0.136784
Si Si5 0.564293 0.326977 0.199695
Si Si6 0.489444 0.719735 0.054800
Si Si7 0.103948 0.184239 0.498104
Si Si8 0.787040 0.390158 0.900322
O O1 0.283017 0.684287 0.541221
O O2 0.237949 0.802565 0.398924
O O3 0.199110 0.387043 0.275621
O O4 0.512769 0.779123 0.485305
O O5 0.698366 0.252278 0.251719
O O6 0.977632 0.271943 0.452020
O O7 0.646126 0.923222 0.229441
O O8 0.710015 0.146011 0.749779
O O9 0.858666 0.937516 0.618169
O O10 0.373185 0.228290 0.175451
O O11 0.234307 0.429196 0.114610
O O12 0.000000 0.000000 0.000000
O O13 0.508360 0.243140 0.048016
O O14 0.699598 0.606277 0.339936
O O15 0.500000 0.500000 0.000000
O O16 0.299981 0.652934 0.031173
O O17 0.000000 0.000000 0.500000
O O18 0.000000 0.500000 0.000000
#
# Coordination Sequence:
#
# PCOD9017378 Si02
#       8
#     2   2   2   2   2   2   2   2
#     4  10  21  45  76 104 144 193 248 314 368 445
#     4  12  27  48  72 113 155 199 250 312 392 452
#     4  10  21  42  77 107 141 185 257 318 361 436
#     4  11  26  49  75 113 155 200 249 310 395 464
#     4  12  28  50  72 112 159 202 248 322 387 455
#     4  12  26  49  79 104 150 204 259 315 376 449
#     4  12  25  46  79 111 147 200 258 314 376 456
#     4  11  26  45  75 112 143 193 263 315 374 451
#
# _framework density 23.386251999999999
#
# number of rings (size 3 to 8) (size 9 to 14) (size 15 to 20)
#    0.000    0.750    5.000    1.500    5.250    0.500 
#    6.750    0.000    0.000    0.000    0.000    0.000 
#    0.000    0.000    0.000    0.000    0.000    0.000 
#
# Total GULP energy -89474.285653 kJ/mol
# GULP energy per Si atom -5592.142853 kJ/mol
# Density = 2.333302 g / cm^3
# Si number density = 23.386252 Si / 1000 Ang^3
#
#
#
# Elastic Constant Matrix: (Units=GPa)
#
#
# Indices 1 2 3 4 5 6 
#
# 1 122.8057 30.1112 52.4346 4.1909 0.1378 -8.0062
# 2 30.1112 59.8741 34.2230 0.2182 -8.9351 -9.5658
# 3 52.4346 34.2230 152.2054 24.1531 -4.2114 12.3258
# 4 4.1909 0.2182 24.1531 45.2497 4.9855 8.6705
# 5 0.1378 -8.9351 -4.2114 4.9855 46.2327 -5.7858
# 6 -8.0062 -9.5658 12.3258 8.6705 -5.7858 25.7878
#
#
#
# Elastic Compliance Matrix: (Units=1/GPa)
#
#
# Indices 1 2 3 4 5 6 
#
# 1 0.010487 -0.002883 -0.003294 0.000160 -0.000455 0.003605
# 2 -0.002883 0.023786 -0.005151 0.000059 0.005585 0.011623
# 3 -0.003294 -0.005151 0.009965 -0.003674 -0.000505 -0.006574
# 4 0.000160 0.000059 -0.003674 0.025999 -0.004108 -0.007835
# 5 -0.000455 0.005585 -0.000505 -0.004108 0.024232 0.008989
# 6 0.003605 0.011623 -0.006574 -0.007835 0.008989 0.052002
#
#
# Mechanical properties :
#
#
# Convention : Reuss Voigt Hill
#
# Bulk Modulus (GPa) = 46.33964 63.15808 54.74886
# Shear Modulus (GPa) = 28.35723 37.99515 33.17619
#
# Velocity S-wave (km/s) = 3.48596 4.03510 3.77054
# Velocity P-wave (km/s) = 6.00504 6.98388 6.51287
#
# Compressibility (1/GPa) = 0.02157980
#
# Stress axis : x y z
#
# Youngs Moduli (GPa) = 95.36059 42.04115 100.35601
#
# Poissons Ratio (x) = 0.12122 0.33060
# Poissons Ratio (y) = 0.27496 0.51695
# Poissons Ratio (z) = 0.31414 0.21656
#
# Static dielectric constant tensor:
#      x y z
#    x 1.817000 -0.004480 0.038370 
#    y -0.004480 1.976570 0.063470 
#    z 0.038370 0.063470 1.910880 
# 
# From -- ./inp_files/495769.got.cif
#   From: 2010.05.17/outbox.cif.g08.bks.cpg/sg2_248_cif.got.tgz:495769.got - 2010.06.03 11:33:40.
