data_PCOD9017483
_publ_section_title
;
Structure prediction by ZEFSAII (Michael W. Deem and Ramdas Pophale) SiO2 
 PCOD9017483
Probable space group: P -1
;
_chemical_formula_sum "Si O2"
_cell_formula_units_Z 16
_cell_length_a 7.376707
_cell_length_b 9.265709
_cell_length_c 10.800275
_cell_angle_alpha 85.467750
_cell_angle_beta 114.960090
_cell_angle_gamma 75.848320
_cell_volume 634.855904
_symmetry_space_group_name_H-M "P -1"
_symmetry_group_IT_number 2
_symmetry_cell_setting 'triclinic'
loop_
_space_group_symop_operation_xyz
x,y,z
-x,-y,-z
loop_
_atom_site_type_symbol
_atom_site_label
_atom_site_fract_x
_atom_site_fract_y
_atom_site_fract_z
Si Si1 0.327373 0.574759 0.341087
Si Si2 0.202327 0.866122 0.419434
Si Si3 0.915640 0.526733 0.331383
Si Si4 0.696546 0.948272 0.761063
Si Si5 0.461283 0.297384 0.267394
Si Si6 0.323306 0.651444 0.892879
Si Si7 0.720510 0.043202 0.031206
Si Si8 0.770167 0.869207 0.297351
O O1 0.500000 0.500000 0.500000
O O2 0.268967 0.752362 0.327127
O O3 0.414020 0.477683 0.252570
O O4 0.118119 0.535280 0.315625
O O5 0.221691 0.016046 0.350371
O O6 0.386405 0.787951 0.574130
O O7 0.991770 0.856360 0.428882
O O8 0.825977 0.409148 0.238511
O O9 0.758295 0.700484 0.276284
O O10 0.000000 0.500000 0.500000
O O11 0.443310 0.039249 0.700617
O O12 0.730940 0.768241 0.782066
O O13 0.781973 0.986715 0.913542
O O14 0.570279 0.253739 0.172267
O O15 0.255414 0.786437 0.965820
O O16 0.500000 0.500000 0.000000
O O17 0.836383 0.943594 0.187152
O O18 0.500000 0.000000 0.000000
#
# Coordination Sequence:
#
# PCOD9017483 Si02
#       8
#     2   2   2   2   2   2   2   2
#     4   9  21  41  62  92 138 166 217 287 340 399
#     4  10  23  41  64 100 127 176 221 283 349 396
#     4  11  24  42  69 105 130 180 234 281 344 411
#     4  11  23  41  69  92 131 182 221 275 350 401
#     4  11  23  42  62  99 134 165 229 282 338 410
#     4  12  24  41  72 100 135 185 231 277 349 413
#     4  10  21  43  63  95 132 182 228 276 337 411
#     4  10  22  42  64  93 136 168 223 282 331 411
#
# _framework density 25.202566000000001
#
# number of rings (size 3 to 8) (size 9 to 14) (size 15 to 20)
#    0.000    1.500    2.500    4.125    7.000    2.000 
#    2.250    0.625    0.000    0.000    0.000    0.000 
#    0.000    0.000    0.000    0.000    0.000    0.000 
#
# Total GULP energy -89140.173704 kJ/mol
# GULP energy per Si atom -5571.260856 kJ/mol
# Density = 2.514520 g / cm^3
# Si number density = 25.202566 Si / 1000 Ang^3
#
#
#
# Elastic Constant Matrix: (Units=GPa)
#
#
# Indices 1 2 3 4 5 6 
#
# 1 67.2665 -2.5454 12.2546 4.8899 1.1845 0.9943
# 2 -2.5454 126.3892 34.0662 18.4212 17.7870 9.6779
# 3 12.2546 34.0662 82.5430 13.1267 -3.1382 8.1129
# 4 4.8899 18.4212 13.1267 32.5254 12.3175 -6.4042
# 5 1.1845 17.7870 -3.1382 12.3175 31.8539 0.0194
# 6 0.9943 9.6779 8.1129 -6.4042 0.0194 38.0060
#
#
#
# Elastic Compliance Matrix: (Units=1/GPa)
#
#
# Indices 1 2 3 4 5 6 
#
# 1 0.015554 0.001457 -0.002595 -0.001873 -0.000923 -0.000539
# 2 0.001457 0.010340 -0.003966 -0.003021 -0.005049 -0.002331
# 3 -0.002595 -0.003966 0.015826 -0.006913 0.006545 -0.003469
# 4 -0.001873 -0.003021 -0.006913 0.043365 -0.015699 0.009609
# 5 -0.000923 -0.005049 0.006545 -0.015699 0.040964 -0.002754
# 6 -0.000539 -0.002331 -0.003469 0.009609 -0.002754 0.029280
#
#
# Mechanical properties :
#
#
# Convention : Reuss Voigt Hill
#
# Bulk Modulus (GPa) = 31.73351 40.41662 36.07507
# Shear Modulus (GPa) = 28.40240 35.97194 32.18717
#
# Velocity S-wave (km/s) = 3.36067 3.78208 3.57758
# Velocity P-wave (km/s) = 5.26094 5.92821 5.60452
#
# Compressibility (1/GPa) = 0.03151243
#
# Stress axis : x y z
#
# Youngs Moduli (GPa) = 64.29031 96.71411 63.18735
#
# Poissons Ratio (x) = -0.14089 0.16395
# Poissons Ratio (y) = -0.09366 0.25060
# Poissons Ratio (z) = 0.16682 0.38356
#
# Static dielectric constant tensor:
#      x y z
#    x 1.971120 -0.029410 0.115830 
#    y -0.029410 2.089300 0.062830 
#    z 0.115830 0.062830 2.200100 
# 
# From -- ./inp_files/379291.got.cif
#   From: 2010.05.17/outbox.cif.g08.bks.cpg/sg2_190_cif.got.tgz:379291.got - 2010.06.03 11:33:40.
