data_PCOD9017557
_publ_section_title
;
Structure prediction by ZEFSAII (Michael W. Deem and Ramdas Pophale) SiO2 
 PCOD9017557
Probable space group: P -1
;
_chemical_formula_sum "Si O2"
_cell_formula_units_Z 14
_cell_length_a 12.632074
_cell_length_b 12.593136
_cell_length_c 7.292166
_cell_angle_alpha 38.829943
_cell_angle_beta 48.930313
_cell_angle_gamma 55.617292
_cell_volume 544.905328
_symmetry_space_group_name_H-M "P -1"
_symmetry_group_IT_number 2
_symmetry_cell_setting 'triclinic'
loop_
_space_group_symop_operation_xyz
x,y,z
-x,-y,-z
loop_
_atom_site_type_symbol
_atom_site_label
_atom_site_fract_x
_atom_site_fract_y
_atom_site_fract_z
Si Si1 0.810111 0.912676 0.591778
Si Si2 0.855057 0.603218 0.183431
Si Si3 0.591927 0.448775 0.285707
Si Si4 0.475070 0.902194 0.348014
Si Si5 0.874039 0.242597 0.199957
Si Si6 0.697814 0.712781 0.558781
Si Si7 0.005003 0.736707 0.361434
O O1 0.956046 0.894903 0.335864
O O2 0.667792 0.997492 0.541692
O O3 0.831273 0.054077 0.531507
O O4 0.785549 0.723089 0.939890
O O5 0.740336 0.607062 0.468393
O O6 0.935490 0.414136 0.363833
O O7 0.976618 0.720151 0.945790
O O8 0.500000 0.500000 0.500000
O O9 0.550165 0.288304 0.431196
O O10 0.754914 0.377994 0.239719
O O11 0.598204 0.613463 0.931917
O O12 0.609530 0.883363 0.353142
O O13 0.500000 0.000000 0.000000
O O14 0.890675 0.264128 0.929861
O O15 0.849992 0.716054 0.478632
#
# Coordination Sequence:
#
# PCOD9017557 Si02
#       7
#     2   2   2   2   2   2   2
#     4  11  24  39  64 102 133 169 218 262 325 390
#     4  11  20  41  71  91 132 174 211 274 316 386
#     4  11  24  44  69  93 129 173 224 267 315 399
#     4  11  25  44  65  93 136 175 210 268 328 381
#     4  10  21  43  64  95 132 168 213 270 333 367
#     4  11  22  44  68  93 133 172 221 262 329 380
#     4  11  22  41  70  97 128 171 218 271 315 392
#
# _framework density 25.692537000000002
#
# number of rings (size 3 to 8) (size 9 to 14) (size 15 to 20)
#    0.000    1.143    4.286    2.571    2.000    0.571 
#    2.571    0.000    0.000    0.000    0.000    0.000 
#    0.000    0.000    0.000    0.000    0.000    0.000 
#
# Total GULP energy -78227.694802 kJ/mol
# GULP energy per Si atom -5587.692486 kJ/mol
# Density = 2.563406 g / cm^3
# Si number density = 25.692537 Si / 1000 Ang^3
#
#
#
# Elastic Constant Matrix: (Units=GPa)
#
#
# Indices 1 2 3 4 5 6 
#
# 1 79.3615 36.4271 33.8305 -9.8635 16.1388 -25.4734
# 2 36.4271 191.3932 49.3582 5.3523 25.3848 -28.8637
# 3 33.8305 49.3582 117.9160 13.5176 23.8614 -6.9653
# 4 -9.8635 5.3523 13.5176 46.9968 -1.2756 6.7593
# 5 16.1388 25.3848 23.8614 -1.2756 34.6891 -1.8221
# 6 -25.4734 -28.8637 -6.9653 6.7593 -1.8221 43.3087
#
#
#
# Elastic Compliance Matrix: (Units=1/GPa)
#
#
# Indices 1 2 3 4 5 6 
#
# 1 0.019126 -0.000610 -0.004099 0.003777 -0.005000 0.009384
# 2 -0.000610 0.006848 -0.001636 -0.001102 -0.003434 0.003969
# 3 -0.004099 -0.001636 0.011789 -0.004034 -0.005216 -0.001195
# 4 0.003777 -0.001102 -0.004034 0.023825 0.002554 -0.002772
# 5 -0.005000 -0.003434 -0.005216 0.002554 0.037091 -0.004907
# 6 0.009384 0.003969 -0.001195 -0.002772 -0.004907 0.031289
#
#
# Mechanical properties :
#
#
# Convention : Reuss Voigt Hill
#
# Bulk Modulus (GPa) = 39.88324 69.76692 54.82508
# Shear Modulus (GPa) = 33.10939 42.93591 38.02265
#
# Velocity S-wave (km/s) = 3.59371 4.09240 3.85113
# Velocity P-wave (km/s) = 5.72509 7.03873 6.41562
#
# Compressibility (1/GPa) = 0.02507319
#
# Stress axis : x y z
#
# Youngs Moduli (GPa) = 52.28396 146.03552 84.82703
#
# Poissons Ratio (x) = 0.08915 0.34768
# Poissons Ratio (y) = 0.03192 0.13874
# Poissons Ratio (z) = 0.21430 0.23885
#
# Static dielectric constant tensor:
#      x y z
#    x 2.145160 0.012090 0.064210 
#    y 0.012090 2.047210 0.032020 
#    z 0.064210 0.032020 2.076460 
# 
# From -- ./inp_files/314377.got.cif
#   From: 2010.05.17/outbox.cif.g08.bks.cpg/sg2_158_cif.got.tgz:314377.got - 2010.06.03 11:33:40.
