data_PCOD9017713
_publ_section_title
;
Structure prediction by ZEFSAII (Michael W. Deem and Ramdas Pophale) SiO2 
 PCOD9017713
Probable space group: P -1
;
_chemical_formula_sum "Si O2"
_cell_formula_units_Z 13
_cell_length_a 10.308297
_cell_length_b 8.072074
_cell_length_c 11.528211
_cell_angle_alpha 119.293383
_cell_angle_beta 37.914163
_cell_angle_gamma 103.672068
_cell_volume 493.619633
_symmetry_space_group_name_H-M "P -1"
_symmetry_group_IT_number 2
_symmetry_cell_setting 'triclinic'
loop_
_space_group_symop_operation_xyz
x,y,z
-x,-y,-z
loop_
_atom_site_type_symbol
_atom_site_label
_atom_site_fract_x
_atom_site_fract_y
_atom_site_fract_z
Si Si1 0.387817 0.217435 0.704961
Si Si2 0.666980 0.186314 0.008161
Si Si3 0.694800 0.391067 0.413690
Si Si4 0.212452 0.152331 0.376387
Si Si5 0.000000 0.500000 0.500000
Si Si6 0.067192 0.313844 0.755066
Si Si7 0.125495 0.169032 0.091634
O O1 0.559903 0.344499 0.602909
O O2 0.177114 0.295924 0.796050
O O3 0.500000 0.000000 0.500000
O O4 0.304455 0.201137 0.886510
O O5 0.810346 0.338437 0.950452
O O6 0.706378 0.054094 0.818772
O O7 0.776566 0.038415 0.983698
O O8 0.409885 0.254558 0.243378
O O9 0.500000 0.500000 0.500000
O O10 0.855773 0.525375 0.316745
O O11 0.889987 0.185458 0.202549
O O12 0.172715 0.126524 0.531354
O O13 0.006052 0.310627 0.519765
O O14 0.920091 0.664621 0.717872
#
# Coordination Sequence:
#
# PCOD9017713 Si02
#       7
#     2   2   2   2   1   2   2
#     4  11  25  43  70 104 139 191 240 292 356 421
#     4  10  23  39  73  99 138 188 235 291 354 416
#     4  10  24  43  67 103 144 187 238 291 358 422
#     4  10  21  43  66 101 136 183 240 289 350 423
#     4  10  22  46  70 102 140 182 232 300 354 416
#     4  11  22  41  67  99 142 181 231 293 352 422
#     4  11  23  46  70 104 144 182 242 293 353 426
#
# _framework density 26.336067
#
# number of rings (size 3 to 8) (size 9 to 14) (size 15 to 20)
#    0.000    1.538    1.538    2.308    0.000    8.615 
#    0.000    6.154    0.000    0.000    0.000    0.000 
#    0.000    0.000    0.000    0.000    0.000    0.000 
#
# Total GULP energy -72396.639798 kJ/mol
# GULP energy per Si atom -5568.972292 kJ/mol
# Density = 2.627613 g / cm^3
# Si number density = 26.336067 Si / 1000 Ang^3
#
#
#
# Elastic Constant Matrix: (Units=GPa)
#
#
# Indices 1 2 3 4 5 6 
#
# 1 63.7853 22.1439 30.7919 -18.7474 22.6738 0.1083
# 2 22.1439 93.8724 54.9071 -31.2237 -3.9152 15.5384
# 3 30.7919 54.9071 161.6055 -30.9159 14.8059 20.2552
# 4 -18.7474 -31.2237 -30.9159 50.3210 7.6960 -7.4160
# 5 22.6738 -3.9152 14.8059 7.6960 51.8564 -11.7745
# 6 0.1083 15.5384 20.2552 -7.4160 -11.7745 38.4555
#
#
#
# Elastic Compliance Matrix: (Units=1/GPa)
#
#
# Indices 1 2 3 4 5 6 
#
# 1 0.023601 -0.002710 -0.000868 0.008284 -0.011613 -0.000472
# 2 -0.002710 0.015907 -0.003566 0.005967 0.001879 -0.002815
# 3 -0.000868 -0.003566 0.008963 0.002978 -0.003766 -0.003857
# 4 0.008284 0.005967 0.002978 0.029676 -0.008636 -0.000925
# 5 -0.011613 0.001879 -0.003766 -0.008636 0.028768 0.008400
# 6 -0.000472 -0.002815 -0.003857 -0.000925 0.008400 0.031568
#
#
# Mechanical properties :
#
#
# Convention : Reuss Voigt Hill
#
# Bulk Modulus (GPa) = 29.25451 59.43878 44.34664
# Shear Modulus (GPa) = 30.45694 42.22126 36.33910
#
# Velocity S-wave (km/s) = 3.40438 4.00831 3.71863
# Velocity P-wave (km/s) = 5.15610 6.63629 5.94246
#
# Compressibility (1/GPa) = 0.03418277
#
# Stress axis : x y z
#
# Youngs Moduli (GPa) = 42.37052 62.86506 111.56876
#
# Poissons Ratio (x) = 0.17038 0.09686
# Poissons Ratio (y) = 0.11484 0.39784
# Poissons Ratio (z) = 0.03678 0.22417
#
# Static dielectric constant tensor:
#      x y z
#    x 2.009320 -0.040110 -0.076680 
#    y -0.040110 2.158300 0.122060 
#    z -0.076680 0.122060 2.050220 
# 
# From -- ./inp_files/59959.got.cif
#   From: 2010.05.17/outbox.cif.g08.bks.cpg/sg2_30_cif.got.tgz:59959.got - 2010.06.03 11:33:40.
