data_PCOD9017066
_publ_section_title
;
Structure prediction by ZEFSAII (Michael W. Deem and Ramdas Pophale) SiO2 
 PCOD9017066
Probable space group: P -1
;
_chemical_formula_sum "Si O2"
_cell_formula_units_Z 14
_cell_length_a 11.816199
_cell_length_b 8.019578
_cell_length_c 11.071027
_cell_angle_alpha 118.458535
_cell_angle_beta 107.933331
_cell_angle_gamma 36.832177
_cell_volume 547.509358
_symmetry_space_group_name_H-M "P -1"
_symmetry_group_IT_number 2
_symmetry_cell_setting 'triclinic'
loop_
_space_group_symop_operation_xyz
x,y,z
-x,-y,-z
loop_
_atom_site_type_symbol
_atom_site_label
_atom_site_fract_x
_atom_site_fract_y
_atom_site_fract_z
Si Si1 0.824658 0.777702 0.862942
Si Si2 0.560068 0.634033 0.698352
Si Si3 0.131722 0.476553 0.460595
Si Si4 0.743624 0.701421 0.070229
Si Si5 0.623961 0.501004 0.394927
Si Si6 0.964175 0.037254 0.665242
Si Si7 0.185311 0.814518 0.074861
O O1 0.794043 0.717471 0.701660
O O2 0.761006 0.757608 0.958805
O O3 0.729497 0.104357 0.929263
O O4 0.054116 0.516467 0.870413
O O5 0.421302 0.970602 0.810182
O O6 0.543574 0.630532 0.547715
O O7 0.517873 0.481845 0.696918
O O8 0.783875 0.388541 0.702710
O O9 0.295417 0.384383 0.562129
O O10 0.000000 0.500000 0.500000
O O11 0.991536 0.830314 0.509663
O O12 0.705670 0.521973 0.996583
O O13 0.825887 0.137255 0.320481
O O14 0.908813 0.018830 0.769683
O O15 0.000000 0.000000 0.000000
#
# Coordination Sequence:
#
# PCOD9017066 Si02
#       7
#     2   2   2   2   2   2   2
#     4  10  21  42  70  99 139 186 235 285 352 414
#     4  11  23  43  64 111 136 174 241 283 349 424
#     4  10  21  42  71  99 133 189 233 284 358 413
#     4  10  25  38  69 102 139 188 233 284 349 422
#     4   9  24  39  70  96 142 176 224 298 345 410
#     4  10  23  41  71  99 136 185 226 290 352 409
#     4  10  22  43  69  98 139 186 234 284 348 421
#
# _framework density 25.570338
#
# number of rings (size 3 to 8) (size 9 to 14) (size 15 to 20)
#    0.857    1.143    1.429    0.429   12.000    0.571 
#    0.000    2.857    0.000    0.000    0.000    0.000 
#    0.000    0.000    0.000    0.000    0.000    0.000 
#
# Total GULP energy -78069.273164 kJ/mol
# GULP energy per Si atom -5576.376655 kJ/mol
# Density = 2.551214 g / cm^3
# Si number density = 25.570338 Si / 1000 Ang^3
#
#
#
# Elastic Constant Matrix: (Units=GPa)
#
#
# Indices 1 2 3 4 5 6 
#
# 1 147.9811 45.3860 33.3683 16.7877 -3.1550 13.8958
# 2 45.3860 111.3995 49.5598 38.4981 -9.7220 6.1648
# 3 33.3683 49.5598 78.9207 28.5232 -7.2449 -1.6036
# 4 16.7877 38.4981 28.5232 35.2774 -0.8304 -3.5735
# 5 -3.1550 -9.7220 -7.2449 -0.8304 24.0910 1.7784
# 6 13.8958 6.1648 -1.6036 -3.5735 1.7784 47.2684
#
#
#
# Elastic Compliance Matrix: (Units=1/GPa)
#
#
# Indices 1 2 3 4 5 6 
#
# 1 0.008124 -0.002348 -0.002096 0.000168 -0.000351 -0.002127
# 2 -0.002348 0.017572 -0.004283 -0.014783 0.005212 -0.003060
# 3 -0.002096 -0.004283 0.020475 -0.010703 0.003718 0.000920
# 4 0.000168 -0.014783 -0.010703 0.053464 -0.007751 0.005849
# 5 -0.000351 0.005212 0.003718 -0.007751 0.044618 -0.002715
# 6 -0.002127 -0.003060 0.000920 0.005849 -0.002715 0.022756
#
#
# Mechanical properties :
#
#
# Convention : Reuss Voigt Hill
#
# Bulk Modulus (GPa) = 34.82345 66.10328 50.46337
# Shear Modulus (GPa) = 25.76878 35.32652 30.54765
#
# Velocity S-wave (km/s) = 3.17797 3.72094 3.46012
# Velocity P-wave (km/s) = 5.20713 6.66095 5.97840
#
# Compressibility (1/GPa) = 0.02871628
#
# Stress axis : x y z
#
# Youngs Moduli (GPa) = 123.09673 56.90989 48.84057
#
# Poissons Ratio (x) = 0.13362 0.10239
# Poissons Ratio (y) = 0.28903 0.20916
# Poissons Ratio (z) = 0.25806 0.24372
#
# Static dielectric constant tensor:
#      x y z
#    x 2.225300 0.041470 -0.134050 
#    y 0.041470 2.066430 -0.030490 
#    z -0.134050 -0.030490 2.292080 
# 
# From -- ./inp_files/413218.got.cif
#   From: 2010.05.17/outbox.cif.g08.bks.cpg/sg2_207_cif.got.tgz:413218.got - 2010.06.03 11:33:40.
