data_PCOD9017698
_publ_section_title
;
Structure prediction by ZEFSAII (Michael W. Deem and Ramdas Pophale) SiO2 
 PCOD9017698
Probable space group: P -1
;
_chemical_formula_sum "Si O2"
_cell_formula_units_Z 14
_cell_length_a 14.801374
_cell_length_b 18.772080
_cell_length_c 6.748291
_cell_angle_alpha 75.032313
_cell_angle_beta 108.903196
_cell_angle_gamma 161.527651
_cell_volume 554.494921
_symmetry_space_group_name_H-M "P -1"
_symmetry_group_IT_number 2
_symmetry_cell_setting 'triclinic'
loop_
_space_group_symop_operation_xyz
x,y,z
-x,-y,-z
loop_
_atom_site_type_symbol
_atom_site_label
_atom_site_fract_x
_atom_site_fract_y
_atom_site_fract_z
Si Si1 0.639035 0.171857 0.378186
Si Si2 0.893515 0.131901 0.718569
Si Si3 0.228914 0.535807 0.672036
Si Si4 0.610548 0.795488 0.387272
Si Si5 0.622374 0.522657 0.451540
Si Si6 0.694835 0.308059 0.998249
Si Si7 0.051251 0.106267 0.110259
O O1 0.554884 0.132616 0.123032
O O2 0.985776 0.409618 0.475796
O O3 0.500000 0.000000 0.500000
O O4 0.444895 0.093649 0.398673
O O5 0.072475 0.340661 0.730355
O O6 0.049530 0.218792 0.567432
O O7 0.952625 0.112396 0.939026
O O8 0.526807 0.740927 0.605044
O O9 0.259980 0.598812 0.859956
O O10 0.404499 0.571765 0.374477
O O11 0.487654 0.781308 0.224737
O O12 0.883613 0.976415 0.299350
O O13 0.500000 0.500000 0.500000
O O14 0.398317 0.358962 0.223534
O O15 0.000000 0.500000 0.000000
O O16 0.000000 0.000000 0.000000
#
# Coordination Sequence:
#
# PCOD9017698 Si02
#       7
#     2   2   2   2   2   2   2
#     4  10  21  43  65  99 136 174 225 282 351 423
#     4  10  23  43  71  96 137 187 228 293 354 418
#     4  10  24  44  71  99 143 181 230 290 354 436
#     4  11  25  43  71 102 137 187 236 289 362 417
#     4  11  26  46  67 101 145 186 238 301 355 416
#     4  12  24  43  71 104 138 182 234 289 356 429
#     4  12  26  45  73 106 139 185 250 296 349 419
#
# _framework density 25.248201999999999
#
# number of rings (size 3 to 8) (size 9 to 14) (size 15 to 20)
#    0.000    1.143    2.857    2.143    6.000    1.143 
#    0.000    4.286    0.000    0.000    0.000    0.000 
#    0.000    0.000    0.000    0.000    0.000    0.000 
#
# Total GULP energy -78027.949551 kJ/mol
# GULP energy per Si atom -5573.424968 kJ/mol
# Density = 2.519074 g / cm^3
# Si number density = 25.248202 Si / 1000 Ang^3
#
#
#
# Elastic Constant Matrix: (Units=GPa)
#
#
# Indices 1 2 3 4 5 6 
#
# 1 154.0582 27.1891 61.8157 -9.9839 8.7588 14.3831
# 2 27.1891 123.5877 38.8995 -21.5569 4.1168 33.7336
# 3 61.8157 38.8995 119.4138 -10.3691 21.9200 -0.4824
# 4 -9.9839 -21.5569 -10.3691 55.0207 6.5033 0.7044
# 5 8.7588 4.1168 21.9200 6.5033 76.5964 -7.2968
# 6 14.3831 33.7336 -0.4824 0.7044 -7.2968 49.7053
#
#
#
# Elastic Compliance Matrix: (Units=1/GPa)
#
#
# Indices 1 2 3 4 5 6 
#
# 1 0.008543 0.000485 -0.004498 0.000937 -0.000069 -0.002868
# 2 0.000485 0.012364 -0.003773 0.004434 -0.000851 -0.008756
# 3 -0.004498 -0.003773 0.012435 0.000301 -0.002524 0.003608
# 4 0.000937 0.004434 0.000301 0.020490 -0.002547 -0.003942
# 5 -0.000069 -0.000851 -0.002524 -0.002547 0.014305 0.002709
# 6 -0.002868 -0.008756 0.003608 -0.003942 0.002709 0.027379
#
#
# Mechanical properties :
#
#
# Convention : Reuss Voigt Hill
#
# Bulk Modulus (GPa) = 56.27228 72.54092 64.40660
# Shear Modulus (GPa) = 42.73072 54.20817 48.46944
#
# Velocity S-wave (km/s) = 4.11837 4.63861 4.38621
# Velocity P-wave (km/s) = 6.70453 7.58172 7.15658
#
# Compressibility (1/GPa) = 0.01777074
#
# Stress axis : x y z
#
# Youngs Moduli (GPa) = 117.06053 80.88128 80.41495
#
# Poissons Ratio (x) = -0.03922 0.36168
# Poissons Ratio (y) = -0.05677 0.30339
# Poissons Ratio (z) = 0.52651 0.30515
#
# Static dielectric constant tensor:
#      x y z
#    x 2.177980 -0.154020 -0.062610 
#    y -0.154020 2.263600 -0.026210 
#    z -0.062610 -0.026210 2.085830 
# 
# From -- ./inp_files/100576.got.cif
#   From: 2010.05.17/outbox.cif.g08.bks.cpg/sg2_51_cif.got.tgz:100576.got - 2010.06.03 11:33:40.
