data_PCOD9017186
_publ_section_title
;
Structure prediction by ZEFSAII (Michael W. Deem and Ramdas Pophale) SiO2 
 PCOD9017186
Probable space group: P -1
;
_chemical_formula_sum "Si O2"
_cell_formula_units_Z 12
_cell_length_a 9.675483
_cell_length_b 8.318121
_cell_length_c 9.795324
_cell_angle_alpha 80.338470
_cell_angle_beta 44.317329
_cell_angle_gamma 101.284506
_cell_volume 482.526428
_symmetry_space_group_name_H-M "P -1"
_symmetry_group_IT_number 2
_symmetry_cell_setting 'triclinic'
loop_
_space_group_symop_operation_xyz
x,y,z
-x,-y,-z
loop_
_atom_site_type_symbol
_atom_site_label
_atom_site_fract_x
_atom_site_fract_y
_atom_site_fract_z
Si Si1 0.384280 0.374940 0.735993
Si Si2 0.456073 0.950453 0.881245
Si Si3 0.316973 0.527125 0.041299
Si Si4 0.031053 0.141055 0.812923
Si Si5 0.272810 0.904518 0.586543
Si Si6 0.848918 0.442864 0.405607
O O1 0.500000 0.500000 0.500000
O O2 0.164963 0.211416 0.849738
O O3 0.595108 0.355029 0.651060
O O4 0.305936 0.452530 0.906747
O O5 0.663935 0.061036 0.622067
O O6 0.400290 0.740700 0.934825
O O7 0.234775 0.958875 0.986017
O O8 0.500000 0.000000 0.000000
O O9 0.076082 0.444657 0.298414
O O10 0.500000 0.500000 0.000000
O O11 0.087497 0.340315 0.677198
O O12 0.129606 0.012829 0.697782
O O13 0.182697 0.683785 0.691460
O O14 0.500000 0.000000 0.500000
#
# Coordination Sequence:
#
# PCOD9017186 Si02
#       6
#     2   2   2   2   2   2
#     4  10  21  42  72 101 133 176 232 284 338 405
#     4  11  28  48  66 104 147 181 228 292 348 411
#     4  11  27  46  73 101 139 190 232 280 353 417
#     4  10  24  45  72 102 141 181 231 290 344 409
#     4  12  26  44  74 107 136 182 235 285 350 412
#     4  10  24  44  70 101 141 179 232 284 345 408
#
# _framework density 24.869102000000002
#
# number of rings (size 3 to 8) (size 9 to 14) (size 15 to 20)
#    0.000    1.333    1.667    2.000    9.333    5.333 
#    6.000    0.000    0.000    0.000    0.000    0.000 
#    0.000    0.000    0.000    0.000    0.000    0.000 
#
# Total GULP energy -66963.245785 kJ/mol
# GULP energy per Si atom -5580.270482 kJ/mol
# Density = 2.481250 g / cm^3
# Si number density = 24.869102 Si / 1000 Ang^3
#
#
#
# Elastic Constant Matrix: (Units=GPa)
#
#
# Indices 1 2 3 4 5 6 
#
# 1 133.1270 23.1906 65.8852 15.4149 -27.5003 -21.3127
# 2 23.1906 148.8167 59.4371 42.5660 -7.2316 -20.8055
# 3 65.8852 59.4371 131.4123 28.1134 -14.5036 2.7101
# 4 15.4149 42.5660 28.1134 42.6589 3.6113 -8.1096
# 5 -27.5003 -7.2316 -14.5036 3.6113 53.7934 13.0398
# 6 -21.3127 -20.8055 2.7101 -8.1096 13.0398 45.5099
#
#
#
# Elastic Compliance Matrix: (Units=1/GPa)
#
#
# Indices 1 2 3 4 5 6 
#
# 1 0.012149 0.002059 -0.006470 -0.001371 0.003432 0.005788
# 2 0.002059 0.011166 -0.004329 -0.008223 0.000817 0.004628
# 3 -0.006470 -0.004329 0.014049 -0.004116 0.001902 -0.007124
# 4 -0.001371 -0.008223 -0.004116 0.036172 -0.006340 0.004106
# 5 0.003432 0.000817 0.001902 -0.006340 0.022797 -0.005794
# 6 0.005788 0.004628 -0.007124 0.004106 -0.005794 0.029616
#
#
# Mechanical properties :
#
#
# Convention : Reuss Voigt Hill
#
# Bulk Modulus (GPa) = 50.28945 78.93133 64.61039
# Shear Modulus (GPa) = 33.32077 46.04866 39.68471
#
# Velocity S-wave (km/s) = 3.66436 4.30774 3.99901
# Velocity P-wave (km/s) = 6.17810 7.51996 6.88181
#
# Compressibility (1/GPa) = 0.01988489
#
# Stress axis : x y z
#
# Youngs Moduli (GPa) = 82.30924 89.55461 71.18113
#
# Poissons Ratio (x) = -0.18439 0.46052
# Poissons Ratio (y) = -0.16947 0.30814
# Poissons Ratio (z) = 0.53251 0.38768
#
# Static dielectric constant tensor:
#      x y z
#    x 1.989330 -0.058600 0.032730 
#    y -0.058600 2.073150 -0.090760 
#    z 0.032730 -0.090760 2.000430 
# 
# From -- ./inp_files/157834.got.cif
#   From: 2010.05.17/outbox.cif.g08.bks.cpg/sg2_79_cif.got.tgz:157834.got - 2010.06.03 11:33:40.
