data_PCOD9017193
_publ_section_title
;
Structure prediction by ZEFSAII (Michael W. Deem and Ramdas Pophale) SiO2 
 PCOD9017193
Probable space group: P -1
;
_chemical_formula_sum "Si O2"
_cell_formula_units_Z 12
_cell_length_a 8.502501
_cell_length_b 12.147258
_cell_length_c 8.566269
_cell_angle_alpha 137.636382
_cell_angle_beta 73.734909
_cell_angle_gamma 128.041383
_cell_volume 443.184800
_symmetry_space_group_name_H-M "P -1"
_symmetry_group_IT_number 2
_symmetry_cell_setting 'triclinic'
loop_
_space_group_symop_operation_xyz
x,y,z
-x,-y,-z
loop_
_atom_site_type_symbol
_atom_site_label
_atom_site_fract_x
_atom_site_fract_y
_atom_site_fract_z
Si Si1 0.868212 0.776494 0.000821
Si Si2 0.575131 0.111209 0.433259
Si Si3 0.530631 0.189560 0.100127
Si Si4 0.251197 0.203279 0.628348
Si Si5 0.221369 0.271237 0.373872
Si Si6 0.988952 0.462054 0.150164
O O1 0.806355 0.671493 0.735148
O O2 0.001814 0.720632 0.993525
O O3 0.698879 0.708286 0.114308
O O4 0.010414 0.025612 0.192621
O O5 0.405994 0.149265 0.484309
O O6 0.809185 0.328911 0.607132
O O7 0.500000 0.000000 0.500000
O O8 0.575075 0.940958 0.163261
O O9 0.414377 0.269890 0.283605
O O10 0.773164 0.384328 0.207065
O O11 0.500000 0.000000 0.000000
O O12 0.260362 0.334174 0.615868
O O13 0.000000 0.000000 0.500000
O O14 0.000000 0.500000 0.000000
#
# Coordination Sequence:
#
# PCOD9017193 Si02
#       6
#     2   2   2   2   2   2
#     4  10  22  43  69 104 141 189 243 296 366 434
#     4  12  25  44  74 105 141 194 243 291 363 432
#     4  12  22  47  74 102 150 184 239 309 360 426
#     4  10  21  42  72 102 139 192 237 294 368 428
#     4  10  21  43  73 103 146 187 236 308 363 424
#     4  12  27  47  73 110 144 194 248 298 365 440
#
# _framework density 27.076739
#
# number of rings (size 3 to 8) (size 9 to 14) (size 15 to 20)
#    0.000    1.000    5.000    2.000    0.000    1.333 
#    0.000    0.833    0.000    0.000    0.000    0.000 
#    0.000    0.000    0.000    0.000    0.000    0.000 
#
# Total GULP energy -67037.635822 kJ/mol
# GULP energy per Si atom -5586.469652 kJ/mol
# Density = 2.701511 g / cm^3
# Si number density = 27.076739 Si / 1000 Ang^3
#
#
#
# Elastic Constant Matrix: (Units=GPa)
#
#
# Indices 1 2 3 4 5 6 
#
# 1 129.9685 67.4418 10.8837 -2.6968 12.1985 -0.0825
# 2 67.4418 176.2850 42.5612 -35.8154 22.1855 -5.3192
# 3 10.8837 42.5612 108.7070 -29.4133 23.5561 7.4196
# 4 -2.6968 -35.8154 -29.4133 61.8196 9.6672 23.6800
# 5 12.1985 22.1855 23.5561 9.6672 33.5170 3.0404
# 6 -0.0825 -5.3192 7.4196 23.6800 3.0404 79.5119
#
#
#
# Elastic Compliance Matrix: (Units=1/GPa)
#
#
# Indices 1 2 3 4 5 6 
#
# 1 0.009823 -0.004128 0.000190 -0.001919 -0.000451 0.000305
# 2 -0.004128 0.009413 0.000084 0.006793 -0.006642 -0.001151
# 3 0.000190 0.000084 0.015470 0.011209 -0.013845 -0.004247
# 4 -0.001919 0.006793 0.011209 0.032096 -0.020082 -0.009384
# 5 -0.000451 -0.006642 -0.013845 -0.020082 0.049471 0.004936
# 6 0.000305 -0.001151 -0.004247 -0.009384 0.004936 0.015502
#
#
# Mechanical properties :
#
#
# Convention : Reuss Voigt Hill
#
# Bulk Modulus (GPa) = 37.03923 72.97042 55.00483
# Shear Modulus (GPa) = 33.67420 54.57461 44.12440
#
# Velocity S-wave (km/s) = 3.53038 4.49436 4.04122
# Velocity P-wave (km/s) = 5.50701 7.34441 6.49105
#
# Compressibility (1/GPa) = 0.02699840
#
# Stress axis : x y z
#
# Youngs Moduli (GPa) = 101.80316 106.23837 64.64112
#
# Poissons Ratio (x) = 0.43853 -0.01231
# Poissons Ratio (y) = 0.42022 -0.00541
# Poissons Ratio (z) = -0.01939 -0.00889
#
# Static dielectric constant tensor:
#      x y z
#    x 2.232070 -0.048350 -0.061450 
#    y -0.048350 2.105160 0.010160 
#    z -0.061450 0.010160 2.296060 
# 
# From -- ./inp_files/148876.got.cif
#   From: 2010.05.17/outbox.cif.g08.bks.cpg/sg2_75_cif.got.tgz:148876.got - 2010.06.03 11:33:40.
