data_PCOD9017102
_publ_section_title
;
Structure prediction by ZEFSAII (Michael W. Deem and Ramdas Pophale) SiO2 
 PCOD9017102
Probable space group: P -1
;
_chemical_formula_sum "Si O2"
_cell_formula_units_Z 16
_cell_length_a 18.077841
_cell_length_b 11.347735
_cell_length_c 8.500227
_cell_angle_alpha 39.495476
_cell_angle_beta 43.019011
_cell_angle_gamma 40.110281
_cell_volume 670.924094
_symmetry_space_group_name_H-M "P -1"
_symmetry_group_IT_number 2
_symmetry_cell_setting 'triclinic'
loop_
_space_group_symop_operation_xyz
x,y,z
-x,-y,-z
loop_
_atom_site_type_symbol
_atom_site_label
_atom_site_fract_x
_atom_site_fract_y
_atom_site_fract_z
Si Si1 0.500749 0.767293 0.903823
Si Si2 0.309289 0.646130 0.827960
Si Si3 0.945383 0.282013 0.783270
Si Si4 0.916915 0.819055 0.658087
Si Si5 0.155793 0.469520 0.778225
Si Si6 0.280896 0.711438 0.447836
Si Si7 0.150856 0.269006 0.660677
Si Si8 0.417221 0.904534 0.544246
O O1 0.477851 0.788085 0.731608
O O2 0.508628 0.971006 0.745283
O O3 0.625680 0.565621 0.957444
O O4 0.391645 0.742304 0.178073
O O5 0.307478 0.612376 0.681205
O O6 0.392653 0.760983 0.608837
O O7 0.167365 0.769995 0.973191
O O8 0.879377 0.533512 0.608447
O O9 0.024515 0.197272 0.588174
O O10 0.036619 0.223356 0.850078
O O11 0.029356 0.685018 0.738499
O O12 0.832771 0.055617 0.597251
O O13 0.844475 0.679336 0.926665
O O14 0.254909 0.551934 0.547867
O O15 0.161108 0.343978 0.741517
O O16 0.279681 0.077394 0.620978
#
# Coordination Sequence:
#
# PCOD9017102 Si02
#       8
#     2   2   2   2   2   2   2   2
#     4  11  27  49  68 101 139 182 238 288 343 407
#     4  12  27  46  71 105 141 182 234 285 346 414
#     4  10  23  42  71 104 143 177 222 290 341 412
#     4  10  23  44  65 103 142 181 227 279 345 410
#     4  10  24  43  69 104 144 186 218 285 350 411
#     4  12  27  43  72 103 140 187 231 283 342 424
#     4  10  21  42  71 103 137 180 222 282 351 399
#     4  11  25  47  77 100 133 185 235 296 340 409
#
# _framework density 23.847705999999999
#
# number of rings (size 3 to 8) (size 9 to 14) (size 15 to 20)
#    0.000    1.250    1.250    2.625   10.500    6.500 
#    0.000    0.000    0.000    0.000    0.000    0.000 
#    0.000    0.000    0.000    0.000    0.000    0.000 
#
# Total GULP energy -89567.869796 kJ/mol
# GULP energy per Si atom -5597.991862 kJ/mol
# Density = 2.379343 g / cm^3
# Si number density = 23.847706 Si / 1000 Ang^3
#
#
#
# Elastic Constant Matrix: (Units=GPa)
#
#
# Indices 1 2 3 4 5 6 
#
# 1 31.8927 -3.4644 58.8402 -18.5461 10.4977 19.0779
# 2 -3.4644 52.5277 20.9032 -14.1388 17.9322 0.7994
# 3 58.8402 20.9032 118.3453 8.7365 -27.5995 -3.4463
# 4 -18.5461 -14.1388 8.7365 28.0990 -0.1767 7.8313
# 5 10.4977 17.9322 -27.5995 -0.1767 28.1005 -7.9909
# 6 19.0779 0.7994 -3.4463 7.8313 -7.9909 23.2425
#
#
#
# Elastic Compliance Matrix: (Units=1/GPa)
#
#
# Indices 1 2 3 4 5 6 
#
# 1 0.000315 -0.011163 0.006699 -0.010235 0.016426 0.010215
# 2 -0.011163 0.016363 0.003033 -0.002818 -0.000517 0.009822
# 3 0.006699 0.003033 0.002737 0.007652 -0.004336 -0.009266
# 4 -0.010235 -0.002818 0.007652 0.023156 0.015299 0.007091
# 5 0.016426 -0.000517 -0.004336 0.015299 0.022322 -0.011588
# 6 0.010215 0.009822 -0.009266 0.007091 -0.011588 0.026555
#
#
# Mechanical properties :
#
#
# Convention : Reuss Voigt Hill
#
# Bulk Modulus (GPa) = 60.40912 39.48042 49.94477
# Shear Modulus (GPa) = 50.08627 24.32083 37.20355
#
# Velocity S-wave (km/s) = 4.58783 3.19696 3.95403
# Velocity P-wave (km/s) = 7.31098 5.49714 6.46796
#
# Compressibility (1/GPa) = 0.01655379
#
# Stress axis : x y z
#
# Youngs Moduli (GPa) = 3175.14524 61.11473 365.29724
#
# Poissons Ratio (x) = 0.68221 -2.44704
# Poissons Ratio (y) = 35.44368 -1.10811
# Poissons Ratio (z) = -21.26953 -0.18539
#
# Static dielectric constant tensor:
#      x y z
#    x 1.888340 -0.005420 -0.041930 
#    y -0.005420 1.904160 -0.012810 
#    z -0.041930 -0.012810 1.927170 
# 
# From -- ./inp_files/332696.got.cif
#   From: 2010.05.17/outbox.cif.g08.bks.cpg/sg2_167_cif.got.tgz:332696.got - 2010.06.03 11:33:40.
