data_PCOD9017897
_publ_section_title
;
Structure prediction by ZEFSAII (Michael W. Deem and Ramdas Pophale) SiO2 
 PCOD9017897
Probable space group: P -1
;
_chemical_formula_sum "Si O2"
_cell_formula_units_Z 16
_cell_length_a 11.626168
_cell_length_b 9.204790
_cell_length_c 14.984401
_cell_angle_alpha 40.708638
_cell_angle_beta 53.780661
_cell_angle_gamma 53.884342
_cell_volume 812.682906
_symmetry_space_group_name_H-M "P -1"
_symmetry_group_IT_number 2
_symmetry_cell_setting 'triclinic'
loop_
_space_group_symop_operation_xyz
x,y,z
-x,-y,-z
loop_
_atom_site_type_symbol
_atom_site_label
_atom_site_fract_x
_atom_site_fract_y
_atom_site_fract_z
Si Si1 0.557204 0.228532 0.122888
Si Si2 0.946275 0.219263 0.741520
Si Si3 0.124523 0.760228 0.044549
Si Si4 0.508541 0.440905 0.420363
Si Si5 0.410507 0.118425 0.898280
Si Si6 0.054070 0.296127 0.000320
Si Si7 0.207249 0.401754 0.491852
Si Si8 0.611532 0.947495 0.557318
O O1 0.463613 0.155632 0.279054
O O2 0.556483 0.065306 0.113227
O O3 0.500000 0.500000 0.000000
O O4 0.728170 0.200027 0.083869
O O5 0.845224 0.307133 0.834450
O O6 0.867074 0.345924 0.631146
O O7 0.092796 0.305665 0.645694
O O8 0.983011 0.943769 0.844214
O O9 0.041670 0.619718 0.085124
O O10 0.000000 0.000000 0.000000
O O11 0.500000 0.500000 0.500000
O O12 0.537598 0.654704 0.254657
O O13 0.352494 0.403427 0.478628
O O14 0.628952 0.196714 0.461582
O O15 0.232041 0.211431 0.947374
O O16 0.500000 0.000000 0.000000
O O17 0.000000 0.500000 0.000000
O O18 0.248682 0.235872 0.463231
O O19 0.500000 0.000000 0.500000
#
# Coordination Sequence:
#
# PCOD9017897 Si02
#       8
#     2   2   2   2   2   2   2   2
#     4  12  25  43  69 100 133 176 228 269 328 398
#     4  10  21  43  67  90 126 169 216 268 321 394
#     4  10  22  40  68  89 128 167 222 265 320 389
#     4  11  24  40  64  92 132 168 211 265 328 387
#     4  12  27  45  66  96 139 176 215 278 340 394
#     4  11  26  40  65  96 129 168 215 270 334 385
#     4  10  23  41  66  92 127 169 218 264 323 395
#     4  10  24  38  65  94 127 167 222 263 320 387
#
# _framework density 19.687874999999998
#
# number of rings (size 3 to 8) (size 9 to 14) (size 15 to 20)
#    0.000    1.250    3.750    1.500   15.750    0.000 
#    0.000    0.000    0.000    3.000    0.000    0.000 
#    0.000    0.000    0.000    0.000    0.000    0.000 
#
# Total GULP energy -89276.448917 kJ/mol
# GULP energy per Si atom -5579.778057 kJ/mol
# Density = 1.964306 g / cm^3
# Si number density = 19.687875 Si / 1000 Ang^3
#
#
#
# Elastic Constant Matrix: (Units=GPa)
#
#
# Indices 1 2 3 4 5 6 
#
# 1 69.4453 15.0389 4.1989 1.4655 -2.2668 14.9245
# 2 15.0389 106.4132 25.1612 -8.8862 3.7726 26.7179
# 3 4.1989 25.1612 99.8093 -9.0394 6.5989 10.5565
# 4 1.4655 -8.8862 -9.0394 33.1746 -3.8324 0.9219
# 5 -2.2668 3.7726 6.5989 -3.8324 24.8978 3.1581
# 6 14.9245 26.7179 10.5565 0.9219 3.1581 36.3340
#
#
#
# Elastic Compliance Matrix: (Units=1/GPa)
#
#
# Indices 1 2 3 4 5 6 
#
# 1 0.015985 -0.000840 -0.000008 -0.000499 0.002286 -0.006132
# 2 -0.000840 0.012284 -0.001923 0.003041 0.000082 -0.008213
# 3 -0.000008 -0.001923 0.011025 0.002297 -0.002067 -0.001665
# 4 -0.000499 0.003041 0.002297 0.032215 0.004338 -0.003893
# 5 0.002286 0.000082 -0.002067 0.004338 0.042104 -0.004168
# 6 -0.006132 -0.008213 -0.001665 -0.003893 -0.004168 0.037025
#
#
# Mechanical properties :
#
#
# Convention : Reuss Voigt Hill
#
# Bulk Modulus (GPa) = 29.62846 40.49620 35.06233
# Shear Modulus (GPa) = 29.86286 34.29920 32.08103
#
# Velocity S-wave (km/s) = 3.89886 4.17843 4.04106
# Velocity P-wave (km/s) = 5.94557 6.62517 6.29455
#
# Compressibility (1/GPa) = 0.03375133
#
# Stress axis : x y z
#
# Youngs Moduli (GPa) = 62.55777 81.40708 90.70403
#
# Poissons Ratio (x) = 0.06841 0.00077
# Poissons Ratio (y) = 0.05257 0.17439
# Poissons Ratio (z) = 0.00053 0.15651
#
# Static dielectric constant tensor:
#      x y z
#    x 1.793280 -0.001490 0.014320 
#    y -0.001490 1.724620 -0.019900 
#    z 0.014320 -0.019900 1.739620 
# 
# From -- ./inp_files/331845.got.cif
#   From: 2010.05.17/outbox.cif.g08.bks.cpg/sg2_166_cif.got.tgz:331845.got - 2010.06.03 11:33:40.
