data_PCOD9017254
_publ_section_title
;
Structure prediction by ZEFSAII (Michael W. Deem and Ramdas Pophale) SiO2 
 PCOD9017254
Probable space group: P -1
;
_chemical_formula_sum "Si O2"
_cell_formula_units_Z 16
_cell_length_a 9.330110
_cell_length_b 11.355445
_cell_length_c 25.727922
_cell_angle_alpha 22.123941
_cell_angle_beta 127.738470
_cell_angle_gamma 131.120012
_cell_volume 773.311946
_symmetry_space_group_name_H-M "P -1"
_symmetry_group_IT_number 2
_symmetry_cell_setting 'triclinic'
loop_
_space_group_symop_operation_xyz
x,y,z
-x,-y,-z
loop_
_atom_site_type_symbol
_atom_site_label
_atom_site_fract_x
_atom_site_fract_y
_atom_site_fract_z
Si Si1 0.046287 0.833358 0.904770
Si Si2 0.247774 0.832237 0.261500
Si Si3 0.320962 0.128511 0.047412
Si Si4 0.694749 0.143267 0.240952
Si Si5 0.034574 0.081004 0.534530
Si Si6 0.309553 0.806923 0.068085
Si Si7 0.661600 0.880642 0.232194
Si Si8 0.616428 0.746130 0.619665
O O1 0.195905 0.092783 0.794800
O O2 0.141703 0.775723 0.003138
O O3 0.860467 0.937892 0.830387
O O4 0.000000 0.500000 0.000000
O O5 0.140656 0.466546 0.404840
O O6 0.231952 0.879574 0.176299
O O7 0.471065 0.944579 0.278513
O O8 0.260828 0.992337 0.032211
O O9 0.542742 0.139917 0.091749
O O10 0.294821 0.475359 0.914048
O O11 0.827541 0.097260 0.335327
O O12 0.754563 0.990100 0.264093
O O13 0.000000 0.000000 0.500000
O O14 0.826622 0.955562 0.564296
O O15 0.350902 0.481896 0.232455
O O16 0.500000 0.000000 0.000000
O O17 0.504544 0.522623 0.339368
O O18 0.500000 0.000000 0.500000
#
# Coordination Sequence:
#
# PCOD9017254 Si02
#       8
#     2   2   2   2   2   2   2   2
#     4  12  24  41  69 106 138 170 230 282 345 405
#     4  11  25  44  68 102 141 179 224 282 339 406
#     4  10  21  42  72  98 133 178 226 277 342 393
#     4  11  24  45  72  98 139 180 226 282 348 398
#     4  12  27  45  67 101 136 182 229 275 337 413
#     4  11  24  43  72 102 136 179 228 286 339 400
#     4  10  21  46  66 100 138 175 223 286 333 406
#     4  11  25  47  69  96 139 183 229 277 337 406
#
# _framework density 20.690228000000001
#
# number of rings (size 3 to 8) (size 9 to 14) (size 15 to 20)
#    0.000    1.000    2.500    6.375    5.250    0.500 
#    2.250    1.250    0.000    0.000    0.000    0.000 
#    0.000    0.000    0.000    0.000    0.000    0.000 
#
# Total GULP energy -89410.128973 kJ/mol
# GULP energy per Si atom -5588.133061 kJ/mol
# Density = 2.064314 g / cm^3
# Si number density = 20.690228 Si / 1000 Ang^3
#
#
#
# Elastic Constant Matrix: (Units=GPa)
#
#
# Indices 1 2 3 4 5 6 
#
# 1 126.5916 26.8571 50.1056 1.5860 -4.9523 5.1399
# 2 26.8571 96.3724 36.0385 15.2577 2.7381 -3.9348
# 3 50.1056 36.0385 112.2580 -11.2679 1.6207 7.3828
# 4 1.5860 15.2577 -11.2679 36.8774 0.1877 -5.1593
# 5 -4.9523 2.7381 1.6207 0.1877 35.4461 -8.3097
# 6 5.1399 -3.9348 7.3828 -5.1593 -8.3097 30.9148
#
#
#
# Elastic Compliance Matrix: (Units=1/GPa)
#
#
# Indices 1 2 3 4 5 6 
#
# 1 0.009882 -0.001034 -0.004199 -0.001371 0.001521 -0.000592
# 2 -0.001034 0.013570 -0.004680 -0.006753 -0.000534 0.001746
# 3 -0.004199 -0.004680 0.013044 0.005770 -0.001422 -0.002432
# 4 -0.001371 -0.006753 0.005770 0.032228 0.000732 0.003566
# 5 0.001521 -0.000534 -0.001422 0.000732 0.030480 0.008334
# 6 -0.000592 0.001746 -0.002432 0.003566 0.008334 0.036084
#
#
# Mechanical properties :
#
#
# Convention : Reuss Voigt Hill
#
# Bulk Modulus (GPa) = 59.98835 62.35824 61.17330
# Shear Modulus (GPa) = 31.11946 35.46238 33.29092
#
# Velocity S-wave (km/s) = 3.88244 4.14450 4.01561
# Velocity P-wave (km/s) = 7.01101 7.28745 7.15057
#
# Compressibility (1/GPa) = 0.01666990
#
# Stress axis : x y z
#
# Youngs Moduli (GPa) = 101.19863 73.69072 76.66096
#
# Poissons Ratio (x) = 0.07618 0.32193
# Poissons Ratio (y) = 0.10462 0.35878
# Poissons Ratio (z) = 0.42497 0.34488
#
# Static dielectric constant tensor:
#      x y z
#    x 1.777270 0.004300 -0.030530 
#    y 0.004300 1.778600 -0.013640 
#    z -0.030530 -0.013640 1.717350 
# 
# From -- ./inp_files/617021.got.cif
#   From: 2010.05.17/outbox.cif.g08.bks.cpg/sg2_309_cif.got.tgz:617021.got - 2010.06.03 11:33:40.
