data_PCOD9017839
_publ_section_title
;
Structure prediction by ZEFSAII (Michael W. Deem and Ramdas Pophale) SiO2 
 PCOD9017839
Probable space group: P -1
;
_chemical_formula_sum "Si O2"
_cell_formula_units_Z 14
_cell_length_a 9.191195
_cell_length_b 27.217168
_cell_length_c 29.714756
_cell_angle_alpha 8.893438
_cell_angle_beta 33.008383
_cell_angle_gamma 33.501024
_cell_volume 624.757892
_symmetry_space_group_name_H-M "P -1"
_symmetry_group_IT_number 2
_symmetry_cell_setting 'triclinic'
loop_
_space_group_symop_operation_xyz
x,y,z
-x,-y,-z
loop_
_atom_site_type_symbol
_atom_site_label
_atom_site_fract_x
_atom_site_fract_y
_atom_site_fract_z
Si Si1 0.315979 0.794187 0.763966
Si Si2 0.626614 0.707855 0.096060
Si Si3 0.057124 0.720148 0.535450
Si Si4 0.494842 0.791922 0.495354
Si Si5 0.572952 0.950244 0.078797
Si Si6 0.062233 0.557444 0.586044
Si Si7 0.846386 0.584018 0.010417
O O1 0.066238 0.682349 0.900890
O O2 0.500000 0.000000 0.500000
O O3 0.500000 0.500000 0.000000
O O4 0.198159 0.037049 0.612382
O O5 0.882539 0.496998 0.240376
O O6 0.516928 0.487769 0.285445
O O7 0.709418 0.037233 0.754281
O O8 0.446534 0.775153 0.126843
O O9 0.030276 0.492935 0.705491
O O10 0.806272 0.778459 0.438771
O O11 0.365047 0.118864 0.213299
O O12 0.316031 0.692248 0.674536
O O13 0.331553 0.741765 0.345716
O O14 0.862286 0.758733 0.176047
O O15 0.500000 0.000000 0.000000
O O16 0.000000 0.500000 0.000000
#
# Coordination Sequence:
#
# PCOD9017839 Si02
#       7
#     2   2   2   2   2   2   2
#     4  12  25  42  69  97 126 171 226 267 327 390
#     4  11  21  42  68  89 133 174 205 273 323 383
#     4  11  22  42  64  94 128 172 218 264 320 387
#     4  12  25  46  67 100 135 174 221 264 341 393
#     4  10  21  43  66  97 136 167 225 270 324 385
#     4  10  25  39  69  99 130 177 219 271 325 397
#     4  12  28  47  66  97 140 173 215 282 330 385
#
# _framework density 22.40868
#
# number of rings (size 3 to 8) (size 9 to 14) (size 15 to 20)
#    0.000    0.857    4.286    2.143    6.000    0.571 
#    0.000    0.714    0.000    0.000    0.000    0.000 
#    0.000    0.000    0.000    0.000    0.000    0.000 
#
# Total GULP energy -78213.621570 kJ/mol
# GULP energy per Si atom -5586.687255 kJ/mol
# Density = 2.235768 g / cm^3
# Si number density = 22.408680 Si / 1000 Ang^3
#
#
#
# Elastic Constant Matrix: (Units=GPa)
#
#
# Indices 1 2 3 4 5 6 
#
# 1 66.3079 32.3115 9.0261 -3.7573 13.2758 -6.8553
# 2 32.3115 112.8456 8.0241 -19.5544 -2.4544 3.6013
# 3 9.0261 8.0241 60.6964 -4.0741 23.7046 -6.2218
# 4 -3.7573 -19.5544 -4.0741 33.8409 5.5608 0.7567
# 5 13.2758 -2.4544 23.7046 5.5608 32.8768 -12.4790
# 6 -6.8553 3.6013 -6.2218 0.7567 -12.4790 53.2259
#
#
#
# Elastic Compliance Matrix: (Units=1/GPa)
#
#
# Indices 1 2 3 4 5 6 
#
# 1 0.019728 -0.005913 0.001602 0.000471 -0.009284 0.000945
# 2 -0.005913 0.011714 -0.001629 0.005431 0.003103 -0.001094
# 3 0.001602 -0.001629 0.024436 0.005486 -0.019913 -0.001574
# 4 0.000471 0.005431 0.005486 0.035221 -0.010714 -0.002678
# 5 -0.009284 0.003103 -0.019913 -0.010714 0.054014 0.009083
# 6 0.000945 -0.001094 -0.001574 -0.002678 0.009083 0.020967
#
#
# Mechanical properties :
#
#
# Convention : Reuss Voigt Hill
#
# Bulk Modulus (GPa) = 22.72785 37.61926 30.17355
# Shear Modulus (GPa) = 25.95710 36.68793 31.32251
#
# Velocity S-wave (km/s) = 3.40715 4.05065 3.74275
# Velocity P-wave (km/s) = 5.06386 6.22103 5.67203
#
# Compressibility (1/GPa) = 0.04399888
#
# Stress axis : x y z
#
# Youngs Moduli (GPa) = 50.69043 85.36739 40.92302
#
# Poissons Ratio (x) = 0.50479 -0.06557
# Poissons Ratio (y) = 0.29974 0.06665
# Poissons Ratio (z) = -0.08122 0.13903
#
# Static dielectric constant tensor:
#      x y z
#    x 1.840320 0.022530 -0.015710 
#    y 0.022530 1.987620 0.009160 
#    z -0.015710 0.009160 1.853120 
# 
# From -- ./inp_files/37189.got.cif
#   From: 2010.05.17/outbox.cif.g08.bks.cpg/sg2_19_cif.got.tgz:37189.got - 2010.06.03 11:33:40.
