data_PCOD9017332
_publ_section_title
;
Structure prediction by ZEFSAII (Michael W. Deem and Ramdas Pophale) SiO2 
 PCOD9017332
Probable space group: P -1
;
_chemical_formula_sum "Si O2"
_cell_formula_units_Z 14
_cell_length_a 21.409933
_cell_length_b 16.988837
_cell_length_c 10.592160
_cell_angle_alpha 27.031141
_cell_angle_beta 149.200195
_cell_angle_gamma 161.852579
_cell_volume 543.221587
_symmetry_space_group_name_H-M "P -1"
_symmetry_group_IT_number 2
_symmetry_cell_setting 'triclinic'
loop_
_space_group_symop_operation_xyz
x,y,z
-x,-y,-z
loop_
_atom_site_type_symbol
_atom_site_label
_atom_site_fract_x
_atom_site_fract_y
_atom_site_fract_z
Si Si1 0.166440 0.836932 0.981196
Si Si2 0.059701 0.930970 0.439880
Si Si3 0.516314 0.291558 0.111234
Si Si4 0.689102 0.096980 0.454675
Si Si5 0.200036 0.405378 0.166557
Si Si6 0.955135 0.663567 0.393243
Si Si7 0.609820 0.463547 0.427184
O O1 0.133945 0.845724 0.766792
O O2 0.018073 0.799677 0.854112
O O3 0.392740 0.128331 0.001283
O O4 0.101027 0.571940 0.287310
O O5 0.823831 0.691238 0.402805
O O6 0.072632 0.917631 0.332859
O O7 0.176116 0.220922 0.292004
O O8 0.476647 0.442061 0.873095
O O9 0.404892 0.038754 0.378280
O O10 0.251168 0.489969 0.792540
O O11 0.897357 0.226301 0.619465
O O12 0.536971 0.841563 0.454353
O O13 0.733177 0.341760 0.142943
O O14 0.346102 0.523502 0.367714
#
# Coordination Sequence:
#
# PCOD9017332 Si02
#       7
#     2   2   2   2   2   2   2
#     4  10  21  43  72 103 139 188 241 281 351 426
#     4  11  20  45  76 101 136 195 234 288 353 419
#     4  12  23  46  75 101 145 192 227 289 364 418
#     4  11  26  44  72 108 142 183 240 291 350 421
#     4  10  21  42  74 103 138 187 239 288 347 423
#     4  11  26  42  70 109 145 181 236 296 350 419
#     4  11  21  44  74 101 139 191 236 282 356 422
#
# _framework density 25.772172000000001
#
# number of rings (size 3 to 8) (size 9 to 14) (size 15 to 20)
#    0.000    1.143    4.286    2.571    0.000    2.857 
#    2.571    2.143    3.143    0.000    0.000    0.000 
#    0.000    0.000    0.000    0.000    0.000    0.000 
#
# Total GULP energy -78698.645736 kJ/mol
# GULP energy per Si atom -5621.331838 kJ/mol
# Density = 2.571351 g / cm^3
# Si number density = 25.772172 Si / 1000 Ang^3
#
#
#
# Elastic Constant Matrix: (Units=GPa)
#
#
# Indices 1 2 3 4 5 6 
#
# 1 81.1744 31.6072 19.8324 8.4180 -5.4931 1.9803
# 2 31.6072 136.5889 42.8556 -0.9025 5.6958 -6.2819
# 3 19.8324 42.8556 109.9702 1.5693 -0.9303 6.0793
# 4 8.4180 -0.9025 1.5693 44.8010 -2.5163 6.6040
# 5 -5.4931 5.6958 -0.9303 -2.5163 29.7530 -4.6098
# 6 1.9803 -6.2819 6.0793 6.6040 -4.6098 41.6532
#
#
#
# Elastic Compliance Matrix: (Units=1/GPa)
#
#
# Indices 1 2 3 4 5 6 
#
# 1 0.014289 -0.003042 -0.001319 -0.002502 0.002933 -0.000224
# 2 -0.003042 0.009181 -0.003147 0.000501 -0.002116 0.001675
# 3 -0.001319 -0.003147 0.010667 0.000120 0.000402 -0.001943
# 4 -0.002502 0.000501 0.000120 0.023352 0.000890 -0.003427
# 5 0.002933 -0.002116 0.000402 0.000890 0.035145 0.003231
# 6 -0.000224 0.001675 -0.001943 -0.003427 0.003231 0.025456
#
#
# Mechanical properties :
#
#
# Convention : Reuss Voigt Hill
#
# Bulk Modulus (GPa) = 52.29595 57.36932 54.83263
# Shear Modulus (GPa) = 35.84776 38.80399 37.32587
#
# Velocity S-wave (km/s) = 3.73359 3.88449 3.80978
# Velocity P-wave (km/s) = 6.23874 6.51364 6.37767
#
# Compressibility (1/GPa) = 0.01912194
#
# Stress axis : x y z
#
# Youngs Moduli (GPa) = 69.98280 108.91915 93.75014
#
# Poissons Ratio (x) = 0.33134 0.12362
# Poissons Ratio (y) = 0.21289 0.29503
# Poissons Ratio (z) = 0.09228 0.34276
#
# Static dielectric constant tensor:
#      x y z
#    x 2.023250 -0.000510 0.011700 
#    y -0.000510 1.961050 -0.001860 
#    z 0.011700 -0.001860 1.994350 
# 
# From -- ./inp_files/476870.got.cif
#   From: 2010.05.17/outbox.cif.g08.bks.cpg/sg2_239_cif.got.tgz:476870.got - 2010.06.03 11:33:40.
