data_PCOD9017076
_publ_section_title
;
Structure prediction by ZEFSAII (Michael W. Deem and Ramdas Pophale) SiO2 
 PCOD9017076
Probable space group: P -1
;
_chemical_formula_sum "Si O2"
_cell_formula_units_Z 11
_cell_length_a 8.859861
_cell_length_b 5.163787
_cell_length_c 20.420944
_cell_angle_alpha 44.716173
_cell_angle_beta 139.197332
_cell_angle_gamma 138.918537
_cell_volume 379.253147
_symmetry_space_group_name_H-M "P -1"
_symmetry_group_IT_number 2
_symmetry_cell_setting 'triclinic'
loop_
_space_group_symop_operation_xyz
x,y,z
-x,-y,-z
loop_
_atom_site_type_symbol
_atom_site_label
_atom_site_fract_x
_atom_site_fract_y
_atom_site_fract_z
Si Si1 0.178123 0.421441 0.023059
Si Si2 0.282199 0.934191 0.242201
Si Si3 0.239225 0.536844 0.425638
Si Si4 0.000000 0.500000 0.500000
Si Si5 0.701151 0.316735 0.113474
Si Si6 0.315650 0.196257 0.678973
O O1 0.363346 0.329991 0.149274
O O2 0.260486 0.781330 0.930886
O O3 0.000000 0.500000 0.000000
O O4 0.000000 0.000000 0.000000
O O5 0.237943 0.889483 0.313761
O O6 0.987209 0.635241 0.175433
O O7 0.474233 0.753442 0.314497
O O8 0.500000 0.500000 0.500000
O O9 0.185238 0.601269 0.471400
O O10 0.990800 0.092628 0.397160
O O11 0.254398 0.562153 0.615693
O O12 0.611732 0.986580 0.201251
O O13 0.500000 0.500000 0.000000
#
# Coordination Sequence:
#
# PCOD9017076 Si02
#       6
#     2   2   2   1   2   2
#     4  10  22  43  67 101 143 190 235 298 370 441
#     4  10  22  44  67 100 145 184 234 302 365 434
#     4  11  25  47  67  98 141 183 242 303 353 437
#     4  12  26  44  72 100 136 198 234 300 376 424
#     4  10  21  42  71 100 142 187 236 296 365 442
#     4  11  24  46  67 105 141 181 246 291 366 439
#
# _framework density 29.004373999999999
#
# number of rings (size 3 to 8) (size 9 to 14) (size 15 to 20)
#    0.000    1.455    3.636    0.545    2.545    0.727 
#    6.545    3.636    0.000    0.000    0.000    0.000 
#    0.000    0.000    0.000    0.000    0.000    0.000 
#
# Total GULP energy -61287.382966 kJ/mol
# GULP energy per Si atom -5571.580270 kJ/mol
# Density = 2.893836 g / cm^3
# Si number density = 29.004374 Si / 1000 Ang^3
#
#
#
# Elastic Constant Matrix: (Units=GPa)
#
#
# Indices 1 2 3 4 5 6 
#
# 1 242.5912 16.3934 113.8683 -7.5746 -15.8812 -9.9059
# 2 16.3934 103.4312 -3.4730 36.1352 2.2114 1.2672
# 3 113.8683 -3.4730 225.2105 -29.7737 -15.0598 16.0267
# 4 -7.5746 36.1352 -29.7737 44.4534 26.9908 -2.6930
# 5 -15.8812 2.2114 -15.0598 26.9908 94.0716 -4.5238
# 6 -9.9059 1.2672 16.0267 -2.6930 -4.5238 35.2148
#
#
#
# Elastic Compliance Matrix: (Units=1/GPa)
#
#
# Indices 1 2 3 4 5 6 
#
# 1 0.005871 -0.000783 -0.003269 -0.000904 0.000900 0.003214
# 2 -0.000783 0.015085 -0.001096 -0.015450 0.003724 -0.000967
# 3 -0.003269 -0.001096 0.006995 0.005497 -0.001166 -0.003793
# 4 -0.000904 -0.015450 0.005497 0.045910 -0.012094 -0.000243
# 5 0.000900 0.003724 -0.001166 -0.012094 0.014051 0.001530
# 6 0.003214 -0.000967 -0.003793 -0.000243 0.001530 0.031240
#
#
# Mechanical properties :
#
#
# Convention : Reuss Voigt Hill
#
# Bulk Modulus (GPa) = 56.63865 91.64558 74.14211
# Shear Modulus (GPa) = 36.94549 64.37758 50.66154
#
# Velocity S-wave (km/s) = 3.57289 4.71635 4.18387
# Velocity P-wave (km/s) = 6.04903 7.83099 6.99697
#
# Compressibility (1/GPa) = 0.01765579
#
# Stress axis : x y z
#
# Youngs Moduli (GPa) = 170.32033 66.28891 142.96426
#
# Poissons Ratio (x) = 0.05191 0.46731
# Poissons Ratio (y) = 0.13336 0.15671
# Poissons Ratio (z) = 0.55673 0.07266
#
# Static dielectric constant tensor:
#      x y z
#    x 2.162960 0.419170 -0.119750 
#    y 0.419170 1.752030 0.265070 
#    z -0.119750 0.265070 2.152560 
# 
# From -- ./inp_files/131070.got.cif
#   From: 2010.05.17/outbox.cif.g08.bks.cpg/sg2_66_cif.got.tgz:131070.got - 2010.06.03 11:33:40.
