data_PCOD9017211
_publ_section_title
;
Structure prediction by ZEFSAII (Michael W. Deem and Ramdas Pophale) SiO2 
 PCOD9017211
Probable space group: P -1
;
_chemical_formula_sum "Si O2"
_cell_formula_units_Z 13
_cell_length_a 17.035350
_cell_length_b 5.317946
_cell_length_c 5.263252
_cell_angle_alpha 92.210941
_cell_angle_beta 101.389747
_cell_angle_gamma 91.437368
_cell_volume 466.815715
_symmetry_space_group_name_H-M "P -1"
_symmetry_group_IT_number 2
_symmetry_cell_setting 'triclinic'
loop_
_space_group_symop_operation_xyz
x,y,z
-x,-y,-z
loop_
_atom_site_type_symbol
_atom_site_label
_atom_site_fract_x
_atom_site_fract_y
_atom_site_fract_z
Si Si1 0.932567 0.293795 0.989455
Si Si2 0.852411 0.961233 0.548107
Si Si3 0.554618 0.751802 0.528195
Si Si4 0.229454 0.418555 0.138367
Si Si5 0.000000 0.000000 0.500000
Si Si6 0.721674 0.349162 0.319864
Si Si7 0.405738 0.058031 0.937638
O O1 0.846047 0.403448 0.914879
O O2 0.931931 0.116948 0.725281
O O3 0.000000 0.500000 0.000000
O O4 0.949808 0.155961 0.253922
O O5 0.804472 0.831030 0.747955
O O6 0.790954 0.140118 0.377115
O O7 0.912398 0.781871 0.435513
O O8 0.500000 0.500000 0.500000
O O9 0.601451 0.759064 0.296865
O O10 0.500000 0.000000 0.500000
O O11 0.611490 0.806316 0.805377
O O12 0.286556 0.556591 0.392062
O O13 0.256498 0.432609 0.862649
O O14 0.645429 0.192778 0.156946
O O15 0.500000 0.000000 0.000000
#
# Coordination Sequence:
#
# PCOD9017211 Si02
#       7
#     2   2   2   2   1   2   2
#     4  11  24  39  64  94 131 176 226 285 337 415
#     4  11  26  41  64 100 132 178 232 283 349 417
#     4  10  21  42  72 106 143 183 235 299 364 435
#     4  11  25  43  68  95 140 181 225 287 353 413
#     4  12  22  40  68  90 128 170 232 270 344 404
#     4  11  25  47  67  98 139 182 231 285 355 421
#     4  10  22  45  72 101 141 181 241 294 361 431
#
# _framework density 27.848248999999999
#
# number of rings (size 3 to 8) (size 9 to 14) (size 15 to 20)
#    0.000    1.231    3.077    1.846    2.154    0.615 
#   16.615    0.000    0.000    0.000    0.000    0.000 
#    0.000    0.000    0.000    0.000    0.000    0.000 
#
# Total GULP energy -72689.598648 kJ/mol
# GULP energy per Si atom -5591.507588 kJ/mol
# Density = 2.778487 g / cm^3
# Si number density = 27.848249 Si / 1000 Ang^3
#
#
#
# Elastic Constant Matrix: (Units=GPa)
#
#
# Indices 1 2 3 4 5 6 
#
# 1 122.3027 23.9175 41.2824 -1.4316 0.8651 -3.3175
# 2 23.9175 133.6480 62.5060 0.7798 -0.2713 23.9967
# 3 41.2824 62.5060 235.3154 -17.4912 -14.0661 12.2232
# 4 -1.4316 0.7798 -17.4912 66.9621 2.9673 6.3408
# 5 0.8651 -0.2713 -14.0661 2.9673 67.0503 -8.6278
# 6 -3.3175 23.9967 12.2232 6.3408 -8.6278 54.6414
#
#
#
# Elastic Compliance Matrix: (Units=1/GPa)
#
#
# Indices 1 2 3 4 5 6 
#
# 1 0.008902 -0.001209 -0.001344 -0.000267 -0.000214 0.001369
# 2 -0.001209 0.009395 -0.002160 -0.000299 -0.000878 -0.003820
# 3 -0.001344 -0.002160 0.005235 0.001348 0.001008 -0.000301
# 4 -0.000267 -0.000299 0.001348 0.015512 -0.000671 -0.002092
# 5 -0.000214 -0.000878 0.001008 -0.000671 0.015498 0.002672
# 6 0.001369 -0.003820 -0.000301 -0.002092 0.002672 0.020794
#
#
# Mechanical properties :
#
#
# Convention : Reuss Voigt Hill
#
# Bulk Modulus (GPa) = 70.89233 82.96420 76.92827
# Shear Modulus (GPa) = 55.88833 61.96812 58.92822
#
# Velocity S-wave (km/s) = 4.48469 4.72233 4.60504
# Velocity P-wave (km/s) = 7.23385 7.71946 7.48059
#
# Compressibility (1/GPa) = 0.01410590
#
# Stress axis : x y z
#
# Youngs Moduli (GPa) = 112.33177 106.44412 191.01416
#
# Poissons Ratio (x) = 0.12871 0.25678
# Poissons Ratio (y) = 0.13583 0.41251
# Poissons Ratio (z) = 0.15101 0.22987
#
# Static dielectric constant tensor:
#      x y z
#    x 2.281350 0.129110 -0.208160 
#    y 0.129110 2.255580 0.138340 
#    z -0.208160 0.138340 2.483360 
# 
# From -- ./inp_files/4665.got.cif
#   From: 2010.05.17/outbox.cif.g08.bks.cpg/sg2_3_cif.got.tgz:4665.got - 2010.06.03 11:33:40.
