data_PCOD9017201
_publ_section_title
;
Structure prediction by ZEFSAII (Michael W. Deem and Ramdas Pophale) SiO2 
 PCOD9017201
Probable space group: P -1
;
_chemical_formula_sum "Si O2"
_cell_formula_units_Z 14
_cell_length_a 14.307407
_cell_length_b 23.166517
_cell_length_c 11.752784
_cell_angle_alpha 29.977524
_cell_angle_beta 149.807547
_cell_angle_gamma 160.943071
_cell_volume 610.199288
_symmetry_space_group_name_H-M "P -1"
_symmetry_group_IT_number 2
_symmetry_cell_setting 'triclinic'
loop_
_space_group_symop_operation_xyz
x,y,z
-x,-y,-z
loop_
_atom_site_type_symbol
_atom_site_label
_atom_site_fract_x
_atom_site_fract_y
_atom_site_fract_z
Si Si1 0.535359 0.421097 0.015790
Si Si2 0.673605 0.091256 0.409866
Si Si3 0.275287 0.667553 0.087465
Si Si4 0.520783 0.876197 0.199140
Si Si5 0.368791 0.458050 0.555457
Si Si6 0.607243 0.217310 0.524833
Si Si7 0.957228 0.786390 0.971421
O O1 0.492367 0.429227 0.825918
O O2 0.217840 0.255633 0.029795
O O3 0.701270 0.382223 0.283778
O O4 0.705466 0.614164 0.916305
O O5 0.016055 0.271095 0.495823
O O6 0.500000 0.000000 0.500000
O O7 0.630713 0.961866 0.501594
O O8 0.568795 0.155567 0.122745
O O9 0.247967 0.712282 0.107272
O O10 0.431221 0.623525 0.360077
O O11 0.000000 0.500000 0.000000
O O12 0.504934 0.808682 0.420670
O O13 0.500000 0.000000 0.000000
O O14 0.822434 0.020001 0.194931
O O15 0.500000 0.500000 0.500000
O O16 0.858568 0.240448 0.757037
#
# Coordination Sequence:
#
# PCOD9017201 Si02
#       7
#     2   2   2   2   2   2   2
#     4  11  26  44  65 103 143 184 232 295 353 424
#     4  11  24  47  72 103 137 190 243 297 359 427
#     4  10  23  45  72  99 140 189 233 289 358 432
#     4  10  21  42  72 104 137 178 242 288 354 427
#     4  11  28  45  67 102 146 190 241 291 364 431
#     4  11  24  44  75 102 137 186 240 296 356 424
#     4  10  23  44  67 102 142 181 231 288 363 421
#
# _framework density 22.943322999999999
#
# number of rings (size 3 to 8) (size 9 to 14) (size 15 to 20)
#    0.000    1.429    2.857    1.286    8.000    3.429 
#    7.714    0.000    0.000    0.000    0.000    0.000 
#    0.000    0.000    0.000    0.000    0.000    0.000 
#
# Total GULP energy -78178.150754 kJ/mol
# GULP energy per Si atom -5584.153625 kJ/mol
# Density = 2.289110 g / cm^3
# Si number density = 22.943323 Si / 1000 Ang^3
#
#
#
# Elastic Constant Matrix: (Units=GPa)
#
#
# Indices 1 2 3 4 5 6 
#
# 1 119.8409 47.0372 50.5780 -3.6733 -38.0201 -5.7112
# 2 47.0372 77.6539 20.9158 -13.1392 -15.3196 -4.6230
# 3 50.5780 20.9158 121.9167 -4.7345 -42.2404 -3.4772
# 4 -3.6733 -13.1392 -4.7345 23.3108 -0.8987 6.2783
# 5 -38.0201 -15.3196 -42.2404 -0.8987 46.6387 -1.2356
# 6 -5.7112 -4.6230 -3.4772 6.2783 -1.2356 48.3726
#
#
#
# Elastic Compliance Matrix: (Units=1/GPa)
#
#
# Indices 1 2 3 4 5 6 
#
# 1 0.014349 -0.006916 -0.002257 -0.002173 0.007375 0.001341
# 2 -0.006916 0.018799 0.000383 0.009685 0.001064 -0.000222
# 3 -0.002257 0.000383 0.012563 0.002630 0.009730 0.000580
# 4 -0.002173 0.009685 0.002630 0.050220 0.004613 -0.005542
# 5 0.007375 0.001064 0.009730 0.004613 0.036757 0.002012
# 6 0.001341 -0.000222 0.000580 -0.005542 0.002012 0.021622
#
#
# Mechanical properties :
#
#
# Convention : Reuss Voigt Hill
#
# Bulk Modulus (GPa) = 35.55039 61.83041 48.69040
# Shear Modulus (GPa) = 27.58337 37.05644 32.31990
#
# Velocity S-wave (km/s) = 3.47109 4.02323 3.75732
# Velocity P-wave (km/s) = 5.62078 6.97062 6.33177
#
# Compressibility (1/GPa) = 0.02812909
#
# Stress axis : x y z
#
# Youngs Moduli (GPa) = 69.69331 53.19304 79.59977
#
# Poissons Ratio (x) = 0.36790 0.17966
# Poissons Ratio (y) = 0.48202 -0.03045
# Poissons Ratio (z) = 0.15730 -0.02035
#
# Static dielectric constant tensor:
#      x y z
#    x 1.895110 -0.027870 0.007600 
#    y -0.027870 1.909570 0.019370 
#    z 0.007600 0.019370 1.870150 
# 
# From -- ./inp_files/458063.got.cif
#   From: 2010.05.17/outbox.cif.g08.bks.cpg/sg2_230_cif.got.tgz:458063.got - 2010.06.03 11:33:40.
