data_PCOD9017548
_publ_section_title
;
Structure prediction by ZEFSAII (Michael W. Deem and Ramdas Pophale) SiO2 
 PCOD9017548
Probable space group: P -1
;
_chemical_formula_sum "Si O2"
_cell_formula_units_Z 16
_cell_length_a 8.720797
_cell_length_b 16.449506
_cell_length_c 12.207260
_cell_angle_alpha 58.036119
_cell_angle_beta 55.068116
_cell_angle_gamma 106.841931
_cell_volume 636.910975
_symmetry_space_group_name_H-M "P -1"
_symmetry_group_IT_number 2
_symmetry_cell_setting 'triclinic'
loop_
_space_group_symop_operation_xyz
x,y,z
-x,-y,-z
loop_
_atom_site_type_symbol
_atom_site_label
_atom_site_fract_x
_atom_site_fract_y
_atom_site_fract_z
Si Si1 0.333154 0.867396 0.763156
Si Si2 0.807526 0.558894 0.698808
Si Si3 0.683705 0.848051 0.552091
Si Si4 0.920135 0.143577 0.515552
Si Si5 0.802704 0.828582 0.271786
Si Si6 0.171843 0.519373 0.587983
Si Si7 0.746470 0.739431 0.018356
Si Si8 0.784110 0.186798 0.861624
O O1 0.346819 0.763140 0.792299
O O2 0.500000 0.000000 0.500000
O O3 0.632587 0.014749 0.628246
O O4 0.952561 0.755247 0.002371
O O5 0.411823 0.384531 0.933597
O O6 0.899482 0.675111 0.671266
O O7 0.925667 0.503664 0.716181
O O8 0.052057 0.700028 0.396392
O O9 0.675763 0.805943 0.460913
O O10 0.785510 0.809915 0.623480
O O11 0.006241 0.066078 0.260196
O O12 0.642320 0.998751 0.831834
O O13 0.456435 0.640896 0.481952
O O14 0.073397 0.857932 0.146966
O O15 0.000000 0.000000 0.000000
O O16 0.417343 0.638791 0.293436
O O17 0.937621 0.323293 0.797902
#
# Coordination Sequence:
#
# PCOD9017548 Si02
#       8
#     2   2   2   2   2   2   2   2
#     4  10  25  44  68  88 123 179 221 265 320 380
#     4  11  23  39  68 104 135 164 210 272 330 385
#     4  11  23  43  66  92 131 174 220 265 314 386
#     4  12  23  42  68  97 128 168 222 265 320 392
#     4  12  23  37  64 101 135 169 215 268 325 384
#     4  11  22  38  66  98 140 170 204 265 335 387
#     4  10  21  43  64  94 133 172 213 261 323 384
#     4  11  23  39  63 101 134 170 205 267 333 392
#
# _framework density 25.121248000000001
#
# number of rings (size 3 to 8) (size 9 to 14) (size 15 to 20)
#    0.000    1.000    2.500    5.625    5.250    1.000 
#    0.000    3.125    2.750    0.000    0.000    0.000 
#    0.000    0.000    0.000    0.000    0.000    0.000 
#
# Total GULP energy -89634.841081 kJ/mol
# GULP energy per Si atom -5602.177568 kJ/mol
# Density = 2.506407 g / cm^3
# Si number density = 25.121248 Si / 1000 Ang^3
#
#
#
# Elastic Constant Matrix: (Units=GPa)
#
#
# Indices 1 2 3 4 5 6 
#
# 1 155.1304 62.5858 10.4137 9.4079 -16.1944 -21.3487
# 2 62.5858 182.2847 32.1374 -9.1434 -10.3662 -1.7658
# 3 10.4137 32.1374 75.4998 -5.9079 -9.2743 -7.2138
# 4 9.4079 -9.1434 -5.9079 32.1803 -3.7237 -3.0442
# 5 -16.1944 -10.3662 -9.2743 -3.7237 34.8804 5.2295
# 6 -21.3487 -1.7658 -7.2138 -3.0442 5.2295 56.4762
#
#
#
# Elastic Compliance Matrix: (Units=1/GPa)
#
#
# Indices 1 2 3 4 5 6 
#
# 1 0.008396 -0.002929 0.000446 -0.002660 0.002447 0.002769
# 2 -0.002929 0.007062 -0.002462 0.002363 0.000505 -0.001120
# 3 0.000446 -0.002462 0.015027 0.002503 0.003464 0.001825
# 4 -0.002660 0.002363 0.002503 0.033479 0.003578 0.000861
# 5 0.002447 0.000505 0.003464 0.003578 0.031459 -0.001337
# 6 0.002769 -0.001120 0.001825 0.000861 -0.001337 0.019122
#
#
# Mechanical properties :
#
#
# Convention : Reuss Voigt Hill
#
# Bulk Modulus (GPa) = 48.55622 69.24319 58.89971
# Shear Modulus (GPa) = 38.08094 45.22592 41.65343
#
# Velocity S-wave (km/s) = 3.89766 4.24760 4.07639
# Velocity P-wave (km/s) = 6.29495 7.18885 6.75670
#
# Compressibility (1/GPa) = 0.02059468
#
# Stress axis : x y z
#
# Youngs Moduli (GPa) = 119.11030 141.60554 66.54508
#
# Poissons Ratio (x) = 0.41470 -0.02965
# Poissons Ratio (y) = 0.34882 0.16384
# Poissons Ratio (z) = -0.05308 0.34866
#
# Static dielectric constant tensor:
#      x y z
#    x 1.986140 0.046790 0.049890 
#    y 0.046790 2.035960 0.102740 
#    z 0.049890 0.102740 2.059960 
# 
# From -- ./inp_files/319361.got.cif
#   From: 2010.05.17/outbox.cif.g08.bks.cpg/sg2_160_cif.got.tgz:319361.got - 2010.06.03 11:33:40.
