data_PCOD9017490
_publ_section_title
;
Structure prediction by ZEFSAII (Michael W. Deem and Ramdas Pophale) SiO2 
 PCOD9017490
Probable space group: P -1
;
_chemical_formula_sum "Si O2"
_cell_formula_units_Z 16
_cell_length_a 5.590923
_cell_length_b 19.602828
_cell_length_c 7.995272
_cell_angle_alpha 106.785487
_cell_angle_beta 58.754857
_cell_angle_gamma 93.834498
_cell_volume 713.557974
_symmetry_space_group_name_H-M "P -1"
_symmetry_group_IT_number 2
_symmetry_cell_setting 'triclinic'
loop_
_space_group_symop_operation_xyz
x,y,z
-x,-y,-z
loop_
_atom_site_type_symbol
_atom_site_label
_atom_site_fract_x
_atom_site_fract_y
_atom_site_fract_z
Si Si1 0.123986 0.064310 0.186418
Si Si2 0.720871 0.552589 0.109903
Si Si3 0.473618 0.832849 0.979813
Si Si4 0.717758 0.540437 0.702498
Si Si5 0.972219 0.917407 0.156269
Si Si6 0.492213 0.705557 0.426581
Si Si7 0.553247 0.138088 0.600263
Si Si8 0.188902 0.304893 0.345033
O O1 0.830652 0.101791 0.386513
O O2 0.364615 0.116077 0.165349
O O3 0.146834 0.983561 0.189437
O O4 0.122479 0.063427 0.984200
O O5 0.511897 0.514620 0.281074
O O6 0.668948 0.636200 0.231905
O O7 0.689720 0.550037 0.919263
O O8 0.000000 0.500000 0.000000
O O9 0.663960 0.758342 0.867586
O O10 0.416831 0.858964 0.208254
O O11 0.160475 0.841215 0.025110
O O12 0.706443 0.619138 0.687038
O O13 0.000000 0.500000 0.500000
O O14 0.710866 0.907693 0.362854
O O15 0.504088 0.780565 0.382193
O O16 0.658121 0.713180 0.545807
O O17 0.154135 0.692988 0.540218
#
# Coordination Sequence:
#
# PCOD9017490 Si02
#       8
#     2   2   2   2   2   2   2   2
#     4  10  21  43  63  96 135 174 229 287 350 414
#     4  11  26  44  74 107 140 183 232 288 342 415
#     4  11  24  41  66  97 132 182 230 285 349 410
#     4  11  24  46  72 103 143 181 231 282 347 410
#     4  10  23  39  67  96 131 180 227 289 346 417
#     4  12  27  47  73 103 141 187 233 285 348 410
#     4  11  24  41  67  96 138 177 233 284 348 412
#     4  12  27  46  75 100 141 190 231 285 349 411
#
# _framework density 22.422844999999999
#
# number of rings (size 3 to 8) (size 9 to 14) (size 15 to 20)
#    0.000    1.000    2.500    3.000    7.000    3.500 
#    0.000    0.000    0.000    0.000    0.000    0.000 
#    0.000    0.000    0.000    0.000    0.000    0.000 
#
# Total GULP energy -89247.200528 kJ/mol
# GULP energy per Si atom -5577.950033 kJ/mol
# Density = 2.237181 g / cm^3
# Si number density = 22.422845 Si / 1000 Ang^3
#
#
#
# Elastic Constant Matrix: (Units=GPa)
#
#
# Indices 1 2 3 4 5 6 
#
# 1 47.7169 16.9604 9.3158 -10.7048 -11.8441 -13.9817
# 2 16.9604 156.5886 50.4837 -2.4957 -16.8022 -12.8903
# 3 9.3158 50.4837 97.6014 -9.5288 -30.9589 3.0312
# 4 -10.7048 -2.4957 -9.5288 41.6749 -3.8171 -4.2115
# 5 -11.8441 -16.8022 -30.9589 -3.8171 35.8145 2.8004
# 6 -13.9817 -12.8903 3.0312 -4.2115 2.8004 26.8776
#
#
#
# Elastic Compliance Matrix: (Units=1/GPa)
#
#
# Indices 1 2 3 4 5 6 
#
# 1 0.030881 -0.001258 0.001795 0.010881 0.011098 0.015807
# 2 -0.001258 0.008208 -0.004579 -0.000575 -0.000882 0.003800
# 3 0.001795 -0.004579 0.017707 0.005172 0.014613 -0.003972
# 4 0.010881 -0.000575 0.005172 0.029730 0.010313 0.008385
# 5 0.011098 -0.000882 0.014613 0.010313 0.044858 0.000644
# 6 0.015807 0.003800 -0.003972 0.008385 0.000644 0.048946
#
#
# Mechanical properties :
#
#
# Convention : Reuss Voigt Hill
#
# Bulk Modulus (GPa) = 20.52961 50.60296 35.56629
# Shear Modulus (GPa) = 24.43165 35.88319 30.15742
#
# Velocity S-wave (km/s) = 3.30447 4.00471 3.67132
# Velocity P-wave (km/s) = 4.87185 6.63326 5.81958
#
# Compressibility (1/GPa) = 0.04871013
#
# Stress axis : x y z
#
# Youngs Moduli (GPa) = 32.38217 121.83537 56.47585
#
# Poissons Ratio (x) = 0.15326 -0.10135
# Poissons Ratio (y) = 0.04073 0.25863
# Poissons Ratio (z) = -0.05811 0.55794
#
# Static dielectric constant tensor:
#      x y z
#    x 1.964450 0.058050 0.012740 
#    y 0.058050 1.842840 0.022330 
#    z 0.012740 0.022330 1.788000 
# 
# From -- ./inp_files/11381.got.cif
#   From: 2010.05.17/outbox.cif.g08.bks.cpg/sg2_6_cif.got.tgz:11381.got - 2010.06.03 11:33:40.
