data_PCOD9017362
_publ_section_title
;
Structure prediction by ZEFSAII (Michael W. Deem and Ramdas Pophale) SiO2 
 PCOD9017362
Probable space group: P -1
;
_chemical_formula_sum "Si O2"
_cell_formula_units_Z 14
_cell_length_a 7.341801
_cell_length_b 12.185286
_cell_length_c 18.031825
_cell_angle_alpha 34.639073
_cell_angle_beta 141.914075
_cell_angle_gamma 122.926000
_cell_volume 540.136759
_symmetry_space_group_name_H-M "P -1"
_symmetry_group_IT_number 2
_symmetry_cell_setting 'triclinic'
loop_
_space_group_symop_operation_xyz
x,y,z
-x,-y,-z
loop_
_atom_site_type_symbol
_atom_site_label
_atom_site_fract_x
_atom_site_fract_y
_atom_site_fract_z
Si Si1 0.258398 0.794746 0.212737
Si Si2 0.192105 0.361370 0.428706
Si Si3 0.792680 0.915625 0.536538
Si Si4 0.755360 0.086989 0.071989
Si Si5 0.719128 0.735734 0.887444
Si Si6 0.915253 0.696416 0.414680
Si Si7 0.691775 0.295170 0.084574
O O1 0.151407 0.596444 0.289674
O O2 0.458153 0.776595 0.362514
O O3 0.042235 0.786613 0.973700
O O4 0.000000 0.000000 0.000000
O O5 0.159739 0.299858 0.368980
O O6 0.994087 0.323250 0.457474
O O7 0.972481 0.858772 0.701900
O O8 0.475228 0.089284 0.328019
O O9 0.000000 0.000000 0.500000
O O10 0.601550 0.228197 0.013624
O O11 0.987096 0.879627 0.294866
O O12 0.456563 0.244542 0.730040
O O13 0.500000 0.000000 0.000000
O O14 0.539765 0.736666 0.907668
O O15 0.721931 0.520489 0.972781
O O16 0.000000 0.500000 0.500000
#
# Coordination Sequence:
#
# PCOD9017362 Si02
#       7
#     2   2   2   2   2   2   2
#     4   9  21  42  70 100 144 202 245 306 382 461
#     4   9  21  41  69 101 144 189 252 309 370 460
#     4  10  21  42  75 107 134 192 256 309 376 454
#     4  12  28  49  72 115 159 199 259 327 396 477
#     4  10  24  48  82 108 151 200 257 326 388 467
#     4  10  23  44  60 103 156 191 242 314 385 458
#     4  10  24  52  76 112 147 201 265 314 395 466
#
# _framework density 25.919364000000002
#
# number of rings (size 3 to 8) (size 9 to 14) (size 15 to 20)
#    0.857    1.143    0.000    2.143    2.000    5.714 
#   15.429    0.000    0.000    0.000    0.000    0.000 
#    0.000    0.000    0.000    0.000    0.000    0.000 
#
# Total GULP energy -78217.466188 kJ/mol
# GULP energy per Si atom -5586.961871 kJ/mol
# Density = 2.586037 g / cm^3
# Si number density = 25.919364 Si / 1000 Ang^3
#
#
#
# Elastic Constant Matrix: (Units=GPa)
#
#
# Indices 1 2 3 4 5 6 
#
# 1 141.2526 68.3805 40.9390 -10.8543 -6.5789 7.9987
# 2 68.3805 183.9190 43.0674 -2.4336 -3.1723 -1.0928
# 3 40.9390 43.0674 110.5545 -6.5345 10.5349 0.2496
# 4 -10.8543 -2.4336 -6.5345 44.5191 6.2440 -2.9135
# 5 -6.5789 -3.1723 10.5349 6.2440 30.6331 -8.5920
# 6 7.9987 -1.0928 0.2496 -2.9135 -8.5920 44.4850
#
#
#
# Elastic Compliance Matrix: (Units=1/GPa)
#
#
# Indices 1 2 3 4 5 6 
#
# 1 0.009473 -0.002898 -0.002475 0.001432 0.001931 -0.001294
# 2 -0.002898 0.006946 -0.001779 -0.000684 0.001092 0.000868
# 3 -0.002475 -0.001779 0.011234 0.001623 -0.005060 -0.000533
# 4 0.001432 -0.000684 0.001623 0.023744 -0.005080 0.000291
# 5 0.001931 0.001092 -0.005060 -0.005080 0.037821 0.006680
# 6 -0.001294 0.000868 -0.000533 0.000291 0.006680 0.024046
#
#
# Mechanical properties :
#
#
# Convention : Reuss Voigt Hill
#
# Bulk Modulus (GPa) = 74.91495 82.27775 78.59635
# Shear Modulus (GPa) = 37.87330 42.81672 40.34501
#
# Velocity S-wave (km/s) = 3.82671 4.06879 3.94960
# Velocity P-wave (km/s) = 6.96353 7.34071 7.15461
#
# Compressibility (1/GPa) = 0.01334847
#
# Stress axis : x y z
#
# Youngs Moduli (GPa) = 105.56221 143.96453 89.01231
#
# Poissons Ratio (x) = 0.41718 0.22035
# Poissons Ratio (y) = 0.30590 0.15838
# Poissons Ratio (z) = 0.26132 0.25615
#
# Static dielectric constant tensor:
#      x y z
#    x 1.972480 -0.031150 -0.006440 
#    y -0.031150 2.029170 0.121200 
#    z -0.006440 0.121200 2.125600 
# 
# From -- ./inp_files/594922.got.cif
#   From: 2010.05.17/outbox.cif.g08.bks.cpg/sg2_298_cif.got.tgz:594922.got - 2010.06.03 11:33:40.
