data_PCOD9017451
_publ_section_title
;
Structure prediction by ZEFSAII (Michael W. Deem and Ramdas Pophale) SiO2 
 PCOD9017451
Probable space group: P -1
;
_chemical_formula_sum "Si O2"
_cell_formula_units_Z 14
_cell_length_a 9.309983
_cell_length_b 28.287673
_cell_length_c 12.739135
_cell_angle_alpha 159.470291
_cell_angle_beta 36.078551
_cell_angle_gamma 142.093307
_cell_volume 684.430403
_symmetry_space_group_name_H-M "P -1"
_symmetry_group_IT_number 2
_symmetry_cell_setting 'triclinic'
loop_
_space_group_symop_operation_xyz
x,y,z
-x,-y,-z
loop_
_atom_site_type_symbol
_atom_site_label
_atom_site_fract_x
_atom_site_fract_y
_atom_site_fract_z
Si Si1 0.678469 0.433221 0.332733
Si Si2 0.643874 0.030742 0.265343
Si Si3 0.451047 0.292585 0.381906
Si Si4 0.228072 0.984250 0.078000
Si Si5 0.953819 0.384930 0.375972
Si Si6 0.025013 0.789595 0.392741
Si Si7 0.123776 0.119754 0.752046
O O1 0.500000 0.500000 0.500000
O O2 0.531909 0.387184 0.431186
O O3 0.922119 0.542303 0.442746
O O4 0.780656 0.299563 0.952224
O O5 0.397841 0.095729 0.562661
O O6 0.837066 0.094529 0.370417
O O7 0.744847 0.064221 0.157883
O O8 0.573185 0.866625 0.968776
O O9 0.665702 0.323314 0.407158
O O10 0.187768 0.304686 0.612333
O O11 0.038984 0.887706 0.061873
O O12 0.118176 0.127120 0.432502
O O13 0.500000 0.000000 0.000000
O O14 0.000000 0.500000 0.500000
O O15 0.104882 0.262964 0.007961
O O16 0.000000 0.000000 0.500000
#
# Coordination Sequence:
#
# PCOD9017451 Si02
#       7
#     2   2   2   2   2   2   2
#     4  11  25  43  63  91 131 176 222 259 317 399
#     4  11  23  40  65  99 132 164 214 279 325 380
#     4  10  21  43  63  90 130 166 216 276 321 375
#     4  11  22  38  65  99 126 160 216 274 322 384
#     4  10  23  41  64  92 131 171 213 268 320 387
#     4  11  25  41  65  96 131 174 214 268 332 385
#     4  12  21  39  69  95 125 169 216 272 327 371
#
# _framework density 20.454965999999999
#
# number of rings (size 3 to 8) (size 9 to 14) (size 15 to 20)
#    0.000    1.143    2.857    4.286    2.000    6.857 
#    0.000    2.857    0.000    0.000    0.000    0.000 
#    0.000    0.000    0.000    0.000    0.000    0.000 
#
# Total GULP energy -78213.585924 kJ/mol
# GULP energy per Si atom -5586.684709 kJ/mol
# Density = 2.040841 g / cm^3
# Si number density = 20.454966 Si / 1000 Ang^3
#
#
#
# Elastic Constant Matrix: (Units=GPa)
#
#
# Indices 1 2 3 4 5 6 
#
# 1 145.2306 35.6282 41.2896 2.6737 -8.9270 16.6742
# 2 35.6282 87.9460 14.7242 -4.8432 -10.4034 6.0939
# 3 41.2896 14.7242 75.3938 9.7568 -9.4483 -2.1528
# 4 2.6737 -4.8432 9.7568 29.5450 11.9690 -2.3803
# 5 -8.9270 -10.4034 -9.4483 11.9690 42.3109 7.2563
# 6 16.6742 6.0939 -2.1528 -2.3803 7.2563 33.3971
#
#
#
# Elastic Compliance Matrix: (Units=1/GPa)
#
#
# Indices 1 2 3 4 5 6 
#
# 1 0.009484 -0.002616 -0.004553 -0.000743 0.001393 -0.004907
# 2 -0.002616 0.013075 -0.001117 0.001746 0.002177 -0.001500
# 3 -0.004553 -0.001117 0.017500 -0.007126 0.004318 0.002159
# 4 -0.000743 0.001746 -0.007126 0.042868 -0.014438 0.005785
# 5 0.001393 0.002177 0.004318 -0.014438 0.030983 -0.008575
# 6 -0.004907 -0.001500 0.002159 0.005785 -0.008575 0.035081
#
#
# Mechanical properties :
#
#
# Convention : Reuss Voigt Hill
#
# Bulk Modulus (GPa) = 42.57423 54.65049 48.61236
# Shear Modulus (GPa) = 28.83637 35.51248 32.17442
#
# Velocity S-wave (km/s) = 3.75874 4.17121 3.97033
# Velocity P-wave (km/s) = 6.30050 7.06924 6.69591
#
# Compressibility (1/GPa) = 0.02348839
#
# Stress axis : x y z
#
# Youngs Moduli (GPa) = 105.43606 76.48145 57.14295
#
# Poissons Ratio (x) = 0.20009 0.26015
# Poissons Ratio (y) = 0.27584 0.06382
# Poissons Ratio (z) = 0.48000 0.08541
#
# Static dielectric constant tensor:
#      x y z
#    x 1.753380 0.001760 0.002980 
#    y 0.001760 1.743330 0.006740 
#    z 0.002980 0.006740 1.722880 
# 
# From -- ./inp_files/174160.got.cif
#   From: 2010.05.17/outbox.cif.g08.bks.cpg/sg2_88_cif.got.tgz:174160.got - 2010.06.03 11:33:40.
