data_PCOD9017189
_publ_section_title
;
Structure prediction by ZEFSAII (Michael W. Deem and Ramdas Pophale) SiO2 
 PCOD9017189
Probable space group: P -1
;
_chemical_formula_sum "Si O2"
_cell_formula_units_Z 15
_cell_length_a 11.242869
_cell_length_b 6.891460
_cell_length_c 14.744890
_cell_angle_alpha 93.875446
_cell_angle_beta 152.482292
_cell_angle_gamma 83.436970
_cell_volume 522.948195
_symmetry_space_group_name_H-M "P -1"
_symmetry_group_IT_number 2
_symmetry_cell_setting 'triclinic'
loop_
_space_group_symop_operation_xyz
x,y,z
-x,-y,-z
loop_
_atom_site_type_symbol
_atom_site_label
_atom_site_fract_x
_atom_site_fract_y
_atom_site_fract_z
Si Si1 0.750134 0.847583 0.681123
Si Si2 0.000000 0.000000 0.500000
Si Si3 0.449174 0.230802 0.767576
Si Si4 0.893500 0.330439 0.577865
Si Si5 0.282636 0.593214 0.785319
Si Si6 0.930234 0.193522 0.955250
Si Si7 0.380481 0.477419 0.340077
Si Si8 0.833383 0.056458 0.172293
O O1 0.591656 0.633124 0.542489
O O2 0.928236 0.998061 0.880233
O O3 0.941483 0.851138 0.725976
O O4 0.500000 0.000000 0.500000
O O5 0.926447 0.212108 0.503612
O O6 0.230114 0.093341 0.595657
O O7 0.361818 0.453986 0.748085
O O8 0.658627 0.233274 0.830102
O O9 0.591325 0.116057 0.945795
O O10 0.607444 0.378763 0.424010
O O11 0.027214 0.522234 0.654548
O O12 0.072101 0.172502 0.757135
O O13 0.250482 0.831619 0.785024
O O14 0.500000 0.500000 0.000000
O O15 0.175685 0.290261 0.178378
O O16 0.856572 0.357190 0.832802
#
# Coordination Sequence:
#
# PCOD9017189 Si02
#       8
#     2   1   2   2   2   2   2   2
#     4  11  22  44  71 103 139 185 234 293 364 433
#     4  10  24  42  66 104 142 188 238 296 364 432
#     4   9  22  43  68 101 141 187 240 299 363 428
#     4  11  24  42  69 103 140 187 242 298 362 435
#     4   9  20  40  65 100 137 183 243 297 358 433
#     4  11  26  44  70 102 144 187 236 298 362 432
#     4  12  26  44  69 105 142 190 244 295 362 434
#     4  10  21  42  72 101 141 187 239 299 359 436
#
# _framework density 28.683530999999999
#
# number of rings (size 3 to 8) (size 9 to 14) (size 15 to 20)
#    0.000    1.600    1.333    2.000    3.733    8.000 
#    0.000    4.000    0.000    0.000    0.000    0.000 
#    0.000    0.000    0.000    0.000    0.000    0.000 
#
# Total GULP energy -83722.515669 kJ/mol
# GULP energy per Si atom -5581.501045 kJ/mol
# Density = 2.861825 g / cm^3
# Si number density = 28.683531 Si / 1000 Ang^3
#
#
#
# Elastic Constant Matrix: (Units=GPa)
#
#
# Indices 1 2 3 4 5 6 
#
# 1 124.8594 27.8313 21.9872 17.9552 24.6616 -25.3507
# 2 27.8313 256.4865 24.8142 -16.4531 28.3053 -10.1201
# 3 21.9872 24.8142 159.1288 -11.8268 -7.7431 -0.9186
# 4 17.9552 -16.4531 -11.8268 62.4618 14.4375 -1.3877
# 5 24.6616 28.3053 -7.7431 14.4375 71.6678 6.6577
# 6 -25.3507 -10.1201 -0.9186 -1.3877 6.6577 45.8438
#
#
#
# Elastic Compliance Matrix: (Units=1/GPa)
#
#
# Indices 1 2 3 4 5 6 
#
# 1 0.010829 -0.000502 -0.001756 -0.002562 -0.003788 0.006315
# 2 -0.000502 0.004386 -0.000583 0.001688 -0.002058 0.001029
# 3 -0.001756 -0.000583 0.006775 0.001282 0.001413 -0.001131
# 4 -0.002562 0.001688 0.001282 0.018200 -0.003314 0.000014
# 5 -0.003788 -0.002058 0.001413 -0.003314 0.017368 -0.005143
# 6 0.006315 0.001029 -0.001131 0.000014 -0.005143 0.026257
#
#
# Mechanical properties :
#
#
# Convention : Reuss Voigt Hill
#
# Bulk Modulus (GPa) = 61.32490 76.63778 68.98134
# Shear Modulus (GPa) = 52.66841 67.05081 59.85961
#
# Velocity S-wave (km/s) = 4.28973 4.84013 4.57321
# Velocity P-wave (km/s) = 6.77952 7.61657 7.21020
#
# Compressibility (1/GPa) = 0.01630659
#
# Stress axis : x y z
#
# Youngs Moduli (GPa) = 92.34500 228.01261 147.59315
#
# Poissons Ratio (x) = 0.11452 0.25921
# Poissons Ratio (y) = 0.04638 0.08609
# Poissons Ratio (z) = 0.16218 0.13299
#
# Static dielectric constant tensor:
#      x y z
#    x 2.719720 0.257600 -0.463600 
#    y 0.257600 2.382340 0.046340 
#    z -0.463600 0.046340 2.621740 
# 
# From -- ./inp_files/596743.got.cif
#   From: 2010.05.17/outbox.cif.g08.bks.cpg/sg2_299_cif.got.tgz:596743.got - 2010.06.03 11:33:40.
