data_PCOD9017303
_publ_section_title
;
Structure prediction by ZEFSAII (Michael W. Deem and Ramdas Pophale) SiO2 
 PCOD9017303
Probable space group: P -1
;
_chemical_formula_sum "Si O2"
_cell_formula_units_Z 14
_cell_length_a 6.128566
_cell_length_b 16.501561
_cell_length_c 10.614937
_cell_angle_alpha 134.119241
_cell_angle_beta 119.389067
_cell_angle_gamma 44.315348
_cell_volume 538.327861
_symmetry_space_group_name_H-M "P -1"
_symmetry_group_IT_number 2
_symmetry_cell_setting 'triclinic'
loop_
_space_group_symop_operation_xyz
x,y,z
-x,-y,-z
loop_
_atom_site_type_symbol
_atom_site_label
_atom_site_fract_x
_atom_site_fract_y
_atom_site_fract_z
Si Si1 0.802412 0.698577 0.046313
Si Si2 0.898031 0.896726 0.218531
Si Si3 0.882272 0.412838 0.734935
Si Si4 0.475532 0.820598 0.464687
Si Si5 0.751214 0.293371 0.352483
Si Si6 0.893632 0.015192 0.842513
Si Si7 0.198128 0.332910 0.361121
O O1 0.908005 0.762562 0.043906
O O2 0.451243 0.840716 0.125997
O O3 0.071797 0.642708 0.170090
O O4 0.797502 0.566871 0.883997
O O5 0.190786 0.849965 0.335802
O O6 0.890062 0.966625 0.163677
O O7 0.620822 0.024608 0.362735
O O8 0.685904 0.406876 0.562432
O O9 0.229318 0.295741 0.657742
O O10 0.554277 0.744273 0.538318
O O11 0.436102 0.298978 0.273057
O O12 0.944028 0.299825 0.295030
O O13 0.009380 0.139987 0.321540
O O14 0.000000 0.000000 0.000000
O O15 0.000000 0.500000 0.500000
#
# Coordination Sequence:
#
# PCOD9017303 Si02
#       7
#     2   2   2   2   2   2   2
#     4  11  24  44  69 107 146 186 237 309 376 439
#     4  11  23  45  73 102 139 187 250 304 367 431
#     4  10  23  44  72 108 145 184 243 304 375 438
#     4  10  21  42  73 109 132 191 244 305 357 445
#     4  11  25  49  73 109 140 202 254 298 368 444
#     4  12  28  48  70 102 147 192 247 304 372 438
#     4  11  23  42  72 109 148 182 241 305 370 440
#
# _framework density 26.006457999999999
#
# number of rings (size 3 to 8) (size 9 to 14) (size 15 to 20)
#    0.000    1.143    2.857    3.000    2.000    5.714 
#   10.286    0.000    0.000    0.000    0.000    0.000 
#    0.000    0.000    0.000    0.000    0.000    0.000 
#
# Total GULP energy -77983.712151 kJ/mol
# GULP energy per Si atom -5570.265154 kJ/mol
# Density = 2.594727 g / cm^3
# Si number density = 26.006458 Si / 1000 Ang^3
#
#
#
# Elastic Constant Matrix: (Units=GPa)
#
#
# Indices 1 2 3 4 5 6 
#
# 1 160.1401 55.5289 40.6818 19.0578 6.1570 14.0833
# 2 55.5289 149.4238 44.6207 17.4100 4.1235 6.2264
# 3 40.6818 44.6207 100.3380 27.7711 18.9103 9.6961
# 4 19.0578 17.4100 27.7711 54.7708 -0.3793 5.8579
# 5 6.1570 4.1235 18.9103 -0.3793 23.0936 11.2377
# 6 14.0833 6.2264 9.6961 5.8579 11.2377 54.5583
#
#
#
# Elastic Compliance Matrix: (Units=1/GPa)
#
#
# Indices 1 2 3 4 5 6 
#
# 1 0.007674 -0.002143 -0.001882 -0.000879 0.000556 -0.001422
# 2 -0.002143 0.008407 -0.003073 -0.000339 0.001662 -0.000166
# 3 -0.001882 -0.003073 0.016342 -0.006892 -0.013113 0.001373
# 4 -0.000879 -0.000339 -0.006892 0.022482 0.007510 -0.002470
# 5 0.000556 0.001662 -0.013113 0.007510 0.059058 -0.010973
# 6 -0.001422 -0.000166 0.001373 -0.002470 -0.010973 0.020996
#
#
# Mechanical properties :
#
#
# Convention : Reuss Voigt Hill
#
# Bulk Modulus (GPa) = 54.86663 76.84054 65.85359
# Shear Modulus (GPa) = 32.20962 44.42259 38.31610
#
# Velocity S-wave (km/s) = 3.52308 4.13745 3.84256
# Velocity P-wave (km/s) = 6.13943 7.24123 6.71298
#
# Compressibility (1/GPa) = 0.01822601
#
# Stress axis : x y z
#
# Youngs Moduli (GPa) = 130.30599 118.94662 61.19106
#
# Poissons Ratio (x) = 0.25496 0.11519
# Poissons Ratio (y) = 0.27931 0.18803
# Poissons Ratio (z) = 0.24529 0.36551
#
# Static dielectric constant tensor:
#      x y z
#    x 2.247410 0.176190 0.042260 
#    y 0.176190 2.605970 -0.024670 
#    z 0.042260 -0.024670 2.243280 
# 
# From -- ./inp_files/368091.got.cif
#   From: 2010.05.17/outbox.cif.g08.bks.cpg/sg2_185_cif.got.tgz:368091.got - 2010.06.03 11:33:40.
