data_PCOD9017838
_publ_section_title
;
Structure prediction by ZEFSAII (Michael W. Deem and Ramdas Pophale) SiO2 
 PCOD9017838
Probable space group: P -1
;
_chemical_formula_sum "Si O2"
_cell_formula_units_Z 16
_cell_length_a 5.514633
_cell_length_b 25.129352
_cell_length_c 11.591535
_cell_angle_alpha 149.116978
_cell_angle_beta 128.552640
_cell_angle_gamma 58.779090
_cell_volume 644.254136
_symmetry_space_group_name_H-M "P -1"
_symmetry_group_IT_number 2
_symmetry_cell_setting 'triclinic'
loop_
_space_group_symop_operation_xyz
x,y,z
-x,-y,-z
loop_
_atom_site_type_symbol
_atom_site_label
_atom_site_fract_x
_atom_site_fract_y
_atom_site_fract_z
Si Si1 0.213520 0.246559 0.059592
Si Si2 0.093828 0.114378 0.104962
Si Si3 0.366594 0.595287 0.390502
Si Si4 0.302339 0.610281 0.901275
Si Si5 0.816611 0.440075 0.982283
Si Si6 0.260193 0.901355 0.260636
Si Si7 0.258251 0.233937 0.777109
Si Si8 0.787123 0.130363 0.282818
O O1 0.494601 0.303538 0.317159
O O2 0.284470 0.240053 0.933434
O O3 0.941008 0.332009 0.143390
O O4 0.082699 0.132484 0.849876
O O5 0.427090 0.157419 0.237197
O O6 0.971077 0.158494 0.271396
O O7 0.834109 0.125205 0.949454
O O8 0.163323 0.993160 0.919906
O O9 0.220575 0.612335 0.252181
O O10 0.641744 0.511816 0.316313
O O11 0.084390 0.529917 0.245355
O O12 0.202190 0.630447 0.040667
O O13 0.637185 0.661251 0.061776
O O14 0.500000 0.500000 0.000000
O O15 0.459012 0.840961 0.302172
O O16 0.500000 0.000000 0.500000
O O17 0.956739 0.180358 0.536063
#
# Coordination Sequence:
#
# PCOD9017838 Si02
#       8
#     2   2   2   2   2   2   2   2
#     4  11  26  41  66 100 133 177 231 286 349 421
#     4  10  23  44  71 103 130 190 230 295 356 421
#     4  10  21  43  66  97 133 174 226 280 346 419
#     4  10  22  41  66  96 129 180 222 278 348 411
#     4   9  20  39  67  94 130 176 220 280 342 404
#     4  11  25  46  68  97 138 182 232 289 357 421
#     4  11  25  42  66 101 137 184 231 290 352 421
#     4  10  23  43  70 100 140 175 244 289 354 425
#
# _framework density 24.834921000000001
#
# number of rings (size 3 to 8) (size 9 to 14) (size 15 to 20)
#    0.000    1.750    1.250    1.125    5.250    8.500 
#    6.750    0.000    0.000    0.000    0.000    0.000 
#    0.000    0.000    0.000    0.000    0.000    0.000 
#
# Total GULP energy -89204.059725 kJ/mol
# GULP energy per Si atom -5575.253733 kJ/mol
# Density = 2.477840 g / cm^3
# Si number density = 24.834921 Si / 1000 Ang^3
#
#
#
# Elastic Constant Matrix: (Units=GPa)
#
#
# Indices 1 2 3 4 5 6 
#
# 1 135.5836 19.9423 85.9787 -11.6891 16.9789 29.6203
# 2 19.9423 87.7588 28.3227 -12.1199 15.1062 0.2267
# 3 85.9787 28.3227 170.8886 -29.2864 31.4012 14.5325
# 4 -11.6891 -12.1199 -29.2864 36.1913 -5.8913 7.1174
# 5 16.9789 15.1062 31.4012 -5.8913 32.1292 -0.5697
# 6 29.6203 0.2267 14.5325 7.1174 -0.5697 55.5253
#
#
#
# Elastic Compliance Matrix: (Units=1/GPa)
#
#
# Indices 1 2 3 4 5 6 
#
# 1 0.012120 -0.000848 -0.005338 0.000175 -0.000847 -0.005096
# 2 -0.000848 0.012928 -0.000332 0.003002 -0.004754 0.000053
# 3 -0.005338 -0.000332 0.010923 0.006099 -0.006595 -0.000859
# 4 0.000175 0.003002 0.006099 0.034639 -0.001222 -0.006155
# 5 -0.000847 -0.004754 -0.006595 -0.001222 0.040077 0.002765
# 6 -0.005096 0.000053 -0.000859 -0.006155 0.002765 0.021770
#
#
# Mechanical properties :
#
#
# Convention : Reuss Voigt Hill
#
# Bulk Modulus (GPa) = 43.60601 73.63538 58.62069
# Shear Modulus (GPa) = 32.65002 42.10164 37.37583
#
# Velocity S-wave (km/s) = 3.62979 4.12182 3.88360
# Velocity P-wave (km/s) = 5.92989 7.23649 6.61553
#
# Compressibility (1/GPa) = 0.02293262
#
# Stress axis : x y z
#
# Youngs Moduli (GPa) = 82.50870 77.35380 91.55170
#
# Poissons Ratio (x) = 0.06561 0.48873
# Poissons Ratio (y) = 0.06998 0.03043
# Poissons Ratio (z) = 0.44046 0.02571
#
# Static dielectric constant tensor:
#      x y z
#    x 2.088660 -0.098310 -0.008980 
#    y -0.098310 2.073010 0.093660 
#    z -0.008980 0.093660 1.978620 
# 
# From -- ./inp_files/99578.got.cif
#   From: 2010.05.17/outbox.cif.g08.bks.cpg/sg2_50_cif.got.tgz:99578.got - 2010.06.03 11:33:40.
