data_PCOD9017037
_publ_section_title
;
Structure prediction by ZEFSAII (Michael W. Deem and Ramdas Pophale) SiO2 
 PCOD9017037
Probable space group: P -1
;
_chemical_formula_sum "Si O2"
_cell_formula_units_Z 14
_cell_length_a 9.394018
_cell_length_b 23.290600
_cell_length_c 17.379810
_cell_angle_alpha 159.694219
_cell_angle_beta 27.171916
_cell_angle_gamma 145.344528
_cell_volume 600.950735
_symmetry_space_group_name_H-M "P -1"
_symmetry_group_IT_number 2
_symmetry_cell_setting 'triclinic'
loop_
_space_group_symop_operation_xyz
x,y,z
-x,-y,-z
loop_
_atom_site_type_symbol
_atom_site_label
_atom_site_fract_x
_atom_site_fract_y
_atom_site_fract_z
Si Si1 0.334085 0.163565 0.617498
Si Si2 0.885698 0.358241 0.431719
Si Si3 0.194701 0.603689 0.308158
Si Si4 0.079964 0.548153 0.887234
Si Si5 0.637186 0.757300 0.569334
Si Si6 0.266061 0.868404 0.037604
Si Si7 0.472789 0.177485 0.978395
O O1 0.685626 0.211976 0.527601
O O2 0.077468 0.177079 0.826185
O O3 0.189571 0.302132 0.800394
O O4 0.346985 0.981449 0.346747
O O5 0.844071 0.432963 0.630617
O O6 0.585138 0.289167 0.451042
O O7 0.000000 0.500000 0.500000
O O8 0.135458 0.203758 0.135403
O O9 0.923898 0.540516 0.306215
O O10 0.500000 0.500000 0.000000
O O11 0.088074 0.389041 0.738002
O O12 0.377458 0.648144 0.888696
O O13 0.760307 0.936922 0.724978
O O14 0.418658 0.771943 0.769830
O O15 0.490568 0.844892 0.975363
#
# Coordination Sequence:
#
# PCOD9017037 Si02
#       7
#     2   2   2   2   2   2   2
#     4  10  23  44  68  98 130 187 227 276 329 415
#     4  12  26  42  68 102 139 171 228 287 336 394
#     4  10  24  44  70  98 134 182 227 270 339 412
#     4  10  21  42  70  97 135 176 233 271 337 406
#     4  11  24  42  66 110 133 176 223 294 338 394
#     4  10  23  42  70  97 141 175 230 274 348 404
#     4  11  23  44  70  94 134 188 225 271 342 412
#
# _framework density 23.296419
#
# number of rings (size 3 to 8) (size 9 to 14) (size 15 to 20)
#    0.000    1.429    1.429    3.429    6.000    8.571 
#    5.143    5.714    0.000    0.000    0.000    0.000 
#    0.000    0.000    0.000    0.000    0.000    0.000 
#
# Total GULP energy -78176.638817 kJ/mol
# GULP energy per Si atom -5584.045630 kJ/mol
# Density = 2.324340 g / cm^3
# Si number density = 23.296419 Si / 1000 Ang^3
#
#
#
# Elastic Constant Matrix: (Units=GPa)
#
#
# Indices 1 2 3 4 5 6 
#
# 1 86.6700 19.5634 27.4019 5.0384 10.5133 2.0919
# 2 19.5634 92.3228 26.1325 9.9191 12.0161 -7.2157
# 3 27.4019 26.1325 112.8475 18.5568 -1.6787 -13.0866
# 4 5.0384 9.9191 18.5568 30.1872 -7.4763 10.6510
# 5 10.5133 12.0161 -1.6787 -7.4763 30.2560 10.3490
# 6 2.0919 -7.2157 -13.0866 10.6510 10.3490 30.6718
#
#
#
# Elastic Compliance Matrix: (Units=1/GPa)
#
#
# Indices 1 2 3 4 5 6 
#
# 1 0.013359 -0.001479 -0.002982 -0.000562 -0.004024 -0.000979
# 2 -0.001479 0.015012 0.000104 -0.012158 -0.012603 0.012151
# 3 -0.002982 0.000104 0.013141 -0.013483 -0.005884 0.012502
# 4 -0.000562 -0.012158 -0.013483 0.070980 0.037508 -0.045878
# 5 -0.004024 -0.012603 -0.005884 0.037508 0.061758 -0.039063
# 6 -0.000979 0.012151 0.012502 -0.045878 -0.039063 0.069975
#
#
# Mechanical properties :
#
#
# Convention : Reuss Voigt Hill
#
# Bulk Modulus (GPa) = 30.49088 48.67066 39.58077
# Shear Modulus (GPa) = 18.94855 32.80584 25.87719
#
# Velocity S-wave (km/s) = 2.85505 3.75666 3.33645
# Velocity P-wave (km/s) = 4.89746 6.30507 5.64531
#
# Compressibility (1/GPa) = 0.03279669
#
# Stress axis : x y z
#
# Youngs Moduli (GPa) = 74.85472 66.61411 76.09741
#
# Poissons Ratio (x) = 0.09852 0.22695
# Poissons Ratio (y) = 0.11071 -0.00789
# Poissons Ratio (z) = 0.22325 -0.00691
#
# Static dielectric constant tensor:
#      x y z
#    x 1.915660 0.058580 -0.021070 
#    y 0.058580 1.989830 -0.075150 
#    z -0.021070 -0.075150 1.970340 
# 
# From -- ./inp_files/563312.got.cif
#   From: 2010.05.17/outbox.cif.g08.bks.cpg/sg2_282_cif.got.tgz:563312.got - 2010.06.03 11:33:40.
