data_PCOD9017179
_publ_section_title
;
Structure prediction by ZEFSAII (Michael W. Deem and Ramdas Pophale) SiO2 
 PCOD9017179
Probable space group: P -1
;
_chemical_formula_sum "Si O2"
_cell_formula_units_Z 14
_cell_length_a 12.473522
_cell_length_b 9.730702
_cell_length_c 9.445533
_cell_angle_alpha 55.604893
_cell_angle_beta 53.052695
_cell_angle_gamma 44.069863
_cell_volume 618.759100
_symmetry_space_group_name_H-M "P -1"
_symmetry_group_IT_number 2
_symmetry_cell_setting 'triclinic'
loop_
_space_group_symop_operation_xyz
x,y,z
-x,-y,-z
loop_
_atom_site_type_symbol
_atom_site_label
_atom_site_fract_x
_atom_site_fract_y
_atom_site_fract_z
Si Si1 0.299154 0.735842 0.197404
Si Si2 0.885167 0.599842 0.668305
Si Si3 0.487406 0.129390 0.304781
Si Si4 0.655384 0.356398 0.094851
Si Si5 0.949576 0.226357 0.419089
Si Si6 0.138277 0.565210 0.934708
Si Si7 0.338580 0.087871 0.984376
O O1 0.496337 0.589291 0.104176
O O2 0.219551 0.668750 0.414558
O O3 0.247797 0.715211 0.091021
O O4 0.265284 0.952752 0.139485
O O5 0.695234 0.713891 0.706244
O O6 0.000000 0.500000 0.500000
O O7 0.918336 0.761372 0.605974
O O8 0.938368 0.440521 0.849659
O O9 0.569701 0.239698 0.230395
O O10 0.500000 0.000000 0.500000
O O11 0.600911 0.965467 0.192198
O O12 0.766785 0.337616 0.144395
O O13 0.933183 0.324973 0.222132
O O14 0.000000 0.000000 0.500000
O O15 0.233475 0.327153 0.957592
O O16 0.500000 0.000000 0.000000
#
# Coordination Sequence:
#
# PCOD9017179 Si02
#       7
#     2   2   2   2   2   2   2
#     4  10  21  43  67 100 139 179 226 285 349 415
#     4  12  26  49  70 101 146 189 231 282 355 432
#     4  11  26  43  73 105 141 181 238 288 352 415
#     4  10  21  42  72 100 134 176 231 292 348 405
#     4  12  29  45  67  99 145 190 234 283 349 424
#     4  12  25  45  73 104 139 185 236 295 351 410
#     4  11  21  42  73 104 139 177 229 301 349 405
#
# _framework density 22.625928999999999
#
# number of rings (size 3 to 8) (size 9 to 14) (size 15 to 20)
#    0.000    0.857    2.857    4.714    6.000    0.571 
#    2.571    1.429    0.000    0.000    0.000    0.000 
#    0.000    0.000    0.000    0.000    0.000    0.000 
#
# Total GULP energy -78116.199115 kJ/mol
# GULP energy per Si atom -5579.728508 kJ/mol
# Density = 2.257443 g / cm^3
# Si number density = 22.625929 Si / 1000 Ang^3
#
#
#
# Elastic Constant Matrix: (Units=GPa)
#
#
# Indices 1 2 3 4 5 6 
#
# 1 155.3051 49.6551 57.7709 0.4634 -2.6163 42.8616
# 2 49.6551 104.9287 57.2854 2.9579 10.0405 30.4945
# 3 57.7709 57.2854 174.4673 -2.9383 -2.2730 2.4872
# 4 0.4634 2.9579 -2.9383 32.7179 -1.3997 -2.5116
# 5 -2.6163 10.0405 -2.2730 -1.3997 27.4454 0.0986
# 6 42.8616 30.4945 2.4872 -2.5116 0.0986 35.8706
#
#
#
# Elastic Compliance Matrix: (Units=1/GPa)
#
#
# Indices 1 2 3 4 5 6 
#
# 1 0.011649 0.000871 -0.003959 -0.001694 0.000429 -0.014505
# 2 0.000871 0.017900 -0.006092 -0.003716 -0.007102 -0.016077
# 3 -0.003959 -0.006092 0.008981 0.002252 0.002676 0.009438
# 4 -0.001694 -0.003716 0.002252 0.031810 0.002981 0.007246
# 5 0.000429 -0.007102 0.002676 0.002981 0.039429 0.005439
# 6 -0.014505 -0.016077 0.009438 0.007246 0.005439 0.058715
#
#
# Mechanical properties :
#
#
# Convention : Reuss Voigt Hill
#
# Bulk Modulus (GPa) = 49.57801 84.90265 67.24033
# Shear Modulus (GPa) = 25.83064 37.20610 31.51837
#
# Velocity S-wave (km/s) = 3.38248 4.05952 3.73637
# Velocity P-wave (km/s) = 6.10037 7.71874 6.95677
#
# Compressibility (1/GPa) = 0.02017023
#
# Stress axis : x y z
#
# Youngs Moduli (GPa) = 85.84744 55.86439 111.34221
#
# Poissons Ratio (x) = -0.04867 0.44085
# Poissons Ratio (y) = -0.07480 0.67829
# Poissons Ratio (z) = 0.33990 0.34032
#
# Static dielectric constant tensor:
#      x y z
#    x 1.841610 -0.013720 -0.008750 
#    y -0.013720 1.924900 0.066910 
#    z -0.008750 0.066910 1.956370 
# 
# From -- ./inp_files/242405.got.cif
#   From: 2010.05.17/outbox.cif.g08.bks.cpg/sg2_122_cif.got.tgz:242405.got - 2010.06.03 11:33:40.
