data_PCOD9017591
_publ_section_title
;
Structure prediction by ZEFSAII (Michael W. Deem and Ramdas Pophale) SiO2 
 PCOD9017591
Probable space group: P -1
;
_chemical_formula_sum "Si O2"
_cell_formula_units_Z 13
_cell_length_a 5.476808
_cell_length_b 13.469037
_cell_length_c 9.543732
_cell_angle_alpha 46.206652
_cell_angle_beta 87.918384
_cell_angle_gamma 79.742966
_cell_volume 496.308450
_symmetry_space_group_name_H-M "P -1"
_symmetry_group_IT_number 2
_symmetry_cell_setting 'triclinic'
loop_
_space_group_symop_operation_xyz
x,y,z
-x,-y,-z
loop_
_atom_site_type_symbol
_atom_site_label
_atom_site_fract_x
_atom_site_fract_y
_atom_site_fract_z
Si Si1 0.262536 0.579155 0.124373
Si Si2 0.163642 0.688069 0.502712
Si Si3 0.494197 0.320046 0.240144
Si Si4 0.735092 0.042807 0.880499
Si Si5 0.500000 0.500000 0.500000
Si Si6 0.767694 0.896818 0.464761
Si Si7 0.981208 0.866927 0.799978
O O1 0.251241 0.434208 0.186250
O O2 0.367305 0.541429 0.311546
O O3 0.442534 0.645695 0.951066
O O4 0.027773 0.707886 0.006630
O O5 0.292361 0.654139 0.683747
O O6 0.222370 0.552143 0.539074
O O7 0.901657 0.792804 0.440066
O O8 0.314403 0.790225 0.313162
O O9 0.470665 0.162147 0.427423
O O10 0.778015 0.961637 0.810986
O O11 0.500000 0.000000 0.000000
O O12 0.000000 0.000000 0.000000
O O13 0.919571 0.869388 0.635017
O O14 0.787197 0.052633 0.267823
#
# Coordination Sequence:
#
# PCOD9017591 Si02
#       7
#     2   2   2   2   1   2   2
#     4  10  21  43  65 101 133 182 237 286 359 431
#     4  10  22  44  65  98 135 182 234 287 359 418
#     4  10  22  41  70  95 142 176 231 302 353 419
#     4  11  26  45  69 103 149 189 234 295 359 432
#     4  10  22  42  66  90 138 186 226 294 352 440
#     4  10  22  41  66 101 135 175 229 305 351 421
#     4  10  22  42  68 102 134 184 238 285 359 432
#
# _framework density 26.193384999999999
#
# number of rings (size 3 to 8) (size 9 to 14) (size 15 to 20)
#    0.000    1.846    1.538    0.923    4.308    3.692 
#    2.769    1.538    0.000    0.000    0.000    0.000 
#    0.000    0.000    0.000    0.000    0.000    0.000 
#
# Total GULP energy -72390.799367 kJ/mol
# GULP energy per Si atom -5568.523028 kJ/mol
# Density = 2.613377 g / cm^3
# Si number density = 26.193385 Si / 1000 Ang^3
#
#
#
# Elastic Constant Matrix: (Units=GPa)
#
#
# Indices 1 2 3 4 5 6 
#
# 1 80.9679 16.6787 37.3583 9.1761 -13.5677 7.3791
# 2 16.6787 91.8840 9.5334 21.6677 -6.5218 -13.3429
# 3 37.3583 9.5334 132.8487 13.4720 -2.8879 15.1466
# 4 9.1761 21.6677 13.4720 56.9544 -3.0750 -1.8330
# 5 -13.5677 -6.5218 -2.8879 -3.0750 43.1971 3.3351
# 6 7.3791 -13.3429 15.1466 -1.8330 3.3351 16.5908
#
#
#
# Elastic Compliance Matrix: (Units=1/GPa)
#
#
# Indices 1 2 3 4 5 6 
#
# 1 0.016122 -0.003248 -0.003236 -0.000584 0.004924 -0.007884
# 2 -0.003248 0.014632 -0.001301 -0.004301 -0.000284 0.013982
# 3 -0.003236 -0.001301 0.009668 -0.001548 -0.000012 -0.008602
# 4 -0.000584 -0.004301 -0.001548 0.019688 0.000442 0.000301
# 5 0.004924 -0.000284 -0.000012 0.000442 0.025258 -0.007436
# 6 -0.007884 0.013982 -0.008602 0.000301 -0.007436 0.084407
#
#
# Mechanical properties :
#
#
# Convention : Reuss Voigt Hill
#
# Bulk Modulus (GPa) = 40.23552 48.09349 44.16451
# Shear Modulus (GPa) = 25.82244 39.49046 32.65645
#
# Velocity S-wave (km/s) = 3.14321 3.88706 3.53476
# Velocity P-wave (km/s) = 5.34484 6.20858 5.79283
#
# Compressibility (1/GPa) = 0.02485366
#
# Stress axis : x y z
#
# Youngs Moduli (GPa) = 62.02532 68.34139 103.43350
#
# Poissons Ratio (x) = 0.22200 0.33466
# Poissons Ratio (y) = 0.20148 0.13454
# Poissons Ratio (z) = 0.20068 0.08889
#
# Static dielectric constant tensor:
#      x y z
#    x 2.160750 -0.041610 -0.017360 
#    y -0.041610 2.209860 -0.036470 
#    z -0.017360 -0.036470 1.999720 
# 
# From -- ./inp_files/95663.got.cif
#   From: 2010.05.17/outbox.cif.g08.bks.cpg/sg2_48_cif.got.tgz:95663.got - 2010.06.03 11:33:40.
