data_PCOD9017156
_publ_section_title
;
Structure prediction by ZEFSAII (Michael W. Deem and Ramdas Pophale) SiO2 
 PCOD9017156
Probable space group: P -1
;
_chemical_formula_sum "Si O2"
_cell_formula_units_Z 16
_cell_length_a 15.808479
_cell_length_b 9.288393
_cell_length_c 8.753366
_cell_angle_alpha 63.997913
_cell_angle_beta 141.970611
_cell_angle_gamma 111.179395
_cell_volume 711.384960
_symmetry_space_group_name_H-M "P -1"
_symmetry_group_IT_number 2
_symmetry_cell_setting 'triclinic'
loop_
_space_group_symop_operation_xyz
x,y,z
-x,-y,-z
loop_
_atom_site_type_symbol
_atom_site_label
_atom_site_fract_x
_atom_site_fract_y
_atom_site_fract_z
Si Si1 0.882901 0.536601 0.693492
Si Si2 0.092335 0.354729 0.646313
Si Si3 0.629365 0.654986 0.470632
Si Si4 0.630700 0.023148 0.281486
Si Si5 0.078051 0.952068 0.337585
Si Si6 0.126798 0.820941 0.143573
Si Si7 0.423347 0.844714 0.529664
Si Si8 0.611702 0.554913 0.835011
O O1 0.917466 0.649542 0.548529
O O2 0.746960 0.594699 0.554751
O O3 0.865604 0.354901 0.691675
O O4 0.000000 0.500000 0.000000
O O5 0.000000 0.500000 0.500000
O O6 0.030774 0.188758 0.706166
O O7 0.247688 0.405240 0.893925
O O8 0.651548 0.841115 0.452309
O O9 0.643331 0.568226 0.693638
O O10 0.479884 0.609480 0.206303
O O11 0.771043 0.067404 0.367464
O O12 0.594749 0.134357 0.322944
O O13 0.500000 0.000000 0.000000
O O14 0.122051 0.935445 0.230181
O O15 0.003326 0.121822 0.165090
O O16 0.268510 0.840525 0.246246
O O17 0.505700 0.690469 0.671134
O O18 0.500000 0.000000 0.500000
#
# Coordination Sequence:
#
# PCOD9017156 Si02
#       8
#     2   2   2   2   2   2   2   2
#     4  12  25  44  69 102 142 181 230 290 358 411
#     4  12  26  44  71 104 139 187 237 289 345 426
#     4  11  25  46  68 106 140 184 227 297 356 411
#     4  11  26  43  70  98 146 183 227 290 352 414
#     4  10  23  44  70 102 135 183 236 285 343 420
#     4  10  21  42  71  97 134 183 229 281 347 415
#     4  11  21  43  70 102 131 183 234 278 343 423
#     4  11  25  44  73 102 140 181 239 286 348 420
#
# _framework density 22.491339
#
# number of rings (size 3 to 8) (size 9 to 14) (size 15 to 20)
#    0.000    1.000    3.750    2.250    7.000    0.500 
#    2.250    1.250    0.000    0.000    0.000    0.000 
#    0.000    0.000    0.000    0.000    0.000    0.000 
#
# Total GULP energy -89325.249287 kJ/mol
# GULP energy per Si atom -5582.828080 kJ/mol
# Density = 2.244015 g / cm^3
# Si number density = 22.491339 Si / 1000 Ang^3
#
#
#
# Elastic Constant Matrix: (Units=GPa)
#
#
# Indices 1 2 3 4 5 6 
#
# 1 120.5195 19.9114 47.9099 -3.6094 15.5176 -4.8701
# 2 19.9114 71.2745 -3.3697 2.8005 5.1187 1.3013
# 3 47.9099 -3.3697 104.0789 18.9712 20.9737 2.2000
# 4 -3.6094 2.8005 18.9712 34.1250 0.1946 8.4081
# 5 15.5176 5.1187 20.9737 0.1946 36.1942 -1.1202
# 6 -4.8701 1.3013 2.2000 8.4081 -1.1202 40.7071
#
#
#
# Elastic Compliance Matrix: (Units=1/GPa)
#
#
# Indices 1 2 3 4 5 6 
#
# 1 0.011662 -0.003691 -0.006199 0.004781 -0.000886 0.000836
# 2 -0.003691 0.015545 0.003345 -0.003390 -0.002551 -0.000489
# 3 -0.006199 0.003345 0.015710 -0.009651 -0.006864 0.000107
# 4 0.004781 -0.003390 -0.009651 0.036994 0.003627 -0.006339
# 5 -0.000886 -0.002551 -0.006864 0.003627 0.032342 0.000487
# 6 0.000836 -0.000489 0.000107 -0.006339 0.000487 0.025998
#
#
# Mechanical properties :
#
#
# Convention : Reuss Voigt Hill
#
# Bulk Modulus (GPa) = 33.52602 47.19735 40.36169
# Shear Modulus (GPa) = 31.00123 37.63334 34.31728
#
# Velocity S-wave (km/s) = 3.71666 4.09496 3.91039
# Velocity P-wave (km/s) = 5.77552 6.58699 6.19456
#
# Compressibility (1/GPa) = 0.02982758
#
# Stress axis : x y z
#
# Youngs Moduli (GPa) = 85.74617 64.33036 63.65466
#
# Poissons Ratio (x) = 0.23742 0.39457
# Poissons Ratio (y) = 0.31645 -0.21290
# Poissons Ratio (z) = 0.53151 -0.21516
#
# Static dielectric constant tensor:
#      x y z
#    x 1.816790 0.031660 0.001970 
#    y 0.031660 1.920860 0.065220 
#    z 0.001970 0.065220 1.956900 
# 
# From -- ./inp_files/298046.got.cif
#   From: 2010.05.17/outbox.cif.g08.bks.cpg/sg2_150_cif.got.tgz:298046.got - 2010.06.03 11:33:40.
