data_PCOD9017459
_publ_section_title
;
Structure prediction by ZEFSAII (Michael W. Deem and Ramdas Pophale) SiO2 
 PCOD9017459
Probable space group: P -1
;
_chemical_formula_sum "Si O2"
_cell_formula_units_Z 14
_cell_length_a 13.184727
_cell_length_b 8.030974
_cell_length_c 9.383192
_cell_angle_alpha 104.663344
_cell_angle_beta 32.307316
_cell_angle_gamma 102.509524
_cell_volume 513.711391
_symmetry_space_group_name_H-M "P -1"
_symmetry_group_IT_number 2
_symmetry_cell_setting 'triclinic'
loop_
_space_group_symop_operation_xyz
x,y,z
-x,-y,-z
loop_
_atom_site_type_symbol
_atom_site_label
_atom_site_fract_x
_atom_site_fract_y
_atom_site_fract_z
Si Si1 0.729257 0.996949 0.731198
Si Si2 0.719388 0.886443 0.031233
Si Si3 0.887274 0.821858 0.091512
Si Si4 0.546789 0.229249 0.366662
Si Si5 0.240731 0.648317 0.131579
Si Si6 0.894631 0.656991 0.331182
Si Si7 0.546028 0.400941 0.699568
O O1 0.818683 0.850040 0.496934
O O2 0.788796 0.196760 0.690325
O O3 0.792413 0.938433 0.802132
O O4 0.500000 0.000000 0.000000
O O5 0.857193 0.780013 0.949171
O O6 0.513100 0.795406 0.233659
O O7 0.681079 0.066722 0.195589
O O8 0.667244 0.833618 0.396954
O O9 0.959069 0.683072 0.093535
O O10 0.000000 0.000000 0.000000
O O11 0.556082 0.370263 0.509465
O O12 0.603765 0.292192 0.157691
O O13 0.060478 0.619334 0.239109
O O14 0.360123 0.489035 0.012523
O O15 0.732083 0.515298 0.526848
#
# Coordination Sequence:
#
# PCOD9017459 Si02
#       7
#     2   2   2   2   2   2   2
#     4  11  22  47  73  94 134 186 226 272 342 413
#     4  10  24  43  70  96 136 181 224 281 335 402
#     4  11  21  39  65 101 132 169 231 275 327 399
#     4  10  21  43  63  91 139 180 215 275 339 395
#     4  11  23  42  67 100 133 180 227 275 332 409
#     4  12  25  41  71 103 134 184 225 274 342 406
#     4  11  22  43  66  99 143 172 225 284 340 391
#
# _framework density 27.252654
#
# number of rings (size 3 to 8) (size 9 to 14) (size 15 to 20)
#    0.000    1.143    2.857    5.143    2.000    1.143 
#   10.286    0.714    0.000    0.000    0.000    0.000 
#    0.000    0.000    0.000    0.000    0.000    0.000 
#
# Total GULP energy -78240.774240 kJ/mol
# GULP energy per Si atom -5588.626731 kJ/mol
# Density = 2.719063 g / cm^3
# Si number density = 27.252654 Si / 1000 Ang^3
#
#
#
# Elastic Constant Matrix: (Units=GPa)
#
#
# Indices 1 2 3 4 5 6 
#
# 1 118.2522 37.5989 34.8387 -1.4100 -19.4005 26.9152
# 2 37.5989 118.6575 33.5759 -0.7685 -5.2281 19.9381
# 3 34.8387 33.5759 94.4652 -5.0415 -14.2508 11.7438
# 4 -1.4100 -0.7685 -5.0415 49.3534 9.3645 -17.6170
# 5 -19.4005 -5.2281 -14.2508 9.3645 47.9767 -8.1303
# 6 26.9152 19.9381 11.7438 -17.6170 -8.1303 23.5929
#
#
#
# Elastic Compliance Matrix: (Units=1/GPa)
#
#
# Indices 1 2 3 4 5 6 
#
# 1 0.014007 -0.000512 -0.002601 -0.007044 0.003084 -0.018449
# 2 -0.000512 0.011067 -0.002776 -0.003687 -0.000875 -0.010442
# 3 -0.002601 -0.002776 0.012889 0.000883 0.002365 0.000371
# 4 -0.007044 -0.003687 0.000883 0.032941 -0.003647 0.034053
# 5 0.003084 -0.000875 0.002365 -0.003647 0.023659 0.001474
# 6 -0.018449 -0.010442 0.000371 0.034053 0.001474 0.098007
#
#
# Mechanical properties :
#
#
# Convention : Reuss Voigt Hill
#
# Bulk Modulus (GPa) = 38.18758 60.37799 49.28278
# Shear Modulus (GPa) = 23.46573 39.20869 31.33721
#
# Velocity S-wave (km/s) = 2.93754 3.79715 3.39466
# Velocity P-wave (km/s) = 5.05454 6.43642 5.78687
#
# Compressibility (1/GPa) = 0.02618653
#
# Stress axis : x y z
#
# Youngs Moduli (GPa) = 71.39482 90.35565 77.58333
#
# Poissons Ratio (x) = 0.04628 0.20178
# Poissons Ratio (y) = 0.03656 0.21533
# Poissons Ratio (z) = 0.18568 0.25078
#
# Static dielectric constant tensor:
#      x y z
#    x 2.230700 -0.070110 -0.048180 
#    y -0.070110 2.200160 0.064470 
#    z -0.048180 0.064470 2.141350 
# 
# From -- ./inp_files/447739.got.cif
#   From: 2010.05.17/outbox.cif.g08.bks.cpg/sg2_224_cif.got.tgz:447739.got - 2010.06.03 11:33:40.
