data_PCOD9017391
_publ_section_title
;
Structure prediction by ZEFSAII (Michael W. Deem and Ramdas Pophale) SiO2 
 PCOD9017391
Probable space group: P -1
;
_chemical_formula_sum "Si O2"
_cell_formula_units_Z 13
_cell_length_a 15.533224
_cell_length_b 8.238939
_cell_length_c 5.136200
_cell_angle_alpha 72.057902
_cell_angle_beta 125.913651
_cell_angle_gamma 116.047572
_cell_volume 477.137496
_symmetry_space_group_name_H-M "P -1"
_symmetry_group_IT_number 2
_symmetry_cell_setting 'triclinic'
loop_
_space_group_symop_operation_xyz
x,y,z
-x,-y,-z
loop_
_atom_site_type_symbol
_atom_site_label
_atom_site_fract_x
_atom_site_fract_y
_atom_site_fract_z
Si Si1 0.423827 0.424557 0.646834
Si Si2 0.653748 0.260306 0.615392
Si Si3 0.000000 0.500000 0.500000
Si Si4 0.005706 0.230810 0.172367
Si Si5 0.171978 0.754156 0.505022
Si Si6 0.179482 0.076911 0.734603
Si Si7 0.400586 0.088877 0.034177
O O1 0.500000 0.500000 0.500000
O O2 0.335075 0.531674 0.435535
O O3 0.500000 0.500000 0.000000
O O4 0.393417 0.208341 0.712943
O O5 0.749896 0.237444 0.606649
O O6 0.530931 0.163178 0.311064
O O7 0.637971 0.130586 0.906813
O O8 0.994437 0.354262 0.323802
O O9 0.852921 0.423142 0.280867
O O10 0.125558 0.207459 0.428148
O O11 0.910084 0.032757 0.152455
O O12 0.964996 0.304266 0.800414
O O13 0.185709 0.934585 0.594371
O O14 0.308804 0.143104 0.023561
#
# Coordination Sequence:
#
# PCOD9017391 Si02
#       7
#     2   2   1   2   2   2   2
#     4  10  24  45  66 104 145 191 247 297 358 443
#     4  10  23  42  72 100 146 184 239 305 354 448
#     4  10  24  40  68  92 134 188 232 298 362 416
#     4  10  21  43  60  95 132 173 236 289 349 426
#     4  11  22  42  64 102 133 186 233 293 364 426
#     4  10  22  38  68  95 131 178 234 287 349 435
#     4  10  22  44  68 104 136 191 230 294 372 428
#
# _framework density 27.245816999999999
#
# number of rings (size 3 to 8) (size 9 to 14) (size 15 to 20)
#    0.000    1.846    1.538    0.923    2.154    7.385 
#    0.000    0.000    0.000    0.000    0.000    0.000 
#    0.000    0.000    0.000    0.000    0.000    0.000 
#
# Total GULP energy -72438.699506 kJ/mol
# GULP energy per Si atom -5572.207654 kJ/mol
# Density = 2.718380 g / cm^3
# Si number density = 27.245817 Si / 1000 Ang^3
#
#
#
# Elastic Constant Matrix: (Units=GPa)
#
#
# Indices 1 2 3 4 5 6 
#
# 1 110.6906 39.3653 43.4161 -8.6367 -6.9618 21.5899
# 2 39.3653 97.9875 37.0599 -29.0029 -6.9761 39.1383
# 3 43.4161 37.0599 133.1865 -29.6674 1.2779 -16.6777
# 4 -8.6367 -29.0029 -29.6674 52.3841 -1.2162 -5.0913
# 5 -6.9618 -6.9761 1.2779 -1.2162 52.1207 2.5419
# 6 21.5899 39.1383 -16.6777 -5.0913 2.5419 47.2000
#
#
#
# Elastic Compliance Matrix: (Units=1/GPa)
#
#
# Indices 1 2 3 4 5 6 
#
# 1 0.012841 -0.000345 -0.005521 -0.001915 0.002143 -0.007860
# 2 -0.000345 0.025097 -0.008236 0.007044 0.004804 -0.023062
# 3 -0.005521 -0.008236 0.014423 0.004095 -0.002832 0.015045
# 4 -0.001915 0.007044 0.004095 0.024934 0.001212 -0.000894
# 5 0.002143 0.004804 -0.002832 0.001212 0.020552 -0.006940
# 6 -0.007860 -0.023062 0.015045 -0.000894 -0.006940 0.049498
#
#
# Mechanical properties :
#
#
# Convention : Reuss Voigt Hill
#
# Bulk Modulus (GPa) = 41.39624 64.61636 53.00630
# Shear Modulus (GPa) = 27.23289 45.14251 36.18770
#
# Velocity S-wave (km/s) = 3.16496 4.07487 3.64839
# Velocity P-wave (km/s) = 5.34626 6.77547 6.10285
#
# Compressibility (1/GPa) = 0.02415679
#
# Stress axis : x y z
#
# Youngs Moduli (GPa) = 77.87524 39.84511 69.33422
#
# Poissons Ratio (x) = 0.01376 0.38281
# Poissons Ratio (y) = 0.02689 0.57101
# Poissons Ratio (z) = 0.42997 0.32815
#
# Static dielectric constant tensor:
#      x y z
#    x 2.486970 0.585780 -0.123410 
#    y 0.585780 2.691150 -0.220510 
#    z -0.123410 -0.220510 2.451160 
# 
# From -- ./inp_files/88697.got.cif
#   From: 2010.05.17/outbox.cif.g08.bks.cpg/sg2_45_cif.got.tgz:88697.got - 2010.06.03 11:33:40.
