data_PCOD9017445
_publ_section_title
;
Structure prediction by ZEFSAII (Michael W. Deem and Ramdas Pophale) SiO2 
 PCOD9017445
Probable space group: P -1
;
_chemical_formula_sum "Si O2"
_cell_formula_units_Z 16
_cell_length_a 9.795353
_cell_length_b 12.263130
_cell_length_c 9.206734
_cell_angle_alpha 102.638502
_cell_angle_beta 109.475088
_cell_angle_gamma 35.327023
_cell_volume 600.028602
_symmetry_space_group_name_H-M "P -1"
_symmetry_group_IT_number 2
_symmetry_cell_setting 'triclinic'
loop_
_space_group_symop_operation_xyz
x,y,z
-x,-y,-z
loop_
_atom_site_type_symbol
_atom_site_label
_atom_site_fract_x
_atom_site_fract_y
_atom_site_fract_z
Si Si1 0.916094 0.316212 0.307876
Si Si2 0.665737 0.150347 0.932897
Si Si3 0.948929 0.631011 0.365750
Si Si4 0.822700 0.288186 0.975426
Si Si5 0.422910 0.903981 0.388439
Si Si6 0.770972 0.714708 0.041462
Si Si7 0.487103 0.573345 0.672928
Si Si8 0.388534 0.243231 0.286075
O O1 0.781453 0.290876 0.320249
O O2 0.887109 0.416773 0.463491
O O3 0.824685 0.382165 0.129001
O O4 0.206806 0.122259 0.335960
O O5 0.696951 0.260727 0.002141
O O6 0.652571 0.154302 0.752713
O O7 0.426275 0.241583 0.937572
O O8 0.899455 0.932782 0.008155
O O9 0.688577 0.769607 0.384865
O O10 0.117856 0.422774 0.314715
O O11 0.880084 0.725911 0.210118
O O12 0.684187 0.405104 0.812699
O O13 0.426776 0.897017 0.559922
O O14 0.631582 0.830689 0.875853
O O15 0.000000 0.500000 0.000000
O O16 0.500000 0.500000 0.500000
O O17 0.539878 0.673520 0.709415
#
# Coordination Sequence:
#
# PCOD9017445 Si02
#       8
#     2   2   2   2   2   2   2   2
#     4  11  23  41  64  94 123 162 205 260 311 360
#     4   9  19  40  67  89 124 160 212 253 301 364
#     4  10  21  43  63  89 125 164 210 254 302 367
#     4  10  22  40  64  94 119 166 207 256 305 365
#     4  10  22  40  67  91 122 162 213 253 300 367
#     4   9  20  38  63  88 126 161 203 252 302 371
#     4  12  24  40  61  92 132 158 200 257 317 365
#     4  11  22  41  62  92 125 167 204 250 310 369
#
# _framework density 26.665395
#
# number of rings (size 3 to 8) (size 9 to 14) (size 15 to 20)
#    0.000    1.750    1.250    2.625    0.000    1.500 
#    9.000    0.625    0.000    0.000    0.000    0.000 
#    0.000    0.000    0.000    0.000    0.000    0.000 
#
# Total GULP energy -89385.129295 kJ/mol
# GULP energy per Si atom -5586.570581 kJ/mol
# Density = 2.660470 g / cm^3
# Si number density = 26.665395 Si / 1000 Ang^3
#
#
#
# Elastic Constant Matrix: (Units=GPa)
#
#
# Indices 1 2 3 4 5 6 
#
# 1 104.2672 35.2867 16.6459 -4.5756 0.2607 -10.7590
# 2 35.2867 73.8426 41.0018 -22.7735 1.9030 -12.8611
# 3 16.6459 41.0018 290.5612 13.0899 6.0826 27.0597
# 4 -4.5756 -22.7735 13.0899 47.5114 6.9830 12.8657
# 5 0.2607 1.9030 6.0826 6.9830 33.3585 3.8271
# 6 -10.7590 -12.8611 27.0597 12.8657 3.8271 36.0662
#
#
#
# Elastic Compliance Matrix: (Units=1/GPa)
#
#
# Indices 1 2 3 4 5 6 
#
# 1 0.011734 -0.006056 0.000087 -0.002438 0.000508 0.002091
# 2 -0.006056 0.022857 -0.003821 0.010331 -0.003398 0.005886
# 3 0.000087 -0.003821 0.004430 -0.002010 0.000286 -0.003974
# 4 -0.002438 0.010331 -0.002010 0.028526 -0.005588 -0.005118
# 5 0.000508 -0.003398 0.000286 -0.005588 0.031587 -0.002633
# 6 0.002091 0.005886 -0.003974 -0.005118 -0.002633 0.035537
#
#
# Mechanical properties :
#
#
# Convention : Reuss Voigt Hill
#
# Bulk Modulus (GPa) = 51.43829 72.72664 62.08247
# Shear Modulus (GPa) = 31.10795 48.43632 39.77214
#
# Velocity S-wave (km/s) = 3.41926 4.26661 3.86622
# Velocity P-wave (km/s) = 5.90937 7.18365 6.57744
#
# Compressibility (1/GPa) = 0.01944077
#
# Stress axis : x y z
#
# Youngs Moduli (GPa) = 85.22252 43.75103 225.70988
#
# Poissons Ratio (x) = 0.26496 -0.01959
# Poissons Ratio (y) = 0.51612 0.86240
# Poissons Ratio (z) = -0.00740 0.16717
#
# Static dielectric constant tensor:
#      x y z
#    x 2.168790 0.066210 0.019830 
#    y 0.066210 2.133970 0.002510 
#    z 0.019830 0.002510 2.185090 
# 
# From -- ./inp_files/273453.got.cif
#   From: 2010.05.17/outbox.cif.g08.bks.cpg/sg2_137_cif.got.tgz:273453.got - 2010.06.03 11:33:40.
