data_PCOD9017398
_publ_section_title
;
Structure prediction by ZEFSAII (Michael W. Deem and Ramdas Pophale) SiO2 
 PCOD9017398
Probable space group: P -1
;
_chemical_formula_sum "Si O2"
_cell_formula_units_Z 16
_cell_length_a 10.966041
_cell_length_b 10.471220
_cell_length_c 9.068956
_cell_angle_alpha 90.896047
_cell_angle_beta 52.921359
_cell_angle_gamma 90.512097
_cell_volume 830.711151
_symmetry_space_group_name_H-M "P -1"
_symmetry_group_IT_number 2
_symmetry_cell_setting 'triclinic'
loop_
_space_group_symop_operation_xyz
x,y,z
-x,-y,-z
loop_
_atom_site_type_symbol
_atom_site_label
_atom_site_fract_x
_atom_site_fract_y
_atom_site_fract_z
Si Si1 0.329065 0.141229 0.446694
Si Si2 0.892530 0.653526 0.994721
Si Si3 0.678046 0.123171 0.691260
Si Si4 0.656872 0.877936 0.209836
Si Si5 0.339958 0.860257 0.939786
Si Si6 0.114624 0.370312 0.511593
Si Si7 0.119477 0.626209 0.082463
Si Si8 0.097509 0.657781 0.580862
O O1 0.350471 0.119207 0.606152
O O2 0.490649 0.161903 0.247737
O O3 0.223649 0.262697 0.493518
O O4 0.263613 0.012976 0.416180
O O5 0.770340 0.765044 0.078866
O O6 0.962776 0.642503 0.105710
O O7 0.824044 0.515772 0.998003
O O8 0.045503 0.675651 0.787090
O O9 0.511340 0.141519 0.738003
O O10 0.791082 0.233596 0.556318
O O11 0.661453 0.121133 0.881208
O O12 0.714822 0.011548 0.101146
O O13 0.236800 0.738899 0.974281
O O14 0.166266 0.515566 0.504889
O O15 0.944583 0.365242 0.706073
O O16 0.069615 0.342374 0.376120
#
# Coordination Sequence:
#
# PCOD9017398 Si02
#       8
#     2   2   2   2   2   2   2   2
#     4  11  24  41  63  87 122 159 200 250 296 352
#     4  10  23  39  65  89 122 157 196 246 299 355
#     4  11  24  42  60  90 121 159 202 246 296 356
#     4  11  24  42  60  90 121 159 202 246 296 356
#     4  11  24  41  63  87 122 159 200 250 296 352
#     4  10  21  43  61  90 122 155 198 249 298 352
#     4  10  21  43  61  90 122 155 198 249 298 352
#     4  10  23  39  65  89 122 157 196 246 299 355
#
# _framework density 19.260608000000001
#
# number of rings (size 3 to 8) (size 9 to 14) (size 15 to 20)
#    0.000    1.500    2.500    3.000    7.000    3.000 
#    0.000    2.500    0.000    0.000    0.000    0.000 
#    0.000    0.000    0.000    0.000    0.000    0.000 
#
# Total GULP energy -89264.080605 kJ/mol
# GULP energy per Si atom -5579.005038 kJ/mol
# Density = 1.921677 g / cm^3
# Si number density = 19.260608 Si / 1000 Ang^3
#
#
#
# Elastic Constant Matrix: (Units=GPa)
#
#
# Indices 1 2 3 4 5 6 
#
# 1 60.5313 65.2356 34.9429 3.1533 16.6934 -5.8472
# 2 65.2356 207.9265 91.8439 -12.6296 -16.1559 6.1887
# 3 34.9429 91.8439 87.1140 -9.1896 5.4243 4.5286
# 4 3.1533 -12.6296 -9.1896 42.5459 3.9084 -13.8765
# 5 16.6934 -16.1559 5.4243 3.9084 27.4859 -7.6157
# 6 -5.8472 6.1887 4.5286 -13.8765 -7.6157 44.1186
#
#
#
# Elastic Compliance Matrix: (Units=1/GPa)
#
#
# Indices 1 2 3 4 5 6 
#
# 1 0.047324 -0.020259 0.004407 -0.004784 -0.040808 0.000113
# 2 -0.020259 0.019441 -0.013848 0.002270 0.026501 0.001298
# 3 0.004407 -0.013848 0.025682 0.001863 -0.016822 -0.002427
# 4 -0.004784 0.002270 0.001863 0.027284 0.002156 0.007810
# 5 -0.040808 0.026501 -0.016822 0.002156 0.081807 0.007401
# 6 0.000113 0.001298 -0.002427 0.007810 0.007401 0.026482
#
#
# Mechanical properties :
#
#
# Convention : Reuss Voigt Hill
#
# Bulk Modulus (GPa) = 30.26073 82.17963 56.22018
# Shear Modulus (GPa) = 16.75397 33.73338 25.24368
#
# Velocity S-wave (km/s) = 2.95253 4.18954 3.62420
# Velocity P-wave (km/s) = 5.23150 8.13405 6.83854
#
# Compressibility (1/GPa) = 0.03304613
#
# Stress axis : x y z
#
# Youngs Moduli (GPa) = 21.13097 51.43791 38.93767
#
# Poissons Ratio (x) = 1.04207 -0.17160
# Poissons Ratio (y) = 0.42809 0.53923
# Poissons Ratio (z) = -0.09312 0.71233
#
# Static dielectric constant tensor:
#      x y z
#    x 1.648910 0.002810 0.028350 
#    y 0.002810 1.674030 0.000840 
#    z 0.028350 0.000840 1.661540 
# 
# From -- ./inp_files/185087.got.cif
#   From: 2010.05.17/outbox.cif.g08.bks.cpg/sg2_93_cif.got.tgz:185087.got - 2010.06.03 11:33:40.
