data_PCOD9017532
_publ_section_title
;
Structure prediction by ZEFSAII (Michael W. Deem and Ramdas Pophale) SiO2 
 PCOD9017532
Probable space group: P -1
;
_chemical_formula_sum "Si O2"
_cell_formula_units_Z 16
_cell_length_a 6.964513
_cell_length_b 11.381518
_cell_length_c 24.120583
_cell_angle_alpha 32.337596
_cell_angle_beta 112.263556
_cell_angle_gamma 127.096972
_cell_volume 776.485897
_symmetry_space_group_name_H-M "P -1"
_symmetry_group_IT_number 2
_symmetry_cell_setting 'triclinic'
loop_
_space_group_symop_operation_xyz
x,y,z
-x,-y,-z
loop_
_atom_site_type_symbol
_atom_site_label
_atom_site_fract_x
_atom_site_fract_y
_atom_site_fract_z
Si Si1 0.917018 0.328012 0.924381
Si Si2 0.414931 0.198023 0.368207
Si Si3 0.388801 0.461886 0.367319
Si Si4 0.163863 0.250679 0.216428
Si Si5 0.897947 0.643053 0.396399
Si Si6 0.430296 0.382211 0.977701
Si Si7 0.907801 0.387732 0.397820
Si Si8 0.536552 0.075614 0.881996
O O1 0.981639 0.613790 0.838196
O O2 0.772814 0.248790 0.881049
O O3 0.165824 0.331006 0.950894
O O4 0.709131 0.110310 0.032102
O O5 0.333765 0.254829 0.395298
O O6 0.337075 0.302538 0.267808
O O7 0.715231 0.344836 0.345933
O O8 0.266465 0.878576 0.477468
O O9 0.595365 0.485213 0.421806
O O10 0.498631 0.737185 0.236035
O O11 0.143713 0.398038 0.397350
O O12 0.346134 0.404452 0.123491
O O13 0.000826 0.936457 0.312167
O O14 0.981160 0.636962 0.344825
O O15 0.000000 0.500000 0.500000
O O16 0.500000 0.500000 0.000000
O O17 0.417524 0.112644 0.074806
#
# Coordination Sequence:
#
# PCOD9017532 Si02
#       8
#     2   2   2   2   2   2   2   2
#     4  10  23  45  64  91 127 164 213 268 307 374
#     4  10  21  43  64  92 129 162 217 267 314 365
#     4  11  24  40  70  96 123 172 216 259 320 377
#     4  11  24  42  65  91 127 173 209 256 322 375
#     4  11  25  44  62  93 135 170 207 262 317 379
#     4  11  27  41  65  96 127 167 210 260 321 385
#     4  10  23  41  65  93 127 170 212 267 309 374
#     4  10  23  42  67  93 123 163 213 264 317 367
#
# _framework density 20.605653
#
# number of rings (size 3 to 8) (size 9 to 14) (size 15 to 20)
#    0.000    1.500    2.500    0.750    7.000    2.500 
#    2.250    0.000    0.000    0.000    0.000    0.000 
#    0.000    0.000    0.000    0.000    0.000    0.000 
#
# Total GULP energy -89414.578566 kJ/mol
# GULP energy per Si atom -5588.411160 kJ/mol
# Density = 2.055875 g / cm^3
# Si number density = 20.605653 Si / 1000 Ang^3
#
#
#
# Elastic Constant Matrix: (Units=GPa)
#
#
# Indices 1 2 3 4 5 6 
#
# 1 93.6415 24.8037 -12.2630 -5.4950 14.8300 -0.5692
# 2 24.8037 83.2697 3.8712 -5.7631 2.2523 -11.2446
# 3 -12.2630 3.8712 53.9662 -4.6465 16.0636 -8.5178
# 4 -5.4950 -5.7631 -4.6465 32.8045 -7.1609 13.7681
# 5 14.8300 2.2523 16.0636 -7.1609 22.7886 -0.5964
# 6 -0.5692 -11.2446 -8.5178 13.7681 -0.5964 24.0129
#
#
#
# Elastic Compliance Matrix: (Units=1/GPa)
#
#
# Indices 1 2 3 4 5 6 
#
# 1 0.015526 -0.004450 0.008842 -0.001182 -0.016224 0.001695
# 2 -0.004450 0.014148 -0.001948 -0.000507 0.002873 0.006191
# 3 0.008842 -0.001948 0.030819 -0.006325 -0.028930 0.013137
# 4 -0.001182 -0.000507 -0.006325 0.045097 0.018718 -0.027901
# 5 -0.016224 0.002873 -0.028930 0.018718 0.079957 -0.018047
# 6 0.001695 0.006191 0.013137 -0.027901 -0.018047 0.064793
#
#
# Mechanical properties :
#
#
# Convention : Reuss Voigt Hill
#
# Bulk Modulus (GPa) = 15.29451 29.30014 22.29733
# Shear Modulus (GPa) = 18.70937 30.21887 24.46412
#
# Velocity S-wave (km/s) = 3.01653 3.83369 3.44939
# Velocity P-wave (km/s) = 4.42393 5.81778 5.16806
#
# Compressibility (1/GPa) = 0.06538293
#
# Stress axis : x y z
#
# Youngs Moduli (GPa) = 64.40814 70.67922 32.44712
#
# Poissons Ratio (x) = 0.31451 -0.28691
# Poissons Ratio (y) = 0.28661 0.06320
# Poissons Ratio (z) = -0.56951 0.13767
#
# Static dielectric constant tensor:
#      x y z
#    x 1.701410 -0.006170 0.017550 
#    y -0.006170 1.750930 -0.013000 
#    z 0.017550 -0.013000 1.749980 
# 
# From -- ./inp_files/39725.got.cif
#   From: 2010.05.17/outbox.cif.g08.bks.cpg/sg2_20_cif.got.tgz:39725.got - 2010.06.03 11:33:40.
