data_PCOD9017995
_publ_section_title
;
Structure prediction by ZEFSAII (Michael W. Deem and Ramdas Pophale) SiO2 
 PCOD9017995
Probable space group: P -1
;
_chemical_formula_sum "Si O2"
_cell_formula_units_Z 16
_cell_length_a 11.374137
_cell_length_b 9.307862
_cell_length_c 12.310288
_cell_angle_alpha 133.278929
_cell_angle_beta 134.565402
_cell_angle_gamma 52.848012
_cell_volume 656.746067
_symmetry_space_group_name_H-M "P -1"
_symmetry_group_IT_number 2
_symmetry_cell_setting 'triclinic'
loop_
_space_group_symop_operation_xyz
x,y,z
-x,-y,-z
loop_
_atom_site_type_symbol
_atom_site_label
_atom_site_fract_x
_atom_site_fract_y
_atom_site_fract_z
Si Si1 0.665920 0.152094 0.417465
Si Si2 0.871800 0.501242 0.139363
Si Si3 0.233155 0.027584 0.396571
Si Si4 0.072472 0.090670 0.941644
Si Si5 0.775247 0.463716 0.524958
Si Si6 0.193405 0.479093 0.653814
Si Si7 0.306161 0.115409 0.900899
Si Si8 0.657091 0.942352 0.733442
O O1 0.655157 0.373468 0.478509
O O2 0.500860 0.072490 0.302463
O O3 0.761906 0.124496 0.579601
O O4 0.749965 0.014824 0.300302
O O5 0.793939 0.455628 0.180810
O O6 0.733941 0.659559 0.061339
O O7 0.031615 0.595652 0.333214
O O8 0.955918 0.302941 0.020785
O O9 0.266621 0.235085 0.572635
O O10 0.355942 0.944941 0.332029
O O11 0.045915 0.057961 0.242696
O O12 0.185060 0.127500 0.932317
O O13 0.201780 0.997168 0.071269
O O14 0.741521 0.413962 0.351541
O O15 0.730127 0.706881 0.625769
O O16 0.000000 0.500000 0.500000
O O17 0.500000 0.000000 0.000000
#
# Coordination Sequence:
#
# PCOD9017995 Si02
#       8
#     2   2   2   2   2   2   2   2
#     4  12  23  41  66  99 137 174 223 273 336 398
#     4  10  21  43  67  97 135 177 224 275 330 393
#     4  11  23  41  71 101 127 175 234 274 321 400
#     4  11  24  42  69 101 132 175 226 275 330 398
#     4   9  21  38  68 101 127 175 225 274 325 400
#     4   9  19  38  64  96 132 166 218 282 326 376
#     4  12  25  42  65  96 143 179 214 278 343 394
#     4  10  22  44  65  97 141 176 211 277 344 392
#
# _framework density 24.362537
#
# number of rings (size 3 to 8) (size 9 to 14) (size 15 to 20)
#    0.000    1.500    2.500    3.000    3.500    2.000 
#    2.250    0.000    0.000    1.500    0.000    0.000 
#    0.000    0.000    0.000    0.000    0.000    0.000 
#
# Total GULP energy -89367.510567 kJ/mol
# GULP energy per Si atom -5585.469410 kJ/mol
# Density = 2.430709 g / cm^3
# Si number density = 24.362537 Si / 1000 Ang^3
#
#
#
# Elastic Constant Matrix: (Units=GPa)
#
#
# Indices 1 2 3 4 5 6 
#
# 1 139.7129 73.0614 54.9237 -9.5806 -39.3800 28.3480
# 2 73.0614 97.0061 35.1061 -9.0913 -15.2638 16.1537
# 3 54.9237 35.1061 92.9892 -8.6246 -19.4410 5.0421
# 4 -9.5806 -9.0913 -8.6246 29.4364 7.4815 -2.8684
# 5 -39.3800 -15.2638 -19.4410 7.4815 39.6002 -14.0403
# 6 28.3480 16.1537 5.0421 -2.8684 -14.0403 42.8536
#
#
#
# Elastic Compliance Matrix: (Units=1/GPa)
#
#
# Indices 1 2 3 4 5 6 
#
# 1 0.017516 -0.009352 -0.004563 -0.001572 0.010370 -0.004232
# 2 -0.009352 0.017837 -0.001776 0.002911 -0.004405 -0.001577
# 3 -0.004563 -0.001776 0.014695 0.001877 0.002689 0.002966
# 4 -0.001572 0.002911 0.001877 0.036542 -0.006398 0.000072
# 5 0.010370 -0.004405 0.002689 -0.006398 0.038794 0.006767
# 6 -0.004232 -0.001577 0.002966 0.000072 0.006767 0.028602
#
#
# Mechanical properties :
#
#
# Convention : Reuss Voigt Hill
#
# Bulk Modulus (GPa) = 53.57406 72.87674 63.22540
# Shear Modulus (GPa) = 26.09737 33.48583 29.79160
#
# Velocity S-wave (km/s) = 3.27648 3.71142 3.50071
# Velocity P-wave (km/s) = 6.02925 6.95303 6.50755
#
# Compressibility (1/GPa) = 0.01866575
#
# Stress axis : x y z
#
# Youngs Moduli (GPa) = 57.09194 56.06383 68.04939
#
# Poissons Ratio (x) = 0.52428 0.31054
# Poissons Ratio (y) = 0.53390 0.12086
# Poissons Ratio (z) = 0.26053 0.09957
#
# Static dielectric constant tensor:
#      x y z
#    x 1.994170 -0.030260 -0.010100 
#    y -0.030260 1.979200 -0.014170 
#    z -0.010100 -0.014170 1.957880 
# 
# From -- ./inp_files/420124.got.cif
#   From: 2010.05.17/outbox.cif.g08.bks.cpg/sg2_211_cif.got.tgz:420124.got - 2010.06.03 11:33:40.
