data_PCOD9017289
_publ_section_title
;
Structure prediction by ZEFSAII (Michael W. Deem and Ramdas Pophale) SiO2 
 PCOD9017289
Probable space group: P -1
;
_chemical_formula_sum "Si O2"
_cell_formula_units_Z 14
_cell_length_a 8.808545
_cell_length_b 8.153128
_cell_length_c 9.237372
_cell_angle_alpha 85.037881
_cell_angle_beta 91.392468
_cell_angle_gamma 56.026441
_cell_volume 545.972165
_symmetry_space_group_name_H-M "P -1"
_symmetry_group_IT_number 2
_symmetry_cell_setting 'triclinic'
loop_
_space_group_symop_operation_xyz
x,y,z
-x,-y,-z
loop_
_atom_site_type_symbol
_atom_site_label
_atom_site_fract_x
_atom_site_fract_y
_atom_site_fract_z
Si Si1 0.084925 0.077072 0.176876
Si Si2 0.662491 0.802200 0.942066
Si Si3 0.442166 0.369663 0.296019
Si Si4 0.056819 0.755780 0.283273
Si Si5 0.177203 0.352951 0.613783
Si Si6 0.243219 0.997379 0.506606
Si Si7 0.696419 0.475391 0.179271
O O1 0.179264 0.159128 0.077303
O O2 0.195446 0.016117 0.336816
O O3 0.876768 0.256438 0.182716
O O4 0.084608 0.882291 0.157292
O O5 0.603788 0.764210 0.788187
O O6 0.696533 0.616118 0.048093
O O7 0.500000 0.000000 0.000000
O O8 0.298266 0.150062 0.543224
O O9 0.523863 0.461184 0.186285
O O10 0.604366 0.223570 0.421048
O O11 0.918043 0.690339 0.251820
O O12 0.943657 0.900936 0.406264
O O13 0.253307 0.558012 0.339001
O O14 0.283435 0.438969 0.675465
O O15 0.000000 0.500000 0.500000
#
# Coordination Sequence:
#
# PCOD9017289 Si02
#       7
#     2   2   2   2   2   2   2
#     4  12  24  47  73 107 144 197 235 299 360 424
#     4  12  29  50  69 107 145 189 253 291 353 434
#     4  12  26  47  76 109 144 190 237 301 361 422
#     4  10  24  44  70 113 145 183 239 292 363 428
#     4  10  21  42  73 103 144 183 235 289 357 419
#     4  10  24  45  73 105 154 176 242 290 367 420
#     4  12  23  47  76 102 146 195 237 295 354 427
#
# _framework density 25.642334000000002
#
# number of rings (size 3 to 8) (size 9 to 14) (size 15 to 20)
#    0.857    0.000    2.857    3.857    2.000    1.143 
#    5.143    2.143    0.000    0.000    0.000    0.000 
#    0.000    0.000    0.000    0.000    0.000    0.000 
#
# Total GULP energy -78388.066053 kJ/mol
# GULP energy per Si atom -5599.147575 kJ/mol
# Density = 2.558397 g / cm^3
# Si number density = 25.642334 Si / 1000 Ang^3
#
#
#
# Elastic Constant Matrix: (Units=GPa)
#
#
# Indices 1 2 3 4 5 6 
#
# 1 127.4585 55.1070 25.3675 2.7654 -29.5315 4.3085
# 2 55.1070 121.3000 24.3127 -25.3572 3.5048 -8.0266
# 3 25.3675 24.3127 117.4810 -22.5406 -4.1891 -6.8627
# 4 2.7654 -25.3572 -22.5406 36.1064 2.8728 6.4868
# 5 -29.5315 3.5048 -4.1891 2.8728 40.0312 -9.6421
# 6 4.3085 -8.0266 -6.8627 6.4868 -9.6421 56.2411
#
#
#
# Elastic Compliance Matrix: (Units=1/GPa)
#
#
# Indices 1 2 3 4 5 6 
#
# 1 0.015484 -0.008952 -0.003011 -0.010471 0.012780 0.000568
# 2 -0.008952 0.014987 0.000914 0.012475 -0.008715 0.000003
# 3 -0.003011 0.000914 0.010360 0.007381 -0.001628 0.000495
# 4 -0.010471 0.012475 0.007381 0.043469 -0.012029 -0.003593
# 5 0.012780 -0.008715 -0.001628 -0.012029 0.037149 0.005335
# 6 0.000568 0.000003 0.000495 -0.003593 0.005335 0.019127
#
#
# Mechanical properties :
#
#
# Convention : Reuss Voigt Hill
#
# Bulk Modulus (GPa) = 53.37801 63.97933 58.67867
# Shear Modulus (GPa) = 29.60003 43.90592 36.75297
#
# Velocity S-wave (km/s) = 3.40125 4.14242 3.78999
# Velocity P-wave (km/s) = 6.02380 6.91985 6.48731
#
# Compressibility (1/GPa) = 0.01873431
#
# Stress axis : x y z
#
# Youngs Moduli (GPa) = 64.58180 66.72314 96.52495
#
# Poissons Ratio (x) = 0.59728 0.29065
# Poissons Ratio (y) = 0.57811 -0.08824
# Poissons Ratio (z) = 0.19447 -0.06100
#
# Static dielectric constant tensor:
#      x y z
#    x 2.050690 0.091960 -0.076090 
#    y 0.091960 2.025540 -0.050600 
#    z -0.076090 -0.050600 2.113340 
# 
# From -- ./inp_files/377958.got.cif
#   From: 2010.05.17/outbox.cif.g08.bks.cpg/sg2_189_cif.got.tgz:377958.got - 2010.06.03 11:33:40.
