data_PCOD9017575
_publ_section_title
;
Structure prediction by ZEFSAII (Michael W. Deem and Ramdas Pophale) SiO2 
 PCOD9017575
Probable space group: P -1
;
_chemical_formula_sum "Si O2"
_cell_formula_units_Z 16
_cell_length_a 6.239529
_cell_length_b 15.577908
_cell_length_c 19.444564
_cell_angle_alpha 26.991120
_cell_angle_beta 116.823786
_cell_angle_gamma 105.562192
_cell_volume 722.492850
_symmetry_space_group_name_H-M "P -1"
_symmetry_group_IT_number 2
_symmetry_cell_setting 'triclinic'
loop_
_space_group_symop_operation_xyz
x,y,z
-x,-y,-z
loop_
_atom_site_type_symbol
_atom_site_label
_atom_site_fract_x
_atom_site_fract_y
_atom_site_fract_z
Si Si1 0.589759 0.228687 0.404961
Si Si2 0.963112 0.082251 0.224693
Si Si3 0.292272 0.951021 0.591930
Si Si4 0.129745 0.244923 0.996959
Si Si5 0.554852 0.344154 0.058050
Si Si6 0.316943 0.438367 0.577321
Si Si7 0.537571 0.012078 0.124823
Si Si8 0.442881 0.587459 0.226361
O O1 0.581097 0.210590 0.334393
O O2 0.559346 0.435875 0.289249
O O3 0.841959 0.062049 0.591250
O O4 0.363971 0.149128 0.452000
O O5 0.807916 0.298103 0.081916
O O6 0.749995 0.995121 0.226685
O O7 0.096854 0.125833 0.144956
O O8 0.378083 0.863142 0.741480
O O9 0.000000 0.000000 0.500000
O O10 0.855210 0.382542 0.834396
O O11 0.312779 0.367205 0.959464
O O12 0.268469 0.089643 0.069009
O O13 0.500000 0.500000 0.000000
O O14 0.500000 0.500000 0.500000
O O15 0.415872 0.493083 0.625063
O O16 0.000000 0.500000 0.500000
O O17 0.404045 0.198840 0.752090
O O18 0.544024 0.193650 0.946853
#
# Coordination Sequence:
#
# PCOD9017575 Si02
#       8
#     2   2   2   2   2   2   2   2
#     4  11  24  41  65  96 137 185 243 293 370 425
#     4  10  21  43  64  97 134 186 235 302 353 439
#     4  11  24  40  60  94 139 183 237 304 356 433
#     4  10  24  43  67 100 139 189 235 296 369 424
#     4  11  24  38  64  93 136 187 243 303 368 431
#     4  12  30  52  83 118 151 196 243 305 376 454
#     4  10  25  47  75 104 148 185 242 298 367 445
#     4  11  27  45  76 105 145 192 242 302 368 454
#
# _framework density 22.145547000000001
#
# number of rings (size 3 to 8) (size 9 to 14) (size 15 to 20)
#    0.000    1.250    2.500    1.125   14.000    1.000 
#    0.000    0.000    0.000    0.000    0.000    0.000 
#    0.000    0.000    0.000    0.000    0.000    0.000 
#
# Total GULP energy -89288.825679 kJ/mol
# GULP energy per Si atom -5580.551605 kJ/mol
# Density = 2.209514 g / cm^3
# Si number density = 22.145547 Si / 1000 Ang^3
#
#
#
# Elastic Constant Matrix: (Units=GPa)
#
#
# Indices 1 2 3 4 5 6 
#
# 1 117.6078 26.4444 44.7220 9.0718 14.6052 -4.5341
# 2 26.4444 92.7223 33.9122 -2.0208 -0.5447 -8.9090
# 3 44.7220 33.9122 59.4096 6.5143 2.1764 5.3064
# 4 9.0718 -2.0208 6.5143 55.2148 -0.3877 8.2077
# 5 14.6052 -0.5447 2.1764 -0.3877 38.3754 7.0654
# 6 -4.5341 -8.9090 5.3064 8.2077 7.0654 31.7923
#
#
#
# Elastic Compliance Matrix: (Units=1/GPa)
#
#
# Indices 1 2 3 4 5 6 
#
# 1 0.013409 0.000447 -0.010437 -0.001808 -0.005531 0.005476
# 2 0.000447 0.014582 -0.009222 0.000711 -0.000466 0.005609
# 3 -0.010437 -0.009222 0.030776 -0.000757 0.003908 -0.009883
# 4 -0.001808 0.000711 -0.000757 0.019332 0.001922 -0.005350
# 5 -0.005531 -0.000466 0.003908 0.001922 0.029544 -0.008634
# 6 0.005476 0.005609 -0.009883 -0.005350 -0.008634 0.038756
#
#
# Mechanical properties :
#
#
# Convention : Reuss Voigt Hill
#
# Bulk Modulus (GPa) = 49.15888 53.32187 51.24038
# Shear Modulus (GPa) = 26.09533 36.05390 31.07462
#
# Velocity S-wave (km/s) = 3.43644 4.03928 3.74999
# Velocity P-wave (km/s) = 6.16375 6.77381 6.47597
#
# Compressibility (1/GPa) = 0.02034220
#
# Stress axis : x y z
#
# Youngs Moduli (GPa) = 74.57881 68.57755 32.49269
#
# Poissons Ratio (x) = -0.03068 0.33913
# Poissons Ratio (y) = -0.03337 0.29966
# Poissons Ratio (z) = 0.77840 0.63245
#
# Static dielectric constant tensor:
#      x y z
#    x 1.893190 -0.019880 -0.005670 
#    y -0.019880 1.809370 -0.013030 
#    z -0.005670 -0.013030 1.818640 
# 
# From -- ./inp_files/550045.got.cif
#   From: 2010.05.17/outbox.cif.g08.bks.cpg/sg2_276_cif.got.tgz:550045.got - 2010.06.03 11:33:40.
