data_PCOD9017360
_publ_section_title
;
Structure prediction by ZEFSAII (Michael W. Deem and Ramdas Pophale) SiO2 
 PCOD9017360
Probable space group: P -1
;
_chemical_formula_sum "Si O2"
_cell_formula_units_Z 14
_cell_length_a 22.311981
_cell_length_b 27.694237
_cell_length_c 5.075592
_cell_angle_alpha 76.417332
_cell_angle_beta 103.109063
_cell_angle_gamma 169.482727
_cell_volume 556.311300
_symmetry_space_group_name_H-M "P -1"
_symmetry_group_IT_number 2
_symmetry_cell_setting 'triclinic'
loop_
_space_group_symop_operation_xyz
x,y,z
-x,-y,-z
loop_
_atom_site_type_symbol
_atom_site_label
_atom_site_fract_x
_atom_site_fract_y
_atom_site_fract_z
Si Si1 0.143235 0.651473 0.667066
Si Si2 0.706681 0.940868 0.562071
Si Si3 0.330669 0.670966 0.029599
Si Si4 0.821281 0.939450 0.426780
Si Si5 0.247982 0.827808 0.164651
Si Si6 0.780925 0.681289 0.049268
Si Si7 0.699405 0.749958 0.221530
O O1 0.146345 0.707692 0.443872
O O2 0.000000 0.500000 0.500000
O O3 0.909754 0.476646 0.911977
O O4 0.525034 0.949818 0.761010
O O5 0.587473 0.870090 0.265943
O O6 0.617403 0.811418 0.589981
O O7 0.537538 0.837605 0.756611
O O8 0.083359 0.232381 0.653299
O O9 0.078881 0.425793 0.015594
O O10 0.921230 0.054992 0.139715
O O11 0.160376 0.187725 0.573038
O O12 0.662562 0.764816 0.372819
O O13 0.500000 0.000000 0.000000
O O14 0.621952 0.512656 0.932177
O O15 0.500000 0.500000 0.000000
O O16 0.000000 0.000000 0.000000
#
# Coordination Sequence:
#
# PCOD9017360 Si02
#       7
#     2   2   2   2   2   2   2
#     4  10  21  42  75 105 136 175 227 273 323 395
#     4  12  24  42  68  94 138 185 217 280 351 391
#     4  11  23  43  67  99 141 178 223 270 338 411
#     4  11  23  40  67  93 128 171 221 282 347 388
#     4   9  20  40  70 102 134 177 218 270 324 400
#     4  12  23  41  69  95 128 179 230 283 344 399
#     4  11  23  40  64  99 123 161 234 290 328 405
#
# _framework density 25.165763999999999
#
# number of rings (size 3 to 8) (size 9 to 14) (size 15 to 20)
#    0.000    1.143    5.714    0.429    0.000    2.286 
#    0.000    2.857    0.000    0.000    0.000    0.000 
#    0.000    0.000    0.000    0.000    0.000    0.000 
#
# Total GULP energy -78158.926188 kJ/mol
# GULP energy per Si atom -5582.780442 kJ/mol
# Density = 2.510849 g / cm^3
# Si number density = 25.165764 Si / 1000 Ang^3
#
#
#
# Elastic Constant Matrix: (Units=GPa)
#
#
# Indices 1 2 3 4 5 6 
#
# 1 117.6846 26.3563 29.8908 0.7804 -38.0598 -5.5418
# 2 26.3563 93.8356 38.4596 34.1887 -8.5698 -15.1057
# 3 29.8908 38.4596 139.3910 24.3763 -27.2700 -1.7444
# 4 0.7804 34.1887 24.3763 60.2414 -0.3632 -13.0352
# 5 -38.0598 -8.5698 -27.2700 -0.3632 43.0858 5.4585
# 6 -5.5418 -15.1057 -1.7444 -13.0352 5.4585 41.7770
#
#
#
# Elastic Compliance Matrix: (Units=1/GPa)
#
#
# Indices 1 2 3 4 5 6 
#
# 1 0.012608 -0.003226 -0.000053 0.001677 0.010520 -0.000347
# 2 -0.003226 0.015564 -0.002712 -0.007025 -0.001928 0.003147
# 3 -0.000053 -0.002712 0.009497 -0.002742 0.005679 -0.002189
# 4 0.001677 -0.007025 -0.002742 0.022729 -0.002085 0.004932
# 5 0.010520 -0.001928 0.005679 -0.002085 0.036260 -0.004453
# 6 -0.000347 0.003147 -0.002189 0.004932 -0.004453 0.027058
#
#
# Mechanical properties :
#
#
# Convention : Reuss Voigt Hill
#
# Bulk Modulus (GPa) = 38.92931 60.03607 49.48269
# Shear Modulus (GPa) = 34.65956 46.10113 40.38035
#
# Velocity S-wave (km/s) = 3.71516 4.28471 4.01006
# Velocity P-wave (km/s) = 5.82288 6.95603 6.41453
#
# Compressibility (1/GPa) = 0.02568758
#
# Stress axis : x y z
#
# Youngs Moduli (GPa) = 79.31449 64.24888 105.29782
#
# Poissons Ratio (x) = 0.20725 0.00559
# Poissons Ratio (y) = 0.25585 0.28557
# Poissons Ratio (z) = 0.00421 0.17425
#
# Static dielectric constant tensor:
#      x y z
#    x 2.072250 0.014580 0.051500 
#    y 0.014580 2.078410 -0.012760 
#    z 0.051500 -0.012760 2.149020 
# 
# From -- ./inp_files/125336.got.cif
#   From: 2010.05.17/outbox.cif.g08.bks.cpg/sg2_63_cif.got.tgz:125336.got - 2010.06.03 11:33:40.
