data_PCOD9017799
_publ_section_title
;
Structure prediction by ZEFSAII (Michael W. Deem and Ramdas Pophale) SiO2 
 PCOD9017799
Probable space group: P -1
;
_chemical_formula_sum "Si O2"
_cell_formula_units_Z 16
_cell_length_a 8.030010
_cell_length_b 10.376915
_cell_length_c 13.882517
_cell_angle_alpha 75.452467
_cell_angle_beta 146.642168
_cell_angle_gamma 108.430062
_cell_volume 603.268648
_symmetry_space_group_name_H-M "P -1"
_symmetry_group_IT_number 2
_symmetry_cell_setting 'triclinic'
loop_
_space_group_symop_operation_xyz
x,y,z
-x,-y,-z
loop_
_atom_site_type_symbol
_atom_site_label
_atom_site_fract_x
_atom_site_fract_y
_atom_site_fract_z
Si Si1 0.139969 0.687170 0.436753
Si Si2 0.468669 0.461520 0.603228
Si Si3 0.795938 0.871851 0.673583
Si Si4 0.202309 0.734730 0.134542
Si Si5 0.037949 0.072048 0.607183
Si Si6 0.887974 0.358420 0.108741
Si Si7 0.685152 0.003691 0.949483
Si Si8 0.684765 0.692800 0.035388
O O1 0.204961 0.533923 0.505355
O O2 0.479171 0.778428 0.570320
O O3 0.993814 0.771220 0.430765
O O4 0.936428 0.696148 0.241556
O O5 0.500000 0.500000 0.500000
O O6 0.510471 0.307919 0.664144
O O7 0.803602 0.535637 0.790551
O O8 0.988798 0.760301 0.753024
O O9 0.774750 0.983031 0.563311
O O10 0.013450 0.947048 0.848775
O O11 0.234683 0.897985 0.123320
O O12 0.871813 0.666192 0.034656
O O13 0.234297 0.696129 0.045002
O O14 0.361022 0.047572 0.814099
O O15 0.000000 0.000000 0.500000
O O16 0.628771 0.390949 0.050258
O O17 0.621725 0.842137 0.951731
#
# Coordination Sequence:
#
# PCOD9017799 Si02
#       8
#     2   2   2   2   2   2   2   2
#     4  11  24  42  71 100 140 189 232 294 359 416
#     4  11  24  49  74  99 142 192 244 298 354 416
#     4  10  21  43  66  94 144 182 219 289 362 414
#     4  11  25  43  75 102 138 192 242 288 356 430
#     4  12  25  39  67 106 144 180 232 289 361 433
#     4  10  24  45  73 101 139 186 236 303 352 421
#     4  11  24  43  70 102 146 182 233 295 361 431
#     4  12  23  45  74 108 143 184 240 294 371 428
#
# _framework density 26.522179999999999
#
# number of rings (size 3 to 8) (size 9 to 14) (size 15 to 20)
#    0.000    1.000    3.750    3.000    1.750    3.500 
#    0.000    2.500    2.750    0.000    0.000    0.000 
#    0.000    0.000    0.000    0.000    0.000    0.000 
#
# Total GULP energy -89380.595261 kJ/mol
# GULP energy per Si atom -5586.287204 kJ/mol
# Density = 2.646181 g / cm^3
# Si number density = 26.522180 Si / 1000 Ang^3
#
#
#
# Elastic Constant Matrix: (Units=GPa)
#
#
# Indices 1 2 3 4 5 6 
#
# 1 139.3681 23.9317 28.2985 -13.9782 21.9357 -5.2456
# 2 23.9317 73.6228 29.3234 -44.8577 -0.0616 -12.1786
# 3 28.2985 29.3234 99.8536 -20.9419 1.4981 -14.0981
# 4 -13.9782 -44.8577 -20.9419 53.9102 -7.2293 15.0759
# 5 21.9357 -0.0616 1.4981 -7.2293 40.2144 -1.8131
# 6 -5.2456 -12.1786 -14.0981 15.0759 -1.8131 55.7379
#
#
#
# Elastic Compliance Matrix: (Units=1/GPa)
#
#
# Indices 1 2 3 4 5 6 
#
# 1 0.008703 -0.003187 -0.001830 -0.001770 -0.005003 -0.000024
# 2 -0.003187 0.030732 -0.003177 0.024588 0.006286 -0.000835
# 3 -0.001830 -0.003177 0.011953 0.001110 0.000833 0.001884
# 4 -0.001770 0.024588 0.001110 0.041618 0.008195 -0.005504
# 5 -0.005003 0.006286 0.000833 0.008195 0.029041 -0.000159
# 6 -0.000024 -0.000835 0.001884 -0.005504 -0.000159 0.019716
#
#
# Mechanical properties :
#
#
# Convention : Reuss Voigt Hill
#
# Bulk Modulus (GPa) = 28.57197 52.88353 40.72775
# Shear Modulus (GPa) = 29.44316 45.39191 37.41754
#
# Velocity S-wave (km/s) = 3.33548 4.14148 3.76014
# Velocity P-wave (km/s) = 5.06262 6.54613 5.85158
#
# Compressibility (1/GPa) = 0.03499934
#
# Stress axis : x y z
#
# Youngs Moduli (GPa) = 114.90126 32.53901 83.66388
#
# Poissons Ratio (x) = 0.10370 0.15312
# Poissons Ratio (y) = 0.36617 0.26583
# Poissons Ratio (z) = 0.21029 0.10339
#
# Static dielectric constant tensor:
#      x y z
#    x 2.144770 0.021240 0.039700 
#    y 0.021240 2.237450 -0.003900 
#    z 0.039700 -0.003900 2.082340 
# 
# From -- ./inp_files/500337.got.cif
#   From: 2010.05.17/outbox.cif.g08.bks.cpg/sg2_251_cif.got.tgz:500337.got - 2010.06.03 11:33:40.
