data_PCOD9017406
_publ_section_title
;
Structure prediction by ZEFSAII (Michael W. Deem and Ramdas Pophale) SiO2 
 PCOD9017406
Probable space group: P -1
;
_chemical_formula_sum "Si O2"
_cell_formula_units_Z 16
_cell_length_a 23.779113
_cell_length_b 9.073423
_cell_length_c 21.858522
_cell_angle_alpha 152.383815
_cell_angle_beta 159.784852
_cell_angle_gamma 34.537031
_cell_volume 754.536806
_symmetry_space_group_name_H-M "P -1"
_symmetry_group_IT_number 2
_symmetry_cell_setting 'triclinic'
loop_
_space_group_symop_operation_xyz
x,y,z
-x,-y,-z
loop_
_atom_site_type_symbol
_atom_site_label
_atom_site_fract_x
_atom_site_fract_y
_atom_site_fract_z
Si Si1 0.252994 0.291539 0.460340
Si Si2 0.014377 0.821461 0.094792
Si Si3 0.854071 0.316468 0.197857
Si Si4 0.098556 0.807324 0.578724
Si Si5 0.210527 0.141704 0.928120
Si Si6 0.871542 0.504836 0.723411
Si Si7 0.542451 0.038808 0.713656
Si Si8 0.557068 0.345222 0.413057
O O1 0.197197 0.550712 0.547540
O O2 0.177181 0.375318 0.348853
O O3 0.184103 0.944885 0.285333
O O4 0.443332 0.245786 0.641368
O O5 0.966766 0.074995 0.188958
O O6 0.000000 0.500000 0.000000
O O7 0.901414 0.787278 0.907165
O O8 0.957199 0.645264 0.418530
O O9 0.813919 0.172875 0.170139
O O10 0.691403 0.266232 0.973219
O O11 0.213827 0.030732 0.820772
O O12 0.000000 0.000000 0.500000
O O13 0.045171 0.336552 0.838329
O O14 0.380301 0.313294 0.187291
O O15 0.714206 0.303011 0.515010
O O16 0.579077 0.697809 0.595379
O O17 0.450858 0.918754 0.638493
#
# Coordination Sequence:
#
# PCOD9017406 Si02
#       8
#     2   2   2   2   2   2   2   2
#     4  11  25  39  63  95 131 175 216 265 328 389
#     4  11  20  37  65  96 126 163 214 266 326 393
#     4  10  22  40  69  93 125 170 213 273 325 378
#     4  11  24  46  63  89 131 177 225 269 315 381
#     4  11  23  43  67  97 128 174 227 266 318 382
#     4  12  22  40  65  99 132 172 209 265 334 392
#     4  10  21  43  62 101 133 161 214 271 332 392
#     4  10  23  40  70  98 135 167 209 274 327 395
#
# _framework density 21.205062000000002
#
# number of rings (size 3 to 8) (size 9 to 14) (size 15 to 20)
#    0.000    1.250    3.750    2.250    3.500    1.500 
#    2.250    2.500    0.000    0.000    0.000    0.000 
#    0.000    0.000    0.000    0.000    0.000    0.000 
#
# Total GULP energy -89244.433984 kJ/mol
# GULP energy per Si atom -5577.777124 kJ/mol
# Density = 2.115680 g / cm^3
# Si number density = 21.205062 Si / 1000 Ang^3
#
#
#
# Elastic Constant Matrix: (Units=GPa)
#
#
# Indices 1 2 3 4 5 6 
#
# 1 62.9282 -2.9112 23.3874 -5.0847 -14.4971 5.4431
# 2 -2.9112 49.1922 15.3953 -19.6840 -1.3213 5.7705
# 3 23.3874 15.3953 99.4517 -23.5568 -8.7579 9.8420
# 4 -5.0847 -19.6840 -23.5568 30.1407 3.3584 -11.5855
# 5 -14.4971 -1.3213 -8.7579 3.3584 36.0999 -8.6950
# 6 5.4431 5.7705 9.8420 -11.5855 -8.6950 15.1067
#
#
#
# Elastic Compliance Matrix: (Units=1/GPa)
#
#
# Indices 1 2 3 4 5 6 
#
# 1 0.019221 0.003095 -0.004102 0.000971 0.006521 -0.000938
# 2 0.003095 0.028253 -0.000687 0.020113 0.001386 0.004763
# 3 -0.004102 -0.000687 0.013381 0.009549 0.000892 0.000859
# 4 0.000971 0.020113 0.009549 0.069878 0.007449 0.043624
# 5 0.006521 0.001386 0.000892 0.007449 0.035335 0.022590
# 6 -0.000938 0.004763 0.000859 0.043624 0.022590 0.110612
#
#
# Mechanical properties :
#
#
# Convention : Reuss Voigt Hill
#
# Bulk Modulus (GPa) = 17.40121 31.47946 24.44033
# Shear Modulus (GPa) = 16.70990 27.98283 22.34636
#
# Velocity S-wave (km/s) = 2.81021 3.63661 3.24978
# Velocity P-wave (km/s) = 4.33055 5.70182 5.06282
#
# Compressibility (1/GPa) = 0.05746728
#
# Stress axis : x y z
#
# Youngs Moduli (GPa) = 52.02759 35.39432 74.73028
#
# Poissons Ratio (x) = -0.10954 0.30656
# Poissons Ratio (y) = -0.16101 0.05131
# Poissons Ratio (z) = 0.21343 0.02430
#
# Static dielectric constant tensor:
#      x y z
#    x 1.794250 -0.009330 0.040010 
#    y -0.009330 1.787940 0.007310 
#    z 0.040010 0.007310 1.817000 
# 
# From -- ./inp_files/177690.got.cif
#   From: 2010.05.17/outbox.cif.g08.bks.cpg/sg2_89_cif.got.tgz:177690.got - 2010.06.03 11:33:40.
