data_PCOD9017253
_publ_section_title
;
Structure prediction by ZEFSAII (Michael W. Deem and Ramdas Pophale) SiO2 
 PCOD9017253
Probable space group: P -1
;
_chemical_formula_sum "Si O2"
_cell_formula_units_Z 12
_cell_length_a 16.452037
_cell_length_b 9.096343
_cell_length_c 8.592246
_cell_angle_alpha 147.875063
_cell_angle_beta 57.279977
_cell_angle_gamma 111.386937
_cell_volume 562.680661
_symmetry_space_group_name_H-M "P -1"
_symmetry_group_IT_number 2
_symmetry_cell_setting 'triclinic'
loop_
_space_group_symop_operation_xyz
x,y,z
-x,-y,-z
loop_
_atom_site_type_symbol
_atom_site_label
_atom_site_fract_x
_atom_site_fract_y
_atom_site_fract_z
Si Si1 0.203946 0.452341 0.899119
Si Si2 0.269998 0.224946 0.303644
Si Si3 0.630766 0.497687 0.787019
Si Si4 0.374471 0.080541 0.571744
Si Si5 0.104572 0.058021 0.489675
Si Si6 0.537205 0.267202 0.383923
O O1 0.266953 0.395208 0.621688
O O2 0.271324 0.280974 0.807168
O O3 0.109495 0.318770 0.832037
O O4 0.169453 0.781654 0.256566
O O5 0.276400 0.427044 0.333021
O O6 0.169199 0.110867 0.319964
O O7 0.364774 0.966806 0.969018
O O8 0.562789 0.435777 0.660297
O O9 0.642747 0.226097 0.641286
O O10 0.591518 0.772260 0.177850
O O11 0.451475 0.104678 0.377417
O O12 0.000000 0.000000 0.500000
O O13 0.500000 0.500000 0.500000
#
# Coordination Sequence:
#
# PCOD9017253 Si02
#       6
#     2   2   2   2   2   2
#     4  10  23  42  66 101 120 170 211 260 323 370
#     4  10  24  41  65  95 128 164 222 254 325 363
#     4  12  25  43  59  94 131 179 211 256 315 372
#     4  12  26  41  64  90 141 170 211 255 313 383
#     4  10  21  42  72  98 123 156 218 272 319 374
#     4  12  26  43  64  94 132 173 224 259 305 373
#
# _framework density 21.326485000000002
#
# number of rings (size 3 to 8) (size 9 to 14) (size 15 to 20)
#    1.000    0.000    1.667    5.500    4.667    1.333 
#    0.000    0.000    0.000    6.000    0.000    0.000 
#    0.000    0.000    0.000    0.000    0.000    0.000 
#
# Total GULP energy -67041.035479 kJ/mol
# GULP energy per Si atom -5586.752957 kJ/mol
# Density = 2.127794 g / cm^3
# Si number density = 21.326485 Si / 1000 Ang^3
#
#
#
# Elastic Constant Matrix: (Units=GPa)
#
#
# Indices 1 2 3 4 5 6 
#
# 1 72.0461 50.7454 -3.8744 1.4981 -9.5804 17.6433
# 2 50.7454 163.3927 21.3518 31.6110 -16.9089 15.0177
# 3 -3.8744 21.3518 66.0707 19.6758 6.9060 -2.7868
# 4 1.4981 31.6110 19.6758 33.5867 -1.3582 4.7216
# 5 -9.5804 -16.9089 6.9060 -1.3582 26.1172 0.2342
# 6 17.6433 15.0177 -2.7868 4.7216 0.2342 34.6933
#
#
#
# Elastic Compliance Matrix: (Units=1/GPa)
#
#
# Indices 1 2 3 4 5 6 
#
# 1 0.021111 -0.006706 0.000800 0.006262 0.003594 -0.008646
# 2 -0.006706 0.010523 -0.001768 -0.008367 0.004387 -0.000178
# 3 0.000800 -0.001768 0.019789 -0.010719 -0.006673 0.003452
# 4 0.006262 -0.008367 -0.010719 0.044649 0.002095 -0.006515
# 5 0.003594 0.004387 -0.006673 0.002095 0.044364 -0.004847
# 6 -0.008646 -0.000178 0.003452 -0.006515 -0.004847 0.034494
#
#
# Mechanical properties :
#
#
# Convention : Reuss Voigt Hill
#
# Bulk Modulus (GPa) = 27.72062 48.66168 38.19115
# Shear Modulus (GPa) = 24.71518 34.43188 29.57353
#
# Velocity S-wave (km/s) = 3.40795 4.02246 3.72789
# Velocity P-wave (km/s) = 5.33966 6.66638 6.03956
#
# Compressibility (1/GPa) = 0.03607423
#
# Stress axis : x y z
#
# Youngs Moduli (GPa) = 47.36782 95.02961 50.53335
#
# Poissons Ratio (x) = 0.63728 -0.04043
# Poissons Ratio (y) = 0.31765 0.08936
# Poissons Ratio (z) = -0.03789 0.16805
#
# Static dielectric constant tensor:
#      x y z
#    x 1.787560 0.021470 0.018490 
#    y 0.021470 1.806660 0.000390 
#    z 0.018490 0.000390 1.776710 
# 
# From -- ./inp_files/287994.got.cif
#   From: 2010.05.17/outbox.cif.g08.bks.cpg/sg2_144_cif.got.tgz:287994.got - 2010.06.03 11:33:40.
