data_PCOD9017396
_publ_section_title
;
Structure prediction by ZEFSAII (Michael W. Deem and Ramdas Pophale) SiO2 
 PCOD9017396
Probable space group: P -1
;
_chemical_formula_sum "Si O2"
_cell_formula_units_Z 12
_cell_length_a 16.963653
_cell_length_b 17.362557
_cell_length_c 12.510206
_cell_angle_alpha 148.959098
_cell_angle_beta 31.488146
_cell_angle_gamma 162.552764
_cell_volume 554.564849
_symmetry_space_group_name_H-M "P -1"
_symmetry_group_IT_number 2
_symmetry_cell_setting 'triclinic'
loop_
_space_group_symop_operation_xyz
x,y,z
-x,-y,-z
loop_
_atom_site_type_symbol
_atom_site_label
_atom_site_fract_x
_atom_site_fract_y
_atom_site_fract_z
Si Si1 0.121701 0.967990 0.712721
Si Si2 0.426768 0.129700 0.349884
Si Si3 0.470628 0.489536 0.208615
Si Si4 0.787752 0.240508 0.510847
Si Si5 0.331398 0.617777 0.007259
Si Si6 0.222118 0.878494 0.057548
O O1 0.129893 0.859507 0.671387
O O2 0.825401 0.787337 0.820866
O O3 0.214447 0.949184 0.478220
O O4 0.342223 0.280506 0.824837
O O5 0.551816 0.396189 0.540707
O O6 0.278175 0.986544 0.239342
O O7 0.649765 0.183204 0.166510
O O8 0.610583 0.465839 0.075250
O O9 0.758748 0.314276 0.738705
O O10 0.000000 0.500000 0.500000
O O11 0.500000 0.000000 0.500000
O O12 0.088277 0.378567 0.923797
O O13 0.601310 0.880014 0.942410
#
# Coordination Sequence:
#
# PCOD9017396 Si02
#       6
#     2   2   2   2   2   2
#     4  10  21  43  61  89 125 164 200 250 300 368
#     4   9  23  38  64  91 127 172 200 238 305 361
#     4  10  22  39  64  86 137 162 194 246 312 352
#     4  12  25  44  69  89 115 158 211 261 313 359
#     4  12  24  42  60  97 125 157 207 261 295 360
#     4  11  23  37  66  91 129 165 209 240 294 364
#
# _framework density 21.638587000000001
#
# number of rings (size 3 to 8) (size 9 to 14) (size 15 to 20)
#    1.000    0.333    1.667    4.000    2.333    2.667 
#    0.000    5.000    0.000    0.000    0.000    0.000 
#    0.000    0.000    0.000    0.000    0.000    0.000 
#
# Total GULP energy -67086.176239 kJ/mol
# GULP energy per Si atom -5590.514687 kJ/mol
# Density = 2.158934 g / cm^3
# Si number density = 21.638587 Si / 1000 Ang^3
#
#
#
# Elastic Constant Matrix: (Units=GPa)
#
#
# Indices 1 2 3 4 5 6 
#
# 1 80.0760 6.0279 11.3047 4.1479 -19.1515 -3.7665
# 2 6.0279 74.0994 10.0024 14.6225 -2.5343 10.2617
# 3 11.3047 10.0024 60.9201 1.6102 -0.1563 -10.9106
# 4 4.1479 14.6225 1.6102 16.2984 -6.5071 -5.7502
# 5 -19.1515 -2.5343 -0.1563 -6.5071 36.8988 -1.1706
# 6 -3.7665 10.2617 -10.9106 -5.7502 -1.1706 44.0923
#
#
#
# Elastic Compliance Matrix: (Units=1/GPa)
#
#
# Indices 1 2 3 4 5 6 
#
# 1 0.014768 -0.000956 -0.002368 0.000869 0.007781 0.001218
# 2 -0.000956 0.019266 -0.003937 -0.020846 -0.003130 -0.008341
# 3 -0.002368 -0.003937 0.018429 0.004160 -0.000504 0.005803
# 4 0.000869 -0.020846 0.004160 0.092265 0.015892 0.018410
# 5 0.007781 -0.003130 -0.000504 0.015892 0.033860 0.004240
# 6 0.001218 -0.008341 0.005803 0.018410 0.004240 0.028675
#
#
# Mechanical properties :
#
#
# Convention : Reuss Voigt Hill
#
# Bulk Modulus (GPa) = 26.35685 29.97395 28.16540
# Shear Modulus (GPa) = 21.32819 31.97527 26.65173
#
# Velocity S-wave (km/s) = 3.14292 3.84825 3.51333
# Velocity P-wave (km/s) = 5.03761 5.79893 5.43162
#
# Compressibility (1/GPa) = 0.03794081
#
# Stress axis : x y z
#
# Youngs Moduli (GPa) = 67.71548 51.90427 54.26248
#
# Poissons Ratio (x) = 0.04961 0.12851
# Poissons Ratio (y) = 0.06472 0.21363
# Poissons Ratio (z) = 0.16038 0.20434
#
# Static dielectric constant tensor:
#      x y z
#    x 1.749130 -0.015500 0.026300 
#    y -0.015500 1.790550 0.036180 
#    z 0.026300 0.036180 1.821210 
# 
# From -- ./inp_files/38933.got.cif
#   From: 2010.05.17/outbox.cif.g08.bks.cpg/sg2_20_cif.got.tgz:38933.got - 2010.06.03 11:33:40.
