data_PCOD9017048
_publ_section_title
;
Structure prediction by ZEFSAII (Michael W. Deem and Ramdas Pophale) SiO2 
 PCOD9017048
Probable space group: P -1
;
_chemical_formula_sum "Si O2"
_cell_formula_units_Z 15
_cell_length_a 8.706088
_cell_length_b 10.257552
_cell_length_c 14.636855
_cell_angle_alpha 36.296390
_cell_angle_beta 121.836193
_cell_angle_gamma 107.539458
_cell_volume 637.137212
_symmetry_space_group_name_H-M "P -1"
_symmetry_group_IT_number 2
_symmetry_cell_setting 'triclinic'
loop_
_space_group_symop_operation_xyz
x,y,z
-x,-y,-z
loop_
_atom_site_type_symbol
_atom_site_label
_atom_site_fract_x
_atom_site_fract_y
_atom_site_fract_z
Si Si1 0.212888 0.844007 0.495297
Si Si2 0.597449 0.692120 0.455109
Si Si3 0.540877 0.399826 0.819333
Si Si4 0.500000 0.000000 0.000000
Si Si5 0.880341 0.743459 0.358093
Si Si6 0.215868 0.318954 0.281064
Si Si7 0.192258 0.651945 0.796063
Si Si8 0.473832 0.184813 0.100260
O O1 0.371200 0.621346 0.641238
O O2 0.155293 0.781991 0.614078
O O3 0.033237 0.879956 0.355321
O O4 0.282779 0.072324 0.396066
O O5 0.500000 0.500000 0.500000
O O6 0.768608 0.704737 0.435617
O O7 0.680253 0.663344 0.600171
O O8 0.459066 0.943435 0.266277
O O9 0.715664 0.485550 0.861827
O O10 0.494302 0.203455 0.985521
O O11 0.561438 0.228018 0.840573
O O12 0.728326 0.871325 0.167396
O O13 0.000000 0.500000 0.500000
O O14 0.998903 0.349411 0.213947
O O15 0.334847 0.770274 0.825925
O O16 0.308741 0.394951 0.958556
#
# Coordination Sequence:
#
# PCOD9017048 Si02
#       8
#     2   2   2   1   2   2   2   2
#     4  11  22  44  71 100 136 186 232 285 351 420
#     4  12  25  45  70  98 135 179 232 287 346 419
#     4  11  25  42  67  99 145 182 228 289 352 412
#     4  12  24  46  66  96 140 186 230 280 350 422
#     4  12  25  46  72 101 137 190 234 281 354 427
#     4  12  24  42  69 107 133 177 237 294 342 416
#     4  10  21  42  70  98 135 177 231 283 353 414
#     4  10  22  44  67  97 136 184 220 286 354 419
#
# _framework density 23.542809999999999
#
# number of rings (size 3 to 8) (size 9 to 14) (size 15 to 20)
#    0.000    0.800    5.333    2.400    0.000    0.533 
#    2.400    0.667    0.000    0.000    0.000    0.000 
#    0.000    0.000    0.000    0.000    0.000    0.000 
#
# Total GULP energy -83770.551838 kJ/mol
# GULP energy per Si atom -5584.703456 kJ/mol
# Density = 2.348923 g / cm^3
# Si number density = 23.542810 Si / 1000 Ang^3
#
#
#
# Elastic Constant Matrix: (Units=GPa)
#
#
# Indices 1 2 3 4 5 6 
#
# 1 63.4804 25.9622 28.7027 -9.0149 22.9210 13.7239
# 2 25.9622 185.4641 81.6579 -22.7015 12.4839 25.4077
# 3 28.7027 81.6579 125.1217 -16.4354 18.6242 8.6889
# 4 -9.0149 -22.7015 -16.4354 67.5466 -1.5828 -6.3584
# 5 22.9210 12.4839 18.6242 -1.5828 34.9060 -2.0403
# 6 13.7239 25.4077 8.6889 -6.3584 -2.0403 40.1982
#
#
#
# Elastic Compliance Matrix: (Units=1/GPa)
#
#
# Indices 1 2 3 4 5 6 
#
# 1 0.024348 0.000085 -0.002627 0.001503 -0.015035 -0.008324
# 2 0.000085 0.008276 -0.004894 0.001208 -0.000586 -0.004040
# 3 -0.002627 -0.004894 0.012271 0.001049 -0.002945 0.001354
# 4 0.001503 0.001208 0.001049 0.015725 -0.001211 0.000923
# 5 -0.015035 -0.000586 -0.002945 -0.001211 0.040715 0.008015
# 6 -0.008324 -0.004040 0.001354 0.000923 0.008015 0.030532
#
#
# Mechanical properties :
#
#
# Convention : Reuss Voigt Hill
#
# Bulk Modulus (GPa) = 33.30979 71.85685 52.58332
# Shear Modulus (GPa) = 31.89870 44.37972 38.13921
#
# Velocity S-wave (km/s) = 3.68492 4.34644 4.02928
# Velocity P-wave (km/s) = 5.68192 7.46839 6.63555
#
# Compressibility (1/GPa) = 0.03002121
#
# Stress axis : x y z
#
# Youngs Moduli (GPa) = 41.07165 120.83848 81.49380
#
# Poissons Ratio (x) = -0.01024 0.21411
# Poissons Ratio (y) = -0.00348 0.39882
# Poissons Ratio (z) = 0.10791 0.59137
#
# Static dielectric constant tensor:
#      x y z
#    x 1.962370 -0.057280 -0.091430 
#    y -0.057280 2.086070 -0.022610 
#    z -0.091430 -0.022610 1.935880 
# 
# From -- ./inp_files/200984.got.cif
#   From: 2010.05.17/outbox.cif.g08.bks.cpg/sg2_101_cif.got.tgz:200984.got - 2010.06.03 11:33:40.
