data_PCOD9017060
_publ_section_title
;
Structure prediction by ZEFSAII (Michael W. Deem and Ramdas Pophale) SiO2 
 PCOD9017060
Probable space group: P -1
;
_chemical_formula_sum "Si O2"
_cell_formula_units_Z 8
_cell_length_a 5.103268
_cell_length_b 9.806271
_cell_length_c 10.165694
_cell_angle_alpha 38.431871
_cell_angle_beta 71.120184
_cell_angle_gamma 80.428056
_cell_volume 295.900517
_symmetry_space_group_name_H-M "P -1"
_symmetry_group_IT_number 2
_symmetry_cell_setting 'triclinic'
loop_
_space_group_symop_operation_xyz
x,y,z
-x,-y,-z
loop_
_atom_site_type_symbol
_atom_site_label
_atom_site_fract_x
_atom_site_fract_y
_atom_site_fract_z
Si Si1 0.733234 0.318086 0.463667
Si Si2 0.407470 0.747799 0.753094
Si Si3 0.818360 0.833295 0.848293
Si Si4 0.220621 0.218424 0.820065
O O1 0.649431 0.368478 0.290250
O O2 0.453095 0.249958 0.646126
O O3 0.891347 0.543826 0.330690
O O4 0.880440 0.098676 0.606412
O O5 0.643752 0.713030 0.846235
O O6 0.114329 0.747603 0.874871
O O7 0.500000 0.000000 0.500000
O O8 0.661736 0.813795 0.028091
O O9 0.000000 0.000000 0.000000
#
# Coordination Sequence:
#
# PCOD9017060 Si02
#       4
#     2   2   2   2
#     4  10  23  43  68  99 137 178 222 281 340 395
#     4  10  21  42  70  99 133 174 224 281 338 399
#     4  11  23  44  70  99 135 175 226 281 336 404
#     4  11  24  43  68  99 137 181 227 274 335 408
#
# _framework density 27.036114999999999
#
# number of rings (size 3 to 8) (size 9 to 14) (size 15 to 20)
#    0.000    1.500    0.000    6.750    0.000    3.000 
#    0.000   17.500    0.000    1.500    0.000    0.000 
#    0.000    0.000    0.000    0.000    0.000    0.000 
#
# Total GULP energy -44847.425020 kJ/mol
# GULP energy per Si atom -5605.928127 kJ/mol
# Density = 2.697458 g / cm^3
# Si number density = 27.036115 Si / 1000 Ang^3
#
#
#
# Elastic Constant Matrix: (Units=GPa)
#
#
# Indices 1 2 3 4 5 6 
#
# 1 94.3577 35.3587 30.6101 6.1275 -3.3972 -6.4063
# 2 35.3587 170.9618 51.5668 -22.9088 -14.7698 7.8212
# 3 30.6101 51.5668 146.9580 22.2975 -12.4882 2.5924
# 4 6.1275 -22.9088 22.2975 83.1044 8.7588 -5.7527
# 5 -3.3972 -14.7698 -12.4882 8.7588 54.1109 -1.4646
# 6 -6.4063 7.8212 2.5924 -5.7527 -1.4646 32.3982
#
#
#
# Elastic Compliance Matrix: (Units=1/GPa)
#
#
# Indices 1 2 3 4 5 6 
#
# 1 0.012253 -0.002285 -0.001671 -0.000879 -0.000018 0.002951
# 2 -0.002285 0.007588 -0.002500 0.002732 0.000866 -0.001559
# 3 -0.001671 -0.002500 0.008665 -0.003132 0.001695 -0.000900
# 4 -0.000879 0.002732 -0.003132 0.014055 -0.002258 0.001811
# 5 -0.000018 0.000866 0.001695 -0.002258 0.019476 0.000131
# 6 0.002951 -0.001559 -0.000900 0.001811 0.000131 0.032225
#
#
# Mechanical properties :
#
#
# Convention : Reuss Voigt Hill
#
# Bulk Modulus (GPa) = 64.12250 71.92765 68.02508
# Shear Modulus (GPa) = 44.49534 53.57215 49.03375
#
# Velocity S-wave (km/s) = 4.06122 4.45624 4.26330
# Velocity P-wave (km/s) = 6.76462 7.28968 7.03205
#
# Compressibility (1/GPa) = 0.01559515
#
# Stress axis : x y z
#
# Youngs Moduli (GPa) = 81.61371 131.78549 115.40611
#
# Poissons Ratio (x) = 0.30106 0.19282
# Poissons Ratio (y) = 0.18645 0.28853
# Poissons Ratio (z) = 0.13636 0.32948
#
# Static dielectric constant tensor:
#      x y z
#    x 2.046760 0.006330 0.069250 
#    y 0.006330 2.172560 -0.101510 
#    z 0.069250 -0.101510 2.134170 
# 
# From -- ./inp_files/22826.got.cif
#   From: 2010.05.17/outbox.cif.g08.bks.cpg/sg2_12_cif.got.tgz:22826.got - 2010.06.03 11:33:40.
