data_PCOD9017763
_publ_section_title
;
Structure prediction by ZEFSAII (Michael W. Deem and Ramdas Pophale) SiO2 
 PCOD9017763
Probable space group: P -1
;
_chemical_formula_sum "Si O2"
_cell_formula_units_Z 15
_cell_length_a 6.955379
_cell_length_b 19.360370
_cell_length_c 9.685224
_cell_angle_alpha 141.006989
_cell_angle_beta 50.875076
_cell_angle_gamma 128.542724
_cell_volume 612.665303
_symmetry_space_group_name_H-M "P -1"
_symmetry_group_IT_number 2
_symmetry_cell_setting 'triclinic'
loop_
_space_group_symop_operation_xyz
x,y,z
-x,-y,-z
loop_
_atom_site_type_symbol
_atom_site_label
_atom_site_fract_x
_atom_site_fract_y
_atom_site_fract_z
Si Si1 0.531131 0.682521 0.346502
Si Si2 0.694908 0.921783 0.275011
Si Si3 0.500000 0.500000 0.500000
Si Si4 0.220567 0.451840 0.767837
Si Si5 0.419852 0.093311 0.994960
Si Si6 0.224984 0.065596 0.346114
Si Si7 0.389561 0.336383 0.013846
Si Si8 0.795871 0.330805 0.258967
O O1 0.704426 0.621148 0.260471
O O2 0.707649 0.808815 0.427367
O O3 0.463057 0.627604 0.142358
O O4 0.302855 0.680510 0.553815
O O5 0.752153 0.922163 0.086611
O O6 0.590655 0.788153 0.149497
O O7 0.500000 0.000000 0.500000
O O8 0.942117 0.980568 0.346401
O O9 0.236262 0.398422 0.530118
O O10 0.705800 0.429715 0.377305
O O11 0.462433 0.565314 0.792390
O O12 0.000000 0.500000 0.000000
O O13 0.564411 0.994392 0.788610
O O14 0.272432 0.091414 0.201492
O O15 0.643363 0.211614 0.072226
O O16 0.099308 0.342462 0.136655
#
# Coordination Sequence:
#
# PCOD9017763 Si02
#       8
#     2   2   1   2   2   2   2   2
#     4  10  24  42  66  94 129 174 220 274 333 394
#     4  12  26  38  64 104 130 177 223 270 333 394
#     4  10  22  42  68  96 130 168 222 280 322 402
#     4  11  25  43  65  96 131 175 221 276 334 392
#     4  10  21  43  66  92 136 172 222 271 332 397
#     4  10  22  43  67  94 131 177 217 278 329 388
#     4  12  25  43  68  97 134 177 221 278 334 398
#     4  10  22  43  68  97 132 176 219 276 342 387
#
# _framework density 24.483186
#
# number of rings (size 3 to 8) (size 9 to 14) (size 15 to 20)
#    0.000    1.333    1.333    3.200    3.733    4.267 
#    2.400    0.000    0.000    0.000    0.000    0.000 
#    0.000    0.000    0.000    0.000    0.000    0.000 
#
# Total GULP energy -83770.165784 kJ/mol
# GULP energy per Si atom -5584.677719 kJ/mol
# Density = 2.442746 g / cm^3
# Si number density = 24.483186 Si / 1000 Ang^3
#
#
#
# Elastic Constant Matrix: (Units=GPa)
#
#
# Indices 1 2 3 4 5 6 
#
# 1 84.4836 30.4219 35.0663 3.5963 12.2664 -5.6711
# 2 30.4219 93.0261 32.7224 18.5233 3.5440 -20.5374
# 3 35.0663 32.7224 102.6961 -2.3007 -3.1603 -11.2485
# 4 3.5963 18.5233 -2.3007 56.8470 -9.6496 4.7357
# 5 12.2664 3.5440 -3.1603 -9.6496 49.2594 -6.0751
# 6 -5.6711 -20.5374 -11.2485 4.7357 -6.0751 49.0656
#
#
#
# Elastic Compliance Matrix: (Units=1/GPa)
#
#
# Indices 1 2 3 4 5 6 
#
# 1 0.015486 -0.003462 -0.004451 -0.000643 -0.004158 -0.001132
# 2 -0.003462 0.015436 -0.003257 -0.005564 -0.000839 0.005747
# 3 -0.004451 -0.003257 0.012552 0.002219 0.002721 0.001122
# 4 -0.000643 -0.005564 0.002219 0.020546 0.004315 -0.003343
# 5 -0.004158 -0.000839 0.002721 0.004315 0.022686 0.002185
# 6 -0.001132 0.005747 0.001122 -0.003343 0.002185 0.023506
#
#
# Mechanical properties :
#
#
# Convention : Reuss Voigt Hill
#
# Bulk Modulus (GPa) = 47.31953 52.95854 50.13904
# Shear Modulus (GPa) = 35.81749 43.16740 39.49244
#
# Velocity S-wave (km/s) = 3.82899 4.20354 4.02063
# Velocity P-wave (km/s) = 6.23839 6.72586 6.48671
#
# Compressibility (1/GPa) = 0.02113292
#
# Stress axis : x y z
#
# Youngs Moduli (GPa) = 64.57477 64.78238 79.67119
#
# Poissons Ratio (x) = 0.22428 0.35462
# Poissons Ratio (y) = 0.22356 0.25951
# Poissons Ratio (z) = 0.28743 0.21101
#
# Static dielectric constant tensor:
#      x y z
#    x 1.980490 0.051400 0.099940 
#    y 0.051400 2.003880 -0.040090 
#    z 0.099940 -0.040090 2.035220 
# 
# From -- ./inp_files/139493.got.cif
#   From: 2010.05.17/outbox.cif.g08.bks.cpg/sg2_70_cif.got.tgz:139493.got - 2010.06.03 11:33:40.
