data_PCOD9017020
_publ_section_title
;
Structure prediction by ZEFSAII (Michael W. Deem and Ramdas Pophale) SiO2 
 PCOD9017020
Probable space group: P -1
;
_chemical_formula_sum "Si O2"
_cell_formula_units_Z 16
_cell_length_a 11.840980
_cell_length_b 12.385630
_cell_length_c 17.931387
_cell_angle_alpha 35.182798
_cell_angle_beta 29.259164
_cell_angle_gamma 50.064409
_cell_volume 716.589509
_symmetry_space_group_name_H-M "P -1"
_symmetry_group_IT_number 2
_symmetry_cell_setting 'triclinic'
loop_
_space_group_symop_operation_xyz
x,y,z
-x,-y,-z
loop_
_atom_site_type_symbol
_atom_site_label
_atom_site_fract_x
_atom_site_fract_y
_atom_site_fract_z
Si Si1 0.176425 0.837917 0.327283
Si Si2 0.273931 0.512450 0.169267
Si Si3 0.485916 0.341439 0.532846
Si Si4 0.328555 0.614855 0.757391
Si Si5 0.929381 0.798735 0.898834
Si Si6 0.978542 0.187879 0.861911
Si Si7 0.624131 0.929048 0.119004
Si Si8 0.713491 0.446425 0.692013
O O1 0.384797 0.935489 0.210165
O O2 0.319623 0.731124 0.246920
O O3 0.952157 0.676116 0.582904
O O4 0.077280 0.002863 0.250560
O O5 0.179957 0.680286 0.088360
O O6 0.362755 0.581065 0.162755
O O7 0.500000 0.500000 0.000000
O O8 0.500000 0.500000 0.500000
O O9 0.665760 0.357910 0.351366
O O10 0.463921 0.151535 0.703021
O O11 0.240892 0.325646 0.638048
O O12 0.586058 0.610720 0.644216
O O13 0.189238 0.764397 0.786778
O O14 0.185089 0.390603 0.978121
O O15 0.756460 0.791984 0.073613
O O16 0.849092 0.111381 0.902188
O O17 0.000000 0.000000 0.000000
O O18 0.000000 0.500000 0.500000
#
# Coordination Sequence:
#
# PCOD9017020 Si02
#       8
#     2   2   2   2   2   2   2   2
#     4  11  23  45  70  97 134 189 233 276 349 424
#     4  11  25  45  66 101 138 175 230 290 353 400
#     4  11  20  42  68  95 136 183 228 279 341 408
#     4  11  24  42  64 106 138 174 235 291 351 399
#     4  11  24  41  66 103 139 176 231 291 349 410
#     4  10  24  40  65  98 133 175 227 281 340 412
#     4  11  22  42  70 100 132 182 238 281 338 423
#     4  10  21  42  70  96 132 182 227 277 335 426
#
# _framework density 22.327983
#
# number of rings (size 3 to 8) (size 9 to 14) (size 15 to 20)
#    0.000    1.250    2.500    3.375    1.750    5.000 
#    4.500    5.625    0.000    0.000    0.000    0.000 
#    0.000    0.000    0.000    0.000    0.000    0.000 
#
# Total GULP energy -89140.838872 kJ/mol
# GULP energy per Si atom -5571.302429 kJ/mol
# Density = 2.227716 g / cm^3
# Si number density = 22.327983 Si / 1000 Ang^3
#
#
#
# Elastic Constant Matrix: (Units=GPa)
#
#
# Indices 1 2 3 4 5 6 
#
# 1 116.9294 44.3741 48.9132 5.5468 -8.5563 -14.4737
# 2 44.3741 128.8658 57.2762 21.5344 10.0382 -39.5198
# 3 48.9132 57.2762 95.8640 18.3080 6.0294 -5.4905
# 4 5.5468 21.5344 18.3080 35.5085 3.9656 -4.9211
# 5 -8.5563 10.0382 6.0294 3.9656 44.7353 -6.9343
# 6 -14.4737 -39.5198 -5.4905 -4.9211 -6.9343 43.3057
#
#
#
# Elastic Compliance Matrix: (Units=1/GPa)
#
#
# Indices 1 2 3 4 5 6 
#
# 1 0.011989 -0.001257 -0.005785 0.001871 0.003642 0.002922
# 2 -0.001257 0.016158 -0.007500 -0.003898 -0.000518 0.012849
# 3 -0.005785 -0.007500 0.018529 -0.004832 -0.002640 -0.007400
# 4 0.001871 -0.003898 -0.004832 0.032843 -0.001024 0.000024
# 5 0.003642 -0.000518 -0.002640 -0.001024 0.024261 0.004178
# 6 0.002922 0.012849 -0.007400 0.000024 0.004178 0.035527
#
#
# Mechanical properties :
#
#
# Convention : Reuss Voigt Hill
#
# Bulk Modulus (GPa) = 56.84336 71.42069 64.13203
# Shear Modulus (GPa) = 28.69361 37.44961 33.07161
#
# Velocity S-wave (km/s) = 3.58871 4.09987 3.85278
# Velocity P-wave (km/s) = 6.53341 7.38027 6.96971
#
# Compressibility (1/GPa) = 0.01759220
#
# Stress axis : x y z
#
# Youngs Moduli (GPa) = 83.41287 61.88701 53.96931
#
# Poissons Ratio (x) = 0.07781 0.31220
# Poissons Ratio (y) = 0.10488 0.40476
# Poissons Ratio (z) = 0.48252 0.46415
#
# Static dielectric constant tensor:
#      x y z
#    x 1.913370 -0.007630 -0.011240 
#    y -0.007630 1.889000 -0.092900 
#    z -0.011240 -0.092900 1.992630 
# 
# From -- ./inp_files/568554.got.cif
#   From: 2010.05.17/outbox.cif.g08.bks.cpg/sg2_285_cif.got.tgz:568554.got - 2010.06.03 11:33:40.
