data_PCOD9017910
_publ_section_title
;
Structure prediction by ZEFSAII (Michael W. Deem and Ramdas Pophale) SiO2 
 PCOD9017910
Probable space group: P -1
;
_chemical_formula_sum "Si O2"
_cell_formula_units_Z 14
_cell_length_a 7.717426
_cell_length_b 16.253271
_cell_length_c 8.814596
_cell_angle_alpha 145.223136
_cell_angle_beta 84.410680
_cell_angle_gamma 95.427462
_cell_volume 627.434347
_symmetry_space_group_name_H-M "P -1"
_symmetry_group_IT_number 2
_symmetry_cell_setting 'triclinic'
loop_
_space_group_symop_operation_xyz
x,y,z
-x,-y,-z
loop_
_atom_site_type_symbol
_atom_site_label
_atom_site_fract_x
_atom_site_fract_y
_atom_site_fract_z
Si Si1 0.414792 0.954031 0.201841
Si Si2 0.616149 0.371839 0.368378
Si Si3 0.265998 0.623195 0.932215
Si Si4 0.931942 0.945204 0.763234
Si Si5 0.603479 0.558102 0.931321
Si Si6 0.131533 0.376883 0.761875
Si Si7 0.757367 0.080507 0.502138
O O1 0.317708 0.954169 0.375788
O O2 0.265600 0.013208 0.194469
O O3 0.595097 0.044438 0.348290
O O4 0.456223 0.792252 0.891439
O O5 0.500000 0.500000 0.500000
O O6 0.774767 0.368634 0.229059
O O7 0.656538 0.428207 0.618992
O O8 0.472106 0.655613 0.997170
O O9 0.239528 0.461410 0.748871
O O10 0.186283 0.750245 0.227723
O O11 0.934604 0.773419 0.518448
O O12 0.070437 0.991532 0.689153
O O13 0.000000 0.000000 0.000000
O O14 0.500000 0.500000 0.000000
O O15 0.760997 0.645376 0.126009
O O16 0.000000 0.500000 0.000000
#
# Coordination Sequence:
#
# PCOD9017910 Si02
#       7
#     2   2   2   2   2   2   2
#     4  10  23  42  69  93 130 172 214 268 336 378
#     4   9  19  37  65  95 120 158 215 268 313 386
#     4   9  18  38  63  88 119 161 213 261 311 377
#     4  12  27  41  63  99 135 170 217 268 324 388
#     4   9  19  33  61  87 117 157 207 253 315 371
#     4  11  22  39  59  83 126 167 209 253 313 372
#     4  10  21  43  67  92 128 170 216 267 327 391
#
# _framework density 22.313094
#
# number of rings (size 3 to 8) (size 9 to 14) (size 15 to 20)
#    0.000    2.000    1.429    1.286    2.000    5.143 
#    0.000    2.143    0.000    0.000    0.000    0.000 
#    0.000    0.000    0.000    0.000    0.000    0.000 
#
# Total GULP energy -77946.710255 kJ/mol
# GULP energy per Si atom -5567.622161 kJ/mol
# Density = 2.226231 g / cm^3
# Si number density = 22.313094 Si / 1000 Ang^3
#
#
#
# Elastic Constant Matrix: (Units=GPa)
#
#
# Indices 1 2 3 4 5 6 
#
# 1 59.3393 4.8065 28.9100 -2.9464 2.9943 -4.8522
# 2 4.8065 50.2198 41.1167 -7.5000 9.7961 0.4815
# 3 28.9100 41.1167 182.8015 -18.5506 12.7613 5.4070
# 4 -2.9464 -7.5000 -18.5506 36.6715 -6.3603 4.8902
# 5 2.9943 9.7961 12.7613 -6.3603 26.8058 5.4437
# 6 -4.8522 0.4815 5.4070 4.8902 5.4437 20.6022
#
#
#
# Elastic Compliance Matrix: (Units=1/GPa)
#
#
# Indices 1 2 3 4 5 6 
#
# 1 0.018998 0.001225 -0.003415 -0.001226 -0.002514 0.006297
# 2 0.001225 0.025823 -0.005477 0.000964 -0.007311 0.002825
# 3 -0.003415 -0.005477 0.007633 0.002947 0.000142 -0.003417
# 4 -0.001226 0.000964 0.002947 0.031693 0.008084 -0.010743
# 5 -0.002514 -0.007311 0.000142 0.008084 0.045006 -0.014269
# 6 0.006297 0.002825 -0.003417 -0.010743 -0.014269 0.057173
#
#
# Mechanical properties :
#
#
# Convention : Reuss Voigt Hill
#
# Bulk Modulus (GPa) = 26.94140 49.11408 38.02774
# Shear Modulus (GPa) = 23.36094 31.31775 27.33934
#
# Velocity S-wave (km/s) = 3.23919 3.75047 3.50417
# Velocity P-wave (km/s) = 5.10786 6.38857 5.78378
#
# Compressibility (1/GPa) = 0.03711760
#
# Stress axis : x y z
#
# Youngs Moduli (GPa) = 52.63772 38.72573 131.01642
#
# Poissons Ratio (x) = -0.04743 0.44745
# Poissons Ratio (y) = -0.06446 0.71760
# Poissons Ratio (z) = 0.17977 0.21211
#
# Static dielectric constant tensor:
#      x y z
#    x 1.966270 0.026410 -0.036410 
#    y 0.026410 2.144230 0.005520 
#    z -0.036410 0.005520 1.864830 
# 
# From -- ./inp_files/219027.got.cif
#   From: 2010.05.17/outbox.cif.g08.bks.cpg/sg2_110_cif.got.tgz:219027.got - 2010.06.03 11:33:40.
