data_PCOD9017262
_publ_section_title
;
Structure prediction by ZEFSAII (Michael W. Deem and Ramdas Pophale) SiO2 
 PCOD9017262
Probable space group: P -1
;
_chemical_formula_sum "Si O2"
_cell_formula_units_Z 16
_cell_length_a 9.121945
_cell_length_b 9.759016
_cell_length_c 15.824689
_cell_angle_alpha 37.156550
_cell_angle_beta 100.562939
_cell_angle_gamma 109.666603
_cell_volume 792.255193
_symmetry_space_group_name_H-M "P -1"
_symmetry_group_IT_number 2
_symmetry_cell_setting 'triclinic'
loop_
_space_group_symop_operation_xyz
x,y,z
-x,-y,-z
loop_
_atom_site_type_symbol
_atom_site_label
_atom_site_fract_x
_atom_site_fract_y
_atom_site_fract_z
Si Si1 0.443849 0.231839 0.882039
Si Si2 0.942006 0.211330 0.638814
Si Si3 0.951974 0.513450 0.084613
Si Si4 0.085349 0.017917 0.909561
Si Si5 0.391333 0.266862 0.414438
Si Si6 0.082387 0.006401 0.595903
Si Si7 0.383087 0.998013 0.378074
Si Si8 0.397733 0.509245 0.904438
O O1 0.268026 0.173211 0.855518
O O2 0.566133 0.453866 0.737198
O O3 0.427716 0.333086 0.923767
O O4 0.500000 0.000000 0.000000
O O5 0.754420 0.096599 0.658270
O O6 0.000000 0.500000 0.500000
O O7 0.997714 0.116842 0.777698
O O8 0.015921 0.118238 0.611765
O O9 0.939241 0.266652 0.249270
O O10 0.783407 0.552081 0.059815
O O11 0.000000 0.500000 0.000000
O O12 0.077140 0.747216 0.021198
O O13 0.000000 0.000000 0.000000
O O14 0.551151 0.210790 0.481748
O O15 0.263060 0.165622 0.522231
O O16 0.327556 0.112854 0.398067
O O17 0.000000 0.000000 0.500000
O O18 0.532284 0.218052 0.255154
O O19 0.500000 0.500000 0.000000
#
# Coordination Sequence:
#
# PCOD9017262 Si02
#       8
#     2   2   2   2   2   2   2   2
#     4  11  27  44  69 104 141 187 231 289 360 425
#     4  12  27  45  69 106 145 185 235 292 357 429
#     4  12  26  47  73 103 143 185 242 296 346 431
#     4  12  27  47  70 103 148 191 236 294 366 421
#     4  10  22  45  71 101 138 179 234 287 347 424
#     4  12  26  44  72 106 136 189 238 287 354 417
#     4  10  21  42  72  99 135 179 231 287 347 418
#     4  11  24  43  71 100 134 182 234 289 354 416
#
# _framework density 20.195515
#
# number of rings (size 3 to 8) (size 9 to 14) (size 15 to 20)
#    0.000    0.750    5.000    1.500    5.250    0.000 
#    0.000    1.250    0.000    0.000    0.000    0.000 
#    0.000    0.000    0.000    0.000    0.000    0.000 
#
# Total GULP energy -89445.214644 kJ/mol
# GULP energy per Si atom -5590.325915 kJ/mol
# Density = 2.014955 g / cm^3
# Si number density = 20.195515 Si / 1000 Ang^3
#
#
#
# Elastic Constant Matrix: (Units=GPa)
#
#
# Indices 1 2 3 4 5 6 
#
# 1 65.9294 42.1247 43.5546 -0.8703 -2.9167 6.5888
# 2 42.1247 128.3044 64.7297 -1.9452 9.9520 3.6821
# 3 43.5546 64.7297 155.5496 -7.4774 10.9410 -8.1265
# 4 -0.8703 -1.9452 -7.4774 43.4871 -1.6961 4.3659
# 5 -2.9167 9.9520 10.9410 -1.6961 36.6299 3.5612
# 6 6.5888 3.6821 -8.1265 4.3659 3.5612 36.1368
#
#
#
# Elastic Compliance Matrix: (Units=1/GPa)
#
#
# Indices 1 2 3 4 5 6 
#
# 1 0.022346 -0.005207 -0.004711 0.000117 0.005104 -0.005120
# 2 -0.005207 0.011277 -0.003100 -0.000167 -0.002499 -0.000630
# 3 -0.004711 -0.003100 0.009449 0.000943 -0.002647 0.003447
# 4 0.000117 -0.000167 0.000943 0.023471 0.001126 -0.002739
# 5 0.005104 -0.002499 -0.002647 0.001126 0.029649 -0.004329
# 6 -0.005120 -0.000630 0.003447 -0.002739 -0.004329 0.030203
#
#
# Mechanical properties :
#
#
# Convention : Reuss Voigt Hill
#
# Bulk Modulus (GPa) = 58.69807 72.28903 65.49355
# Shear Modulus (GPa) = 31.62344 36.54238 34.08291
#
# Velocity S-wave (km/s) = 3.96139 4.25836 4.11256
# Velocity P-wave (km/s) = 7.07471 7.74922 7.41963
#
# Compressibility (1/GPa) = 0.01703634
#
# Stress axis : x y z
#
# Youngs Moduli (GPa) = 44.75062 88.67744 105.82635
#
# Poissons Ratio (x) = 0.46175 0.49855
# Poissons Ratio (y) = 0.23302 0.32805
# Poissons Ratio (z) = 0.21082 0.27489
#
# Static dielectric constant tensor:
#      x y z
#    x 1.712980 0.044840 -0.012800 
#    y 0.044840 1.670100 -0.030340 
#    z -0.012800 -0.030340 1.737960 
# 
# From -- ./inp_files/299236.got.cif
#   From: 2010.05.17/outbox.cif.g08.bks.cpg/sg2_150_cif.got.tgz:299236.got - 2010.06.03 11:33:40.
