data_PCOD9017732
_publ_section_title
;
Structure prediction by ZEFSAII (Michael W. Deem and Ramdas Pophale) SiO2 
 PCOD9017732
Probable space group: P -1
;
_chemical_formula_sum "Si O2"
_cell_formula_units_Z 14
_cell_length_a 13.733045
_cell_length_b 14.691336
_cell_length_c 8.237353
_cell_angle_alpha 132.105231
_cell_angle_beta 77.152456
_cell_angle_gamma 140.400906
_cell_volume 615.237574
_symmetry_space_group_name_H-M "P -1"
_symmetry_group_IT_number 2
_symmetry_cell_setting 'triclinic'
loop_
_space_group_symop_operation_xyz
x,y,z
-x,-y,-z
loop_
_atom_site_type_symbol
_atom_site_label
_atom_site_fract_x
_atom_site_fract_y
_atom_site_fract_z
Si Si1 0.409464 0.454016 0.150454
Si Si2 0.513415 0.208838 0.314353
Si Si3 0.634393 0.963731 0.408500
Si Si4 0.032607 0.019506 0.320619
Si Si5 0.598247 0.444931 0.241769
Si Si6 0.286659 0.726129 0.446890
Si Si7 0.120036 0.836342 0.137367
O O1 0.451130 0.640632 0.390799
O O2 0.495575 0.467958 0.283980
O O3 0.500000 0.500000 0.000000
O O4 0.178998 0.194190 0.932378
O O5 0.557962 0.316741 0.255347
O O6 0.657638 0.251572 0.363072
O O7 0.285267 0.938592 0.097155
O O8 0.484279 0.886079 0.477509
O O9 0.732196 0.154931 0.465493
O O10 0.797719 0.079663 0.607072
O O11 0.493575 0.721961 0.077950
O O12 0.176893 0.278085 0.519408
O O13 0.112211 0.964357 0.216089
O O14 0.000000 0.000000 0.500000
O O15 0.092926 0.448258 0.134766
#
# Coordination Sequence:
#
# PCOD9017732 Si02
#       7
#     2   2   2   2   2   2   2
#     4  12  22  40  61  89 126 158 208 252 299 366
#     4  11  24  40  60  92 129 167 197 257 312 365
#     4  10  23  40  65  92 119 162 209 265 300 358
#     4  12  22  35  65  91 120 162 199 251 308 367
#     4  12  25  39  59  95 133 159 201 251 318 373
#     4  10  21  43  66  88 119 161 219 255 302 359
#     4  11  21  39  65  89 121 160 213 252 305 361
#
# _framework density 22.755436
#
# number of rings (size 3 to 8) (size 9 to 14) (size 15 to 20)
#    0.000    0.857    4.286    4.286    0.000    2.286 
#    0.000    0.714    0.000    0.000    0.000    0.000 
#    0.000    0.000    0.000    0.000    0.000    0.000 
#
# Total GULP energy -78206.594748 kJ/mol
# GULP energy per Si atom -5586.185339 kJ/mol
# Density = 2.270364 g / cm^3
# Si number density = 22.755436 Si / 1000 Ang^3
#
#
#
# Elastic Constant Matrix: (Units=GPa)
#
#
# Indices 1 2 3 4 5 6 
#
# 1 69.8164 47.6794 19.1766 5.7604 21.9593 -19.7620
# 2 47.6794 84.9811 22.0057 2.9305 22.3740 -32.5718
# 3 19.1766 22.0057 56.9735 15.0900 20.6080 8.5342
# 4 5.7604 2.9305 15.0900 35.1326 6.8312 1.9531
# 5 21.9593 22.3740 20.6080 6.8312 41.9076 4.7509
# 6 -19.7620 -32.5718 8.5342 1.9531 4.7509 38.4655
#
#
#
# Elastic Compliance Matrix: (Units=1/GPa)
#
#
# Indices 1 2 3 4 5 6 
#
# 1 0.025925 -0.008363 -0.003514 -0.000906 -0.008159 0.008071
# 2 -0.008363 0.032155 -0.010544 0.003933 -0.011241 0.026460
# 3 -0.003514 -0.010544 0.028967 -0.009422 -0.003394 -0.016263
# 4 -0.000906 0.003933 -0.009422 0.032659 -0.002727 0.003634
# 5 -0.008159 -0.011241 -0.003394 -0.002727 0.038241 -0.017542
# 6 0.008071 0.026460 -0.016263 0.003634 -0.017542 0.058141
#
#
# Mechanical properties :
#
#
# Convention : Reuss Voigt Hill
#
# Bulk Modulus (GPa) = 23.69326 43.27715 33.48520
# Shear Modulus (GPa) = 18.18190 31.29509 24.73849
#
# Velocity S-wave (km/s) = 2.82975 3.71250 3.30077
# Velocity P-wave (km/s) = 4.59471 6.11854 5.41054
#
# Compressibility (1/GPa) = 0.04220609
#
# Stress axis : x y z
#
# Youngs Moduli (GPa) = 38.57246 31.09890 34.52236
#
# Poissons Ratio (x) = 0.26007 0.12130
# Poissons Ratio (y) = 0.32257 0.36401
# Poissons Ratio (z) = 0.13554 0.32792
#
# Static dielectric constant tensor:
#      x y z
#    x 1.904740 0.002940 -0.042720 
#    y 0.002940 1.896150 -0.036660 
#    z -0.042720 -0.036660 1.795960 
# 
# From -- ./inp_files/255571.got.cif
#   From: 2010.05.17/outbox.cif.g08.bks.cpg/sg2_128_cif.got.tgz:255571.got - 2010.06.03 11:33:40.
