data_PCOD9017853
_publ_section_title
;
Structure prediction by ZEFSAII (Michael W. Deem and Ramdas Pophale) SiO2 
 PCOD9017853
Probable space group: P -1
;
_chemical_formula_sum "Si O2"
_cell_formula_units_Z 14
_cell_length_a 12.780417
_cell_length_b 15.671369
_cell_length_c 5.091025
_cell_angle_alpha 119.572320
_cell_angle_beta 105.403227
_cell_angle_gamma 40.295027
_cell_volume 562.297929
_symmetry_space_group_name_H-M "P -1"
_symmetry_group_IT_number 2
_symmetry_cell_setting 'triclinic'
loop_
_space_group_symop_operation_xyz
x,y,z
-x,-y,-z
loop_
_atom_site_type_symbol
_atom_site_label
_atom_site_fract_x
_atom_site_fract_y
_atom_site_fract_z
Si Si1 0.342072 0.106365 0.734622
Si Si2 0.065131 0.323598 0.481216
Si Si3 0.575700 0.568498 0.406602
Si Si4 0.261086 0.352364 0.353054
Si Si5 0.803643 0.946364 0.122063
Si Si6 0.716867 0.372536 0.706072
Si Si7 0.063688 0.053277 0.279090
O O1 0.170367 0.210660 0.620489
O O2 0.347056 0.015084 0.808931
O O3 0.500000 0.000000 0.500000
O O4 0.330211 0.221334 0.019826
O O5 0.166010 0.353057 0.509520
O O6 0.880444 0.486352 0.639697
O O7 0.072830 0.231462 0.129412
O O8 0.600720 0.664573 0.503533
O O9 0.626307 0.505351 0.640171
O O10 0.391424 0.652959 0.385028
O O11 0.695549 0.431236 0.071346
O O12 0.857668 0.989425 0.442022
O O13 0.801593 0.998262 0.917008
O O14 0.895970 0.229358 0.489381
O O15 0.000000 0.000000 0.000000
#
# Coordination Sequence:
#
# PCOD9017853 Si02
#       7
#     2   2   2   2   2   2   2
#     4  11  25  44  67 100 142 179 220 277 353 412
#     4  10  21  43  67 100 132 172 230 277 335 406
#     4  10  22  40  65  95 130 170 212 280 334 391
#     4  10  22  37  69 103 127 175 227 278 328 404
#     4  11  24  44  68  94 131 183 218 282 339 393
#     4  10  22  41  63  94 133 168 216 269 342 385
#     4  12  24  42  67  98 129 176 230 272 323 406
#
# _framework density 24.897832999999999
#
# number of rings (size 3 to 8) (size 9 to 14) (size 15 to 20)
#    0.000    1.429    1.429    3.429    2.000    3.429 
#    2.571    0.000    0.000    0.000    0.000    0.000 
#    0.000    0.000    0.000    0.000    0.000    0.000 
#
# Total GULP energy -78222.748518 kJ/mol
# GULP energy per Si atom -5587.339180 kJ/mol
# Density = 2.484116 g / cm^3
# Si number density = 24.897833 Si / 1000 Ang^3
#
#
#
# Elastic Constant Matrix: (Units=GPa)
#
#
# Indices 1 2 3 4 5 6 
#
# 1 123.5154 -5.9498 56.1338 -0.2909 4.6675 1.6524
# 2 -5.9498 65.9249 32.1913 -6.8902 -4.7536 1.5192
# 3 56.1338 32.1913 100.6368 -17.2457 -2.9823 -4.6682
# 4 -0.2909 -6.8902 -17.2457 31.1817 -0.0868 -1.9341
# 5 4.6675 -4.7536 -2.9823 -0.0868 54.0350 1.2902
# 6 1.6524 1.5192 -4.6682 -1.9341 1.2902 17.2847
#
#
#
# Elastic Compliance Matrix: (Units=1/GPa)
#
#
# Indices 1 2 3 4 5 6 
#
# 1 0.013086 0.005704 -0.010163 -0.004547 -0.001079 -0.004926
# 2 0.005704 0.020745 -0.010276 -0.001376 0.000891 -0.005365
# 3 -0.010163 -0.010276 0.020994 0.009780 0.000944 0.008569
# 4 -0.004547 -0.001376 0.009780 0.037590 0.000696 0.007351
# 5 -0.001079 0.000891 0.000944 0.000696 0.018756 -0.001042
# 6 -0.004926 -0.005365 0.008569 0.007351 -0.001042 0.062012
#
#
# Mechanical properties :
#
#
# Convention : Reuss Voigt Hill
#
# Bulk Modulus (GPa) = 39.43977 50.53642 44.98809
# Shear Modulus (GPa) = 23.68479 34.34705 29.01592
#
# Velocity S-wave (km/s) = 3.08763 3.71822 3.41750
# Velocity P-wave (km/s) = 5.34661 6.22697 5.80351
#
# Compressibility (1/GPa) = 0.02535512
#
# Stress axis : x y z
#
# Youngs Moduli (GPa) = 76.41829 48.20331 47.63218
#
# Poissons Ratio (x) = -0.27497 0.48411
# Poissons Ratio (y) = -0.43591 0.48947
# Poissons Ratio (z) = 0.77667 0.49534
#
# Static dielectric constant tensor:
#      x y z
#    x 2.006330 0.006490 0.018880 
#    y 0.006490 2.017530 -0.022920 
#    z 0.018880 -0.022920 1.952550 
# 
# From -- ./inp_files/81042.got.cif
#   From: 2010.05.17/outbox.cif.g08.bks.cpg/sg2_41_cif.got.tgz:81042.got - 2010.06.03 11:33:40.
