data_PCOD9017623
_publ_section_title
;
Structure prediction by ZEFSAII (Michael W. Deem and Ramdas Pophale) SiO2 
 PCOD9017623
Probable space group: P -1
;
_chemical_formula_sum "Si O2"
_cell_formula_units_Z 16
_cell_length_a 8.961883
_cell_length_b 8.373979
_cell_length_c 11.882516
_cell_angle_alpha 75.715644
_cell_angle_beta 125.261535
_cell_angle_gamma 76.281857
_cell_volume 619.127969
_symmetry_space_group_name_H-M "P -1"
_symmetry_group_IT_number 2
_symmetry_cell_setting 'triclinic'
loop_
_space_group_symop_operation_xyz
x,y,z
-x,-y,-z
loop_
_atom_site_type_symbol
_atom_site_label
_atom_site_fract_x
_atom_site_fract_y
_atom_site_fract_z
Si Si1 0.017988 0.980945 0.876050
Si Si2 0.793239 0.605351 0.029951
Si Si3 0.604741 0.573427 0.748953
Si Si4 0.406701 0.868017 0.934482
Si Si5 0.356136 0.079208 0.264438
Si Si6 0.216165 0.540629 0.620129
Si Si7 0.850800 0.403414 0.682089
Si Si8 0.759129 0.821139 0.366934
O O1 0.830212 0.944187 0.759984
O O2 0.973418 0.180143 0.772655
O O3 0.250160 0.848409 0.955901
O O4 0.000000 0.000000 0.000000
O O5 0.788061 0.493185 0.936821
O O6 0.591559 0.669604 0.008001
O O7 0.742008 0.805366 0.915115
O O8 0.001159 0.526332 0.205012
O O9 0.577584 0.778804 0.672370
O O10 0.404078 0.581341 0.716516
O O11 0.666864 0.458116 0.681953
O O12 0.280545 0.990957 0.748846
O O13 0.500000 0.000000 0.000000
O O14 0.566219 0.892336 0.356915
O O15 0.204287 0.536030 0.479134
O O16 0.252375 0.331788 0.696262
O O17 0.994404 0.706442 0.534870
#
# Coordination Sequence:
#
# PCOD9017623 Si02
#       8
#     2   2   2   2   2   2   2   2
#     4  12  20  35  66 100 125 163 213 267 320 375
#     4   9  20  40  65  92 128 166 209 267 326 364
#     4  10  23  40  62  95 137 170 206 269 333 373
#     4  11  19  39  67  97 124 161 222 272 306 377
#     4   9  21  39  62  93 125 168 209 263 320 378
#     4  11  23  40  67  95 125 178 213 265 321 384
#     4  12  21  39  66  94 130 167 217 263 320 386
#     4  10  21  43  65  91 127 168 224 261 312 391
#
# _framework density 25.8428
#
# number of rings (size 3 to 8) (size 9 to 14) (size 15 to 20)
#    0.750    0.750    3.750    2.250    0.000    0.500 
#    0.000    5.000    0.000    5.250    0.000    0.000 
#    0.000    0.000    0.000    0.000    0.000    0.000 
#
# Total GULP energy -89487.184880 kJ/mol
# GULP energy per Si atom -5592.949055 kJ/mol
# Density = 2.578398 g / cm^3
# Si number density = 25.842800 Si / 1000 Ang^3
#
#
#
# Elastic Constant Matrix: (Units=GPa)
#
#
# Indices 1 2 3 4 5 6 
#
# 1 154.1156 16.1392 22.9448 -0.7567 33.3989 -11.4684
# 2 16.1392 48.1587 7.8598 -9.4390 9.8873 -3.9637
# 3 22.9448 7.8598 78.5991 2.9724 2.1792 4.8511
# 4 -0.7567 -9.4390 2.9724 33.4859 -3.4966 6.4827
# 5 33.3989 9.8873 2.1792 -3.4966 52.2627 0.0219
# 6 -11.4684 -3.9637 4.8511 6.4827 0.0219 44.6434
#
#
#
# Elastic Compliance Matrix: (Units=1/GPa)
#
#
# Indices 1 2 3 4 5 6 
#
# 1 0.008211 -0.001365 -0.002233 -0.000979 -0.004963 0.002375
# 2 -0.001365 0.023522 -0.002171 0.006266 -0.003068 0.001065
# 3 -0.002233 -0.002171 0.013738 -0.001360 0.001175 -0.002062
# 4 -0.000979 0.006266 -0.001360 0.032737 0.001689 -0.004302
# 5 -0.004963 -0.003068 0.001175 0.001689 0.022951 -0.001931
# 6 0.002375 0.001065 -0.002062 -0.004302 -0.001931 0.023954
#
#
# Mechanical properties :
#
#
# Convention : Reuss Voigt Hill
#
# Bulk Modulus (GPa) = 29.46931 41.64012 35.55471
# Shear Modulus (GPa) = 33.79224 41.67371 37.73297
#
# Velocity S-wave (km/s) = 3.62001 4.02006 3.82527
# Velocity P-wave (km/s) = 5.37593 6.13968 5.77046
#
# Compressibility (1/GPa) = 0.03393361
#
# Stress axis : x y z
#
# Youngs Moduli (GPa) = 121.78156 42.51302 72.79182
#
# Poissons Ratio (x) = 0.05803 0.16251
# Poissons Ratio (y) = 0.16623 0.15806
# Poissons Ratio (z) = 0.27189 0.09231
#
# Static dielectric constant tensor:
#      x y z
#    x 2.082390 -0.016860 -0.007940 
#    y -0.016860 2.041580 -0.002490 
#    z -0.007940 -0.002490 2.090390 
# 
# From -- ./inp_files/252612.got.cif
#   From: 2010.05.17/outbox.cif.g08.bks.cpg/sg2_127_cif.got.tgz:252612.got - 2010.06.03 11:33:40.
