data_PCOD9017278
_publ_section_title
;
Structure prediction by ZEFSAII (Michael W. Deem and Ramdas Pophale) SiO2 
 PCOD9017278
Probable space group: P -1
;
_chemical_formula_sum "Si O2"
_cell_formula_units_Z 16
_cell_length_a 12.079492
_cell_length_b 5.656959
_cell_length_c 11.288137
_cell_angle_alpha 64.784036
_cell_angle_beta 108.278900
_cell_angle_gamma 118.910830
_cell_volume 605.206986
_symmetry_space_group_name_H-M "P -1"
_symmetry_group_IT_number 2
_symmetry_cell_setting 'triclinic'
loop_
_space_group_symop_operation_xyz
x,y,z
-x,-y,-z
loop_
_atom_site_type_symbol
_atom_site_label
_atom_site_fract_x
_atom_site_fract_y
_atom_site_fract_z
Si Si1 0.792747 0.606928 0.792532
Si Si2 0.207740 0.252306 0.775781
Si Si3 0.175133 0.765189 0.521293
Si Si4 0.994006 0.252421 0.330079
Si Si5 0.130571 0.433009 0.923558
Si Si6 0.605992 0.991884 0.125139
Si Si7 0.454225 0.169780 0.589591
Si Si8 0.702453 0.090554 0.702483
O O1 0.725822 0.283169 0.788543
O O2 0.880810 0.770467 0.675760
O O3 0.709859 0.781291 0.771754
O O4 0.882260 0.629035 0.929893
O O5 0.206444 0.534894 0.657790
O O6 0.144935 0.194104 0.896574
O O7 0.345139 0.252348 0.839173
O O8 0.126508 0.015429 0.705996
O O9 0.046824 0.749933 0.546257
O O10 0.184399 0.724340 0.392147
O O11 0.307636 0.038886 0.526544
O O12 0.977441 0.503469 0.194321
O O13 0.268497 0.707703 0.902471
O O14 0.557955 0.912395 0.258606
O O15 0.500000 0.000000 0.000000
O O16 0.500000 0.500000 0.500000
O O17 0.567476 0.072471 0.611676
#
# Coordination Sequence:
#
# PCOD9017278 Si02
#       8
#     2   2   2   2   2   2   2   2
#     4  12  29  48  70 112 153 189 243 309 374 429
#     4  10  21  42  73 101 135 190 248 295 355 445
#     4  11  24  48  74 103 137 195 254 291 367 445
#     4  10  24  46  76 102 139 195 248 301 360 443
#     4  10  23  44  70 103 142 192 245 295 366 451
#     4  11  23  40  68 107 148 185 237 310 372 430
#     4  12  24  48  76 106 148 198 248 301 365 457
#     4  12  30  46  71 110 151 193 241 312 370 431
#
# _framework density 26.437237
#
# number of rings (size 3 to 8) (size 9 to 14) (size 15 to 20)
#    0.000    1.000    3.750    3.000   10.500    4.000 
#    0.000    0.000    0.000    0.000    0.000    0.000 
#    0.000    0.000    0.000    0.000    0.000    0.000 
#
# Total GULP energy -89494.568596 kJ/mol
# GULP energy per Si atom -5593.410537 kJ/mol
# Density = 2.637707 g / cm^3
# Si number density = 26.437237 Si / 1000 Ang^3
#
#
#
# Elastic Constant Matrix: (Units=GPa)
#
#
# Indices 1 2 3 4 5 6 
#
# 1 167.9419 33.0782 40.8128 1.9237 8.0334 -15.2626
# 2 33.0782 73.9122 25.1079 1.6161 1.6120 -13.0704
# 3 40.8128 25.1079 139.2968 26.5407 4.0086 -9.9118
# 4 1.9237 1.6161 26.5407 37.1690 -0.5971 -7.2197
# 5 8.0334 1.6120 4.0086 -0.5971 58.9200 5.4149
# 6 -15.2626 -13.0704 -9.9118 -7.2197 5.4149 41.1902
#
#
#
# Elastic Compliance Matrix: (Units=1/GPa)
#
#
# Indices 1 2 3 4 5 6 
#
# 1 0.007014 -0.002231 -0.001748 0.001322 -0.000931 0.001824
# 2 -0.002231 0.015988 -0.002278 0.001831 -0.000333 0.004063
# 3 -0.001748 -0.002278 0.009341 -0.006529 -0.000381 -0.000217
# 4 0.001322 0.001831 -0.006529 0.032424 0.000067 0.005174
# 5 -0.000931 -0.000333 -0.000381 0.000067 0.017394 -0.002817
# 6 0.001824 0.004063 -0.000217 0.005174 -0.002817 0.027468
#
#
# Mechanical properties :
#
#
# Convention : Reuss Voigt Hill
#
# Bulk Modulus (GPa) = 50.43384 64.34987 57.39185
# Shear Modulus (GPa) = 38.83421 46.26599 42.55010
#
# Velocity S-wave (km/s) = 3.83681 4.18788 4.01618
# Velocity P-wave (km/s) = 6.22466 6.91215 6.57739
#
# Compressibility (1/GPa) = 0.01982796
#
# Stress axis : x y z
#
# Youngs Moduli (GPa) = 142.57480 62.54817 107.05246
#
# Poissons Ratio (x) = 0.13955 0.18714
# Poissons Ratio (y) = 0.31810 0.24389
# Poissons Ratio (z) = 0.24923 0.14250
#
# Static dielectric constant tensor:
#      x y z
#    x 2.114880 -0.061090 -0.046130 
#    y -0.061090 2.204570 0.030110 
#    z -0.046130 0.030110 2.019150 
# 
# From -- ./inp_files/410093.got.cif
#   From: 2010.05.17/outbox.cif.g08.bks.cpg/sg2_206_cif.got.tgz:410093.got - 2010.06.03 11:33:40.
