data_PCOD9017761
_publ_section_title
;
Structure prediction by ZEFSAII (Michael W. Deem and Ramdas Pophale) SiO2 
 PCOD9017761
Probable space group: P -1
;
_chemical_formula_sum "Si O2"
_cell_formula_units_Z 16
_cell_length_a 8.369248
_cell_length_b 28.980456
_cell_length_c 4.943883
_cell_angle_alpha 88.360194
_cell_angle_beta 94.066624
_cell_angle_gamma 146.581926
_cell_volume 657.720118
_symmetry_space_group_name_H-M "P -1"
_symmetry_group_IT_number 2
_symmetry_cell_setting 'triclinic'
loop_
_space_group_symop_operation_xyz
x,y,z
-x,-y,-z
loop_
_atom_site_type_symbol
_atom_site_label
_atom_site_fract_x
_atom_site_fract_y
_atom_site_fract_z
Si Si1 0.832469 0.993755 0.274551
Si Si2 0.432477 0.581788 0.873142
Si Si3 0.806753 0.153054 0.711212
Si Si4 0.662275 0.781139 0.412087
Si Si5 0.085205 0.757667 0.783987
Si Si6 0.328219 0.665247 0.892074
Si Si7 0.717637 0.512145 0.610510
Si Si8 0.662549 0.861323 0.014510
O O1 0.530622 0.943032 0.346704
O O2 0.710125 0.927419 0.053535
O O3 0.000000 0.000000 0.500000
O O4 0.060776 0.083291 0.149841
O O5 0.343021 0.613421 0.880033
O O6 0.233125 0.507012 0.646474
O O7 0.762874 0.660553 0.791264
O O8 0.416694 0.552759 0.162837
O O9 0.854708 0.208178 0.510323
O O10 0.034880 0.169824 0.641077
O O11 0.887220 0.192694 0.009494
O O12 0.565730 0.745208 0.706858
O O13 0.676124 0.836774 0.298154
O O14 0.416401 0.700060 0.198593
O O15 0.337379 0.781481 0.875078
O O16 0.011824 0.602835 0.758668
O O17 0.500000 0.500000 0.500000
#
# Coordination Sequence:
#
# PCOD9017761 Si02
#       8
#     2   2   2   2   2   2   2   2
#     4  10  21  43  66  92 134 175 222 259 333 394
#     4  12  23  46  71  94 133 180 217 263 332 391
#     4  11  21  42  65  95 131 167 218 267 317 397
#     4  12  25  43  66 102 133 169 223 274 327 372
#     4  11  22  40  68  96 125 174 219 259 324 393
#     4  12  26  46  67  96 137 175 214 271 328 401
#     4  12  28  44  69 102 132 169 224 272 327 381
#     4  10  25  39  67  98 131 176 216 275 324 387
#
# _framework density 24.326454999999999
#
# number of rings (size 3 to 8) (size 9 to 14) (size 15 to 20)
#    0.000    0.750    3.750    3.375    5.250    0.500 
#    0.000    0.625    0.000    0.000    0.000    0.000 
#    0.000    0.000    0.000    0.000    0.000    0.000 
#
# Total GULP energy -89620.728940 kJ/mol
# GULP energy per Si atom -5601.295559 kJ/mol
# Density = 2.427109 g / cm^3
# Si number density = 24.326455 Si / 1000 Ang^3
#
#
#
# Elastic Constant Matrix: (Units=GPa)
#
#
# Indices 1 2 3 4 5 6 
#
# 1 74.5427 29.5964 -2.1853 -3.3469 21.3681 13.4916
# 2 29.5964 95.1944 11.4095 -2.6645 10.7951 24.2241
# 3 -2.1853 11.4095 90.3672 -10.5489 13.3037 -4.2817
# 4 -3.3469 -2.6645 -10.5489 42.0765 -3.7857 5.8879
# 5 21.3681 10.7951 13.3037 -3.7857 34.5698 8.1045
# 6 13.4916 24.2241 -4.2817 5.8879 8.1045 49.9013
#
#
#
# Elastic Compliance Matrix: (Units=1/GPa)
#
#
# Indices 1 2 3 4 5 6 
#
# 1 0.018638 -0.004630 0.002698 0.001026 -0.010783 -0.000930
# 2 -0.004630 0.013592 -0.002133 0.000845 0.000884 -0.005773
# 3 0.002698 -0.002133 0.012682 0.002415 -0.006110 0.002101
# 4 0.001026 0.000845 0.002415 0.025194 0.001810 -0.003747
# 5 -0.010783 0.000884 -0.006110 0.001810 0.038938 -0.004576
# 6 -0.000930 -0.005773 0.002101 -0.003747 -0.004576 0.024459
#
#
# Mechanical properties :
#
#
# Convention : Reuss Voigt Hill
#
# Bulk Modulus (GPa) = 27.18700 37.52729 32.35714
# Shear Modulus (GPa) = 32.49015 40.06176 36.27595
#
# Velocity S-wave (km/s) = 3.65854 4.06253 3.86581
# Velocity P-wave (km/s) = 5.38950 6.12091 5.76681
#
# Compressibility (1/GPa) = 0.03678229
#
# Stress axis : x y z
#
# Youngs Moduli (GPa) = 53.65463 73.57088 78.85455
#
# Poissons Ratio (x) = 0.34062 -0.21278
# Poissons Ratio (y) = 0.24841 0.16821
# Poissons Ratio (z) = -0.14478 0.15694
#
# Static dielectric constant tensor:
#      x y z
#    x 1.979540 0.015300 -0.061470 
#    y 0.015300 1.983320 0.029450 
#    z -0.061470 0.029450 1.906200 
# 
# From -- ./inp_files/46209.got.cif
#   From: 2010.05.17/outbox.cif.g08.bks.cpg/sg2_24_cif.got.tgz:46209.got - 2010.06.03 11:33:40.
