data_PCOD9017912
_publ_section_title
;
Structure prediction by ZEFSAII (Michael W. Deem and Ramdas Pophale) SiO2 
 PCOD9017912
Probable space group: P -1
;
_chemical_formula_sum "Si O2"
_cell_formula_units_Z 16
_cell_length_a 14.571007
_cell_length_b 9.791742
_cell_length_c 26.924619
_cell_angle_alpha 48.605340
_cell_angle_beta 19.444161
_cell_angle_gamma 38.663748
_cell_volume 745.084689
_symmetry_space_group_name_H-M "P -1"
_symmetry_group_IT_number 2
_symmetry_cell_setting 'triclinic'
loop_
_space_group_symop_operation_xyz
x,y,z
-x,-y,-z
loop_
_atom_site_type_symbol
_atom_site_label
_atom_site_fract_x
_atom_site_fract_y
_atom_site_fract_z
Si Si1 0.645441 0.097356 0.185208
Si Si2 0.453876 0.799302 0.201545
Si Si3 0.595597 0.713229 0.267172
Si Si4 0.824957 0.793793 0.917872
Si Si5 0.851946 0.371867 0.668305
Si Si6 0.863411 0.954073 0.310770
Si Si7 0.622732 0.986542 0.327684
Si Si8 0.681221 0.267314 0.495221
O O1 0.327509 0.373425 0.280411
O O2 0.536794 0.945901 0.256787
O O3 0.750640 0.042726 0.202102
O O4 0.000000 0.000000 0.000000
O O5 0.541947 0.728442 0.231495
O O6 0.370679 0.637321 0.258386
O O7 0.713125 0.795614 0.031493
O O8 0.091365 0.066478 0.321697
O O9 0.363218 0.701656 0.429780
O O10 0.988550 0.467114 0.134471
O O11 0.114028 0.837564 0.755577
O O12 0.500000 0.000000 0.000000
O O13 0.873491 0.219401 0.739133
O O14 0.253093 0.230018 0.477440
O O15 0.914085 0.860304 0.252075
O O16 0.500000 0.000000 0.500000
O O17 0.511329 0.835323 0.401502
O O18 0.500000 0.500000 0.500000
#
# Coordination Sequence:
#
# PCOD9017912 Si02
#       8
#     2   2   2   2   2   2   2   2
#     4  11  24  41  61  93 139 172 209 276 343 392
#     4  11  23  42  67 103 130 176 234 271 334 402
#     4  11  26  42  66 101 135 177 222 281 341 402
#     4  12  24  43  73  98 135 176 230 284 331 398
#     4  10  21  43  67  92 132 175 226 270 323 403
#     4  10  23  42  68 101 126 171 236 272 326 394
#     4   9  22  41  65  94 125 176 229 264 326 401
#     4  10  22  43  68  97 139 177 221 282 337 397
#
# _framework density 21.474069
#
# number of rings (size 3 to 8) (size 9 to 14) (size 15 to 20)
#    0.000    1.500    1.250    2.625    7.000    1.000 
#    6.750    0.625    0.000    0.000    0.000    0.000 
#    0.000    0.000    0.000    0.000    0.000    0.000 
#
# Total GULP energy -89247.435521 kJ/mol
# GULP energy per Si atom -5577.964720 kJ/mol
# Density = 2.142519 g / cm^3
# Si number density = 21.474069 Si / 1000 Ang^3
#
#
#
# Elastic Constant Matrix: (Units=GPa)
#
#
# Indices 1 2 3 4 5 6 
#
# 1 121.3279 41.7394 21.1568 -1.9929 25.9394 0.5850
# 2 41.7394 128.6408 53.1236 18.4504 17.4130 -3.2006
# 3 21.1568 53.1236 95.7222 -3.1270 33.8158 -1.0893
# 4 -1.9929 18.4504 -3.1270 30.0694 -1.7625 6.1635
# 5 25.9394 17.4130 33.8158 -1.7625 36.7575 -5.7482
# 6 0.5850 -3.2006 -1.0893 6.1635 -5.7482 21.2710
#
#
#
# Elastic Compliance Matrix: (Units=1/GPa)
#
#
# Indices 1 2 3 4 5 6 
#
# 1 0.011344 -0.004561 0.003498 0.004307 -0.009584 -0.004657
# 2 -0.004561 0.013883 -0.008821 -0.010719 0.005226 0.006281
# 3 0.003498 -0.008821 0.021393 0.008373 -0.018794 -0.007833
# 4 0.004307 -0.010719 0.008373 0.043841 -0.006007 -0.015629
# 5 -0.009584 0.005226 -0.018794 -0.006007 0.050933 0.015592
# 6 -0.004657 0.006281 -0.007833 -0.015629 0.015592 0.056427
#
#
# Mechanical properties :
#
#
# Convention : Reuss Voigt Hill
#
# Bulk Modulus (GPa) = 37.24469 64.19229 50.71849
# Shear Modulus (GPa) = 22.07116 32.93099 27.50108
#
# Velocity S-wave (km/s) = 3.20942 3.92027 3.58252
# Velocity P-wave (km/s) = 5.57813 7.10276 6.38611
#
# Compressibility (1/GPa) = 0.02684946
#
# Stress axis : x y z
#
# Youngs Moduli (GPa) = 88.15564 72.03234 46.74398
#
# Poissons Ratio (x) = 0.32856 -0.16349
# Poissons Ratio (y) = 0.40211 0.41234
# Poissons Ratio (z) = -0.30833 0.63541
#
# Static dielectric constant tensor:
#      x y z
#    x 5.627840 -5.250040 2.903540 
#    y -5.250040 8.970070 -3.999230 
#    z 2.903540 -3.999230 4.000890 
# 
# From -- ./inp_files/223226.got.cif
#   From: 2010.05.17/outbox.cif.g08.bks.cpg/sg2_112_cif.got.tgz:223226.got - 2010.06.03 11:33:40.
