data_PCOD9017237
_publ_section_title
;
Structure prediction by ZEFSAII (Michael W. Deem and Ramdas Pophale) SiO2 
 PCOD9017237
Probable space group: P -1
;
_chemical_formula_sum "Si O2"
_cell_formula_units_Z 10
_cell_length_a 7.260966
_cell_length_b 10.079333
_cell_length_c 6.580728
_cell_angle_alpha 54.904295
_cell_angle_beta 67.352048
_cell_angle_gamma 62.792302
_cell_volume 345.477358
_symmetry_space_group_name_H-M "P -1"
_symmetry_group_IT_number 2
_symmetry_cell_setting 'triclinic'
loop_
_space_group_symop_operation_xyz
x,y,z
-x,-y,-z
loop_
_atom_site_type_symbol
_atom_site_label
_atom_site_fract_x
_atom_site_fract_y
_atom_site_fract_z
Si Si1 0.769954 0.374900 0.077901
Si Si2 0.944947 0.219489 0.515400
Si Si3 0.359336 0.946345 0.725040
Si Si4 0.673436 0.541179 0.596563
Si Si5 0.547711 0.107820 0.760463
O O1 0.784311 0.521186 0.788420
O O2 0.963522 0.289180 0.219153
O O3 0.717083 0.225569 0.101589
O O4 0.563082 0.451432 0.240717
O O5 0.814829 0.380215 0.559364
O O6 0.787252 0.108385 0.650429
O O7 0.145906 0.103111 0.646456
O O8 0.468968 0.917387 0.470721
O O9 0.446492 0.940244 0.939982
O O10 0.629817 0.706628 0.329949
#
# Coordination Sequence:
#
# PCOD9017237 Si02
#       5
#     2   2   2   2   2
#     4  10  21  42  72  95 140 177 218 284 341 395
#     4  11  24  44  70  99 139 180 223 278 343 396
#     4  12  24  44  67 102 135 176 236 276 331 409
#     4  10  22  43  69 101 135 177 224 277 342 405
#     4  11  24  43  70  99 135 175 225 280 336 407
#
# _framework density 28.945457999999999
#
# number of rings (size 3 to 8) (size 9 to 14) (size 15 to 20)
#    0.000    1.200    4.000    4.200    0.000    5.600 
#    0.000    1.000    0.000    0.000    0.000    0.000 
#    0.000    0.000    0.000    0.000    0.000    0.000 
#
# Total GULP energy -55978.147836 kJ/mol
# GULP energy per Si atom -5597.814784 kJ/mol
# Density = 2.887958 g / cm^3
# Si number density = 28.945458 Si / 1000 Ang^3
#
#
#
# Elastic Constant Matrix: (Units=GPa)
#
#
# Indices 1 2 3 4 5 6 
#
# 1 163.6191 65.6048 59.5502 1.4366 50.2665 5.2615
# 2 65.6048 215.9394 68.2727 -19.5585 36.4670 -23.8125
# 3 59.5502 68.2727 274.5884 -50.3859 18.8037 -3.4758
# 4 1.4366 -19.5585 -50.3859 52.0594 -4.6420 15.8711
# 5 50.2665 36.4670 18.8037 -4.6420 32.1440 -7.9077
# 6 5.2615 -23.8125 -3.4758 15.8711 -7.9077 27.5135
#
#
#
# Elastic Compliance Matrix: (Units=1/GPa)
#
#
# Indices 1 2 3 4 5 6 
#
# 1 0.014698 -0.001232 -0.001706 -0.001586 -0.023244 -0.009858
# 2 -0.001232 0.006469 -0.001110 -0.000426 -0.003620 0.004899
# 3 -0.001706 -0.001110 0.005227 0.005682 0.000956 -0.002977
# 4 -0.001586 -0.000426 0.005682 0.029598 -0.000135 -0.016460
# 5 -0.023244 -0.003620 0.000956 -0.000135 0.076788 0.023580
# 6 -0.009858 0.004899 -0.002977 -0.016460 0.023580 0.058367
#
#
# Mechanical properties :
#
#
# Convention : Reuss Voigt Hill
#
# Bulk Modulus (GPa) = 54.64232 115.66695 85.15463
# Shear Modulus (GPa) = 24.34973 53.05800 38.70386
#
# Velocity S-wave (km/s) = 2.90354 4.28604 3.66065
# Velocity P-wave (km/s) = 5.49176 8.03371 6.88113
#
# Compressibility (1/GPa) = 0.01830083
#
# Stress axis : x y z
#
# Youngs Moduli (GPa) = 68.03515 154.58448 191.31429
#
# Poissons Ratio (x) = 0.19039 0.32629
# Poissons Ratio (y) = 0.08379 0.21228
# Poissons Ratio (z) = 0.11604 0.17152
#
# Static dielectric constant tensor:
#      x y z
#    x 2.264450 0.174770 -0.002730 
#    y 0.174770 2.186910 0.028030 
#    z -0.002730 0.028030 2.352570 
# 
# From -- ./inp_files/72756.got.cif
#   From: 2010.05.17/outbox.cif.g08.bks.cpg/sg2_37_cif.got.tgz:72756.got - 2010.06.03 11:33:40.
