data_PCOD9017795
_publ_section_title
;
Structure prediction by ZEFSAII (Michael W. Deem and Ramdas Pophale) SiO2 
 PCOD9017795
Probable space group: P -1
;
_chemical_formula_sum "Si O2"
_cell_formula_units_Z 16
_cell_length_a 16.271779
_cell_length_b 8.061559
_cell_length_c 5.350709
_cell_angle_alpha 59.887458
_cell_angle_beta 99.486620
_cell_angle_gamma 93.294356
_cell_volume 598.593785
_symmetry_space_group_name_H-M "P -1"
_symmetry_group_IT_number 2
_symmetry_cell_setting 'triclinic'
loop_
_space_group_symop_operation_xyz
x,y,z
-x,-y,-z
loop_
_atom_site_type_symbol
_atom_site_label
_atom_site_fract_x
_atom_site_fract_y
_atom_site_fract_z
Si Si1 0.869267 0.809688 0.250646
Si Si2 0.927235 0.471700 0.181885
Si Si3 0.196534 0.546592 0.254047
Si Si4 0.347301 0.346181 0.287857
Si Si5 0.488926 0.730314 0.337903
Si Si6 0.608036 0.269097 0.208068
Si Si7 0.103877 0.854397 0.277637
Si Si8 0.761727 0.983442 0.442521
O O1 0.893539 0.666336 0.144047
O O2 0.858065 0.639915 0.575526
O O3 0.782166 0.920081 0.214660
O O4 0.920938 0.000418 0.068742
O O5 0.956974 0.301360 0.516852
O O6 0.845899 0.386979 0.073586
O O7 0.000000 0.500000 0.000000
O O8 0.292423 0.485922 0.336124
O O9 0.175215 0.708647 0.317089
O O10 0.418462 0.224156 0.559088
O O11 0.280592 0.190772 0.295433
O O12 0.381856 0.498209 0.991797
O O13 0.500000 0.500000 0.500000
O O14 0.428370 0.778553 0.503021
O O15 0.454095 0.789438 0.005353
O O16 0.695540 0.158637 0.290180
O O17 0.149483 0.979621 0.412614
#
# Coordination Sequence:
#
# PCOD9017795 Si02
#       8
#     2   2   2   2   2   2   2   2
#     4  10  22  42  66 101 131 175 227 281 340 421
#     4  11  25  46  72 100 138 178 223 284 351 426
#     4  10  23  44  67 102 131 181 233 281 350 420
#     4  10  21  43  66  94 134 181 235 287 345 423
#     4  10  23  43  66 100 138 194 237 300 360 419
#     4  11  24  44  67  98 145 187 245 296 362 414
#     4  11  23  42  69 100 139 175 233 283 344 421
#     4  11  25  41  68 101 135 183 231 287 347 418
#
# _framework density 26.729312
#
# number of rings (size 3 to 8) (size 9 to 14) (size 15 to 20)
#    0.000    1.500    0.000    5.250    5.250    4.500 
#   20.250    3.125    0.000    0.000    0.000    0.000 
#    0.000    0.000    0.000    0.000    0.000    0.000 
#
# Total GULP energy -89305.344701 kJ/mol
# GULP energy per Si atom -5581.584044 kJ/mol
# Density = 2.666847 g / cm^3
# Si number density = 26.729312 Si / 1000 Ang^3
#
#
#
# Elastic Constant Matrix: (Units=GPa)
#
#
# Indices 1 2 3 4 5 6 
#
# 1 101.8136 26.0153 34.2782 13.8365 -9.6142 -11.3931
# 2 26.0153 105.2594 51.1314 5.0736 -5.6149 -16.3877
# 3 34.2782 51.1314 112.8964 -17.5451 -2.7883 -10.4913
# 4 13.8365 5.0736 -17.5451 64.0210 -0.3343 -10.0024
# 5 -9.6142 -5.6149 -2.7883 -0.3343 35.7348 -0.9672
# 6 -11.3931 -16.3877 -10.4913 -10.0024 -0.9672 41.8187
#
#
#
# Elastic Compliance Matrix: (Units=1/GPa)
#
#
# Indices 1 2 3 4 5 6 
#
# 1 0.012118 -0.000670 -0.003698 -0.003349 0.002873 0.001377
# 2 -0.000670 0.013094 -0.005710 -0.001969 0.001497 0.003080
# 3 -0.003698 -0.005710 0.013474 0.005151 -0.000756 0.001350
# 4 -0.003349 -0.001969 0.005151 0.018538 -0.000526 0.004030
# 5 0.002873 0.001497 -0.000756 -0.000526 0.028975 0.001724
# 6 0.001377 0.003080 0.001350 0.004030 0.001724 0.026837
#
#
# Mechanical properties :
#
#
# Convention : Reuss Voigt Hill
#
# Bulk Modulus (GPa) = 53.96250 60.31324 57.13787
# Shear Modulus (GPa) = 35.87643 42.21787 39.04715
#
# Velocity S-wave (km/s) = 3.66760 3.97855 3.82624
# Velocity P-wave (km/s) = 6.17797 6.61201 6.39867
#
# Compressibility (1/GPa) = 0.01853139
#
# Stress axis : x y z
#
# Youngs Moduli (GPa) = 82.51894 76.37305 74.21944
#
# Poissons Ratio (x) = 0.05116 0.27444
# Poissons Ratio (y) = 0.05528 0.42376
# Poissons Ratio (z) = 0.30513 0.43605
#
# Static dielectric constant tensor:
#      x y z
#    x 2.153790 0.064500 0.013920 
#    y 0.064500 2.059930 -0.020620 
#    z 0.013920 -0.020620 2.180760 
# 
# From -- ./inp_files/104516.got.cif
#   From: 2010.05.17/outbox.cif.g08.bks.cpg/sg2_53_cif.got.tgz:104516.got - 2010.06.03 11:33:40.
