data_PCOD9017428
_publ_section_title
;
Structure prediction by ZEFSAII (Michael W. Deem and Ramdas Pophale) SiO2 
 PCOD9017428
Probable space group: P -1
;
_chemical_formula_sum "Si O2"
_cell_formula_units_Z 16
_cell_length_a 16.781960
_cell_length_b 11.708564
_cell_length_c 9.163645
_cell_angle_alpha 142.517355
_cell_angle_beta 136.270323
_cell_angle_gamma 42.246006
_cell_volume 695.278279
_symmetry_space_group_name_H-M "P -1"
_symmetry_group_IT_number 2
_symmetry_cell_setting 'triclinic'
loop_
_space_group_symop_operation_xyz
x,y,z
-x,-y,-z
loop_
_atom_site_type_symbol
_atom_site_label
_atom_site_fract_x
_atom_site_fract_y
_atom_site_fract_z
Si Si1 0.908818 0.786499 0.623528
Si Si2 0.559863 0.265352 0.193898
Si Si3 0.226421 0.133786 0.905325
Si Si4 0.003928 0.367747 0.723482
Si Si5 0.224273 0.306752 0.371961
Si Si6 0.416240 0.401321 0.865777
Si Si7 0.822113 0.262545 0.937978
Si Si8 0.303826 0.493541 0.263069
O O1 0.927398 0.652829 0.365059
O O2 0.831765 0.727970 0.585316
O O3 0.838207 0.027027 0.735079
O O4 0.045638 0.746589 0.832252
O O5 0.435230 0.372586 0.232035
O O6 0.648776 0.392330 0.435033
O O7 0.503990 0.248832 0.947566
O O8 0.652181 0.055956 0.173870
O O9 0.219069 0.146764 0.083278
O O10 0.249042 0.332900 0.082891
O O11 0.093534 0.146922 0.680973
O O12 0.862110 0.470321 0.583394
O O13 0.000000 0.500000 0.000000
O O14 0.361857 0.291212 0.566993
O O15 0.500000 0.500000 0.000000
O O16 0.295524 0.579278 0.964173
O O17 0.790469 0.347920 0.816960
#
# Coordination Sequence:
#
# PCOD9017428 Si02
#       8
#     2   2   2   2   2   2   2   2
#     4  11  22  42  71 103 136 171 231 281 344 423
#     4  10  23  40  63  93 131 184 234 275 336 402
#     4  11  23  40  66  99 132 176 228 281 344 409
#     4  10  22  40  66  98 133 171 220 280 343 399
#     4  11  24  41  66 103 133 178 223 282 347 403
#     4  11  24  43  65  93 141 183 223 280 338 403
#     4  10  23  41  70 101 133 182 223 287 348 396
#     4  10  21  43  62  95 135 180 230 283 337 404
#
# _framework density 23.012369
#
# number of rings (size 3 to 8) (size 9 to 14) (size 15 to 20)
#    0.000    1.500    1.250    3.000    5.250    0.500 
#    6.750    0.000    0.000    8.250    0.000    0.000 
#    0.000    0.000    0.000    0.000    0.000    0.000 
#
# Total GULP energy -89212.899316 kJ/mol
# GULP energy per Si atom -5575.806207 kJ/mol
# Density = 2.295999 g / cm^3
# Si number density = 23.012369 Si / 1000 Ang^3
#
#
#
# Elastic Constant Matrix: (Units=GPa)
#
#
# Indices 1 2 3 4 5 6 
#
# 1 73.4299 4.4392 18.4752 -2.4836 6.3273 10.3865
# 2 4.4392 145.1428 28.2323 -11.9152 8.4811 -4.0226
# 3 18.4752 28.2323 82.1941 -25.2086 -3.1142 8.4528
# 4 -2.4836 -11.9152 -25.2086 33.4387 5.0517 3.1781
# 5 6.3273 8.4811 -3.1142 5.0517 30.9096 -5.1939
# 6 10.3865 -4.0226 8.4528 3.1781 -5.1939 22.5150
#
#
#
# Elastic Compliance Matrix: (Units=1/GPa)
#
#
# Indices 1 2 3 4 5 6 
#
# 1 0.015819 0.000204 -0.002898 0.000505 -0.004908 -0.007377
# 2 0.000204 0.007652 -0.002634 0.000951 -0.002293 0.001599
# 3 -0.002898 -0.002634 0.018812 0.013880 -0.000445 -0.008258
# 4 0.000505 0.000951 0.013880 0.043258 -0.008268 -0.013288
# 5 -0.004908 -0.002293 -0.000445 -0.008268 0.037274 0.011787
# 6 -0.007377 0.001599 -0.008258 -0.013288 0.011787 0.055798
#
#
# Mechanical properties :
#
#
# Convention : Reuss Voigt Hill
#
# Bulk Modulus (GPa) = 31.61932 44.78449 38.20190
# Shear Modulus (GPa) = 25.02369 34.01400 29.51885
#
# Velocity S-wave (km/s) = 3.30116 3.84874 3.58542
# Velocity P-wave (km/s) = 5.31979 6.26528 5.81179
#
# Compressibility (1/GPa) = 0.03162623
#
# Stress axis : x y z
#
# Youngs Moduli (GPa) = 63.21647 130.68066 53.15817
#
# Poissons Ratio (x) = -0.02662 0.15405
# Poissons Ratio (y) = -0.01288 0.14002
# Poissons Ratio (z) = 0.18320 0.34421
#
# Static dielectric constant tensor:
#      x y z
#    x 1.860960 -0.013450 -0.025700 
#    y -0.013450 1.883160 0.013020 
#    z -0.025700 0.013020 1.921880 
# 
# From -- ./inp_files/333974.got.cif
#   From: 2010.05.17/outbox.cif.g08.bks.cpg/sg2_167_cif.got.tgz:333974.got - 2010.06.03 11:33:40.
