data_PCOD9017600
_publ_section_title
;
Structure prediction by ZEFSAII (Michael W. Deem and Ramdas Pophale) SiO2 
 PCOD9017600
Probable space group: P -1
;
_chemical_formula_sum "Si O2"
_cell_formula_units_Z 16
_cell_length_a 8.804189
_cell_length_b 10.045060
_cell_length_c 14.165915
_cell_angle_alpha 34.742794
_cell_angle_beta 86.770608
_cell_angle_gamma 103.411494
_cell_volume 621.797066
_symmetry_space_group_name_H-M "P -1"
_symmetry_group_IT_number 2
_symmetry_cell_setting 'triclinic'
loop_
_space_group_symop_operation_xyz
x,y,z
-x,-y,-z
loop_
_atom_site_type_symbol
_atom_site_label
_atom_site_fract_x
_atom_site_fract_y
_atom_site_fract_z
Si Si1 0.271815 0.875250 0.966000
Si Si2 0.976900 0.012760 0.865071
Si Si3 0.194664 0.627486 0.556276
Si Si4 0.252082 0.334016 0.289331
Si Si5 0.400311 0.637567 0.371560
Si Si6 0.062482 0.150132 0.573147
Si Si7 0.348997 0.511259 0.802162
Si Si8 0.194796 0.556059 0.977967
O O1 0.105974 0.916746 0.961488
O O2 0.454276 0.132273 0.832103
O O3 0.240244 0.596687 0.170654
O O4 0.283747 0.824812 0.882285
O O5 0.057364 0.321801 0.708527
O O6 0.995310 0.985626 0.768241
O O7 0.777556 0.810262 0.014254
O O8 0.320220 0.743594 0.393617
O O9 0.300790 0.627744 0.644450
O O10 0.085227 0.774872 0.492605
O O11 0.138045 0.097309 0.504550
O O12 0.449712 0.398826 0.250835
O O13 0.201884 0.341362 0.176768
O O14 0.500000 0.500000 0.500000
O O15 0.237716 0.405782 0.458996
O O16 0.290238 0.586392 0.858521
O O17 0.000000 0.500000 0.000000
#
# Coordination Sequence:
#
# PCOD9017600 Si02
#       8
#     2   2   2   2   2   2   2   2
#     4  10  22  39  65  88 124 160 208 243 320 357
#     4  11  22  40  65  93 127 163 202 253 315 365
#     4  11  24  38  63  93 130 163 204 248 314 371
#     4  10  25  39  64  92 122 161 216 249 305 362
#     4  11  20  38  62  93 131 157 198 260 310 361
#     4  11  23  40  61  93 132 163 198 255 313 369
#     4  12  23  42  65  90 124 166 210 256 298 366
#     4  10  21  43  65  85 124 163 209 254 304 365
#
# _framework density 25.731867000000001
#
# number of rings (size 3 to 8) (size 9 to 14) (size 15 to 20)
#    0.750    0.500    3.750    4.500    3.500    0.500 
#    0.000    1.250    0.000    0.000    0.000    0.000 
#    0.000    0.000    0.000    0.000    0.000    0.000 
#
# Total GULP energy -89578.617535 kJ/mol
# GULP energy per Si atom -5598.663596 kJ/mol
# Density = 2.567330 g / cm^3
# Si number density = 25.731867 Si / 1000 Ang^3
#
#
#
# Elastic Constant Matrix: (Units=GPa)
#
#
# Indices 1 2 3 4 5 6 
#
# 1 155.2767 25.6095 34.8143 16.2228 -8.4545 12.7373
# 2 25.6095 92.3649 15.2825 31.6662 0.9036 11.7257
# 3 34.8143 15.2825 77.2778 24.0128 -10.5170 9.4736
# 4 16.2228 31.6662 24.0128 45.0496 -3.1946 8.9234
# 5 -8.4545 0.9036 -10.5170 -3.1946 47.1139 4.8313
# 6 12.7373 11.7257 9.4736 8.9234 4.8313 46.6213
#
#
#
# Elastic Compliance Matrix: (Units=1/GPa)
#
#
# Indices 1 2 3 4 5 6 
#
# 1 0.007456 -0.001521 -0.002857 0.000207 0.000867 -0.001203
# 2 -0.001521 0.014748 0.000970 -0.010108 -0.000874 -0.001466
# 3 -0.002857 0.000970 0.017215 -0.008290 0.002921 -0.001678
# 4 0.000207 -0.010108 -0.008290 0.034205 0.000954 -0.002476
# 5 0.000867 -0.000874 0.002921 0.000954 0.022434 -0.003118
# 6 -0.001203 -0.001466 -0.001678 -0.002476 -0.003118 0.023285
#
#
# Mechanical properties :
#
#
# Convention : Reuss Voigt Hill
#
# Bulk Modulus (GPa) = 30.67265 52.92577 41.79921
# Shear Modulus (GPa) = 36.48977 44.37116 40.43047
#
# Velocity S-wave (km/s) = 3.76982 4.15705 3.96816
# Velocity P-wave (km/s) = 5.55830 6.60714 6.10529
#
# Compressibility (1/GPa) = 0.03260233
#
# Stress axis : x y z
#
# Youngs Moduli (GPa) = 134.12325 67.80709 58.09008
#
# Poissons Ratio (x) = 0.10315 0.16596
# Poissons Ratio (y) = 0.20403 -0.05636
# Poissons Ratio (z) = 0.38318 -0.06579
#
# Static dielectric constant tensor:
#      x y z
#    x 1.920400 -0.024720 0.004950 
#    y -0.024720 2.139130 -0.060320 
#    z 0.004950 -0.060320 2.144260 
# 
# From -- ./inp_files/299339.got.cif
#   From: 2010.05.17/outbox.cif.g08.bks.cpg/sg2_150_cif.got.tgz:299339.got - 2010.06.03 11:33:40.
