data_PCOD9017671
_publ_section_title
;
Structure prediction by ZEFSAII (Michael W. Deem and Ramdas Pophale) SiO2 
 PCOD9017671
Probable space group: P -1
;
_chemical_formula_sum "Si O2"
_cell_formula_units_Z 16
_cell_length_a 15.496448
_cell_length_b 14.881649
_cell_length_c 9.206303
_cell_angle_alpha 99.081758
_cell_angle_beta 101.134260
_cell_angle_gamma 150.724002
_cell_volume 746.883029
_symmetry_space_group_name_H-M "P -1"
_symmetry_group_IT_number 2
_symmetry_cell_setting 'triclinic'
loop_
_space_group_symop_operation_xyz
x,y,z
-x,-y,-z
loop_
_atom_site_type_symbol
_atom_site_label
_atom_site_fract_x
_atom_site_fract_y
_atom_site_fract_z
Si Si1 0.166243 0.767182 0.980836
Si Si2 0.682438 0.916733 0.719370
Si Si3 0.049532 0.298180 0.694711
Si Si4 0.390648 0.455407 0.824479
Si Si5 0.324525 0.403624 0.485989
Si Si6 0.138236 0.999840 0.942941
Si Si7 0.278558 0.669555 0.064523
Si Si8 0.205766 0.900955 0.727695
O O1 0.149675 0.775783 0.807445
O O2 0.898354 0.513506 0.901414
O O3 0.266181 0.762866 0.038996
O O4 0.335290 0.002492 0.184982
O O5 0.450996 0.626790 0.578855
O O6 0.796413 0.034001 0.627630
O O7 0.892815 0.075308 0.930197
O O8 0.235198 0.393652 0.805308
O O9 0.992892 0.265710 0.500363
O O10 0.161418 0.494780 0.856199
O O11 0.243603 0.287126 0.588122
O O12 0.500000 0.500000 0.000000
O O13 0.643820 0.721843 0.895436
O O14 0.500000 0.500000 0.500000
O O15 0.095798 0.186568 0.251744
O O16 0.240659 0.025425 0.866702
O O17 0.553290 0.900499 0.224929
#
# Coordination Sequence:
#
# PCOD9017671 Si02
#       8
#     2   2   2   2   2   2   2   2
#     4   9  21  42  68  93 134 173 211 263 320 387
#     4   9  23  41  63  89 126 168 206 264 317 381
#     4  11  23  40  63  97 125 166 215 263 323 379
#     4  11  25  41  63  91 129 164 210 270 317 383
#     4  11  25  42  63  91 122 165 216 265 322 387
#     4  10  22  43  62  88 126 168 209 262 324 385
#     4  10  21  43  65  97 133 169 215 261 322 385
#     4  11  21  39  64  96 129 169 214 261 324 376
#
# _framework density 21.422363000000001
#
# number of rings (size 3 to 8) (size 9 to 14) (size 15 to 20)
#    0.000    1.750    2.500    0.375    3.500    6.000 
#    0.000    8.125    0.000    0.000    0.000    0.000 
#    0.000    0.000    0.000    0.000    0.000    0.000 
#
# Total GULP energy -89164.879473 kJ/mol
# GULP energy per Si atom -5572.804967 kJ/mol
# Density = 2.137361 g / cm^3
# Si number density = 21.422363 Si / 1000 Ang^3
#
#
#
# Elastic Constant Matrix: (Units=GPa)
#
#
# Indices 1 2 3 4 5 6 
#
# 1 81.1819 32.8495 6.8870 -0.4848 8.5499 17.2311
# 2 32.8495 71.6331 28.3273 -7.1166 5.0663 4.3946
# 3 6.8870 28.3273 58.9298 -12.6776 13.3805 6.6939
# 4 -0.4848 -7.1166 -12.6776 26.0115 6.5782 3.9444
# 5 8.5499 5.0663 13.3805 6.5782 29.9030 2.8641
# 6 17.2311 4.3946 6.6939 3.9444 2.8641 26.8391
#
#
#
# Elastic Compliance Matrix: (Units=1/GPa)
#
#
# Indices 1 2 3 4 5 6 
#
# 1 0.018848 -0.009428 0.005978 0.004075 -0.006215 -0.011984
# 2 -0.009428 0.022000 -0.011192 -0.001332 0.003787 0.005034
# 3 0.005978 -0.011192 0.030272 0.017478 -0.016208 -0.010395
# 4 0.004075 -0.001332 0.017478 0.053464 -0.019319 -0.012553
# 5 -0.006215 0.003787 -0.016208 -0.019319 0.045563 0.005390
# 6 -0.011984 0.005034 -0.010395 -0.012553 0.005390 0.047991
#
#
# Mechanical properties :
#
#
# Convention : Reuss Voigt Hill
#
# Bulk Modulus (GPa) = 23.90227 38.65250 31.27738
# Shear Modulus (GPa) = 19.13015 26.12945 22.62980
#
# Velocity S-wave (km/s) = 2.99155 3.49625 3.25370
# Velocity P-wave (km/s) = 4.80774 5.86350 5.36167
#
# Compressibility (1/GPa) = 0.04183703
#
# Stress axis : x y z
#
# Youngs Moduli (GPa) = 53.05506 45.45374 33.03418
#
# Poissons Ratio (x) = 0.42854 -0.19749
# Poissons Ratio (y) = 0.50020 0.36972
# Poissons Ratio (z) = -0.31718 0.50872
#
# Static dielectric constant tensor:
#      x y z
#    x 1.791560 -0.025480 0.009780 
#    y -0.025480 1.838770 -0.012630 
#    z 0.009780 -0.012630 1.865340 
# 
# From -- ./inp_files/52297.got.cif
#   From: 2010.05.17/outbox.cif.g08.bks.cpg/sg2_27_cif.got.tgz:52297.got - 2010.06.03 11:33:40.
