data_PCOD9017395
_publ_section_title
;
Structure prediction by ZEFSAII (Michael W. Deem and Ramdas Pophale) SiO2 
 PCOD9017395
Probable space group: P -1
;
_chemical_formula_sum "Si O2"
_cell_formula_units_Z 12
_cell_length_a 12.939655
_cell_length_b 8.973800
_cell_length_c 14.897466
_cell_angle_alpha 92.386903
_cell_angle_beta 28.808407
_cell_angle_gamma 111.969909
_cell_volume 593.763429
_symmetry_space_group_name_H-M "P -1"
_symmetry_group_IT_number 2
_symmetry_cell_setting 'triclinic'
loop_
_space_group_symop_operation_xyz
x,y,z
-x,-y,-z
loop_
_atom_site_type_symbol
_atom_site_label
_atom_site_fract_x
_atom_site_fract_y
_atom_site_fract_z
Si Si1 0.646594 0.923452 0.425349
Si Si2 0.615402 0.678915 0.754602
Si Si3 0.298931 0.582739 0.820045
Si Si4 0.665658 0.765180 0.049994
Si Si5 0.262791 0.019549 0.177668
Si Si6 0.675036 0.759163 0.234248
O O1 0.545727 0.811063 0.594329
O O2 0.539545 0.746570 0.430711
O O3 0.500000 0.000000 0.500000
O O4 0.001116 0.122872 0.170410
O O5 0.356683 0.614876 0.883157
O O6 0.652107 0.806628 0.813351
O O7 0.518956 0.465878 0.850518
O O8 0.923314 0.815337 0.464441
O O9 0.321149 0.417795 0.775636
O O10 0.000000 0.500000 0.000000
O O11 0.713547 0.908925 0.940287
O O12 0.530713 0.745123 0.249887
O O13 0.500000 0.000000 0.000000
O O14 0.000000 0.000000 0.000000
#
# Coordination Sequence:
#
# PCOD9017395 Si02
#       6
#     2   2   2   2   2   2
#     4  11  21  37  60  93 128 170 204 254 323 377
#     4  10  23  44  63  95 128 162 215 266 308 383
#     4  11  21  39  64  93 129 166 206 261 327 377
#     4  10  21  43  61  88 130 159 210 263 313 375
#     4  11  24  43  68  91 124 170 217 262 316 369
#     4   9  20  36  57  88 126 160 205 255 304 384
#
# _framework density 20.210070000000002
#
# number of rings (size 3 to 8) (size 9 to 14) (size 15 to 20)
#    0.000    1.667    1.667    4.000    0.000    4.667 
#   12.000    0.000    0.000    0.000    0.000    0.000 
#    0.000    0.000    0.000    0.000    0.000    0.000 
#
# Total GULP energy -66855.012474 kJ/mol
# GULP energy per Si atom -5571.251039 kJ/mol
# Density = 2.016407 g / cm^3
# Si number density = 20.210070 Si / 1000 Ang^3
#
#
#
# Elastic Constant Matrix: (Units=GPa)
#
#
# Indices 1 2 3 4 5 6 
#
# 1 102.5068 20.4112 16.5434 11.2566 -5.2960 -21.3458
# 2 20.4112 71.4762 9.8916 -11.3618 -6.8875 -5.6043
# 3 16.5434 9.8916 46.1504 -9.3183 -6.7600 -10.6037
# 4 11.2566 -11.3618 -9.3183 28.0609 -4.0054 2.3775
# 5 -5.2960 -6.8875 -6.7600 -4.0054 29.8649 -6.2009
# 6 -21.3458 -5.6043 -10.6037 2.3775 -6.2009 33.1463
#
#
#
# Elastic Compliance Matrix: (Units=1/GPa)
#
#
# Indices 1 2 3 4 5 6 
#
# 1 0.013907 -0.004157 -0.003989 -0.009105 0.001007 0.007818
# 2 -0.004157 0.017096 0.000551 0.009395 0.004714 0.000598
# 3 -0.003989 0.000551 0.028412 0.011911 0.008994 0.007442
# 4 -0.009105 0.009395 0.011911 0.048563 0.009303 -0.002208
# 5 0.001007 0.004714 0.008994 0.009303 0.040360 0.011206
# 6 0.007818 0.000598 0.007442 -0.002208 0.011206 0.039941
#
#
# Mechanical properties :
#
#
# Convention : Reuss Voigt Hill
#
# Bulk Modulus (GPa) = 22.61132 34.86950 28.74041
# Shear Modulus (GPa) = 22.91367 29.76691 26.34029
#
# Velocity S-wave (km/s) = 3.37081 3.84197 3.61408
# Velocity P-wave (km/s) = 5.13442 6.08046 5.62735
#
# Compressibility (1/GPa) = 0.04422563
#
# Stress axis : x y z
#
# Youngs Moduli (GPa) = 71.90731 58.49331 35.19599
#
# Poissons Ratio (x) = 0.24313 0.14039
# Poissons Ratio (y) = 0.29889 -0.01938
# Poissons Ratio (z) = 0.28682 -0.03220
#
# Static dielectric constant tensor:
#      x y z
#    x 1.726560 0.023530 0.066630 
#    y 0.023530 1.717940 -0.017220 
#    z 0.066630 -0.017220 1.951740 
# 
# From -- ./inp_files/199953.got.cif
#   From: 2010.05.17/outbox.cif.g08.bks.cpg/sg2_100_cif.got.tgz:199953.got - 2010.06.03 11:33:40.
