data_PCOD9017691
_publ_section_title
;
Structure prediction by ZEFSAII (Michael W. Deem and Ramdas Pophale) SiO2 
 PCOD9017691
Probable space group: P -1
;
_chemical_formula_sum "Si O2"
_cell_formula_units_Z 16
_cell_length_a 6.176612
_cell_length_b 19.420857
_cell_length_c 8.874750
_cell_angle_alpha 55.888222
_cell_angle_beta 116.280348
_cell_angle_gamma 127.485515
_cell_volume 691.009108
_symmetry_space_group_name_H-M "P -1"
_symmetry_group_IT_number 2
_symmetry_cell_setting 'triclinic'
loop_
_space_group_symop_operation_xyz
x,y,z
-x,-y,-z
loop_
_atom_site_type_symbol
_atom_site_label
_atom_site_fract_x
_atom_site_fract_y
_atom_site_fract_z
Si Si1 0.701660 0.719993 0.417162
Si Si2 0.464778 0.123646 0.839028
Si Si3 0.601509 0.009271 0.266337
Si Si4 0.926073 0.716848 0.189263
Si Si5 0.782529 0.132425 0.429776
Si Si6 0.579511 0.387103 0.263513
Si Si7 0.067874 0.401897 0.940850
Si Si8 0.463803 0.740496 0.860480
O O1 0.652265 0.806184 0.240465
O O2 0.778700 0.677070 0.351569
O O3 0.455971 0.643056 0.536772
O O4 0.953804 0.774290 0.544233
O O5 0.315312 0.052347 0.742144
O O6 0.775361 0.195594 0.793180
O O7 0.491008 0.063595 0.056936
O O8 0.356637 0.939992 0.387464
O O9 0.831874 0.083556 0.359181
O O10 0.943512 0.642811 0.171718
O O11 0.748681 0.755154 0.996440
O O12 0.566612 0.166387 0.268240
O O13 0.843183 0.487833 0.184509
O O14 0.577518 0.304527 0.262825
O O15 0.313758 0.397098 0.115239
O O16 0.780792 0.337792 0.014787
#
# Coordination Sequence:
#
# PCOD9017691 Si02
#       8
#     2   2   2   2   2   2   2   2
#     4  12  24  41  67  96 133 171 210 266 324 382
#     4  11  24  45  62  92 131 174 211 264 325 383
#     4  10  23  43  63  92 129 163 223 266 315 385
#     4  11  24  42  66  92 134 178 209 258 328 382
#     4  11  22  42  65  97 124 168 217 270 318 374
#     4  10  23  38  70 100 127 169 212 270 315 379
#     4  10  21  43  65  99 131 166 219 259 319 384
#     4  11  22  44  69  93 130 173 214 265 321 382
#
# _framework density 23.154544999999999
#
# number of rings (size 3 to 8) (size 9 to 14) (size 15 to 20)
#    0.000    1.250    2.500    3.375    1.750    1.500 
#    9.000    2.500    0.000    0.000    0.000    0.000 
#    0.000    0.000    0.000    0.000    0.000    0.000 
#
# Total GULP energy -89566.034167 kJ/mol
# GULP energy per Si atom -5597.877135 kJ/mol
# Density = 2.310184 g / cm^3
# Si number density = 23.154545 Si / 1000 Ang^3
#
#
#
# Elastic Constant Matrix: (Units=GPa)
#
#
# Indices 1 2 3 4 5 6 
#
# 1 37.1122 -4.5054 -0.5931 9.3343 -10.3907 -3.0824
# 2 -4.5054 30.2187 26.2876 3.4965 -2.4883 -16.0095
# 3 -0.5931 26.2876 67.9355 3.4917 -27.6716 -0.9949
# 4 9.3343 3.4965 3.4917 30.6307 -0.2200 -4.0352
# 5 -10.3907 -2.4883 -27.6716 -0.2200 42.6914 8.5221
# 6 -3.0824 -16.0095 -0.9949 -4.0352 8.5221 14.0760
#
#
#
# Elastic Compliance Matrix: (Units=1/GPa)
#
#
# Indices 1 2 3 4 5 6 
#
# 1 0.033003 -0.001762 0.006982 -0.011309 0.013540 -0.005723
# 2 -0.001762 -0.109271 0.070005 -0.016597 0.072048 -0.168096
# 3 0.006982 0.070005 -0.022782 0.005229 -0.028593 0.098349
# 4 -0.011309 -0.016597 0.005229 0.035815 0.002268 -0.012089
# 5 0.013540 0.072048 -0.028593 0.002268 -0.004867 0.086485
# 6 -0.005723 -0.168096 0.098349 -0.012089 0.086485 -0.170271
#
#
# Mechanical properties :
#
#
# Convention : Reuss Voigt Hill
#
# Bulk Modulus (GPa) = 19.45531 19.73828 19.59679
# Shear Modulus (GPa) = -13.45208 25.08476 5.81634
#
# Velocity S-wave (km/s) = -2.41295 3.29502 1.58664
# Velocity P-wave (km/s) = 0.81089 4.79784 3.44070
#
# Compressibility (1/GPa) = 0.05139984
#
# Stress axis : x y z
#
# Youngs Moduli (GPa) = 30.30036 -9.15157 -43.89374
#
# Poissons Ratio (x) = -0.01612 0.30648
# Poissons Ratio (y) = 0.05339 3.07276
# Poissons Ratio (z) = -0.21157 0.64065
#
# Static dielectric constant tensor:
#      x y z
#    x 1.842790 0.010910 0.014580 
#    y 0.010910 1.859730 0.019750 
#    z 0.014580 0.019750 1.859410 
# 
# From -- ./inp_files/37798.got.cif
#   From: 2010.05.17/outbox.cif.g08.bks.cpg/sg2_19_cif.got.tgz:37798.got - 2010.06.03 11:33:40.
