data_PCOD9017335
_publ_section_title
;
Structure prediction by ZEFSAII (Michael W. Deem and Ramdas Pophale) SiO2 
 PCOD9017335
Probable space group: P -1
;
_chemical_formula_sum "Si O2"
_cell_formula_units_Z 16
_cell_length_a 17.509614
_cell_length_b 11.597929
_cell_length_c 8.320334
_cell_angle_alpha 50.046778
_cell_angle_beta 128.506018
_cell_angle_gamma 147.093670
_cell_volume 689.382864
_symmetry_space_group_name_H-M "P -1"
_symmetry_group_IT_number 2
_symmetry_cell_setting 'triclinic'
loop_
_space_group_symop_operation_xyz
x,y,z
-x,-y,-z
loop_
_atom_site_type_symbol
_atom_site_label
_atom_site_fract_x
_atom_site_fract_y
_atom_site_fract_z
Si Si1 0.930343 0.511406 0.049516
Si Si2 0.854348 0.416200 0.520292
Si Si3 0.366105 0.036645 0.548265
Si Si4 0.421720 0.414420 0.146684
Si Si5 0.647062 0.858151 0.203358
Si Si6 0.918413 0.021603 0.259901
Si Si7 0.342444 0.819532 0.208548
Si Si8 0.865531 0.768636 0.117822
O O1 0.005397 0.515697 0.295317
O O2 0.000000 0.500000 0.000000
O O3 0.761870 0.321387 0.956837
O O4 0.981237 0.740975 0.903853
O O5 0.752795 0.315670 0.636573
O O6 0.891623 0.623587 0.318769
O O7 0.756777 0.213626 0.449738
O O8 0.363186 0.181550 0.305680
O O9 0.351630 0.079901 0.671039
O O10 0.519711 0.129263 0.653836
O O11 0.541320 0.600575 0.264382
O O12 0.500000 0.500000 0.000000
O O13 0.288722 0.377767 0.033074
O O14 0.804719 0.984433 0.247874
O O15 0.608453 0.951711 0.948667
O O16 0.845150 0.837194 0.195138
O O17 0.000000 0.000000 0.500000
O O18 0.000000 0.000000 0.000000
#
# Coordination Sequence:
#
# PCOD9017335 Si02
#       8
#     2   2   2   2   2   2   2   2
#     4  10  21  42  74 104 141 190 249 297 362 445
#     4  11  23  49  74 108 146 200 248 306 374 447
#     4  12  27  44  76 112 147 195 249 314 366 444
#     4  12  25  49  74 106 152 196 247 303 377 451
#     4  12  26  46  74 109 150 192 249 307 376 446
#     4  12  25  45  74 104 149 197 242 303 381 445
#     4  11  23  45  76 107 148 197 250 298 376 445
#     4  12  29  48  75 112 146 193 253 315 372 442
#
# _framework density 23.209164999999999
#
# number of rings (size 3 to 8) (size 9 to 14) (size 15 to 20)
#    0.000    0.500    3.750    5.625    3.500    2.000 
#    0.000    1.875    0.000    0.000    0.000    0.000 
#    0.000    0.000    0.000    0.000    0.000    0.000 
#
# Total GULP energy -89634.839882 kJ/mol
# GULP energy per Si atom -5602.177493 kJ/mol
# Density = 2.315634 g / cm^3
# Si number density = 23.209165 Si / 1000 Ang^3
#
#
#
# Elastic Constant Matrix: (Units=GPa)
#
#
# Indices 1 2 3 4 5 6 
#
# 1 107.9497 36.2193 47.5325 0.7930 -7.4581 5.9257
# 2 36.2193 128.7952 40.2562 -3.9700 -3.5796 -7.7789
# 3 47.5325 40.2562 128.3033 -18.1805 16.5033 6.0856
# 4 0.7930 -3.9700 -18.1805 54.4672 -2.5891 7.4694
# 5 -7.4581 -3.5796 16.5033 -2.5891 41.4724 -1.0693
# 6 5.9257 -7.7789 6.0856 7.4694 -1.0693 43.6150
#
#
#
# Elastic Compliance Matrix: (Units=1/GPa)
#
#
# Indices 1 2 3 4 5 6 
#
# 1 0.012278 -0.002035 -0.004556 -0.001528 0.003723 -0.001043
# 2 -0.002035 0.009298 -0.002522 -0.000392 0.001477 0.002390
# 3 -0.004556 -0.002522 0.011625 0.003809 -0.005483 -0.002240
# 4 -0.001528 -0.000392 0.003809 0.020122 -0.000668 -0.003856
# 5 0.003723 0.001477 -0.005483 -0.000668 0.027083 0.001301
# 6 -0.001043 0.002390 -0.002240 -0.003856 0.001301 0.024501
#
#
# Mechanical properties :
#
#
# Convention : Reuss Voigt Hill
#
# Bulk Modulus (GPa) = 66.78436 68.11824 67.45130
# Shear Modulus (GPa) = 39.02417 43.98026 41.50222
#
# Velocity S-wave (km/s) = 4.10495 4.35783 4.23328
# Velocity P-wave (km/s) = 7.16275 7.39826 7.28146
#
# Compressibility (1/GPa) = 0.01497357
#
# Stress axis : x y z
#
# Youngs Moduli (GPa) = 81.44454 107.54552 86.02488
#
# Poissons Ratio (x) = 0.21890 0.39193
# Poissons Ratio (y) = 0.16577 0.21699
# Poissons Ratio (z) = 0.37107 0.27127
#
# Static dielectric constant tensor:
#      x y z
#    x 1.856990 0.027880 -0.011000 
#    y 0.027880 1.800100 0.016110 
#    z -0.011000 0.016110 1.923000 
# 
# From -- ./inp_files/332952.got.cif
#   From: 2010.05.17/outbox.cif.g08.bks.cpg/sg2_167_cif.got.tgz:332952.got - 2010.06.03 11:33:40.
