data_PCOD9017847
_publ_section_title
;
Structure prediction by ZEFSAII (Michael W. Deem and Ramdas Pophale) SiO2 
 PCOD9017847
Probable space group: P -1
;
_chemical_formula_sum "Si O2"
_cell_formula_units_Z 16
_cell_length_a 12.405390
_cell_length_b 9.873094
_cell_length_c 16.258498
_cell_angle_alpha 33.888620
_cell_angle_beta 114.315375
_cell_angle_gamma 132.361404
_cell_volume 765.989922
_symmetry_space_group_name_H-M "P -1"
_symmetry_group_IT_number 2
_symmetry_cell_setting 'triclinic'
loop_
_space_group_symop_operation_xyz
x,y,z
-x,-y,-z
loop_
_atom_site_type_symbol
_atom_site_label
_atom_site_fract_x
_atom_site_fract_y
_atom_site_fract_z
Si Si1 0.300354 0.380398 0.699693
Si Si2 0.926997 0.276788 0.717313
Si Si3 0.637321 0.026518 0.988821
Si Si4 0.767364 0.454848 0.233366
Si Si5 0.983828 0.118378 0.653369
Si Si6 0.413975 0.262742 0.512268
Si Si7 0.360695 0.233527 0.035101
Si Si8 0.151485 0.268971 0.355336
O O1 0.296942 0.557889 0.688283
O O2 0.154093 0.244795 0.664355
O O3 0.455088 0.609208 0.579672
O O4 0.292629 0.089607 0.872905
O O5 0.997189 0.600395 0.528980
O O6 0.053664 0.375362 0.776293
O O7 0.908242 0.052040 0.752671
O O8 0.757152 0.103964 0.785749
O O9 0.773872 0.365335 0.817555
O O10 0.500000 0.000000 0.000000
O O11 0.564755 0.777922 0.016720
O O12 0.680487 0.121988 0.324159
O O13 0.744769 0.674831 0.066905
O O14 0.890573 0.843939 0.695510
O O15 0.500000 0.500000 0.500000
O O16 0.289445 0.288644 0.425301
O O17 0.500000 0.500000 0.000000
O O18 0.000000 0.000000 0.500000
#
# Coordination Sequence:
#
# PCOD9017847 Si02
#       8
#     2   2   2   2   2   2   2   2
#     4  10  23  45  66  97 131 177 224 277 328 405
#     4  10  21  43  66  98 133 168 224 274 338 404
#     4  11  25  45  67  94 140 178 220 276 337 400
#     4  10  23  43  67  96 131 179 220 275 335 396
#     4  10  22  40  70  96 129 173 221 277 333 403
#     4  12  25  41  68  99 136 174 224 277 335 395
#     4  11  26  40  68  99 133 173 224 279 332 397
#     4  12  25  44  69  98 137 178 225 272 342 402
#
# _framework density 20.888003000000001
#
# number of rings (size 3 to 8) (size 9 to 14) (size 15 to 20)
#    0.000    1.250    2.500    2.250    5.250    0.500 
#    0.000    0.000    0.000    0.000    0.000    0.000 
#    0.000    0.000    0.000    0.000    0.000    0.000 
#
# Total GULP energy -89239.189090 kJ/mol
# GULP energy per Si atom -5577.449318 kJ/mol
# Density = 2.084046 g / cm^3
# Si number density = 20.888003 Si / 1000 Ang^3
#
#
#
# Elastic Constant Matrix: (Units=GPa)
#
#
# Indices 1 2 3 4 5 6 
#
# 1 73.7348 34.7879 -5.6396 1.0055 -6.7540 8.2263
# 2 34.7879 147.6566 13.2131 -0.0588 3.1019 -2.5165
# 3 -5.6396 13.2131 34.9227 -8.0575 -1.6666 -8.4776
# 4 1.0055 -0.0588 -8.0575 22.4215 1.8201 10.1492
# 5 -6.7540 3.1019 -1.6666 1.8201 31.9592 -5.5574
# 6 8.2263 -2.5165 -8.4776 10.1492 -5.5574 23.5960
#
#
#
# Elastic Compliance Matrix: (Units=1/GPa)
#
#
# Indices 1 2 3 4 5 6 
#
# 1 0.016817 -0.004466 0.003888 0.002843 0.003083 -0.005439
# 2 -0.004466 0.008237 -0.003976 -0.001687 -0.001620 0.001351
# 3 0.003888 -0.003976 0.034845 0.008362 0.003953 0.008074
# 4 0.002843 -0.001687 0.008362 0.059455 -0.006583 -0.025290
# 5 0.003083 -0.001620 0.003953 -0.006583 0.034620 0.011158
# 6 -0.005439 0.001351 0.008074 -0.025290 0.011158 0.060827
#
#
# Mechanical properties :
#
#
# Convention : Reuss Voigt Hill
#
# Bulk Modulus (GPa) = 19.68875 37.89299 28.79087
# Shear Modulus (GPa) = 20.76065 29.85885 25.30975
#
# Velocity S-wave (km/s) = 3.15604 3.78494 3.48471
# Velocity P-wave (km/s) = 4.76730 6.10585 5.47762
#
# Compressibility (1/GPa) = 0.05079043
#
# Stress axis : x y z
#
# Youngs Moduli (GPa) = 59.46295 121.40396 28.69859
#
# Poissons Ratio (x) = 0.54224 -0.11159
# Poissons Ratio (y) = 0.26559 0.11411
# Poissons Ratio (z) = -0.23122 0.48274
#
# Static dielectric constant tensor:
#      x y z
#    x 1.786440 -0.075220 0.018530 
#    y -0.075220 1.776050 -0.023610 
#    z 0.018530 -0.023610 1.746930 
# 
# From -- ./inp_files/284578.got.cif
#   From: 2010.05.17/outbox.cif.g08.bks.cpg/sg2_143_cif.got.tgz:284578.got - 2010.06.03 11:33:40.
