data_PCOD9017818
_publ_section_title
;
Structure prediction by ZEFSAII (Michael W. Deem and Ramdas Pophale) SiO2 
 PCOD9017818
Probable space group: P -1
;
_chemical_formula_sum "Si O2"
_cell_formula_units_Z 14
_cell_length_a 11.422645
_cell_length_b 17.358038
_cell_length_c 8.073122
_cell_angle_alpha 44.660277
_cell_angle_beta 55.426212
_cell_angle_gamma 29.445807
_cell_volume 546.831620
_symmetry_space_group_name_H-M "P -1"
_symmetry_group_IT_number 2
_symmetry_cell_setting 'triclinic'
loop_
_space_group_symop_operation_xyz
x,y,z
-x,-y,-z
loop_
_atom_site_type_symbol
_atom_site_label
_atom_site_fract_x
_atom_site_fract_y
_atom_site_fract_z
Si Si1 0.746221 0.588898 0.300877
Si Si2 0.525685 0.098925 0.605983
Si Si3 0.651814 0.026464 0.010061
Si Si4 0.386720 0.629587 0.642160
Si Si5 0.835305 0.269304 0.991655
Si Si6 0.983289 0.282099 0.345685
Si Si7 0.123099 0.519237 0.208561
O O1 0.533204 0.645074 0.453361
O O2 0.920108 0.398213 0.061410
O O3 0.895161 0.578690 0.312899
O O4 0.585139 0.767885 0.039999
O O5 0.368744 0.298806 0.366092
O O6 0.618899 0.048859 0.799753
O O7 0.758372 0.931742 0.561854
O O8 0.368014 0.086652 0.747791
O O9 0.909341 0.920938 0.999387
O O10 0.593941 0.413029 0.858385
O O11 0.218384 0.686941 0.547360
O O12 0.224907 0.746807 0.757724
O O13 0.869710 0.378325 0.837431
O O14 0.938101 0.389556 0.369891
#
# Coordination Sequence:
#
# PCOD9017818 Si02
#       7
#     2   2   2   2   2   2   2
#     4  12  24  40  67  94 133 169 209 260 325 369
#     4  11  22  40  69  95 127 164 216 262 321 366
#     4  11  21  39  65 100 124 162 216 270 307 379
#     4  10  22  42  65  89 130 175 204 264 319 372
#     4  10  21  43  66  96 130 158 220 269 310 372
#     4  11  24  48  60  94 136 169 208 262 310 394
#     4  11  22  42  70  93 125 169 212 265 317 366
#
# _framework density 25.602032000000001
#
# number of rings (size 3 to 8) (size 9 to 14) (size 15 to 20)
#    0.000    1.143    4.286    3.429    0.000    2.857 
#   10.286    0.714    0.000    0.000    0.000    0.000 
#    0.000    0.000    0.000    0.000    0.000    0.000 
#
# Total GULP energy -78386.504055 kJ/mol
# GULP energy per Si atom -5599.036004 kJ/mol
# Density = 2.554376 g / cm^3
# Si number density = 25.602032 Si / 1000 Ang^3
#
#
#
# Elastic Constant Matrix: (Units=GPa)
#
#
# Indices 1 2 3 4 5 6 
#
# 1 63.8667 42.8819 18.0842 7.0413 -7.9831 -16.6351
# 2 42.8819 153.8112 23.8329 -24.0317 -1.4230 -20.0473
# 3 18.0842 23.8329 70.0092 -18.8890 -15.3106 -2.8862
# 4 7.0413 -24.0317 -18.8890 34.8128 -6.8570 -0.7003
# 5 -7.9831 -1.4230 -15.3106 -6.8570 26.7219 -4.9875
# 6 -16.6351 -20.0473 -2.8862 -0.7003 -4.9875 39.6682
#
#
#
# Elastic Compliance Matrix: (Units=1/GPa)
#
#
# Indices 1 2 3 4 5 6 
#
# 1 0.026250 -0.007538 -0.007756 -0.014498 0.000478 0.006439
# 2 -0.007538 0.010272 0.001830 0.010142 0.002440 0.002649
# 3 -0.007756 0.001830 0.024948 0.019867 0.017554 0.002045
# 4 -0.014498 0.010142 0.019867 0.053899 0.022213 0.004236
# 5 0.000478 0.002440 0.017554 0.022213 0.055331 0.010060
# 6 0.006439 0.002649 0.002045 0.004236 0.010060 0.030736
#
#
# Mechanical properties :
#
#
# Convention : Reuss Voigt Hill
#
# Bulk Modulus (GPa) = 28.95088 50.80944 39.88016
# Shear Modulus (GPa) = 20.84375 33.76646 27.30510
#
# Velocity S-wave (km/s) = 2.85642 3.63560 3.26931
# Velocity P-wave (km/s) = 4.71290 6.12474 5.46461
#
# Compressibility (1/GPa) = 0.03454126
#
# Stress axis : x y z
#
# Youngs Moduli (GPa) = 38.09473 97.35105 40.08322
#
# Poissons Ratio (x) = 0.73386 0.31089
# Poissons Ratio (y) = 0.28717 -0.07334
# Poissons Ratio (z) = 0.29547 -0.17813
#
# Static dielectric constant tensor:
#      x y z
#    x 1.992090 0.010180 0.024790 
#    y 0.010180 2.038880 0.014000 
#    z 0.024790 0.014000 2.125100 
# 
# From -- ./inp_files/278973.got.cif
#   From: 2010.05.17/outbox.cif.g08.bks.cpg/sg2_140_cif.got.tgz:278973.got - 2010.06.03 11:33:40.
