data_PCOD9017889
_publ_section_title
;
Structure prediction by ZEFSAII (Michael W. Deem and Ramdas Pophale) SiO2 
 PCOD9017889
Probable space group: P -1
;
_chemical_formula_sum "Si O2"
_cell_formula_units_Z 14
_cell_length_a 8.173410
_cell_length_b 8.327685
_cell_length_c 10.443927
_cell_angle_alpha 117.401130
_cell_angle_beta 54.401862
_cell_angle_gamma 114.533722
_cell_volume 502.371151
_symmetry_space_group_name_H-M "P -1"
_symmetry_group_IT_number 2
_symmetry_cell_setting 'triclinic'
loop_
_space_group_symop_operation_xyz
x,y,z
-x,-y,-z
loop_
_atom_site_type_symbol
_atom_site_label
_atom_site_fract_x
_atom_site_fract_y
_atom_site_fract_z
Si Si1 0.709855 0.312990 0.154806
Si Si2 0.182348 0.434215 0.055060
Si Si3 0.155344 0.776117 0.341108
Si Si4 0.746784 0.897450 0.225745
Si Si5 0.640270 0.233144 0.494220
Si Si6 0.280490 0.344126 0.404434
Si Si7 0.785464 0.990058 0.852224
O O1 0.515213 0.345985 0.335964
O O2 0.935059 0.370885 0.134955
O O3 0.736394 0.448546 0.066970
O O4 0.667462 0.104231 0.042424
O O5 0.221814 0.583398 0.204022
O O6 0.267667 0.245446 0.938218
O O7 0.252001 0.837083 0.455580
O O8 0.225221 0.917185 0.247660
O O9 0.909333 0.747773 0.454646
O O10 0.595525 0.793288 0.365760
O O11 0.981832 0.945364 0.179084
O O12 0.679101 0.092947 0.315179
O O13 0.740828 0.445906 0.519034
O O14 0.257681 0.226974 0.238885
#
# Coordination Sequence:
#
# PCOD9017889 Si02
#       7
#     2   2   2   2   2   2   2
#     4   9  19  38  65  92 123 169 208 252 315 378
#     4   9  19  41  63  92 124 166 209 257 310 370
#     4  11  24  39  65 100 127 158 211 270 310 354
#     4  10  21  43  67  85 128 176 208 237 329 385
#     4  11  24  40  66  93 126 171 208 251 318 378
#     4  12  22  39  65  98 126 164 209 263 307 379
#     4  10  22  42  69  89 128 166 213 258 310 368
#
# _framework density 27.867840999999999
#
# number of rings (size 3 to 8) (size 9 to 14) (size 15 to 20)
#    0.000    1.714    2.857    2.143    0.000    1.143 
#    0.000    0.714    0.000    0.000    0.000    0.000 
#    0.000    0.000    0.000    0.000    0.000    0.000 
#
# Total GULP energy -78512.143199 kJ/mol
# GULP energy per Si atom -5608.010228 kJ/mol
# Density = 2.780441 g / cm^3
# Si number density = 27.867841 Si / 1000 Ang^3
#
#
#
# Elastic Constant Matrix: (Units=GPa)
#
#
# Indices 1 2 3 4 5 6 
#
# 1 59.5854 23.1692 31.0250 -6.5886 -6.8608 8.8852
# 2 23.1692 140.2174 66.0967 26.4425 -0.2710 12.6927
# 3 31.0250 66.0967 190.7016 37.1100 -8.5359 0.1308
# 4 -6.5886 26.4425 37.1100 67.9521 13.7643 -9.6066
# 5 -6.8608 -0.2710 -8.5359 13.7643 46.6077 -2.3531
# 6 8.8852 12.6927 0.1308 -9.6066 -2.3531 36.5508
#
#
#
# Elastic Compliance Matrix: (Units=1/GPa)
#
#
# Indices 1 2 3 4 5 6 
#
# 1 0.020389 -0.002321 -0.003244 0.004011 0.001057 -0.003016
# 2 -0.002321 0.009523 -0.002297 -0.003193 0.000056 -0.003570
# 3 -0.003244 -0.002297 0.007390 -0.003764 0.002010 0.000700
# 4 0.004011 -0.003193 -0.003764 0.020312 -0.005858 0.005108
# 5 0.001057 0.000056 0.002010 -0.005858 0.023695 -0.000298
# 6 -0.003016 -0.003570 0.000700 0.005108 -0.000298 0.030653
#
#
# Mechanical properties :
#
#
# Convention : Reuss Voigt Hill
#
# Bulk Modulus (GPa) = 46.34288 70.12069 58.23178
# Shear Modulus (GPa) = 37.07020 48.23635 42.65328
#
# Velocity S-wave (km/s) = 3.65117 4.16492 3.91648
# Velocity P-wave (km/s) = 5.86859 6.95307 6.43372
#
# Compressibility (1/GPa) = 0.02157829
#
# Stress axis : x y z
#
# Youngs Moduli (GPa) = 49.04549 105.00403 135.32446
#
# Poissons Ratio (x) = 0.24375 0.43895
# Poissons Ratio (y) = 0.11385 0.31083
# Poissons Ratio (z) = 0.15909 0.24119
#
# Static dielectric constant tensor:
#      x y z
#    x 2.160090 -0.039130 -0.005940 
#    y -0.039130 2.158710 -0.002630 
#    z -0.005940 -0.002630 2.123120 
# 
# From -- ./inp_files/159131.got.cif
#   From: 2010.05.17/outbox.cif.g08.bks.cpg/sg2_80_cif.got.tgz:159131.got - 2010.06.03 11:33:40.
