data_PCOD9017495
_publ_section_title
;
Structure prediction by ZEFSAII (Michael W. Deem and Ramdas Pophale) SiO2 
 PCOD9017495
Probable space group: P -1
;
_chemical_formula_sum "Si O2"
_cell_formula_units_Z 16
_cell_length_a 5.409963
_cell_length_b 12.199046
_cell_length_c 14.177384
_cell_angle_alpha 59.016784
_cell_angle_beta 124.728629
_cell_angle_gamma 108.991107
_cell_volume 658.571924
_symmetry_space_group_name_H-M "P -1"
_symmetry_group_IT_number 2
_symmetry_cell_setting 'triclinic'
loop_
_space_group_symop_operation_xyz
x,y,z
-x,-y,-z
loop_
_atom_site_type_symbol
_atom_site_label
_atom_site_fract_x
_atom_site_fract_y
_atom_site_fract_z
Si Si1 0.054824 0.489535 0.324308
Si Si2 0.361245 0.342043 0.773534
Si Si3 0.500436 0.855242 0.603441
Si Si4 0.458762 0.300305 0.608070
Si Si5 0.871577 0.855544 0.517810
Si Si6 0.787395 0.825291 0.878096
Si Si7 0.497610 0.884099 0.977486
Si Si8 0.974984 0.560156 0.072287
O O1 0.287995 0.392717 0.458075
O O2 0.226114 0.628671 0.326974
O O3 0.936809 0.476101 0.196964
O O4 0.760671 0.515446 0.308912
O O5 0.298768 0.291620 0.677910
O O6 0.303462 0.226729 0.884839
O O7 0.710105 0.370670 0.860571
O O8 0.160045 0.796705 0.555531
O O9 0.597855 0.851125 0.733401
O O10 0.750946 0.797845 0.615911
O O11 0.500000 0.000000 0.500000
O O12 0.413887 0.165741 0.604502
O O13 0.000000 0.000000 0.500000
O O14 0.657415 0.905003 0.901786
O O15 0.137101 0.848831 0.911620
O O16 0.746411 0.674669 0.964546
O O17 0.500000 0.000000 0.000000
O O18 0.000000 0.500000 0.000000
#
# Coordination Sequence:
#
# PCOD9017495 Si02
#       8
#     2   2   2   2   2   2   2   2
#     4  10  21  43  63  97 131 173 236 269 352 400
#     4  10  22  42  64  94 131 173 228 276 340 406
#     4  10  23  41  64  90 133 169 218 270 337 402
#     4  10  23  38  68  94 134 176 221 289 335 409
#     4  10  23  43  62  99 132 173 222 272 341 405
#     4  11  23  44  64  95 135 171 220 283 335 405
#     4  11  24  43  68  96 129 176 229 276 337 402
#     4  10  23  40  64  96 132 177 221 281 340 409
#
# _framework density 24.294991
#
# number of rings (size 3 to 8) (size 9 to 14) (size 15 to 20)
#    0.000    1.750    1.250    1.500    3.500    5.500 
#    2.250    0.000    0.000    0.000    0.000    0.000 
#    0.000    0.000    0.000    0.000    0.000    0.000 
#
# Total GULP energy -89094.687190 kJ/mol
# GULP energy per Si atom -5568.417949 kJ/mol
# Density = 2.423970 g / cm^3
# Si number density = 24.294991 Si / 1000 Ang^3
#
#
#
# Elastic Constant Matrix: (Units=GPa)
#
#
# Indices 1 2 3 4 5 6 
#
# 1 89.5486 1.5832 21.7879 3.8320 -12.1028 -7.9307
# 2 1.5832 73.7893 32.1455 20.7272 -0.2451 -15.0815
# 3 21.7879 32.1455 147.5959 19.0151 -20.5570 -14.9452
# 4 3.8320 20.7272 19.0151 41.0519 -15.8284 0.4278
# 5 -12.1028 -0.2451 -20.5570 -15.8284 40.0637 10.0594
# 6 -7.9307 -15.0815 -14.9452 0.4278 10.0594 24.3755
#
#
#
# Elastic Compliance Matrix: (Units=1/GPa)
#
#
# Indices 1 2 3 4 5 6 
#
# 1 0.012032 0.000962 -0.001382 -0.000159 0.002174 0.002768
# 2 0.000962 0.022361 -0.002956 -0.014478 -0.011123 0.017180
# 3 -0.001382 -0.002956 0.008348 -0.001103 0.003006 0.001618
# 4 -0.000159 -0.014478 -0.001103 0.040007 0.019759 -0.018542
# 5 0.002174 -0.011123 0.003006 0.019759 0.040242 -0.021286
# 6 0.002768 0.017180 0.001618 -0.018542 -0.021286 0.062657
#
#
# Mechanical properties :
#
#
# Convention : Reuss Voigt Hill
#
# Bulk Modulus (GPa) = 27.78793 46.88522 37.33658
# Shear Modulus (GPa) = 24.46238 38.12603 31.29420
#
# Velocity S-wave (km/s) = 3.17659 3.96573 3.59289
# Velocity P-wave (km/s) = 4.99168 6.34898 5.71080
#
# Compressibility (1/GPa) = 0.03598684
#
# Stress axis : x y z
#
# Youngs Moduli (GPa) = 83.11094 44.72160 119.79288
#
# Poissons Ratio (x) = -0.04301 0.16556
# Poissons Ratio (y) = -0.07992 0.35415
# Poissons Ratio (z) = 0.11486 0.13221
#
# Static dielectric constant tensor:
#      x y z
#    x 2.322900 -0.200580 0.018590 
#    y -0.200580 2.380430 -0.117630 
#    z 0.018590 -0.117630 1.933960 
# 
# From -- ./inp_files/78820.got.cif
#   From: 2010.05.17/outbox.cif.g08.bks.cpg/sg2_40_cif.got.tgz:78820.got - 2010.06.03 11:33:40.
