data_PCOD9017205
_publ_section_title
;
Structure prediction by ZEFSAII (Michael W. Deem and Ramdas Pophale) SiO2 
 PCOD9017205
Probable space group: P -1
;
_chemical_formula_sum "Si O2"
_cell_formula_units_Z 14
_cell_length_a 6.151998
_cell_length_b 5.330697
_cell_length_c 21.645792
_cell_angle_alpha 84.687219
_cell_angle_beta 57.809812
_cell_angle_gamma 101.734229
_cell_volume 570.633391
_symmetry_space_group_name_H-M "P -1"
_symmetry_group_IT_number 2
_symmetry_cell_setting 'triclinic'
loop_
_space_group_symop_operation_xyz
x,y,z
-x,-y,-z
loop_
_atom_site_type_symbol
_atom_site_label
_atom_site_fract_x
_atom_site_fract_y
_atom_site_fract_z
Si Si1 0.469736 0.599332 0.932137
Si Si2 0.061014 0.788679 0.038082
Si Si3 0.470274 0.555335 0.718431
Si Si4 0.440072 0.296241 0.430423
Si Si5 0.129413 0.679407 0.169107
Si Si6 0.327355 0.929476 0.255005
Si Si7 0.771001 0.881959 0.408478
O O1 0.718893 0.539512 0.862185
O O2 0.201064 0.457483 0.935174
O O3 0.500000 0.500000 0.000000
O O4 0.365732 0.834362 0.966929
O O5 0.066272 0.795794 0.111033
O O6 0.000000 0.000000 0.000000
O O7 0.633060 0.694142 0.630288
O O8 0.569511 0.311078 0.730865
O O9 0.156293 0.448826 0.751868
O O10 0.489759 0.780925 0.760950
O O11 0.564916 0.604750 0.422497
O O12 0.217881 0.163120 0.518435
O O13 0.652920 0.126551 0.408239
O O14 0.294930 0.892907 0.187673
O O15 0.044679 0.912801 0.330321
#
# Coordination Sequence:
#
# PCOD9017205 Si02
#       7
#     2   2   2   2   2   2   2
#     4   9  21  46  69 100 135 172 226 288 352 426
#     4  10  22  48  74 106 131 177 241 290 353 441
#     4  12  27  47  71 108 147 194 250 294 358 441
#     4  10  21  42  73 102 145 191 248 301 355 427
#     4  11  25  49  68 106 147 189 230 302 366 426
#     4  12  27  47  71 106 148 195 246 297 366 428
#     4  10  21  42  72 105 141 197 242 301 364 414
#
# _framework density 24.534137999999999
#
# number of rings (size 3 to 8) (size 9 to 14) (size 15 to 20)
#    0.000    1.429    1.429    2.571    0.000    3.429 
#   33.429    0.000    0.000    0.000    0.000    0.000 
#    0.000    0.000    0.000    0.000    0.000    0.000 
#
# Total GULP energy -78149.583313 kJ/mol
# GULP energy per Si atom -5582.113094 kJ/mol
# Density = 2.447830 g / cm^3
# Si number density = 24.534138 Si / 1000 Ang^3
#
#
#
# Elastic Constant Matrix: (Units=GPa)
#
#
# Indices 1 2 3 4 5 6 
#
# 1 83.5463 21.6999 46.4993 15.8098 19.3547 -14.8860
# 2 21.6999 92.1908 13.0252 15.9745 23.2007 -12.8099
# 3 46.4993 13.0252 146.8327 11.9961 13.8860 -11.0419
# 4 15.8098 15.9745 11.9961 34.4194 2.7580 -0.8373
# 5 19.3547 23.2007 13.8860 2.7580 43.3084 9.5187
# 6 -14.8860 -12.8099 -11.0419 -0.8373 9.5187 56.0755
#
#
#
# Elastic Compliance Matrix: (Units=1/GPa)
#
#
# Indices 1 2 3 4 5 6 
#
# 1 0.018090 -0.000004 -0.004128 -0.006142 -0.007504 0.005171
# 2 -0.000004 0.014709 0.000380 -0.006146 -0.008667 0.004813
# 3 -0.004128 0.000380 0.008341 -0.001076 -0.001143 0.000811
# 4 -0.006142 -0.006146 -0.001076 0.034617 0.004963 -0.003572
# 5 -0.007504 -0.008667 -0.001143 0.004963 0.033285 -0.009773
# 6 0.005171 0.004813 0.000811 -0.003572 -0.009773 0.022071
#
#
# Mechanical properties :
#
#
# Convention : Reuss Voigt Hill
#
# Bulk Modulus (GPa) = 29.72955 53.89096 41.81025
# Shear Modulus (GPa) = 33.37146 42.85034 38.11090
#
# Velocity S-wave (km/s) = 3.69210 4.18372 3.94557
# Velocity P-wave (km/s) = 5.50630 6.73435 6.15105
#
# Compressibility (1/GPa) = 0.03363657
#
# Stress axis : x y z
#
# Youngs Moduli (GPa) = 55.27942 67.98560 119.88857
#
# Poissons Ratio (x) = 0.00024 0.49492
# Poissons Ratio (y) = 0.00020 -0.04556
# Poissons Ratio (z) = 0.22820 -0.02584
#
# Static dielectric constant tensor:
#      x y z
#    x 1.860080 -0.118650 0.032700 
#    y -0.118650 2.418550 0.054860 
#    z 0.032700 0.054860 1.968330 
# 
# From -- ./inp_files/10951.got.cif
#   From: 2010.05.17/outbox.cif.g08.bks.cpg/sg2_6_cif.got.tgz:10951.got - 2010.06.03 11:33:40.
