data_PCOD9017612
_publ_section_title
;
Structure prediction by ZEFSAII (Michael W. Deem and Ramdas Pophale) SiO2 
 PCOD9017612
Probable space group: P -1
;
_chemical_formula_sum "Si O2"
_cell_formula_units_Z 15
_cell_length_a 13.637133
_cell_length_b 22.145928
_cell_length_c 15.831928
_cell_angle_alpha 23.300846
_cell_angle_beta 146.929799
_cell_angle_gamma 160.442866
_cell_volume 619.353684
_symmetry_space_group_name_H-M "P -1"
_symmetry_group_IT_number 2
_symmetry_cell_setting 'triclinic'
loop_
_space_group_symop_operation_xyz
x,y,z
-x,-y,-z
loop_
_atom_site_type_symbol
_atom_site_label
_atom_site_fract_x
_atom_site_fract_y
_atom_site_fract_z
Si Si1 0.130461 0.437498 0.266201
Si Si2 0.000000 0.000000 0.500000
Si Si3 0.844319 0.743751 0.898652
Si Si4 0.909648 0.248996 0.163015
Si Si5 0.154132 0.916228 0.334821
Si Si6 0.752750 0.346061 0.310487
Si Si7 0.689345 0.215789 0.612734
Si Si8 0.194798 0.050335 0.930493
O O1 0.479482 0.655232 0.222179
O O2 0.955355 0.311520 0.214289
O O3 0.005398 0.226629 0.508039
O O4 0.085228 0.577306 0.093573
O O5 0.119716 0.254022 0.282243
O O6 0.080634 0.092735 0.335550
O O7 0.500000 0.500000 0.000000
O O8 0.918462 0.620230 0.079906
O O9 0.045153 0.916563 0.903483
O O10 0.576316 0.949116 0.298226
O O11 0.091423 0.714760 0.500753
O O12 0.017370 0.984202 0.124315
O O13 0.503635 0.172450 0.279937
O O14 0.601126 0.233478 0.438577
O O15 0.000000 0.500000 0.500000
O O16 0.740243 0.069856 0.827231
#
# Coordination Sequence:
#
# PCOD9017612 Si02
#       8
#     2   1   2   2   2   2   2   2
#     4  10  21  43  65  88 139 184 225 284 349 414
#     4  12  26  42  74 110 132 186 238 280 348 420
#     4  12  24  47  71 101 144 184 231 287 347 422
#     4  10  22  42  65  95 135 182 233 278 347 424
#     4  11  22  40  65  98 133 178 235 288 339 416
#     4  11  23  41  69  96 137 182 228 285 353 414
#     4  11  22  43  68  98 136 191 228 286 357 416
#     4  11  24  41  69 100 131 182 239 282 349 413
#
# _framework density 24.218795
#
# number of rings (size 3 to 8) (size 9 to 14) (size 15 to 20)
#    0.000    1.067    4.000    2.800    0.000    0.533 
#    4.800    2.000    0.000    0.000    0.000    0.000 
#    0.000    0.000    0.000    0.000    0.000    0.000 
#
# Total GULP energy -83512.504034 kJ/mol
# GULP energy per Si atom -5567.500269 kJ/mol
# Density = 2.416367 g / cm^3
# Si number density = 24.218795 Si / 1000 Ang^3
#
#
#
# Elastic Constant Matrix: (Units=GPa)
#
#
# Indices 1 2 3 4 5 6 
#
# 1 50.7490 3.1018 22.9961 10.7109 3.1612 -16.5919
# 2 3.1018 81.1133 9.6264 -13.9038 -13.3087 6.5491
# 3 22.9961 9.6264 98.1126 12.0229 4.8379 -19.0645
# 4 10.7109 -13.9038 12.0229 34.1879 -2.4753 -0.1191
# 5 3.1612 -13.3087 4.8379 -2.4753 60.1447 -0.6337
# 6 -16.5919 6.5491 -19.0645 -0.1191 -0.6337 18.0782
#
#
#
# Elastic Compliance Matrix: (Units=1/GPa)
#
#
# Indices 1 2 3 4 5 6 
#
# 1 0.034461 -0.007522 0.001591 -0.014567 -0.003826 0.035800
# 2 -0.007522 0.017541 -0.005226 0.011624 0.004981 -0.018518
# 3 0.001591 -0.005226 0.015186 -0.008085 -0.002592 0.019224
# 4 -0.014567 0.011624 -0.008085 0.041689 0.005434 -0.025642
# 5 -0.003826 0.004981 -0.002592 0.005434 0.018284 -0.007372
# 6 0.035800 -0.018518 0.019224 -0.025642 -0.007372 0.114726
#
#
# Mechanical properties :
#
#
# Convention : Reuss Voigt Hill
#
# Bulk Modulus (GPa) = 22.28459 33.49150 27.88804
# Shear Modulus (GPa) = 17.91082 35.43220 26.67151
#
# Velocity S-wave (km/s) = 2.72240 3.82907 3.32214
# Velocity P-wave (km/s) = 4.37073 5.77995 5.12402
#
# Compressibility (1/GPa) = 0.04487406
#
# Stress axis : x y z
#
# Youngs Moduli (GPa) = 29.01832 57.00836 65.84849
#
# Poissons Ratio (x) = 0.42881 -0.10477
# Poissons Ratio (y) = 0.21827 0.34416
# Poissons Ratio (z) = -0.04617 0.29795
#
# Static dielectric constant tensor:
#      x y z
#    x 2.061300 0.084580 0.026060 
#    y 0.084580 1.923600 0.045930 
#    z 0.026060 0.045930 1.932550 
# 
# From -- ./inp_files/378175.got.cif
#   From: 2010.05.17/outbox.cif.g08.bks.cpg/sg2_190_cif.got.tgz:378175.got - 2010.06.03 11:33:40.
