data_PCOD9017515
_publ_section_title
;
Structure prediction by ZEFSAII (Michael W. Deem and Ramdas Pophale) SiO2 
 PCOD9017515
Probable space group: P -1
;
_chemical_formula_sum "Si O2"
_cell_formula_units_Z 16
_cell_length_a 20.824449
_cell_length_b 24.225963
_cell_length_c 6.367586
_cell_angle_alpha 43.649796
_cell_angle_beta 123.488685
_cell_angle_gamma 158.457611
_cell_volume 714.966187
_symmetry_space_group_name_H-M "P -1"
_symmetry_group_IT_number 2
_symmetry_cell_setting 'triclinic'
loop_
_space_group_symop_operation_xyz
x,y,z
-x,-y,-z
loop_
_atom_site_type_symbol
_atom_site_label
_atom_site_fract_x
_atom_site_fract_y
_atom_site_fract_z
Si Si1 0.041187 0.275005 0.820979
Si Si2 0.683676 0.116869 0.507289
Si Si3 0.948640 0.857893 0.120387
Si Si4 0.670462 0.720549 0.104398
Si Si5 0.229977 0.896021 0.919016
Si Si6 0.327339 0.507776 0.063746
Si Si7 0.029362 0.405698 0.101008
Si Si8 0.445959 0.778845 0.725179
O O1 0.036035 0.190655 0.904917
O O2 0.056060 0.366253 0.444008
O O3 0.222311 0.444569 0.845280
O O4 0.844308 0.100800 0.086001
O O5 0.595629 0.950107 0.705125
O O6 0.500000 0.000000 0.500000
O O7 0.867714 0.314186 0.144453
O O8 0.763000 0.172485 0.725733
O O9 0.807140 0.798810 0.978663
O O10 0.833347 0.704717 0.529551
O O11 0.166079 0.093181 0.943974
O O12 0.500000 0.500000 0.500000
O O13 0.532615 0.661444 0.944885
O O14 0.069074 0.730953 0.900258
O O15 0.440399 0.101015 0.619385
O O16 0.380823 0.624539 0.016748
O O17 0.247463 0.640526 0.779256
#
# Coordination Sequence:
#
# PCOD9017515 Si02
#       8
#     2   2   2   2   2   2   2   2
#     4  11  21  39  64  93 127 165 211 268 316 374
#     4  10  25  44  66  96 131 170 211 258 318 387
#     4  10  21  43  64  86 132 169 212 269 320 375
#     4   9  22  42  61  89 128 173 210 264 321 378
#     4  10  23  40  63  94 130 162 209 266 317 375
#     4  11  23  37  65  95 127 163 216 268 323 373
#     4  10  22  43  63  93 132 161 209 263 317 376
#     4  11  23  39  66  97 127 166 214 265 318 380
#
# _framework density 22.378682000000001
#
# number of rings (size 3 to 8) (size 9 to 14) (size 15 to 20)
#    0.000    1.750    2.500    0.000    8.750    3.000 
#    2.250    6.875    0.000    0.000    0.000    0.000 
#    0.000    0.000    0.000    0.000    0.000    0.000 
#
# Total GULP energy -89313.843873 kJ/mol
# GULP energy per Si atom -5582.115242 kJ/mol
# Density = 2.232775 g / cm^3
# Si number density = 22.378682 Si / 1000 Ang^3
#
#
#
# Elastic Constant Matrix: (Units=GPa)
#
#
# Indices 1 2 3 4 5 6 
#
# 1 128.3844 66.5931 34.5012 -0.3079 -20.8159 24.1915
# 2 66.5931 124.8548 42.8578 -7.7362 -12.1015 19.8428
# 3 34.5012 42.8578 51.6852 -10.8581 -22.5053 2.6171
# 4 -0.3079 -7.7362 -10.8581 39.7522 4.7618 1.5506
# 5 -20.8159 -12.1015 -22.5053 4.7618 37.9651 -16.0416
# 6 24.1915 19.8428 2.6171 1.5506 -16.0416 46.7336
#
#
#
# Elastic Compliance Matrix: (Units=1/GPa)
#
#
# Indices 1 2 3 4 5 6 
#
# 1 0.012091 -0.004557 -0.003766 -0.001893 0.001720 -0.003460
# 2 -0.004557 0.014834 -0.012082 0.000677 -0.007492 -0.005857
# 3 -0.003766 -0.012082 0.043052 0.005973 0.024264 0.012799
# 4 -0.001893 0.000677 0.005973 0.027067 -0.001058 -0.000903
# 5 0.001720 -0.007492 0.024264 -0.001058 0.046574 0.016954
# 6 -0.003460 -0.005857 0.012799 -0.000903 0.016954 0.030809
#
#
# Mechanical properties :
#
#
# Convention : Reuss Voigt Hill
#
# Bulk Modulus (GPa) = 34.28481 65.86984 50.07733
# Shear Modulus (GPa) = 22.22639 35.62166 28.92402
#
# Velocity S-wave (km/s) = 3.15492 3.99402 3.59901
# Velocity P-wave (km/s) = 5.35022 7.12515 6.30050
#
# Compressibility (1/GPa) = 0.02916743
#
# Stress axis : x y z
#
# Youngs Moduli (GPa) = 82.70512 67.41452 23.22780
#
# Poissons Ratio (x) = 0.30720 0.08748
# Poissons Ratio (y) = 0.37688 0.28063
# Poissons Ratio (z) = 0.31147 0.81447
#
# Static dielectric constant tensor:
#      x y z
#    x 1.898750 0.026400 0.029590 
#    y 0.026400 1.795720 -0.034770 
#    z 0.029590 -0.034770 1.884620 
# 
# From -- ./inp_files/120629.got.cif
#   From: 2010.05.17/outbox.cif.g08.bks.cpg/sg2_61_cif.got.tgz:120629.got - 2010.06.03 11:33:40.
