data_PCOD9017340
_publ_section_title
;
Structure prediction by ZEFSAII (Michael W. Deem and Ramdas Pophale) SiO2 
 PCOD9017340
Probable space group: P -1
;
_chemical_formula_sum "Si O2"
_cell_formula_units_Z 14
_cell_length_a 8.087850
_cell_length_b 5.172087
_cell_length_c 14.150090
_cell_angle_alpha 80.918318
_cell_angle_beta 104.387262
_cell_angle_gamma 117.702327
_cell_volume 507.010809
_symmetry_space_group_name_H-M "P -1"
_symmetry_group_IT_number 2
_symmetry_cell_setting 'triclinic'
loop_
_space_group_symop_operation_xyz
x,y,z
-x,-y,-z
loop_
_atom_site_type_symbol
_atom_site_label
_atom_site_fract_x
_atom_site_fract_y
_atom_site_fract_z
Si Si1 0.942344 0.424420 0.859944
Si Si2 0.188755 0.123172 0.264372
Si Si3 0.819617 0.599504 0.577737
Si Si4 0.496121 0.036169 0.609033
Si Si5 0.315968 0.504760 0.849826
Si Si6 0.337103 0.055510 0.024090
Si Si7 0.831568 0.528771 0.369464
O O1 0.831114 0.613126 0.807305
O O2 0.166466 0.622818 0.859612
O O3 0.908083 0.160803 0.798034
O O4 0.843548 0.234605 0.949808
O O5 0.099364 0.129303 0.355251
O O6 0.385014 0.115039 0.317865
O O7 0.797968 0.638645 0.461112
O O8 0.954889 0.438459 0.609351
O O9 0.619899 0.383800 0.612714
O O10 0.284781 0.830656 0.623166
O O11 0.500000 0.000000 0.500000
O O12 0.536427 0.738730 0.882789
O O13 0.258983 0.399693 0.740226
O O14 0.282353 0.249600 0.934684
O O15 0.500000 0.000000 0.000000
#
# Coordination Sequence:
#
# PCOD9017340 Si02
#       7
#     2   2   2   2   2   2   2
#     4  12  28  49  79 108 153 197 246 313 379 445
#     4  12  24  48  77 109 152 203 250 298 374 450
#     4  10  22  45  68 110 152 194 250 301 357 448
#     4  10  22  41  66 101 145 195 244 303 359 423
#     4  11  25  49  74 112 148 199 250 311 384 441
#     4  11  29  49  77 113 146 192 256 319 376 461
#     4  10  21  42  74 106 147 199 248 303 367 440
#
# _framework density 27.612821
#
# number of rings (size 3 to 8) (size 9 to 14) (size 15 to 20)
#    0.000    1.143    2.857    1.286    8.000    2.857 
#    0.000   18.571    0.000    0.000    0.000    0.000 
#    0.000    0.000    0.000    0.000    0.000    0.000 
#
# Total GULP energy -78327.122252 kJ/mol
# GULP energy per Si atom -5594.794447 kJ/mol
# Density = 2.754997 g / cm^3
# Si number density = 27.612821 Si / 1000 Ang^3
#
#
#
# Elastic Constant Matrix: (Units=GPa)
#
#
# Indices 1 2 3 4 5 6 
#
# 1 68.9936 14.1780 16.8109 -5.3076 -3.1278 11.3319
# 2 14.1780 99.1216 27.5799 -5.9606 -0.1328 -8.6903
# 3 16.8109 27.5799 182.3823 -11.1328 5.0011 -6.9100
# 4 -5.3076 -5.9606 -11.1328 50.3834 0.7557 -8.2672
# 5 -3.1278 -0.1328 5.0011 0.7557 46.7825 -0.3523
# 6 11.3319 -8.6903 -6.9100 -8.2672 -0.3523 54.1306
#
#
#
# Elastic Compliance Matrix: (Units=1/GPa)
#
#
# Indices 1 2 3 4 5 6 
#
# 1 0.015976 -0.002229 -0.001280 0.000498 0.001162 -0.003782
# 2 -0.002229 0.011038 -0.001309 0.001150 0.000021 0.002247
# 3 -0.001280 -0.001309 0.005930 0.001194 -0.000735 0.000992
# 4 0.000498 0.001150 0.001194 0.020867 -0.000402 0.003417
# 5 0.001162 0.000021 -0.000735 -0.000402 0.021536 -0.000255
# 6 -0.003782 0.002247 0.000992 0.003417 -0.000255 0.020273
#
#
# Mechanical properties :
#
#
# Convention : Reuss Voigt Hill
#
# Bulk Modulus (GPa) = 42.90485 51.95946 47.43215
# Shear Modulus (GPa) = 44.23756 49.72122 46.97939
#
# Velocity S-wave (km/s) = 4.00692 4.24802 4.12923
# Velocity P-wave (km/s) = 6.08104 6.55125 6.32052
#
# Compressibility (1/GPa) = 0.02330739
#
# Stress axis : x y z
#
# Youngs Moduli (GPa) = 62.59262 90.59714 168.64578
#
# Poissons Ratio (x) = 0.20194 0.21591
# Poissons Ratio (y) = 0.13952 0.22074
# Poissons Ratio (z) = 0.08014 0.11858
#
# Static dielectric constant tensor:
#      x y z
#    x 2.245900 0.181080 0.029600 
#    y 0.181080 2.338450 0.098670 
#    z 0.029600 0.098670 2.248620 
# 
# From -- ./inp_files/487714.got.cif
#   From: 2010.05.17/outbox.cif.g08.bks.cpg/sg2_244_cif.got.tgz:487714.got - 2010.06.03 11:33:40.
