data_PCOD9017859
_publ_section_title
;
Structure prediction by ZEFSAII (Michael W. Deem and Ramdas Pophale) SiO2 
 PCOD9017859
Probable space group: P -1
;
_chemical_formula_sum "Si O2"
_cell_formula_units_Z 12
_cell_length_a 5.146064
_cell_length_b 9.052251
_cell_length_c 18.766341
_cell_angle_alpha 38.761377
_cell_angle_beta 112.124963
_cell_angle_gamma 95.832975
_cell_volume 478.412257
_symmetry_space_group_name_H-M "P -1"
_symmetry_group_IT_number 2
_symmetry_cell_setting 'triclinic'
loop_
_space_group_symop_operation_xyz
x,y,z
-x,-y,-z
loop_
_atom_site_type_symbol
_atom_site_label
_atom_site_fract_x
_atom_site_fract_y
_atom_site_fract_z
Si Si1 0.446196 0.827246 0.996763
Si Si2 0.763766 0.733313 0.637455
Si Si3 0.402653 0.297219 0.217424
Si Si4 0.224086 0.091422 0.138640
Si Si5 0.499435 0.526410 0.395045
Si Si6 0.110021 0.232923 0.512196
O O1 0.486715 0.547400 0.131996
O O2 0.103707 0.926309 0.897419
O O3 0.662521 0.827066 0.953620
O O4 0.500000 0.000000 0.000000
O O5 0.809177 0.705259 0.736383
O O6 0.642932 0.513818 0.681216
O O7 0.981509 0.735908 0.593265
O O8 0.500000 0.000000 0.500000
O O9 0.245654 0.269020 0.138541
O O10 0.691967 0.049910 0.346946
O O11 0.446607 0.815952 0.284818
O O12 0.688600 0.588088 0.528919
O O13 0.831147 0.338131 0.493940
#
# Coordination Sequence:
#
# PCOD9017859 Si02
#       6
#     2   2   2   2   2   2
#     4  12  28  52  74 100 140 193 248 291 356 433
#     4   8  19  41  62 103 134 188 226 277 337 426
#     4  11  24  46  74 109 147 183 237 305 357 410
#     4  12  27  48  72 110 142 187 236 305 354 422
#     4  10  21  43  67 100 150 180 244 270 353 428
#     4   9  22  41  71 104 142 191 230 282 348 432
#
# _framework density 25.08297
#
# number of rings (size 3 to 8) (size 9 to 14) (size 15 to 20)
#    1.000    0.667    0.000    3.500    0.000    6.667 
#    9.000    0.000    0.000    0.000    0.000    0.000 
#    0.000    0.000    0.000    0.000    0.000    0.000 
#
# Total GULP energy -67177.837852 kJ/mol
# GULP energy per Si atom -5598.153154 kJ/mol
# Density = 2.502588 g / cm^3
# Si number density = 25.082970 Si / 1000 Ang^3
#
#
#
# Elastic Constant Matrix: (Units=GPa)
#
#
# Indices 1 2 3 4 5 6 
#
# 1 111.1749 32.8679 14.0792 11.1809 -3.5785 -6.0520
# 2 32.8679 196.0374 58.8591 8.9133 -19.6685 7.3632
# 3 14.0792 58.8591 127.2377 -12.5043 -3.2460 -8.7479
# 4 11.1809 8.9133 -12.5043 52.9186 -5.3824 -9.9823
# 5 -3.5785 -19.6685 -3.2460 -5.3824 40.8078 -1.7606
# 6 -6.0520 7.3632 -8.7479 -9.9823 -1.7606 40.6135
#
#
#
# Elastic Compliance Matrix: (Units=1/GPa)
#
#
# Indices 1 2 3 4 5 6 
#
# 1 0.009722 -0.001456 -0.000490 -0.001707 -0.000062 0.001185
# 2 -0.001456 0.006747 -0.003243 -0.001805 0.002521 -0.002473
# 3 -0.000490 -0.003243 0.010015 0.003672 -0.000171 0.003567
# 4 -0.001707 -0.001805 0.003672 0.021874 0.002431 0.006345
# 5 -0.000062 0.002521 -0.000171 0.002431 0.026075 0.001225
# 6 0.001185 -0.002473 0.003567 0.006345 0.001225 0.027628
#
#
# Mechanical properties :
#
#
# Convention : Reuss Voigt Hill
#
# Bulk Modulus (GPa) = 62.08992 71.78472 66.93732
# Shear Modulus (GPa) = 42.44219 48.77755 45.60987
#
# Velocity S-wave (km/s) = 4.11794 4.41460 4.26885
# Velocity P-wave (km/s) = 6.88604 7.39364 7.14435
#
# Compressibility (1/GPa) = 0.01610567
#
# Stress axis : x y z
#
# Youngs Moduli (GPa) = 102.86444 148.21854 99.84531
#
# Poissons Ratio (x) = 0.21579 0.04894
# Poissons Ratio (y) = 0.14976 0.32380
# Poissons Ratio (z) = 0.05042 0.48068
#
# Static dielectric constant tensor:
#      x y z
#    x 2.003990 0.042910 0.075660 
#    y 0.042910 2.069980 0.079500 
#    z 0.075660 0.079500 1.974810 
# 
# From -- ./inp_files/290613.got.cif
#   From: 2010.05.17/outbox.cif.g08.bks.cpg/sg2_146_cif.got.tgz:290613.got - 2010.06.03 11:33:40.
