data_PCOD9017474
_publ_section_title
;
Structure prediction by ZEFSAII (Michael W. Deem and Ramdas Pophale) SiO2 
 PCOD9017474
Probable space group: P -1
;
_chemical_formula_sum "Si O2"
_cell_formula_units_Z 15
_cell_length_a 11.434903
_cell_length_b 12.255730
_cell_length_c 8.832076
_cell_angle_alpha 123.644582
_cell_angle_beta 127.142126
_cell_angle_gamma 90.221768
_cell_volume 706.570406
_symmetry_space_group_name_H-M "P -1"
_symmetry_group_IT_number 2
_symmetry_cell_setting 'triclinic'
loop_
_space_group_symop_operation_xyz
x,y,z
-x,-y,-z
loop_
_atom_site_type_symbol
_atom_site_label
_atom_site_fract_x
_atom_site_fract_y
_atom_site_fract_z
Si Si1 0.222992 0.684145 0.791407
Si Si2 0.594730 0.854038 0.835095
Si Si3 0.500000 0.500000 0.500000
Si Si4 0.089184 0.955861 0.270751
Si Si5 0.025283 0.512752 0.787009
Si Si6 0.926702 0.106282 0.137375
Si Si7 0.105930 0.343584 0.964793
Si Si8 0.591604 0.971701 0.245651
O O1 0.176564 0.603497 0.855016
O O2 0.107574 0.761023 0.747514
O O3 0.150360 0.564432 0.506536
O O4 0.414878 0.817397 0.024736
O O5 0.537091 0.678460 0.661559
O O6 0.447804 0.891990 0.701846
O O7 0.652598 0.937507 0.108189
O O8 0.751935 0.948115 0.915890
O O9 0.305094 0.435565 0.229855
O O10 0.275438 0.995376 0.493654
O O11 0.039006 0.885463 0.008419
O O12 0.069102 0.101982 0.347005
O O13 0.964738 0.834759 0.203307
O O14 0.002504 0.618792 0.970346
O O15 0.060274 0.394654 0.812656
#
# Coordination Sequence:
#
# PCOD9017474 Si02
#       8
#     2   2   1   2   2   2   2   2
#     4  10  21  43  63  94 121 168 198 269 300 376
#     4  10  23  41  63  94 122 170 202 267 305 372
#     4  12  24  40  62  94 132 154 216 254 322 356
#     4  11  23  41  62  94 123 165 208 258 304 378
#     4  10  23  41  66  89 130 158 215 243 324 366
#     4  10  22  41  62  89 126 163 210 252 319 353
#     4  11  24  40  63  94 120 172 200 262 303 384
#     4  10  24  40  66  92 127 161 218 250 313 366
#
# _framework density 21.229306000000001
#
# number of rings (size 3 to 8) (size 9 to 14) (size 15 to 20)
#    0.000    1.600    2.667    0.800    9.333    4.800 
#    0.000    0.000    0.000    4.800    0.000    0.000 
#    0.000    0.000    0.000    0.000    0.000    0.000 
#
# Total GULP energy -83521.536110 kJ/mol
# GULP energy per Si atom -5568.102407 kJ/mol
# Density = 2.118099 g / cm^3
# Si number density = 21.229306 Si / 1000 Ang^3
#
#
#
# Elastic Constant Matrix: (Units=GPa)
#
#
# Indices 1 2 3 4 5 6 
#
# 1 48.6162 36.2395 15.5592 -9.6857 0.8836 7.9119
# 2 36.2395 144.0762 32.3305 -10.6813 -3.9231 9.8203
# 3 15.5592 32.3305 50.1997 -11.4007 11.8009 3.0561
# 4 -9.6857 -10.6813 -11.4007 36.8177 -5.0552 0.0447
# 5 0.8836 -3.9231 11.8009 -5.0552 19.1366 -2.2331
# 6 7.9119 9.8203 3.0561 0.0447 -2.2331 26.6239
#
#
#
# Elastic Compliance Matrix: (Units=1/GPa)
#
#
# Indices 1 2 3 4 5 6 
#
# 1 0.027626 -0.005333 -0.003862 0.004608 0.000558 -0.005760
# 2 -0.005333 0.009872 -0.005952 0.000437 0.005954 -0.000875
# 3 -0.003862 -0.005952 0.030436 0.004084 -0.018936 -0.001746
# 4 0.004608 0.000437 0.004084 0.030483 0.005223 -0.001612
# 5 0.000558 0.005954 -0.018936 0.005223 0.067141 0.005435
# 6 -0.005760 -0.000875 -0.001746 -0.001612 0.005435 0.040253
#
#
# Mechanical properties :
#
#
# Convention : Reuss Voigt Hill
#
# Bulk Modulus (GPa) = 26.56761 45.68339 36.12550
# Shear Modulus (GPa) = 20.10841 27.09984 23.60413
#
# Velocity S-wave (km/s) = 3.08100 3.57673 3.33808
# Velocity P-wave (km/s) = 5.01981 6.21475 5.64896
#
# Compressibility (1/GPa) = 0.03763982
#
# Stress axis : x y z
#
# Youngs Moduli (GPa) = 36.19817 101.29814 32.85579
#
# Poissons Ratio (x) = 0.54018 0.12689
# Poissons Ratio (y) = 0.19303 0.19557
# Poissons Ratio (z) = 0.13980 0.60295
#
# Static dielectric constant tensor:
#      x y z
#    x 1.796940 -0.012030 0.000350 
#    y -0.012030 1.783790 0.007940 
#    z 0.000350 0.007940 1.742300 
# 
# From -- ./inp_files/263219.got.cif
#   From: 2010.05.17/outbox.cif.g08.bks.cpg/sg2_132_cif.got.tgz:263219.got - 2010.06.03 11:33:40.
