data_PCOD9017402
_publ_section_title
;
Structure prediction by ZEFSAII (Michael W. Deem and Ramdas Pophale) SiO2 
 PCOD9017402
Probable space group: P -1
;
_chemical_formula_sum "Si O2"
_cell_formula_units_Z 14
_cell_length_a 11.102648
_cell_length_b 11.347336
_cell_length_c 11.905514
_cell_angle_alpha 49.372075
_cell_angle_beta 91.925116
_cell_angle_gamma 54.048022
_cell_volume 678.295250
_symmetry_space_group_name_H-M "P -1"
_symmetry_group_IT_number 2
_symmetry_cell_setting 'triclinic'
loop_
_space_group_symop_operation_xyz
x,y,z
-x,-y,-z
loop_
_atom_site_type_symbol
_atom_site_label
_atom_site_fract_x
_atom_site_fract_y
_atom_site_fract_z
Si Si1 0.332895 0.157840 0.796261
Si Si2 0.170358 0.697836 0.188006
Si Si3 0.101385 0.574355 0.044448
Si Si4 0.987420 0.747180 0.369450
Si Si5 0.565483 0.369577 0.461905
Si Si6 0.335288 0.091471 0.218925
Si Si7 0.999279 0.014030 0.356749
O O1 0.202468 0.139308 0.769302
O O2 0.141668 0.473163 0.611161
O O3 0.481074 0.039566 0.769400
O O4 0.500000 0.000000 0.000000
O O5 0.145685 0.604363 0.145790
O O6 0.372485 0.586940 0.244224
O O7 0.139450 0.649284 0.337228
O O8 0.000000 0.000000 0.000000
O O9 0.276574 0.275532 0.198216
O O10 0.887248 0.705646 0.969116
O O11 0.074934 0.743184 0.847796
O O12 0.906978 0.966132 0.313158
O O13 0.500000 0.500000 0.500000
O O14 0.766115 0.243009 0.509365
O O15 0.605148 0.144247 0.599031
O O16 0.000000 0.000000 0.500000
#
# Coordination Sequence:
#
# PCOD9017402 Si02
#       7
#     2   2   2   2   2   2   2
#     4  11  24  42  69  97 136 174 218 289 339 407
#     4  12  21  41  67  94 127 168 234 281 318 403
#     4  10  23  40  67  95 125 174 221 278 337 398
#     4  11  24  44  66 102 131 177 231 273 342 407
#     4  11  21  42  70  91 126 177 221 271 330 398
#     4  10  21  43  61  93 128 168 223 264 335 397
#     4  11  24  44  64  95 140 173 217 283 341 399
#
# _framework density 20.639977999999999
#
# number of rings (size 3 to 8) (size 9 to 14) (size 15 to 20)
#    0.000    1.143    4.286    1.714    2.000    2.857 
#    7.714    1.429    0.000    0.000    0.000    0.000 
#    0.000    0.000    0.000    0.000    0.000    0.000 
#
# Total GULP energy -77995.352308 kJ/mol
# GULP energy per Si atom -5571.096593 kJ/mol
# Density = 2.059300 g / cm^3
# Si number density = 20.639978 Si / 1000 Ang^3
#
#
#
# Elastic Constant Matrix: (Units=GPa)
#
#
# Indices 1 2 3 4 5 6 
#
# 1 95.7929 37.3965 22.9531 -0.2987 12.2611 17.0469
# 2 37.3965 132.3931 31.7967 -2.2090 -3.3131 28.4768
# 3 22.9531 31.7967 64.0051 -9.5000 10.8836 11.7570
# 4 -0.2987 -2.2090 -9.5000 39.0006 0.7609 1.5758
# 5 12.2611 -3.3131 10.8836 0.7609 29.2789 -3.6480
# 6 17.0469 28.4768 11.7570 1.5758 -3.6480 43.0861
#
#
#
# Elastic Compliance Matrix: (Units=1/GPa)
#
#
# Indices 1 2 3 4 5 6 
#
# 1 0.013266 -0.002707 -0.001876 -0.000262 -0.005583 -0.003411
# 2 -0.002707 0.010275 -0.003920 -0.000280 0.003216 -0.004368
# 3 -0.001876 -0.003920 0.020966 0.005158 -0.007991 -0.003253
# 4 -0.000262 -0.000280 0.005158 0.027029 -0.002834 -0.002347
# 5 -0.005583 0.003216 -0.007991 -0.002834 0.040624 0.005807
# 6 -0.003411 -0.004368 -0.003253 -0.002347 0.005807 0.028911
#
#
# Mechanical properties :
#
#
# Convention : Reuss Voigt Hill
#
# Bulk Modulus (GPa) = 36.36167 52.94263 44.65215
# Shear Modulus (GPa) = 29.89684 35.60945 32.75314
#
# Velocity S-wave (km/s) = 3.81003 4.15814 3.98789
# Velocity P-wave (km/s) = 6.08363 6.98281 6.54867
#
# Compressibility (1/GPa) = 0.02750149
#
# Stress axis : x y z
#
# Youngs Moduli (GPa) = 75.37955 97.32766 47.69739
#
# Poissons Ratio (x) = 0.26349 0.08946
# Poissons Ratio (y) = 0.20407 0.18695
# Poissons Ratio (z) = 0.14138 0.38148
#
# Static dielectric constant tensor:
#      x y z
#    x 0.158370 2.454810 0.555690 
#    y 2.454810 -1.534770 -0.740070 
#    z 0.555690 -0.740070 1.670210 
# 
# From -- ./inp_files/424271.got.cif
#   From: 2010.05.17/outbox.cif.g08.bks.cpg/sg2_213_cif.got.tgz:424271.got - 2010.06.03 11:33:40.
