data_PCOD9017516
_publ_section_title
;
Structure prediction by ZEFSAII (Michael W. Deem and Ramdas Pophale) SiO2 
 PCOD9017516
Probable space group: P -1
;
_chemical_formula_sum "Si O2"
_cell_formula_units_Z 14
_cell_length_a 11.409070
_cell_length_b 11.922362
_cell_length_c 12.823316
_cell_angle_alpha 112.977524
_cell_angle_beta 22.646823
_cell_angle_gamma 119.770367
_cell_volume 570.842758
_symmetry_space_group_name_H-M "P -1"
_symmetry_group_IT_number 2
_symmetry_cell_setting 'triclinic'
loop_
_space_group_symop_operation_xyz
x,y,z
-x,-y,-z
loop_
_atom_site_type_symbol
_atom_site_label
_atom_site_fract_x
_atom_site_fract_y
_atom_site_fract_z
Si Si1 0.742640 0.833247 0.253309
Si Si2 0.716157 0.331392 0.602959
Si Si3 0.619094 0.096572 0.839303
Si Si4 0.224915 0.262296 0.300154
Si Si5 0.463842 0.911943 0.700054
Si Si6 0.966344 0.362765 0.026391
Si Si7 0.218339 0.459511 0.076061
O O1 0.479008 0.785633 0.360373
O O2 0.752843 0.696896 0.246622
O O3 0.694394 0.921553 0.416945
O O4 0.883038 0.096560 0.066567
O O5 0.969808 0.451613 0.369770
O O6 0.944268 0.290355 0.476481
O O7 0.446646 0.379588 0.891441
O O8 0.384173 0.177635 0.072010
O O9 0.569033 0.014166 0.743798
O O10 0.010621 0.186763 0.548715
O O11 0.500000 0.000000 0.000000
O O12 0.534668 0.398261 0.112704
O O13 0.360330 0.763522 0.778392
O O14 0.001016 0.384769 0.129811
O O15 0.000000 0.500000 0.000000
#
# Coordination Sequence:
#
# PCOD9017516 Si02
#       7
#     2   2   2   2   2   2   2
#     4   9  19  38  64  93 130 163 203 273 333 371
#     4  11  20  43  67 103 136 163 213 277 336 393
#     4  12  28  49  64  94 133 180 226 272 308 396
#     4  12  26  43  71  98 128 183 222 257 337 393
#     4  10  21  43  64  87 130 172 211 271 328 363
#     4   9  21  37  65  98 124 169 216 267 333 387
#     4  11  22  41  67 102 139 165 210 281 332 388
#
# _framework density 24.525144999999998
#
# number of rings (size 3 to 8) (size 9 to 14) (size 15 to 20)
#    0.857    0.571    1.429    3.857    2.000    0.571 
#    0.000    4.286    0.000    0.000    0.000    0.000 
#    0.000    0.000    0.000    0.000    0.000    0.000 
#
# Total GULP energy -78272.250896 kJ/mol
# GULP energy per Si atom -5590.875064 kJ/mol
# Density = 2.446932 g / cm^3
# Si number density = 24.525145 Si / 1000 Ang^3
#
#
#
# Elastic Constant Matrix: (Units=GPa)
#
#
# Indices 1 2 3 4 5 6 
#
# 1 46.4060 19.1705 21.5957 6.0052 0.8499 12.2925
# 2 19.1705 107.1146 16.3416 -5.2210 3.1579 4.1915
# 3 21.5957 16.3416 120.0076 8.6130 10.9548 3.0182
# 4 6.0052 -5.2210 8.6130 46.3640 1.3188 5.4590
# 5 0.8499 3.1579 10.9548 1.3188 29.7506 -1.9113
# 6 12.2925 4.1915 3.0182 5.4590 -1.9113 28.4898
#
#
#
# Elastic Compliance Matrix: (Units=1/GPa)
#
#
# Indices 1 2 3 4 5 6 
#
# 1 0.028292 -0.004129 -0.004160 -0.002111 0.000567 -0.010716
# 2 -0.004129 0.010301 -0.000719 0.001859 -0.000798 -0.000068
# 3 -0.004160 -0.000719 0.009544 -0.001334 -0.003200 0.000930
# 4 -0.002111 0.001859 -0.001334 0.022753 -0.000888 -0.003641
# 5 0.000567 -0.000798 -0.003200 -0.000888 0.035075 0.002735
# 6 -0.010716 -0.000068 0.000930 -0.003641 0.002735 0.040517
#
#
# Mechanical properties :
#
#
# Convention : Reuss Voigt Hill
#
# Bulk Modulus (GPa) = 33.19833 43.08264 38.14049
# Shear Modulus (GPa) = 28.64735 35.34890 31.99813
#
# Velocity S-wave (km/s) = 3.42143 3.80061 3.61599
# Velocity P-wave (km/s) = 5.40130 6.07160 5.74623
#
# Compressibility (1/GPa) = 0.03012200
#
# Stress axis : x y z
#
# Youngs Moduli (GPa) = 35.34586 97.07622 104.78188
#
# Poissons Ratio (x) = 0.40084 0.43586
# Poissons Ratio (y) = 0.14595 0.07530
# Poissons Ratio (z) = 0.14703 0.06976
#
# Static dielectric constant tensor:
#      x y z
#    x 1.925320 -0.062210 -0.013440 
#    y -0.062210 2.052440 0.009200 
#    z -0.013440 0.009200 1.906490 
# 
# From -- ./inp_files/518143.got.cif
#   From: 2010.05.17/outbox.cif.g08.bks.cpg/sg2_260_cif.got.tgz:518143.got - 2010.06.03 11:33:40.
