data_PCOD9017094
_publ_section_title
;
Structure prediction by ZEFSAII (Michael W. Deem and Ramdas Pophale) SiO2 
 PCOD9017094
Probable space group: P -1
;
_chemical_formula_sum "Si O2"
_cell_formula_units_Z 14
_cell_length_a 26.118729
_cell_length_b 7.039701
_cell_length_c 5.160095
_cell_angle_alpha 72.441910
_cell_angle_beta 80.005784
_cell_angle_gamma 41.590582
_cell_volume 598.423474
_symmetry_space_group_name_H-M "P -1"
_symmetry_group_IT_number 2
_symmetry_cell_setting 'triclinic'
loop_
_space_group_symop_operation_xyz
x,y,z
-x,-y,-z
loop_
_atom_site_type_symbol
_atom_site_label
_atom_site_fract_x
_atom_site_fract_y
_atom_site_fract_z
Si Si1 0.431401 0.247485 0.153525
Si Si2 0.217922 0.266928 0.352169
Si Si3 0.920254 0.571352 0.820871
Si Si4 0.237272 0.455131 0.784780
Si Si5 0.321010 0.610587 0.700228
Si Si6 0.906790 0.876438 0.200097
Si Si7 0.481230 0.344408 0.460466
O O1 0.457630 0.392053 0.163432
O O2 0.447639 0.012861 0.423821
O O3 0.344574 0.504508 0.021931
O O4 0.500000 0.000000 0.000000
O O5 0.135371 0.443436 0.226588
O O6 0.216323 0.409612 0.550397
O O7 0.255995 0.953639 0.547511
O O8 0.264531 0.228288 0.082901
O O9 0.915899 0.750196 0.525762
O O10 0.010776 0.259873 0.891713
O O11 0.893410 0.746687 0.043167
O O12 0.296793 0.464831 0.677654
O O13 0.163560 0.773144 0.851514
O O14 0.400908 0.481468 0.586136
O O15 0.500000 0.500000 0.500000
#
# Coordination Sequence:
#
# PCOD9017094 Si02
#       7
#     2   2   2   2   2   2   2
#     4   9  22  43  67  99 133 172 217 285 337 407
#     4  12  28  43  71 104 139 190 240 280 352 420
#     4  10  21  42  71 102 136 187 236 287 350 410
#     4  12  28  44  70 103 142 189 235 289 350 414
#     4  11  27  43  69  99 146 177 227 292 344 417
#     4  10  21  42  72  98 142 185 230 297 348 398
#     4  10  23  42  74 100 132 176 228 281 342 422
#
# _framework density 23.394803
#
# number of rings (size 3 to 8) (size 9 to 14) (size 15 to 20)
#    0.000    1.429    1.429    1.714    6.000    5.714 
#    0.000    0.000    0.000    0.000    0.000    0.000 
#    0.000    0.000    0.000    0.000    0.000    0.000 
#
# Total GULP energy -78096.363151 kJ/mol
# GULP energy per Si atom -5578.311654 kJ/mol
# Density = 2.334156 g / cm^3
# Si number density = 23.394803 Si / 1000 Ang^3
#
#
#
# Elastic Constant Matrix: (Units=GPa)
#
#
# Indices 1 2 3 4 5 6 
#
# 1 173.4505 60.0651 35.8330 9.9669 23.9441 21.8208
# 2 60.0651 57.6447 30.6971 8.7818 10.1885 2.3490
# 3 35.8330 30.6971 86.9056 12.3302 21.7175 5.9128
# 4 9.9669 8.7818 12.3302 35.0775 6.8546 7.6973
# 5 23.9441 10.1885 21.7175 6.8546 41.4082 9.5649
# 6 21.8208 2.3490 5.9128 7.6973 9.5649 34.9012
#
#
#
# Elastic Compliance Matrix: (Units=1/GPa)
#
#
# Indices 1 2 3 4 5 6 
#
# 1 0.010233 -0.010322 0.000230 0.001250 -0.002472 -0.005341
# 2 -0.010322 0.032120 -0.007196 -0.004139 0.001111 0.006119
# 3 0.000230 -0.007196 0.015891 -0.002615 -0.006249 -0.000062
# 4 0.001250 -0.004139 -0.002615 0.031954 -0.002115 -0.006528
# 5 -0.002472 0.001111 -0.006249 -0.002115 0.030150 -0.005267
# 6 -0.005341 0.006119 -0.000062 -0.006528 -0.005267 0.034473
#
#
# Mechanical properties :
#
#
# Convention : Reuss Voigt Hill
#
# Bulk Modulus (GPa) = 42.25151 63.46567 52.85859
# Shear Modulus (GPa) = 25.34390 35.03776 30.19083
#
# Velocity S-wave (km/s) = 3.29494 3.87418 3.59624
# Velocity P-wave (km/s) = 5.70745 6.87018 6.31563
#
# Compressibility (1/GPa) = 0.02366780
#
# Stress axis : x y z
#
# Youngs Moduli (GPa) = 97.71971 31.13367 62.92964
#
# Poissons Ratio (x) = 0.32135 -0.01447
# Poissons Ratio (y) = 1.00862 0.45287
# Poissons Ratio (z) = -0.02248 0.22405
#
# Static dielectric constant tensor:
#      x y z
#    x 1.907110 -0.015230 -0.027620 
#    y -0.015230 1.841200 0.007790 
#    z -0.027620 0.007790 2.285000 
# 
# From -- ./inp_files/121547.got.cif
#   From: 2010.05.17/outbox.cif.g08.bks.cpg/sg2_61_cif.got.tgz:121547.got - 2010.06.03 11:33:40.
