data_PCOD9017893
_publ_section_title
;
Structure prediction by ZEFSAII (Michael W. Deem and Ramdas Pophale) SiO2 
 PCOD9017893
Probable space group: P -1
;
_chemical_formula_sum "Si O2"
_cell_formula_units_Z 13
_cell_length_a 9.418660
_cell_length_b 12.780796
_cell_length_c 8.579885
_cell_angle_alpha 139.144391
_cell_angle_beta 126.878605
_cell_angle_gamma 67.456476
_cell_volume 535.511778
_symmetry_space_group_name_H-M "P -1"
_symmetry_group_IT_number 2
_symmetry_cell_setting 'triclinic'
loop_
_space_group_symop_operation_xyz
x,y,z
-x,-y,-z
loop_
_atom_site_type_symbol
_atom_site_label
_atom_site_fract_x
_atom_site_fract_y
_atom_site_fract_z
Si Si1 0.097797 0.315977 0.491363
Si Si2 0.816172 0.883384 0.210640
Si Si3 0.652706 0.296402 0.636458
Si Si4 0.790505 0.155036 0.270743
Si Si5 0.500000 0.500000 0.000000
Si Si6 0.010917 0.345147 0.122969
Si Si7 0.500233 0.959999 0.274617
O O1 0.305169 0.381340 0.722208
O O2 0.054209 0.268867 0.230579
O O3 0.998814 0.183016 0.392256
O O4 0.988792 0.466842 0.630012
O O5 0.671645 0.877636 0.244087
O O6 0.744533 0.985374 0.137977
O O7 0.858323 0.712349 0.984745
O O8 0.000000 0.000000 0.500000
O O9 0.734205 0.283687 0.504408
O O10 0.557955 0.444380 0.798775
O O11 0.523323 0.132462 0.399257
O O12 0.813535 0.289340 0.860522
O O13 0.673913 0.148793 0.030002
O O14 0.500000 0.000000 0.500000
#
# Coordination Sequence:
#
# PCOD9017893 Si02
#       7
#     2   2   2   2   1   2   2
#     4  10  24  43  67  93 129 176 219 273 324 391
#     4  11  22  42  67  96 133 176 213 274 329 385
#     4  10  21  44  62  94 136 170 214 270 328 380
#     4  11  24  41  69  97 129 175 222 273 323 396
#     4  10  24  40  66  90 126 170 216 268 322 390
#     4  10  21  43  67  88 135 173 212 269 332 385
#     4  11  24  42  65  98 137 169 219 273 328 386
#
# _framework density 24.275846000000001
#
# number of rings (size 3 to 8) (size 9 to 14) (size 15 to 20)
#    0.000    1.538    3.077    2.769    4.308    4.308 
#    2.769    0.769    0.000    0.000    0.000    0.000 
#    0.000    0.000    0.000    0.000    0.000    0.000 
#
# Total GULP energy -72380.727126 kJ/mol
# GULP energy per Si atom -5567.748240 kJ/mol
# Density = 2.422059 g / cm^3
# Si number density = 24.275846 Si / 1000 Ang^3
#
#
#
# Elastic Constant Matrix: (Units=GPa)
#
#
# Indices 1 2 3 4 5 6 
#
# 1 164.4975 20.3597 76.2994 -18.9329 -2.1953 2.2378
# 2 20.3597 24.1282 15.5173 -6.8031 -2.7798 4.6952
# 3 76.2994 15.5173 155.4598 -37.6160 -10.6369 7.8580
# 4 -18.9329 -6.8031 -37.6160 28.5568 -6.6306 -12.4546
# 5 -2.1953 -2.7798 -10.6369 -6.6306 42.6327 10.0691
# 6 2.2378 4.6952 7.8580 -12.4546 10.0691 32.6916
#
#
#
# Elastic Compliance Matrix: (Units=1/GPa)
#
#
# Indices 1 2 3 4 5 6 
#
# 1 0.008432 -0.005146 -0.003895 -0.000493 -0.001256 0.001297
# 2 -0.005146 0.049553 -0.000044 0.007098 0.005409 -0.005716
# 3 -0.003895 -0.000044 0.012369 0.015593 0.004899 0.001731
# 4 -0.000493 0.007098 0.015593 0.067034 0.010612 0.017536
# 5 -0.001256 0.005409 0.004899 0.010612 0.028151 -0.006496
# 6 0.001297 -0.005716 0.001731 0.017536 -0.006496 0.039586
#
#
# Mechanical properties :
#
#
# Convention : Reuss Voigt Hill
#
# Bulk Modulus (GPa) = 19.16320 63.15981 41.16151
# Shear Modulus (GPa) = 20.77366 36.23682 28.50524
#
# Velocity S-wave (km/s) = 2.92847 3.86775 3.43041
# Velocity P-wave (km/s) = 4.39837 6.78381 5.71689
#
# Compressibility (1/GPa) = 0.05218334
#
# Stress axis : x y z
#
# Youngs Moduli (GPa) = 118.60018 20.18061 80.84458
#
# Poissons Ratio (x) = 0.10384 0.31492
# Poissons Ratio (y) = 0.61028 0.00356
# Poissons Ratio (z) = 0.46200 0.00089
#
# Static dielectric constant tensor:
#      x y z
#    x 1.893690 -0.063670 -0.054920 
#    y -0.063670 2.000580 -0.063180 
#    z -0.054920 -0.063180 1.859430 
# 
# From -- ./inp_files/163766.got.cif
#   From: 2010.05.17/outbox.cif.g08.bks.cpg/sg2_82_cif.got.tgz:163766.got - 2010.06.03 11:33:40.
