data_PCOD9017590
_publ_section_title
;
Structure prediction by ZEFSAII (Michael W. Deem and Ramdas Pophale) SiO2 
 PCOD9017590
Probable space group: P -1
;
_chemical_formula_sum "Si O2"
_cell_formula_units_Z 14
_cell_length_a 8.483820
_cell_length_b 11.620762
_cell_length_c 10.970079
_cell_angle_alpha 131.350492
_cell_angle_beta 127.148329
_cell_angle_gamma 41.009854
_cell_volume 520.421019
_symmetry_space_group_name_H-M "P -1"
_symmetry_group_IT_number 2
_symmetry_cell_setting 'triclinic'
loop_
_space_group_symop_operation_xyz
x,y,z
-x,-y,-z
loop_
_atom_site_type_symbol
_atom_site_label
_atom_site_fract_x
_atom_site_fract_y
_atom_site_fract_z
Si Si1 0.132755 0.083933 0.473890
Si Si2 0.241357 0.980758 0.868895
Si Si3 0.582378 0.220388 0.929759
Si Si4 0.818147 0.375743 0.988913
Si Si5 0.365024 0.314949 0.319542
Si Si6 0.699772 0.836995 0.604564
Si Si7 0.745444 0.361969 0.667407
O O1 0.139665 0.226802 0.486182
O O2 0.967908 0.035714 0.293824
O O3 0.000392 0.176637 0.604597
O O4 0.419473 0.911567 0.501299
O O5 0.444310 0.892985 0.797160
O O6 0.349294 0.849093 0.947563
O O7 0.104505 0.203545 0.987809
O O8 0.727623 0.300132 0.998440
O O9 0.661863 0.030077 0.764699
O O10 0.301328 0.401389 0.898578
O O11 0.715132 0.377488 0.808092
O O12 0.200684 0.307540 0.338548
O O13 0.530078 0.363686 0.505028
O O14 0.257023 0.465828 0.266649
#
# Coordination Sequence:
#
# PCOD9017590 Si02
#       7
#     2   2   2   2   2   2   2
#     4  10  23  41  69  96 132 168 227 266 336 381
#     4  11  21  45  70  98 126 185 222 262 322 412
#     4  11  25  42  67 101 134 172 224 268 330 393
#     4  11  22  41  69  94 132 176 222 266 315 407
#     4  10  22  39  69  95 137 166 226 275 324 385
#     4  11  23  43  61 105 135 168 212 287 334 381
#     4  10  21  43  65 101 123 182 226 263 318 411
#
# _framework density 26.901295999999999
#
# number of rings (size 3 to 8) (size 9 to 14) (size 15 to 20)
#    0.000    1.429    2.857    2.143    2.000    3.429 
#    2.571    1.429    0.000    0.000    0.000    0.000 
#    0.000    0.000    0.000    0.000    0.000    0.000 
#
# Total GULP energy -78424.801312 kJ/mol
# GULP energy per Si atom -5601.771522 kJ/mol
# Density = 2.684007 g / cm^3
# Si number density = 26.901296 Si / 1000 Ang^3
#
#
#
# Elastic Constant Matrix: (Units=GPa)
#
#
# Indices 1 2 3 4 5 6 
#
# 1 90.1785 19.6940 29.7723 0.6339 -9.2899 17.7994
# 2 19.6940 134.5823 12.2804 16.2075 1.9242 35.4113
# 3 29.7723 12.2804 78.1880 -5.6578 -11.7764 0.5155
# 4 0.6339 16.2075 -5.6578 35.1650 -0.5396 -2.8495
# 5 -9.2899 1.9242 -11.7764 -0.5396 45.0620 -19.7828
# 6 17.7994 35.4113 0.5155 -2.8495 -19.7828 50.4813
#
#
#
# Elastic Compliance Matrix: (Units=1/GPa)
#
#
# Indices 1 2 3 4 5 6 
#
# 1 0.013863 0.000100 -0.005523 -0.001635 -0.000968 -0.005374
# 2 0.000100 0.011456 -0.003179 -0.006765 -0.006132 -0.010824
# 3 -0.005523 -0.003179 0.016664 0.004894 0.006391 0.006788
# 4 -0.001635 -0.006765 0.004894 0.033222 0.005757 0.009403
# 5 -0.000968 -0.006132 0.006391 0.005757 0.031578 0.017278
# 6 -0.005374 -0.010824 0.006788 0.009403 0.017278 0.036529
#
#
# Mechanical properties :
#
#
# Convention : Reuss Voigt Hill
#
# Bulk Modulus (GPa) = 40.35746 47.38246 43.86996
# Shear Modulus (GPa) = 29.62484 42.22179 35.92332
#
# Velocity S-wave (km/s) = 3.32210 3.96600 3.65824
# Velocity P-wave (km/s) = 5.45433 6.21481 5.84695
#
# Compressibility (1/GPa) = 0.02477857
#
# Stress axis : x y z
#
# Youngs Moduli (GPa) = 72.13376 87.28894 60.00929
#
# Poissons Ratio (x) = -0.00872 0.33144
# Poissons Ratio (y) = -0.00721 0.19078
# Poissons Ratio (z) = 0.39841 0.27751
#
# Static dielectric constant tensor:
#      x y z
#    x 2.072000 -0.008440 0.027270 
#    y -0.008440 2.155870 -0.015090 
#    z 0.027270 -0.015090 2.153950 
# 
# From -- ./inp_files/329201.got.cif
#   From: 2010.05.17/outbox.cif.g08.bks.cpg/sg2_165_cif.got.tgz:329201.got - 2010.06.03 11:33:40.
