data_PCOD9017981
_publ_section_title
;
Structure prediction by ZEFSAII (Michael W. Deem and Ramdas Pophale) SiO2 
 PCOD9017981
Probable space group: P -1
;
_chemical_formula_sum "Si O2"
_cell_formula_units_Z 16
_cell_length_a 6.684555
_cell_length_b 12.042030
_cell_length_c 11.551510
_cell_angle_alpha 75.900781
_cell_angle_beta 57.572499
_cell_angle_gamma 66.938939
_cell_volume 721.461863
_symmetry_space_group_name_H-M "P -1"
_symmetry_group_IT_number 2
_symmetry_cell_setting 'triclinic'
loop_
_space_group_symop_operation_xyz
x,y,z
-x,-y,-z
loop_
_atom_site_type_symbol
_atom_site_label
_atom_site_fract_x
_atom_site_fract_y
_atom_site_fract_z
Si Si1 0.908574 0.867120 0.722466
Si Si2 0.282401 0.649267 0.801848
Si Si3 0.282690 0.479942 0.650974
Si Si4 0.892521 0.718522 0.323899
Si Si5 0.389062 0.880708 0.933852
Si Si6 0.333138 0.636106 0.036545
Si Si7 0.829915 0.681489 0.620143
Si Si8 0.089114 0.021761 0.777518
O O1 0.097324 0.752943 0.757260
O O2 0.638657 0.915262 0.855070
O O3 0.852307 0.805658 0.637692
O O4 0.038851 0.968729 0.682998
O O5 0.305630 0.524119 0.762257
O O6 0.555752 0.666273 0.715131
O O7 0.172215 0.661911 0.961688
O O8 0.500000 0.500000 0.500000
O O9 0.286341 0.343306 0.670581
O O10 0.024112 0.568733 0.654708
O O11 0.898451 0.682356 0.464473
O O12 0.820314 0.862170 0.295355
O O13 0.160999 0.660436 0.195182
O O14 0.270614 0.923731 0.832624
O O15 0.472551 0.736120 0.963460
O O16 0.169100 0.934097 0.080233
O O17 0.500000 0.500000 0.000000
#
# Coordination Sequence:
#
# PCOD9017981 Si02
#       8
#     2   2   2   2   2   2   2   2
#     4  11  21  41  72  95 124 186 226 255 333 405
#     4  11  23  43  69  95 132 180 220 268 340 400
#     4  11  24  42  71  94 129 182 223 266 342 400
#     4  11  25  43  64 104 136 172 220 282 328 392
#     4  10  21  43  67  96 137 183 213 272 336 396
#     4  11  23  41  68 100 137 169 218 281 333 380
#     4  11  23  43  69  94 137 176 219 274 336 397
#     4  10  22  43  66  97 141 173 222 272 332 395
#
# _framework density 22.177194
#
# number of rings (size 3 to 8) (size 9 to 14) (size 15 to 20)
#    0.000    1.250    3.750    1.500    3.500    1.000 
#    2.250    2.500    0.000    0.000    0.000    0.000 
#    0.000    0.000    0.000    0.000    0.000    0.000 
#
# Total GULP energy -89343.457173 kJ/mol
# GULP energy per Si atom -5583.966073 kJ/mol
# Density = 2.212672 g / cm^3
# Si number density = 22.177194 Si / 1000 Ang^3
#
#
#
# Elastic Constant Matrix: (Units=GPa)
#
#
# Indices 1 2 3 4 5 6 
#
# 1 93.9878 35.2040 24.3566 4.9388 -9.7047 17.5590
# 2 35.2040 129.2348 10.2125 -9.9310 -3.2863 31.2312
# 3 24.3566 10.2125 74.4700 5.4092 9.1985 8.8320
# 4 4.9388 -9.9310 5.4092 25.7748 9.6687 -2.6450
# 5 -9.7047 -3.2863 9.1985 9.6687 27.8638 11.0649
# 6 17.5590 31.2312 8.8320 -2.6450 11.0649 47.1375
#
#
#
# Elastic Compliance Matrix: (Units=1/GPa)
#
#
# Indices 1 2 3 4 5 6 
#
# 1 0.015869 -0.002666 -0.004965 -0.008338 0.012359 -0.006584
# 2 -0.002666 0.010204 -0.000260 0.003308 0.001555 -0.005898
# 3 -0.004965 -0.000260 0.015884 0.000404 -0.007470 0.000822
# 4 -0.008338 0.003308 0.000404 0.051683 -0.024334 0.009450
# 5 0.012359 0.001555 -0.007470 -0.024334 0.059011 -0.019452
# 6 -0.006584 -0.005898 0.000822 0.009450 -0.019452 0.032517
#
#
# Mechanical properties :
#
#
# Convention : Reuss Voigt Hill
#
# Bulk Modulus (GPa) = 38.20499 48.58208 43.39353
# Shear Modulus (GPa) = 23.84644 35.34984 29.59814
#
# Velocity S-wave (km/s) = 3.28269 3.99679 3.65721
# Velocity P-wave (km/s) = 5.62429 6.57670 6.11905
#
# Compressibility (1/GPa) = 0.02617459
#
# Stress axis : x y z
#
# Youngs Moduli (GPa) = 63.01542 98.00332 62.95795
#
# Poissons Ratio (x) = 0.26126 0.31258
# Poissons Ratio (y) = 0.16799 0.01639
# Poissons Ratio (z) = 0.31286 0.02551
#
# Static dielectric constant tensor:
#      x y z
#    x 1.810750 0.038450 0.017110 
#    y 0.038450 1.874900 0.018410 
#    z 0.017110 0.018410 1.813670 
# 
# From -- ./inp_files/364215.got.cif
#   From: 2010.05.17/outbox.cif.g08.bks.cpg/sg2_183_cif.got.tgz:364215.got - 2010.06.03 11:33:40.
