data_PCOD9017176
_publ_section_title
;
Structure prediction by ZEFSAII (Michael W. Deem and Ramdas Pophale) SiO2 
 PCOD9017176
Probable space group: P -1
;
_chemical_formula_sum "Si O2"
_cell_formula_units_Z 8
_cell_length_a 13.939428
_cell_length_b 7.630780
_cell_length_c 5.868379
_cell_angle_alpha 137.412913
_cell_angle_beta 55.472681
_cell_angle_gamma 132.254319
_cell_volume 309.431968
_symmetry_space_group_name_H-M "P -1"
_symmetry_group_IT_number 2
_symmetry_cell_setting 'triclinic'
loop_
_space_group_symop_operation_xyz
x,y,z
-x,-y,-z
loop_
_atom_site_type_symbol
_atom_site_label
_atom_site_fract_x
_atom_site_fract_y
_atom_site_fract_z
Si Si1 0.644050 0.886716 0.769126
Si Si2 0.601737 0.575164 0.132045
Si Si3 0.888886 0.674901 0.794547
Si Si4 0.813990 0.525596 0.260626
O O1 0.641600 0.883583 0.495297
O O2 0.489872 0.694338 0.842559
O O3 0.736269 0.724336 0.536917
O O4 0.707597 0.189185 0.099388
O O5 0.500000 0.500000 0.000000
O O6 0.737950 0.600081 0.902436
O O7 0.905636 0.605061 0.438184
O O8 0.880365 0.542646 0.936937
O O9 0.000000 0.000000 0.000000
#
# Coordination Sequence:
#
# PCOD9017176 Si02
#       4
#     2   2   2   2
#     4  10  24  43  70 107 133 182 232 290 342 402
#     4  10  21  42  71  99 141 177 233 285 343 407
#     4  11  25  46  70 103 141 185 228 283 347 414
#     4  11  25  46  73 101 140 181 233 285 342 411
#
# _framework density 25.853822999999998
#
# number of rings (size 3 to 8) (size 9 to 14) (size 15 to 20)
#    0.000    1.500    2.500    0.750    3.500   10.000 
#    0.000   17.500    0.000    0.000    0.000    0.000 
#    0.000    0.000    0.000    0.000    0.000    0.000 
#
# Total GULP energy -44535.364202 kJ/mol
# GULP energy per Si atom -5566.920525 kJ/mol
# Density = 2.579498 g / cm^3
# Si number density = 25.853823 Si / 1000 Ang^3
#
#
#
# Elastic Constant Matrix: (Units=GPa)
#
#
# Indices 1 2 3 4 5 6 
#
# 1 146.3366 56.8436 125.4968 -24.0304 3.2224 50.0865
# 2 56.8436 93.3106 19.2350 26.2004 20.5144 20.7134
# 3 125.4968 19.2350 97.2787 50.0632 67.7550 -16.2219
# 4 -24.0304 26.2004 50.0632 40.1170 -13.8866 32.2135
# 5 3.2224 20.5144 67.7550 -13.8866 66.2773 4.5169
# 6 50.0865 20.7134 -16.2219 32.2135 4.5169 19.5886
#
#
#
# Elastic Compliance Matrix: (Units=1/GPa)
#
#
# Indices 1 2 3 4 5 6 
#
# 1 0.002997 -0.001095 0.002210 -0.005184 -0.003469 0.004651
# 2 -0.001095 0.015122 -0.000964 -0.000912 -0.003030 -0.011790
# 3 0.002210 -0.000964 0.003589 0.006089 -0.001429 -0.011344
# 4 -0.005184 -0.000912 0.006089 0.008960 -0.004187 0.005492
# 5 -0.003469 -0.003030 -0.001429 -0.004187 0.015816 0.014130
# 6 0.004651 -0.011790 -0.011344 0.005492 0.014130 0.029941
#
#
# Mechanical properties :
#
#
# Convention : Reuss Voigt Hill
#
# Bulk Modulus (GPa) = 45.43252 82.23075 63.83164
# Shear Modulus (GPa) = 59.91030 34.21997 47.06513
#
# Velocity S-wave (km/s) = 4.81903 3.64207 4.27128
# Velocity P-wave (km/s) = 6.96958 7.03998 7.00487
#
# Compressibility (1/GPa) = 0.02201066
#
# Stress axis : x y z
#
# Youngs Moduli (GPa) = 333.70181 66.12874 278.62250
#
# Poissons Ratio (x) = 0.07244 -0.61587
# Poissons Ratio (y) = 0.36553 0.26847
# Poissons Ratio (z) = -0.73762 0.06372
#
# Static dielectric constant tensor:
#      x y z
#    x 2.633810 -0.962090 0.510910 
#    y -0.962090 3.312290 -0.877040 
#    z 0.510910 -0.877040 2.683790 
# 
# From -- ./inp_files/1370.got.cif
#   From: 2010.05.17/outbox.cif.g08.bks.cpg/sg2_1_cif.got.tgz:1370.got - 2010.06.03 11:33:40.
