data_PCOD9017041
_publ_section_title
;
Structure prediction by ZEFSAII (Michael W. Deem and Ramdas Pophale) SiO2 
 PCOD9017041
Probable space group: P -1
;
_chemical_formula_sum "Si O2"
_cell_formula_units_Z 16
_cell_length_a 14.472201
_cell_length_b 7.706723
_cell_length_c 13.795456
_cell_angle_alpha 50.092109
_cell_angle_beta 146.173184
_cell_angle_gamma 119.138797
_cell_volume 653.206685
_symmetry_space_group_name_H-M "P -1"
_symmetry_group_IT_number 2
_symmetry_cell_setting 'triclinic'
loop_
_space_group_symop_operation_xyz
x,y,z
-x,-y,-z
loop_
_atom_site_type_symbol
_atom_site_label
_atom_site_fract_x
_atom_site_fract_y
_atom_site_fract_z
Si Si1 0.983259 0.391886 0.378153
Si Si2 0.674218 0.526433 0.444414
Si Si3 0.884418 0.574311 0.023461
Si Si4 0.938595 0.873654 0.277953
Si Si5 0.575514 0.096595 0.939211
Si Si6 0.168100 0.735921 0.090522
Si Si7 0.546917 0.831367 0.383260
Si Si8 0.311612 0.997673 0.368980
O O1 0.177474 0.363406 0.521280
O O2 0.958825 0.195878 0.507470
O O3 0.940340 0.631435 0.311988
O O4 0.890106 0.431943 0.178798
O O5 0.491484 0.633230 0.207410
O O6 0.635084 0.601293 0.494588
O O7 0.721070 0.261490 0.565902
O O8 0.790852 0.826969 0.854489
O O9 0.066047 0.629162 0.124817
O O10 0.812134 0.442274 0.917711
O O11 0.957193 0.054431 0.141572
O O12 0.763287 0.994403 0.122819
O O13 0.476659 0.015265 0.788157
O O14 0.500000 0.000000 0.000000
O O15 0.352092 0.810596 0.246636
O O16 0.671791 0.912274 0.540014
O O17 0.500000 0.000000 0.500000
#
# Coordination Sequence:
#
# PCOD9017041 Si02
#       8
#     2   2   2   2   2   2   2   2
#     4  11  24  42  69 102 139 184 231 291 345 423
#     4  10  23  42  71  99 140 183 235 285 354 409
#     4  11  27  41  67 102 141 178 235 283 350 416
#     4  10  21  42  70  97 139 182 230 285 359 407
#     4   9  18  41  72  95 132 179 234 286 348 411
#     4  10  23  44  68  98 135 185 228 284 351 413
#     4   9  23  43  70  95 141 181 227 290 344 407
#     4  12  27  42  65 104 140 183 242 283 347 429
#
# _framework density 24.494544000000001
#
# number of rings (size 3 to 8) (size 9 to 14) (size 15 to 20)
#    0.750    1.000    1.250    1.500    8.750    2.500 
#    0.000    0.625   11.000    0.000    0.000    0.000 
#    0.000    0.000    0.000    0.000    0.000    0.000 
#
# Total GULP energy -89155.028232 kJ/mol
# GULP energy per Si atom -5572.189264 kJ/mol
# Density = 2.443879 g / cm^3
# Si number density = 24.494544 Si / 1000 Ang^3
#
#
#
# Elastic Constant Matrix: (Units=GPa)
#
#
# Indices 1 2 3 4 5 6 
#
# 1 72.3554 20.6038 33.6645 9.6868 -3.2433 -12.5043
# 2 20.6038 73.6121 30.5743 3.4366 1.7602 -22.1551
# 3 33.6645 30.5743 135.4667 -5.5190 7.6459 -19.9736
# 4 9.6868 3.4366 -5.5190 35.4278 -2.0911 8.0596
# 5 -3.2433 1.7602 7.6459 -2.0911 60.9074 6.3581
# 6 -12.5043 -22.1551 -19.9736 8.0596 6.3581 27.7538
#
#
#
# Elastic Compliance Matrix: (Units=1/GPa)
#
#
# Indices 1 2 3 4 5 6 
#
# 1 0.017837 -0.001358 -0.003509 -0.006680 0.000549 0.006241
# 2 -0.001358 0.019908 -0.001885 -0.005648 -0.002284 0.016087
# 3 -0.003509 -0.001885 0.009360 0.001703 -0.001617 0.003526
# 4 -0.006680 -0.005648 0.001703 0.034888 0.002567 -0.017012
# 5 0.000549 -0.002284 -0.001617 0.002567 0.017589 -0.007515
# 6 0.006241 0.016087 0.003526 -0.017012 -0.007515 0.060884
#
#
# Mechanical properties :
#
#
# Convention : Reuss Voigt Hill
#
# Bulk Modulus (GPa) = 29.76124 50.12438 39.94281
# Shear Modulus (GPa) = 27.00216 37.92390 32.46303
#
# Velocity S-wave (km/s) = 3.32380 3.93906 3.64444
# Velocity P-wave (km/s) = 5.18717 6.41843 5.83536
#
# Compressibility (1/GPa) = 0.03360076
#
# Stress axis : x y z
#
# Youngs Moduli (GPa) = 56.06173 50.23196 106.83847
#
# Poissons Ratio (x) = 0.06822 0.37491
# Poissons Ratio (y) = 0.07614 0.20138
# Poissons Ratio (z) = 0.19673 0.09468
#
# Static dielectric constant tensor:
#      x y z
#    x 1.962670 0.050850 -0.136900 
#    y 0.050850 1.902060 0.047710 
#    z -0.136900 0.047710 2.136990 
# 
# From -- ./inp_files/528126.got.cif
#   From: 2010.05.17/outbox.cif.g08.bks.cpg/sg2_265_cif.got.tgz:528126.got - 2010.06.03 11:33:40.
