data_PCOD9017080
_publ_section_title
;
Structure prediction by ZEFSAII (Michael W. Deem and Ramdas Pophale) SiO2 
 PCOD9017080
Probable space group: P -1
;
_chemical_formula_sum "Si O2"
_cell_formula_units_Z 16
_cell_length_a 14.400498
_cell_length_b 9.139588
_cell_length_c 5.515767
_cell_angle_alpha 90.010732
_cell_angle_beta 83.484051
_cell_angle_gamma 69.237276
_cell_volume 673.786075
_symmetry_space_group_name_H-M "P -1"
_symmetry_group_IT_number 2
_symmetry_cell_setting 'triclinic'
loop_
_space_group_symop_operation_xyz
x,y,z
-x,-y,-z
loop_
_atom_site_type_symbol
_atom_site_label
_atom_site_fract_x
_atom_site_fract_y
_atom_site_fract_z
Si Si1 0.026380 0.112794 0.681181
Si Si2 0.200164 0.691845 0.198862
Si Si3 0.573288 0.795329 0.245863
Si Si4 0.721802 0.794472 0.836550
Si Si5 0.893120 0.625405 0.480136
Si Si6 0.750712 0.494959 0.313206
Si Si7 0.373611 0.940131 0.524762
Si Si8 0.213871 0.960296 0.925701
O O1 0.090620 0.210961 0.552908
O O2 0.920934 0.243233 0.787142
O O3 0.101321 0.006661 0.860497
O O4 0.000000 0.000000 0.500000
O O5 0.231481 0.615269 0.454023
O O6 0.245655 0.591202 0.943823
O O7 0.227287 0.847711 0.150695
O O8 0.649802 0.647759 0.367638
O O9 0.460642 0.815117 0.343403
O O10 0.576845 0.967733 0.306605
O O11 0.625113 0.764919 0.967018
O O12 0.812563 0.646684 0.716854
O O13 0.686696 0.918435 0.631854
O O14 0.767441 0.881217 0.017164
O O15 0.840984 0.563512 0.282075
O O16 0.000000 0.500000 0.500000
O O17 0.298397 0.882286 0.699008
#
# Coordination Sequence:
#
# PCOD9017080 Si02
#       8
#     2   2   2   2   2   2   2   2
#     4  12  25  46  72 104 142 194 243 293 354 432
#     4  12  28  45  71  99 147 198 235 292 357 434
#     4  10  22  41  69 103 136 177 235 298 371 423
#     4  11  21  42  71 104 139 183 233 303 358 426
#     4  12  24  41  71 105 147 185 233 293 359 431
#     4  12  26  47  67 106 145 190 235 295 365 434
#     4  10  21  42  71 101 132 177 240 304 358 419
#     4  11  25  43  69 100 136 188 245 295 348 429
#
# _framework density 23.746410999999998
#
# number of rings (size 3 to 8) (size 9 to 14) (size 15 to 20)
#    0.000    0.750    3.750    3.750    3.500    0.500 
#    0.000    1.250    0.000    0.000    0.000    0.000 
#    0.000    0.000    0.000    0.000    0.000    0.000 
#
# Total GULP energy -89426.662672 kJ/mol
# GULP energy per Si atom -5589.166417 kJ/mol
# Density = 2.369236 g / cm^3
# Si number density = 23.746411 Si / 1000 Ang^3
#
#
#
# Elastic Constant Matrix: (Units=GPa)
#
#
# Indices 1 2 3 4 5 6 
#
# 1 69.9849 22.9197 18.6407 -1.1043 -26.9921 -33.4213
# 2 22.9197 98.4481 35.4673 -12.7659 -9.0628 -10.3635
# 3 18.6407 35.4673 98.0498 -16.5642 -22.8018 -8.6080
# 4 -1.1043 -12.7659 -16.5642 56.8369 4.5089 -6.4217
# 5 -26.9921 -9.0628 -22.8018 4.5089 45.1623 18.1565
# 6 -33.4213 -10.3635 -8.6080 -6.4217 18.1565 42.6755
#
#
#
# Elastic Compliance Matrix: (Units=1/GPa)
#
#
# Indices 1 2 3 4 5 6 
#
# 1 0.026629 -0.003484 -0.000263 0.000864 0.008351 0.016533
# 2 -0.003484 0.012517 -0.003970 0.001819 -0.002014 0.000641
# 3 -0.000263 -0.003970 0.013402 0.002487 0.005787 -0.000555
# 4 0.000864 0.001819 0.002487 0.019512 -0.001982 0.005399
# 5 0.008351 -0.002014 0.005787 -0.001982 0.032652 -0.006972
# 6 0.016533 0.000641 -0.000555 0.005399 -0.006972 0.040203
#
#
# Mechanical properties :
#
#
# Convention : Reuss Voigt Hill
#
# Bulk Modulus (GPa) = 26.94352 46.72646 36.83499
# Shear Modulus (GPa) = 28.94845 41.56529 35.25687
#
# Velocity S-wave (km/s) = 3.49530 4.18830 3.85739
# Velocity P-wave (km/s) = 5.25932 6.56575 5.94851
#
# Compressibility (1/GPa) = 0.03711467
#
# Stress axis : x y z
#
# Youngs Moduli (GPa) = 37.55248 79.89172 74.61319
#
# Poissons Ratio (x) = 0.27831 0.01964
# Poissons Ratio (y) = 0.13082 0.29623
# Poissons Ratio (z) = 0.00988 0.31719
#
# Static dielectric constant tensor:
#      x y z
#    x 1.895690 0.022450 0.005580 
#    y 0.022450 1.936190 0.022420 
#    z 0.005580 0.022420 2.010350 
# 
# From -- ./inp_files/90385.got.cif
#   From: 2010.05.17/outbox.cif.g08.bks.cpg/sg2_46_cif.got.tgz:90385.got - 2010.06.03 11:33:40.
