data_PCOD9017768
_publ_section_title
;
Structure prediction by ZEFSAII (Michael W. Deem and Ramdas Pophale) SiO2 
 PCOD9017768
Probable space group: P -1
;
_chemical_formula_sum "Si O2"
_cell_formula_units_Z 14
_cell_length_a 9.040829
_cell_length_b 21.029047
_cell_length_c 9.440162
_cell_angle_alpha 44.569703
_cell_angle_beta 146.933004
_cell_angle_gamma 120.891583
_cell_volume 670.641615
_symmetry_space_group_name_H-M "P -1"
_symmetry_group_IT_number 2
_symmetry_cell_setting 'triclinic'
loop_
_space_group_symop_operation_xyz
x,y,z
-x,-y,-z
loop_
_atom_site_type_symbol
_atom_site_label
_atom_site_fract_x
_atom_site_fract_y
_atom_site_fract_z
Si Si1 0.520776 0.864734 0.569250
Si Si2 0.301978 0.328592 0.836217
Si Si3 0.444875 0.221913 0.859847
Si Si4 0.330324 0.600954 0.745384
Si Si5 0.958274 0.112096 0.628958
Si Si6 0.960608 0.955714 0.690348
Si Si7 0.622745 0.229579 0.675481
O O1 0.227286 0.890262 0.376226
O O2 0.663649 0.951498 0.526610
O O3 0.510860 0.820647 0.476473
O O4 0.690907 0.777137 0.936688
O O5 0.381616 0.313774 0.759704
O O6 0.996079 0.391431 0.505949
O O7 0.525792 0.363812 0.057171
O O8 0.471701 0.240426 0.686595
O O9 0.194220 0.168457 0.757334
O O10 0.732582 0.162097 0.250693
O O11 0.346435 0.673571 0.517588
O O12 0.500000 0.500000 0.000000
O O13 0.090298 0.014173 0.816772
O O14 0.000000 0.000000 0.500000
O O15 0.096679 0.847445 0.955160
#
# Coordination Sequence:
#
# PCOD9017768 Si02
#       7
#     2   2   2   2   2   2   2
#     4  10  23  40  61  91 126 175 220 262 315 371
#     4  10  21  43  66  93 128 163 208 264 314 382
#     4  11  23  42  63  94 130 173 209 259 322 370
#     4  11  23  44  71  98 122 162 212 262 320 386
#     4  11  25  39  63  90 131 176 221 261 303 378
#     4  12  23  39  60  93 133 171 222 265 313 366
#     4  11  24  40  65  90 133 168 213 268 321 375
#
# _framework density 20.875530999999999
#
# number of rings (size 3 to 8) (size 9 to 14) (size 15 to 20)
#    0.000    1.143    2.857    4.286    4.000    1.714 
#    0.000    1.429    0.000    0.000    0.000    0.000 
#    0.000    0.000    0.000    0.000    0.000    0.000 
#
# Total GULP energy -78203.408152 kJ/mol
# GULP energy per Si atom -5585.957725 kJ/mol
# Density = 2.082802 g / cm^3
# Si number density = 20.875531 Si / 1000 Ang^3
#
#
#
# Elastic Constant Matrix: (Units=GPa)
#
#
# Indices 1 2 3 4 5 6 
#
# 1 117.2856 29.5119 38.2515 6.9853 -15.5165 -34.7759
# 2 29.5119 64.2332 23.1532 -7.5804 -9.5514 -9.3046
# 3 38.2515 23.1532 92.4058 -2.6171 2.5562 -3.3340
# 4 6.9853 -7.5804 -2.6171 40.8266 -7.3751 4.8067
# 5 -15.5165 -9.5514 2.5562 -7.3751 32.7504 9.9785
# 6 -34.7759 -9.3046 -3.3340 4.8067 9.9785 25.3641
#
#
#
# Elastic Compliance Matrix: (Units=1/GPa)
#
#
# Indices 1 2 3 4 5 6 
#
# 1 0.020009 -0.004065 -0.006478 -0.008013 -0.001263 0.027107
# 2 -0.004065 0.019896 -0.003390 0.005514 0.006035 -0.002140
# 3 -0.006478 -0.003390 0.014196 0.001855 -0.002414 -0.007662
# 4 -0.008013 0.005514 0.001855 0.031079 0.010359 -0.018685
# 5 -0.001263 0.006035 -0.002414 0.010359 0.039499 -0.017338
# 6 0.027107 -0.002140 -0.007662 -0.018685 -0.017338 0.085162
#
#
# Mechanical properties :
#
#
# Convention : Reuss Voigt Hill
#
# Bulk Modulus (GPa) = 38.11851 50.63976 44.37913
# Shear Modulus (GPa) = 20.28781 31.98874 26.13827
#
# Velocity S-wave (km/s) = 3.12083 3.91878 3.54234
# Velocity P-wave (km/s) = 5.59336 6.69226 6.16733
#
# Compressibility (1/GPa) = 0.02623397
#
# Stress axis : x y z
#
# Youngs Moduli (GPa) = 49.97638 50.26056 70.44262
#
# Poissons Ratio (x) = 0.20431 0.45635
# Poissons Ratio (y) = 0.20316 0.23883
# Poissons Ratio (z) = 0.32377 0.17041
#
# Static dielectric constant tensor:
#      x y z
#    x 1.770980 -0.004110 0.033750 
#    y -0.004110 1.728410 -0.006900 
#    z 0.033750 -0.006900 1.838760 
# 
# From -- ./inp_files/34992.got.cif
#   From: 2010.05.17/outbox.cif.g08.bks.cpg/sg2_18_cif.got.tgz:34992.got - 2010.06.03 11:33:40.
