data_PCOD9017320
_publ_section_title
;
Structure prediction by ZEFSAII (Michael W. Deem and Ramdas Pophale) SiO2 
 PCOD9017320
Probable space group: P -1
;
_chemical_formula_sum "Si O2"
_cell_formula_units_Z 14
_cell_length_a 11.121481
_cell_length_b 17.235632
_cell_length_c 13.434099
_cell_angle_alpha 149.593572
_cell_angle_beta 144.469814
_cell_angle_gamma 26.243916
_cell_volume 566.933539
_symmetry_space_group_name_H-M "P -1"
_symmetry_group_IT_number 2
_symmetry_cell_setting 'triclinic'
loop_
_space_group_symop_operation_xyz
x,y,z
-x,-y,-z
loop_
_atom_site_type_symbol
_atom_site_label
_atom_site_fract_x
_atom_site_fract_y
_atom_site_fract_z
Si Si1 0.839304 0.715794 0.433642
Si Si2 0.029714 0.423453 0.085933
Si Si3 0.689130 0.476855 0.737991
Si Si4 0.468417 0.310267 0.472166
Si Si5 0.386157 0.432314 0.768144
Si Si6 0.829965 0.821435 0.893266
Si Si7 0.095740 0.897258 0.842417
O O1 0.630454 0.732615 0.384288
O O2 0.796554 0.649065 0.226877
O O3 0.149841 0.507676 0.445816
O O4 0.872946 0.879996 0.637739
O O5 0.256021 0.439932 0.226171
O O6 0.100180 0.263950 0.041169
O O7 0.928191 0.394359 0.886096
O O8 0.663060 0.306205 0.522651
O O9 0.396425 0.672235 0.802250
O O10 0.523422 0.352722 0.665483
O O11 0.452598 0.133402 0.268148
O O12 0.065616 0.641756 0.777152
O O13 0.500000 0.500000 0.000000
O O14 0.854298 0.987688 0.072355
O O15 0.000000 0.000000 0.000000
#
# Coordination Sequence:
#
# PCOD9017320 Si02
#       7
#     2   2   2   2   2   2   2
#     4   9  19  33  54  77 106 141 182 222 262 325
#     4   9  20  39  58  81 102 144 193 223 264 315
#     4  10  20  37  60  78 109 142 182 231 268 321
#     4   9  16  30  52  75 101 142 182 219 260 317
#     4  10  17  30  52  77 105 141 184 221 261 320
#     4  10  20  33  53  79 109 139 182 225 266 323
#     4  11  22  36  54  83 116 144 172 222 283 324
#
# _framework density 24.694254999999998
#
# number of rings (size 3 to 8) (size 9 to 14) (size 15 to 20)
#    0.000    2.571    0.000    6.000    0.000    5.714 
#    0.000    5.714    0.000    3.429    0.000    0.000 
#    0.000    0.000    0.000    0.000    0.000    0.000 
#
# Total GULP energy -78066.107573 kJ/mol
# GULP energy per Si atom -5576.150541 kJ/mol
# Density = 2.463805 g / cm^3
# Si number density = 24.694255 Si / 1000 Ang^3
#
#
#
# Elastic Constant Matrix: (Units=GPa)
#
#
# Indices 1 2 3 4 5 6 
#
# 1 127.9738 20.8506 50.7454 9.0329 38.2075 31.5069
# 2 20.8506 24.3961 19.5306 6.6660 5.7653 12.8620
# 3 50.7454 19.5306 153.8865 3.2292 46.0455 47.7777
# 4 9.0329 6.6660 3.2292 26.2269 15.5862 1.9052
# 5 38.2075 5.7653 46.0455 15.5862 63.2333 9.8360
# 6 31.5069 12.8620 47.7777 1.9052 9.8360 30.7944
#
#
#
# Elastic Compliance Matrix: (Units=1/GPa)
#
#
# Indices 1 2 3 4 5 6 
#
# 1 0.012950 -0.005143 0.002682 0.002101 -0.007821 -0.012894
# 2 -0.005143 0.058723 -0.001554 -0.014820 0.005279 -0.017624
# 3 0.002682 -0.001554 0.016809 0.005930 -0.011302 -0.024931
# 4 0.002101 -0.014820 0.005930 0.050260 -0.016140 -0.003114
# 5 -0.007821 0.005279 -0.011302 -0.016140 0.029972 0.014758
# 6 -0.012894 -0.017624 -0.024931 -0.003114 0.014758 0.087186
#
#
# Mechanical properties :
#
#
# Convention : Reuss Voigt Hill
#
# Bulk Modulus (GPa) = 12.42980 54.27885 33.35433
# Shear Modulus (GPa) = 17.19718 38.39290 27.79504
#
# Velocity S-wave (km/s) = 2.64181 3.94728 3.35859
# Velocity P-wave (km/s) = 3.78813 6.54239 5.34569
#
# Compressibility (1/GPa) = 0.08045182
#
# Stress axis : x y z
#
# Youngs Moduli (GPa) = 77.22174 17.02916 59.49224
#
# Poissons Ratio (x) = 0.08757 -0.15954
# Poissons Ratio (y) = 0.39712 0.09245
# Poissons Ratio (z) = -0.20708 0.02646
#
# Static dielectric constant tensor:
#      x y z
#    x 1.988820 0.011940 0.028540 
#    y 0.011940 2.049420 0.047860 
#    z 0.028540 0.047860 2.087680 
# 
# From -- ./inp_files/208354.got.cif
#   From: 2010.05.17/outbox.cif.g08.bks.cpg/sg2_105_cif.got.tgz:208354.got - 2010.06.03 11:33:40.
