data_PCOD9017125
_publ_section_title
;
Structure prediction by ZEFSAII (Michael W. Deem and Ramdas Pophale) SiO2 
 PCOD9017125
Probable space group: P -1
;
_chemical_formula_sum "Si O2"
_cell_formula_units_Z 16
_cell_length_a 11.560684
_cell_length_b 15.445822
_cell_length_c 9.252499
_cell_angle_alpha 122.177898
_cell_angle_beta 50.224172
_cell_angle_gamma 147.798157
_cell_volume 676.512025
_symmetry_space_group_name_H-M "P -1"
_symmetry_group_IT_number 2
_symmetry_cell_setting 'triclinic'
loop_
_space_group_symop_operation_xyz
x,y,z
-x,-y,-z
loop_
_atom_site_type_symbol
_atom_site_label
_atom_site_fract_x
_atom_site_fract_y
_atom_site_fract_z
Si Si1 0.360029 0.415790 0.183757
Si Si2 0.411221 0.826139 0.234973
Si Si3 0.648766 0.393429 0.455484
Si Si4 0.786521 0.505863 0.967716
Si Si5 0.151136 0.675026 0.597305
Si Si6 0.960503 0.300781 0.788605
Si Si7 0.885304 0.843287 0.368200
Si Si8 0.026777 0.903174 0.962553
O O1 0.329448 0.512051 0.351823
O O2 0.118935 0.234010 0.168301
O O3 0.500000 0.500000 0.000000
O O4 0.557733 0.454538 0.149376
O O5 0.328840 0.664396 0.130158
O O6 0.290825 0.795017 0.456262
O O7 0.297414 0.827078 0.192775
O O8 0.695983 0.982342 0.150550
O O9 0.667350 0.288636 0.407842
O O10 0.394303 0.284576 0.495770
O O11 0.865701 0.543845 0.317335
O O12 0.957300 0.632092 0.811033
O O13 0.982171 0.611568 0.030969
O O14 0.000000 0.500000 0.500000
O O15 0.032176 0.220626 0.684920
O O16 0.000000 0.000000 0.500000
O O17 0.932201 0.858429 0.167700
O O18 0.000000 0.000000 0.000000
#
# Coordination Sequence:
#
# PCOD9017125 Si02
#       8
#     2   2   2   2   2   2   2   2
#     4  12  23  43  75 105 141 185 250 297 346 425
#     4  11  24  43  74 110 148 186 239 300 372 425
#     4  12  24  45  77 106 140 191 251 296 350 434
#     4  11  22  42  74 108 145 187 241 299 351 432
#     4  10  21  42  71 110 140 181 240 300 356 415
#     4  12  26  46  73 109 142 197 243 289 364 445
#     4  12  30  48  68 107 151 191 237 301 373 427
#     4  12  26  46  75 104 144 192 239 301 364 422
#
# _framework density 23.650725999999999
#
# number of rings (size 3 to 8) (size 9 to 14) (size 15 to 20)
#    0.000    0.500    6.250    3.000    3.500    0.500 
#    0.000    3.125    0.000    0.000    0.000    0.000 
#    0.000    0.000    0.000    0.000    0.000    0.000 
#
# Total GULP energy -89375.115672 kJ/mol
# GULP energy per Si atom -5585.944730 kJ/mol
# Density = 2.359690 g / cm^3
# Si number density = 23.650726 Si / 1000 Ang^3
#
#
#
# Elastic Constant Matrix: (Units=GPa)
#
#
# Indices 1 2 3 4 5 6 
#
# 1 142.0604 30.8982 7.6381 -6.7954 -19.0011 29.7770
# 2 30.8982 116.1491 10.6181 -0.1208 -16.5618 35.2534
# 3 7.6381 10.6181 81.2920 -0.4756 -1.7128 20.8457
# 4 -6.7954 -0.1208 -0.4756 31.7193 4.0166 -13.4016
# 5 -19.0011 -16.5618 -1.7128 4.0166 38.5145 -4.1682
# 6 29.7770 35.2534 20.8457 -13.4016 -4.1682 41.4203
#
#
#
# Elastic Compliance Matrix: (Units=1/GPa)
#
#
# Indices 1 2 3 4 5 6 
#
# 1 0.008905 0.000337 0.001087 -0.001697 0.003964 -0.007385
# 2 0.000337 0.013374 0.001927 -0.006489 0.005145 -0.014176
# 3 0.001087 0.001927 0.014816 -0.004423 0.001275 -0.011181
# 4 -0.001697 -0.006489 -0.004423 0.040942 -0.005753 0.021637
# 5 0.003964 0.005145 0.001275 -0.005753 0.030063 -0.006707
# 6 -0.007385 -0.014176 -0.011181 0.021637 -0.006707 0.053470
#
#
# Mechanical properties :
#
#
# Convention : Reuss Voigt Hill
#
# Bulk Modulus (GPa) = 22.83348 48.64561 35.73954
# Shear Modulus (GPa) = 29.50442 41.68729 35.59586
#
# Velocity S-wave (km/s) = 3.53584 4.20291 3.88372
# Velocity P-wave (km/s) = 5.13273 6.64572 5.93762
#
# Compressibility (1/GPa) = 0.04379534
#
# Stress axis : x y z
#
# Youngs Moduli (GPa) = 112.30141 74.77473 67.49677
#
# Poissons Ratio (x) = -0.02519 -0.07335
# Poissons Ratio (y) = -0.03783 -0.13008
# Poissons Ratio (z) = -0.12204 -0.14411
#
# Static dielectric constant tensor:
#      x y z
#    x 2.118540 -0.030860 0.006120 
#    y -0.030860 1.987820 -0.009820 
#    z 0.006120 -0.009820 1.924240 
# 
# From -- ./inp_files/271599.got.cif
#   From: 2010.05.17/outbox.cif.g08.bks.cpg/sg2_136_cif.got.tgz:271599.got - 2010.06.03 11:33:40.
