data_PCOD9017719
_publ_section_title
;
Structure prediction by ZEFSAII (Michael W. Deem and Ramdas Pophale) SiO2 
 PCOD9017719
Probable space group: P -1
;
_chemical_formula_sum "Si O2"
_cell_formula_units_Z 15
_cell_length_a 8.604203
_cell_length_b 17.317039
_cell_length_c 10.894281
_cell_angle_alpha 149.710007
_cell_angle_beta 73.990909
_cell_angle_gamma 85.503843
_cell_volume 596.093857
_symmetry_space_group_name_H-M "P -1"
_symmetry_group_IT_number 2
_symmetry_cell_setting 'triclinic'
loop_
_space_group_symop_operation_xyz
x,y,z
-x,-y,-z
loop_
_atom_site_type_symbol
_atom_site_label
_atom_site_fract_x
_atom_site_fract_y
_atom_site_fract_z
Si Si1 0.500000 0.500000 0.000000
Si Si2 0.775789 0.397537 0.178439
Si Si3 0.796635 0.589723 0.244153
Si Si4 0.524676 0.139665 0.521726
Si Si5 0.842405 0.330209 0.458790
Si Si6 0.679186 0.212615 0.114167
Si Si7 0.748167 0.891819 0.803954
Si Si8 0.794310 0.713063 0.979106
O O1 0.398691 0.732537 0.302963
O O2 0.306670 0.595742 0.284275
O O3 0.765052 0.438864 0.092005
O O4 0.744250 0.243003 0.012717
O O5 0.575530 0.613011 0.575968
O O6 0.995863 0.321975 0.079530
O O7 0.594176 0.765667 0.452533
O O8 0.843121 0.665749 0.454468
O O9 0.000000 0.500000 0.000000
O O10 0.351181 0.209061 0.759755
O O11 0.675795 0.898198 0.162346
O O12 0.762426 0.268884 0.284154
O O13 0.090865 0.138404 0.173355
O O14 0.828434 0.514451 0.664837
O O15 0.765185 0.992264 0.820771
O O16 0.500000 0.000000 0.000000
#
# Coordination Sequence:
#
# PCOD9017719 Si02
#       8
#     1   2   2   2   2   2   2   2
#     4  10  22  40  68 108 138 172 242 306 334 430
#     4  11  23  45  65  99 145 177 237 293 348 435
#     4  12  22  45  73  97 135 192 236 294 358 416
#     4  10  22  38  71 101 137 179 231 291 361 413
#     4  11  23  45  69 102 143 187 236 297 368 411
#     4  11  26  42  68 100 145 187 229 298 364 418
#     4  12  25  45  71 106 140 187 249 288 355 448
#     4  10  21  43  66 102 135 181 234 286 348 436
#
# _framework density 25.163822
#
# number of rings (size 3 to 8) (size 9 to 14) (size 15 to 20)
#    0.000    1.067    4.000    2.000    1.867    3.733 
#    0.000    2.000    0.000    0.000    0.000    0.000 
#    0.000    0.000    0.000    0.000    0.000    0.000 
#
# Total GULP energy -83501.092245 kJ/mol
# GULP energy per Si atom -5566.739483 kJ/mol
# Density = 2.510655 g / cm^3
# Si number density = 25.163822 Si / 1000 Ang^3
#
#
#
# Elastic Constant Matrix: (Units=GPa)
#
#
# Indices 1 2 3 4 5 6 
#
# 1 101.9451 47.6882 25.9295 12.8932 -21.3043 11.2754
# 2 47.6882 195.6029 32.0937 35.7925 -13.5811 38.3589
# 3 25.9295 32.0937 42.6841 17.0927 -10.9083 9.7491
# 4 12.8932 35.7925 17.0927 45.4942 -0.2230 1.3339
# 5 -21.3043 -13.5811 -10.9083 -0.2230 33.8278 6.3270
# 6 11.2754 38.3589 9.7491 1.3339 6.3270 50.2670
#
#
#
# Elastic Compliance Matrix: (Units=1/GPa)
#
#
# Indices 1 2 3 4 5 6 
#
# 1 0.013379 -0.001575 -0.004543 -0.000762 0.006648 -0.001734
# 2 -0.001575 0.007943 -0.000801 -0.005318 0.002986 -0.005788
# 3 -0.004543 -0.000801 0.034878 -0.010966 0.009113 -0.005990
# 4 -0.000762 -0.005318 -0.010966 0.030276 -0.007158 0.006453
# 5 0.006648 0.002986 0.009113 -0.007158 0.039775 -0.010354
# 6 -0.001734 -0.005788 -0.005990 0.006453 -0.010354 0.026993
#
#
# Mechanical properties :
#
#
# Convention : Reuss Voigt Hill
#
# Bulk Modulus (GPa) = 23.60596 61.29497 42.45047
# Shear Modulus (GPa) = 27.59335 41.55253 34.57294
#
# Velocity S-wave (km/s) = 3.31501 4.06800 3.71066
# Velocity P-wave (km/s) = 4.90445 6.81734 5.93843
#
# Compressibility (1/GPa) = 0.04236218
#
# Stress axis : x y z
#
# Youngs Moduli (GPa) = 74.74392 125.89343 28.67134
#
# Poissons Ratio (x) = 0.19832 0.13024
# Poissons Ratio (y) = 0.11774 0.02297
# Poissons Ratio (z) = 0.33953 0.10085
#
# Static dielectric constant tensor:
#      x y z
#    x 1.240870 0.121700 -0.410770 
#    y 0.121700 2.017930 -0.021630 
#    z -0.410770 -0.021630 1.886000 
# 
# From -- ./inp_files/402463.got.cif
#   From: 2010.05.17/outbox.cif.g08.bks.cpg/sg2_202_cif.got.tgz:402463.got - 2010.06.03 11:33:40.
