data_PCOD9017072
_publ_section_title
;
Structure prediction by ZEFSAII (Michael W. Deem and Ramdas Pophale) SiO2 
 PCOD9017072
Probable space group: P -1
;
_chemical_formula_sum "Si O2"
_cell_formula_units_Z 14
_cell_length_a 7.833343
_cell_length_b 6.920675
_cell_length_c 19.927170
_cell_angle_alpha 67.930829
_cell_angle_beta 36.358471
_cell_angle_gamma 83.133686
_cell_volume 559.607983
_symmetry_space_group_name_H-M "P -1"
_symmetry_group_IT_number 2
_symmetry_cell_setting 'triclinic'
loop_
_space_group_symop_operation_xyz
x,y,z
-x,-y,-z
loop_
_atom_site_type_symbol
_atom_site_label
_atom_site_fract_x
_atom_site_fract_y
_atom_site_fract_z
Si Si1 0.781752 0.905475 0.176589
Si Si2 0.639363 0.573036 0.640851
Si Si3 0.182353 0.502218 0.547060
Si Si4 0.667293 0.204070 0.968565
Si Si5 0.332980 0.658094 0.850100
Si Si6 0.214118 0.126583 0.659704
Si Si7 0.816770 0.671302 0.801891
O O1 0.514107 0.688416 0.270275
O O2 0.826013 0.918357 0.242033
O O3 0.093082 0.878078 0.055767
O O4 0.682903 0.105313 0.159390
O O5 0.682487 0.604920 0.543598
O O6 0.419327 0.662822 0.743320
O O7 0.966608 0.621192 0.565159
O O8 0.035155 0.290135 0.668716
O O9 0.440096 0.700895 0.476700
O O10 0.853308 0.442256 0.844786
O O11 0.411157 0.261228 0.084268
O O12 0.500000 0.000000 0.000000
O O13 0.613185 0.618143 0.805786
O O14 0.000000 0.500000 0.000000
O O15 0.109563 0.894815 0.683204
#
# Coordination Sequence:
#
# PCOD9017072 Si02
#       7
#     2   2   2   2   2   2   2
#     4  11  24  41  69  98 139 181 225 284 350 417
#     4  10  23  45  71  95 144 180 231 285 345 415
#     4   9  21  45  73 102 134 191 232 291 346 402
#     4  11  23  42  69 100 140 184 224 291 350 413
#     4  12  27  43  67 104 140 181 229 285 350 425
#     4  10  21  42  71 100 136 171 242 287 344 404
#     4  11  25  41  69 105 137 179 240 283 348 418
#
# _framework density 25.017513000000001
#
# number of rings (size 3 to 8) (size 9 to 14) (size 15 to 20)
#    0.000    1.429    1.429    2.571    6.000    4.571 
#    0.000   12.857    0.000    0.000    0.000    0.000 
#    0.000    0.000    0.000    0.000    0.000    0.000 
#
# Total GULP energy -78247.839302 kJ/mol
# GULP energy per Si atom -5589.131379 kJ/mol
# Density = 2.496057 g / cm^3
# Si number density = 25.017513 Si / 1000 Ang^3
#
#
#
# Elastic Constant Matrix: (Units=GPa)
#
#
# Indices 1 2 3 4 5 6 
#
# 1 90.6186 14.1803 10.5711 0.0907 -13.6950 10.9318
# 2 14.1803 106.0033 37.4267 7.3633 6.9723 5.3906
# 3 10.5711 37.4267 57.7857 5.7739 -2.7518 21.0790
# 4 0.0907 7.3633 5.7739 47.2445 16.4561 -0.7700
# 5 -13.6950 6.9723 -2.7518 16.4561 34.5218 -0.8392
# 6 10.9318 5.3906 21.0790 -0.7700 -0.8392 35.6602
#
#
#
# Elastic Compliance Matrix: (Units=1/GPa)
#
#
# Indices 1 2 3 4 5 6 
#
# 1 0.012726 -0.002158 0.001095 -0.002152 0.006497 -0.004116
# 2 -0.002158 0.013351 -0.010244 0.000879 -0.004676 0.004607
# 3 0.001095 -0.010244 0.030704 -0.004814 0.006835 -0.016879
# 4 -0.002152 0.000879 -0.004814 0.026552 -0.013984 0.003617
# 5 0.006497 -0.004676 0.006835 -0.013984 0.039586 -0.004696
# 6 -0.004116 0.004607 -0.016879 0.003617 -0.004696 0.038553
#
#
# Mechanical properties :
#
#
# Convention : Reuss Voigt Hill
#
# Bulk Modulus (GPa) = 29.26695 42.08488 35.67591
# Shear Modulus (GPa) = 25.57901 36.30062 30.93981
#
# Velocity S-wave (km/s) = 3.20104 3.81334 3.52053
# Velocity P-wave (km/s) = 5.03847 6.02059 5.55129
#
# Compressibility (1/GPa) = 0.03416823
#
# Stress axis : x y z
#
# Youngs Moduli (GPa) = 78.58094 74.89887 32.56958
#
# Poissons Ratio (x) = 0.16160 -0.03568
# Poissons Ratio (y) = 0.16955 0.33364
# Poissons Ratio (z) = -0.08607 0.76726
#
# Static dielectric constant tensor:
#      x y z
#    x 2.014120 0.074320 0.016000 
#    y 0.074320 1.894840 0.038010 
#    z 0.016000 0.038010 2.047910 
# 
# From -- ./inp_files/585598.got.cif
#   From: 2010.05.17/outbox.cif.g08.bks.cpg/sg2_293_cif.got.tgz:585598.got - 2010.06.03 11:33:40.
