data_PCOD9017198
_publ_section_title
;
Structure prediction by ZEFSAII (Michael W. Deem and Ramdas Pophale) SiO2 
 PCOD9017198
Probable space group: P -1
;
_chemical_formula_sum "Si O2"
_cell_formula_units_Z 16
_cell_length_a 15.738281
_cell_length_b 10.735728
_cell_length_c 9.141561
_cell_angle_alpha 51.102525
_cell_angle_beta 47.509268
_cell_angle_gamma 32.939258
_cell_volume 612.084317
_symmetry_space_group_name_H-M "P -1"
_symmetry_group_IT_number 2
_symmetry_cell_setting 'triclinic'
loop_
_space_group_symop_operation_xyz
x,y,z
-x,-y,-z
loop_
_atom_site_type_symbol
_atom_site_label
_atom_site_fract_x
_atom_site_fract_y
_atom_site_fract_z
Si Si1 0.816766 0.693372 0.136441
Si Si2 0.200848 0.950561 0.235048
Si Si3 0.293139 0.609060 0.166725
Si Si4 0.928074 0.041121 0.333451
Si Si5 0.519472 0.793252 0.286944
Si Si6 0.042047 0.353610 0.699188
Si Si7 0.338477 0.312244 0.102904
Si Si8 0.300959 0.809602 0.735700
O O1 0.691037 0.684905 0.236884
O O2 0.853688 0.655044 0.293660
O O3 0.747265 0.934016 0.979986
O O4 0.000000 0.500000 0.000000
O O5 0.171567 0.968971 0.428045
O O6 0.304772 0.692837 0.245168
O O7 0.014759 0.099920 0.274666
O O8 0.361388 0.380019 0.181789
O O9 0.091488 0.789783 0.264880
O O10 0.342994 0.693813 0.927822
O O11 0.803965 0.209552 0.225404
O O12 0.444772 0.734401 0.522144
O O13 0.396285 0.070553 0.227423
O O14 0.552035 0.722410 0.130865
O O15 0.000000 0.500000 0.500000
O O16 0.855778 0.492721 0.863298
O O17 0.165184 0.084217 0.720558
#
# Coordination Sequence:
#
# PCOD9017198 Si02
#       8
#     2   2   2   2   2   2   2   2
#     4  12  26  44  75 100 146 191 238 295 359 439
#     4   9  21  41  66 107 138 179 240 297 350 416
#     4  10  21  42  72 103 139 193 242 294 347 435
#     4   9  20  37  70 102 139 180 237 294 350 415
#     4  11  28  46  66 108 153 186 237 305 368 423
#     4  12  23  43  72 107 133 191 245 281 359 436
#     4  11  24  45  72 103 143 192 244 295 359 427
#     4  12  23  41  75 105 145 187 244 300 352 424
#
# _framework density 26.140191999999999
#
# number of rings (size 3 to 8) (size 9 to 14) (size 15 to 20)
#    0.750    0.500    5.000    0.375    7.000    1.000 
#    0.000    0.625    0.000    0.000    0.000    0.000 
#    0.000    0.000    0.000    0.000    0.000    0.000 
#
# Total GULP energy -89557.420814 kJ/mol
# GULP energy per Si atom -5597.338801 kJ/mol
# Density = 2.608070 g / cm^3
# Si number density = 26.140192 Si / 1000 Ang^3
#
#
#
# Elastic Constant Matrix: (Units=GPa)
#
#
# Indices 1 2 3 4 5 6 
#
# 1 77.4504 25.0652 14.3233 13.1189 6.2442 -9.0380
# 2 25.0652 108.2317 37.8043 12.2100 -4.5587 3.0487
# 3 14.3233 37.8043 144.9335 20.9690 1.4281 -0.7244
# 4 13.1189 12.2100 20.9690 34.7203 -4.2185 -1.1809
# 5 6.2442 -4.5587 1.4281 -4.2185 17.8513 11.2011
# 6 -9.0380 3.0487 -0.7244 -1.1809 11.2011 34.6007
#
#
#
# Elastic Compliance Matrix: (Units=1/GPa)
#
#
# Indices 1 2 3 4 5 6 
#
# 1 0.017790 -0.004456 0.000621 -0.007043 -0.015177 0.009725
# 2 -0.004456 0.011677 -0.002704 -0.000012 0.007737 -0.004754
# 3 0.000621 -0.002704 0.008263 -0.004667 -0.003679 0.001605
# 4 -0.007043 -0.000012 -0.004667 0.035892 0.014760 -0.005490
# 5 -0.015177 0.007737 -0.003679 0.014760 0.087508 -0.032548
# 6 0.009725 -0.004754 0.001605 -0.005490 -0.032548 0.042243
#
#
# Mechanical properties :
#
#
# Convention : Reuss Voigt Hill
#
# Bulk Modulus (GPa) = 40.56177 53.88901 47.22539
# Shear Modulus (GPa) = 22.25517 34.32932 28.29225
#
# Velocity S-wave (km/s) = 2.92100 3.62785 3.29344
# Velocity P-wave (km/s) = 5.18913 6.18130 5.70682
#
# Compressibility (1/GPa) = 0.02465376
#
# Stress axis : x y z
#
# Youngs Moduli (GPa) = 56.21105 85.63987 121.02128
#
# Poissons Ratio (x) = 0.38157 -0.07518
# Poissons Ratio (y) = 0.25045 0.32721
# Poissons Ratio (z) = -0.03492 0.23155
#
# Static dielectric constant tensor:
#      x y z
#    x 2.125240 -0.016180 0.018280 
#    y -0.016180 2.066130 0.016600 
#    z 0.018280 0.016600 2.058270 
# 
# From -- ./inp_files/333023.got.cif
#   From: 2010.05.17/outbox.cif.g08.bks.cpg/sg2_167_cif.got.tgz:333023.got - 2010.06.03 11:33:40.
