data_PCOD9017203
_publ_section_title
;
Structure prediction by ZEFSAII (Michael W. Deem and Ramdas Pophale) SiO2 
 PCOD9017203
Probable space group: P -1
;
_chemical_formula_sum "Si O2"
_cell_formula_units_Z 10
_cell_length_a 4.900338
_cell_length_b 14.657462
_cell_length_c 9.532098
_cell_angle_alpha 141.804795
_cell_angle_beta 68.392074
_cell_angle_gamma 100.483614
_cell_volume 386.664689
_symmetry_space_group_name_H-M "P -1"
_symmetry_group_IT_number 2
_symmetry_cell_setting 'triclinic'
loop_
_space_group_symop_operation_xyz
x,y,z
-x,-y,-z
loop_
_atom_site_type_symbol
_atom_site_label
_atom_site_fract_x
_atom_site_fract_y
_atom_site_fract_z
Si Si1 0.679614 0.411613 0.731049
Si Si2 0.169078 0.164301 0.803408
Si Si3 0.456782 0.838537 0.007804
Si Si4 0.296151 0.414699 0.532100
Si Si5 0.940687 0.866387 0.519687
O O1 0.453482 0.394327 0.628892
O O2 0.869494 0.256993 0.568150
O O3 0.948333 0.486086 0.705975
O O4 0.500000 0.500000 0.000000
O O5 0.153737 0.206515 0.694489
O O6 0.159085 0.984815 0.585951
O O7 0.418097 0.192250 0.896400
O O8 0.852649 0.221362 0.007495
O O9 0.679082 0.746455 0.744748
O O10 0.349906 0.018284 0.227278
O O11 0.500000 0.500000 0.500000
#
# Coordination Sequence:
#
# PCOD9017203 Si02
#       5
#     2   2   2   2   2
#     4  12  29  50  75 108 150 194 251 308 359 444
#     4   9  20  38  70 112 143 188 225 303 370 445
#     4  10  21  42  72 104 142 188 239 298 357 445
#     4  12  29  52  73 106 147 206 243 304 377 432
#     4   9  23  40  74 108 147 184 244 293 379 419
#
# _framework density 25.862203000000001
#
# number of rings (size 3 to 8) (size 9 to 14) (size 15 to 20)
#    1.200    0.400    0.000    3.000    5.600    1.600 
#    0.000    0.000    0.000    0.000    0.000    0.000 
#    0.000    0.000    0.000    0.000    0.000    0.000 
#
# Total GULP energy -55965.474930 kJ/mol
# GULP energy per Si atom -5596.547493 kJ/mol
# Density = 2.580334 g / cm^3
# Si number density = 25.862203 Si / 1000 Ang^3
#
#
#
# Elastic Constant Matrix: (Units=GPa)
#
#
# Indices 1 2 3 4 5 6 
#
# 1 118.0130 4.0890 47.4744 -6.0551 -6.4228 -13.9326
# 2 4.0890 74.3963 24.9798 -2.0741 -6.2847 -7.2369
# 3 47.4744 24.9798 196.7791 -29.5922 -27.1451 -15.0011
# 4 -6.0551 -2.0741 -29.5922 33.7345 -0.9505 -4.3432
# 5 -6.4228 -6.2847 -27.1451 -0.9505 46.8030 -15.2739
# 6 -13.9326 -7.2369 -15.0011 -4.3432 -15.2739 41.5762
#
#
#
# Elastic Compliance Matrix: (Units=1/GPa)
#
#
# Indices 1 2 3 4 5 6 
#
# 1 0.009700 0.000547 -0.001887 0.000574 0.001376 0.003230
# 2 0.000547 0.014362 -0.001395 0.000205 0.002178 0.003001
# 3 -0.001887 -0.001395 0.008045 0.007447 0.006006 0.005012
# 4 0.000574 0.000205 0.007447 0.037813 0.008446 0.009968
# 5 0.001376 0.002178 0.006006 0.008446 0.030419 0.015065
# 6 0.003230 0.003001 0.005012 0.009968 0.015065 0.034041
#
#
# Mechanical properties :
#
#
# Convention : Reuss Voigt Hill
#
# Bulk Modulus (GPa) = 37.54391 60.25276 48.89833
# Shear Modulus (GPa) = 33.61866 45.26577 39.44221
#
# Velocity S-wave (km/s) = 3.60934 4.18816 3.90948
# Velocity P-wave (km/s) = 5.64962 6.83635 6.27112
#
# Compressibility (1/GPa) = 0.02663548
#
# Stress axis : x y z
#
# Youngs Moduli (GPa) = 103.09774 69.63053 124.30479
#
# Poissons Ratio (x) = -0.03809 0.23459
# Poissons Ratio (y) = -0.05639 0.17339
# Poissons Ratio (z) = 0.19457 0.09713
#
# Static dielectric constant tensor:
#      x y z
#    x 1.979600 0.084290 -0.043570 
#    y 0.084290 2.183690 0.085970 
#    z -0.043570 0.085970 2.043570 
# 
# From -- ./inp_files/134701.got.cif
#   From: 2010.05.17/outbox.cif.g08.bks.cpg/sg2_68_cif.got.tgz:134701.got - 2010.06.03 11:33:40.
