data_PCOD9017484
_publ_section_title
;
Structure prediction by ZEFSAII (Michael W. Deem and Ramdas Pophale) SiO2 
 PCOD9017484
Probable space group: P -1
;
_chemical_formula_sum "Si O2"
_cell_formula_units_Z 16
_cell_length_a 11.719594
_cell_length_b 12.702948
_cell_length_c 15.065358
_cell_angle_alpha 151.082529
_cell_angle_beta 59.338160
_cell_angle_gamma 100.234821
_cell_volume 712.109723
_symmetry_space_group_name_H-M "P -1"
_symmetry_group_IT_number 2
_symmetry_cell_setting 'triclinic'
loop_
_space_group_symop_operation_xyz
x,y,z
-x,-y,-z
loop_
_atom_site_type_symbol
_atom_site_label
_atom_site_fract_x
_atom_site_fract_y
_atom_site_fract_z
Si Si1 0.179595 0.516051 0.594958
Si Si2 0.361679 0.343803 0.934635
Si Si3 0.719702 0.101807 0.540916
Si Si4 0.516501 0.380038 0.307655
Si Si5 0.909036 0.233907 0.786787
Si Si6 0.838538 0.948619 0.745458
Si Si7 0.327220 0.904657 0.653442
Si Si8 0.995632 0.053707 0.164875
O O1 0.362327 0.364709 0.361660
O O2 0.154588 0.299603 0.480145
O O3 0.155151 0.726147 0.835185
O O4 0.034850 0.728338 0.734876
O O5 0.567771 0.135134 0.678387
O O6 0.322045 0.163840 0.868324
O O7 0.310848 0.614098 0.208330
O O8 0.243182 0.472775 0.986710
O O9 0.673761 0.118479 0.469000
O O10 0.922008 0.832279 0.283162
O O11 0.500000 0.500000 0.500000
O O12 0.479882 0.614752 0.426782
O O13 0.691005 0.093827 0.987569
O O14 0.823345 0.151734 0.827870
O O15 0.000000 0.000000 0.500000
O O16 0.001500 0.848536 0.666813
O O17 0.160793 0.949232 0.784555
#
# Coordination Sequence:
#
# PCOD9017484 Si02
#       8
#     2   2   2   2   2   2   2   2
#     4  10  23  42  66  94 132 173 212 271 334 394
#     4  10  23  43  64  95 134 175 221 283 332 389
#     4  10  21  43  63  95 133 170 229 275 323 405
#     4  11  24  46  62 101 137 163 228 279 321 413
#     4  10  23  42  65 101 135 167 233 279 318 410
#     4  12  22  43  68  92 131 178 212 272 341 384
#     4  11  23  42  67  89 131 179 209 272 346 387
#     4  10  22  40  64  98 129 162 225 268 314 415
#
# _framework density 22.468447000000001
#
# number of rings (size 3 to 8) (size 9 to 14) (size 15 to 20)
#    0.000    1.500    2.500    1.875    3.500    0.500 
#   15.750    0.000    0.000    0.000    0.000    0.000 
#    0.000    0.000    0.000    0.000    0.000    0.000 
#
# Total GULP energy -89286.215088 kJ/mol
# GULP energy per Si atom -5580.388443 kJ/mol
# Density = 2.241731 g / cm^3
# Si number density = 22.468447 Si / 1000 Ang^3
#
#
#
# Elastic Constant Matrix: (Units=GPa)
#
#
# Indices 1 2 3 4 5 6 
#
# 1 64.4913 14.5835 23.5831 14.2792 -2.2090 2.9018
# 2 14.5835 53.4484 5.6769 6.2534 1.3929 6.6030
# 3 23.5831 5.6769 47.3985 -5.7800 -6.0905 13.0170
# 4 14.2792 6.2534 -5.7800 38.5393 2.8066 6.6929
# 5 -2.2090 1.3929 -6.0905 2.8066 19.1632 -13.0115
# 6 2.9018 6.6030 13.0170 6.6929 -13.0115 33.9282
#
#
#
# Elastic Compliance Matrix: (Units=1/GPa)
#
#
# Indices 1 2 3 4 5 6 
#
# 1 0.024836 -0.005069 -0.015138 -0.012883 0.007036 0.009910
# 2 -0.005069 0.020918 0.001015 0.000205 -0.006184 -0.006439
# 3 -0.015138 0.001015 0.034116 0.013668 -0.003990 -0.016218
# 4 -0.012883 0.000205 0.013668 0.036656 -0.013891 -0.016740
# 5 0.007036 -0.006184 -0.003990 -0.013891 0.077769 0.034697
# 6 0.009910 -0.006439 -0.016218 -0.016740 0.034697 0.052711
#
#
# Mechanical properties :
#
#
# Convention : Reuss Voigt Hill
#
# Bulk Modulus (GPa) = 24.10472 28.11392 26.10932
# Shear Modulus (GPa) = 16.71026 26.42580 21.56803
#
# Velocity S-wave (km/s) = 2.73008 3.43319 3.10163
# Velocity P-wave (km/s) = 4.54856 5.31560 4.94696
#
# Compressibility (1/GPa) = 0.04148565
#
# Stress axis : x y z
#
# Youngs Moduli (GPa) = 40.26487 47.80685 29.31156
#
# Poissons Ratio (x) = 0.24233 0.44373
# Poissons Ratio (y) = 0.20410 -0.02976
# Poissons Ratio (z) = 0.60954 -0.04854
#
# Static dielectric constant tensor:
#      x y z
#    x 1.617510 0.150220 0.190150 
#    y 0.150220 1.722660 -0.153890 
#    z 0.190150 -0.153890 1.657500 
# 
# From -- ./inp_files/519950.got.cif
#   From: 2010.05.17/outbox.cif.g08.bks.cpg/sg2_260_cif.got.tgz:519950.got - 2010.06.03 11:33:40.
