data_PCOD9017868
_publ_section_title
;
Structure prediction by ZEFSAII (Michael W. Deem and Ramdas Pophale) SiO2 
 PCOD9017868
Probable space group: P -1
;
_chemical_formula_sum "Si O2"
_cell_formula_units_Z 13
_cell_length_a 11.454097
_cell_length_b 7.010669
_cell_length_c 15.564113
_cell_angle_alpha 86.055919
_cell_angle_beta 137.336098
_cell_angle_gamma 126.347144
_cell_volume 504.946212
_symmetry_space_group_name_H-M "P -1"
_symmetry_group_IT_number 2
_symmetry_cell_setting 'triclinic'
loop_
_space_group_symop_operation_xyz
x,y,z
-x,-y,-z
loop_
_atom_site_type_symbol
_atom_site_label
_atom_site_fract_x
_atom_site_fract_y
_atom_site_fract_z
Si Si1 0.179487 0.577288 0.379333
Si Si2 0.574144 0.911820 0.117076
Si Si3 0.453466 0.386046 0.110115
Si Si4 0.934761 0.267347 0.536046
Si Si5 0.500000 0.500000 0.500000
Si Si6 0.104043 0.711279 0.937571
Si Si7 0.600633 0.453207 0.752210
O O1 0.219304 0.781093 0.461736
O O2 0.430426 0.655734 0.492605
O O3 0.060640 0.535370 0.223303
O O4 0.918794 0.223099 0.294189
O O5 0.467541 0.600062 0.061349
O O6 0.395771 0.848509 0.100739
O O7 0.500000 0.000000 0.000000
O O8 0.362400 0.358271 0.159068
O O9 0.768302 0.568932 0.279279
O O10 0.225728 0.029104 0.964080
O O11 0.000000 0.500000 0.500000
O O12 0.713796 0.918247 0.389155
O O13 0.580184 0.509835 0.642309
O O14 0.877542 0.559547 0.893196
#
# Coordination Sequence:
#
# PCOD9017868 Si02
#       7
#     2   2   2   2   1   2   2
#     4  10  21  43  67 102 143 179 242 292 352 428
#     4  10  22  44  68 106 142 185 243 290 355 429
#     4  12  24  45  75 103 144 194 238 302 361 423
#     4  12  25  45  75 105 143 193 243 298 359 436
#     4  10  22  44  66 102 140 186 238 292 360 424
#     4  10  24  45  68 105 141 186 238 302 358 429
#     4  11  25  45  69 105 147 185 243 299 358 431
#
# _framework density 25.745317
#
# number of rings (size 3 to 8) (size 9 to 14) (size 15 to 20)
#    0.000    1.231    1.538    3.692    0.000    5.538 
#   19.385    0.000    0.000    0.000    0.000    0.000 
#    0.000    0.000    0.000    0.000    0.000    0.000 
#
# Total GULP energy -72463.593884 kJ/mol
# GULP energy per Si atom -5574.122606 kJ/mol
# Density = 2.568672 g / cm^3
# Si number density = 25.745317 Si / 1000 Ang^3
#
#
#
# Elastic Constant Matrix: (Units=GPa)
#
#
# Indices 1 2 3 4 5 6 
#
# 1 158.7926 28.2430 0.9641 -6.8612 -6.5791 -4.1832
# 2 28.2430 128.5433 44.8291 -8.1481 16.1147 5.1052
# 3 0.9641 44.8291 48.7193 0.3073 1.9353 6.7406
# 4 -6.8612 -8.1481 0.3073 44.5916 -0.3295 4.8970
# 5 -6.5791 16.1147 1.9353 -0.3295 47.8033 4.8928
# 6 -4.1832 5.1052 6.7406 4.8970 4.8928 36.7122
#
#
#
# Elastic Compliance Matrix: (Units=1/GPa)
#
#
# Indices 1 2 3 4 5 6 
#
# 1 0.006805 -0.002335 0.001882 0.000568 0.001604 0.000465
# 2 -0.002335 0.013092 -0.011898 0.002040 -0.004280 0.000396
# 3 0.001882 -0.011898 0.031896 -0.001615 0.003400 -0.004225
# 4 0.000568 0.002040 -0.001615 0.023227 -0.000076 -0.003010
# 5 0.001604 -0.004280 0.003400 -0.000076 0.022738 -0.002867
# 6 0.000465 0.000396 -0.004225 -0.003010 -0.002867 0.028796
#
#
# Mechanical properties :
#
#
# Convention : Reuss Voigt Hill
#
# Bulk Modulus (GPa) = 36.91231 53.79196 45.35213
# Shear Modulus (GPa) = 31.19427 43.28935 37.24181
#
# Velocity S-wave (km/s) = 3.48465 4.10499 3.80748
# Velocity P-wave (km/s) = 5.52802 6.58841 6.08137
#
# Compressibility (1/GPa) = 0.02709124
#
# Stress axis : x y z
#
# Youngs Moduli (GPa) = 146.95821 76.38246 31.35169
#
# Poissons Ratio (x) = 0.17836 -0.05901
# Poissons Ratio (y) = 0.34316 0.37303
# Poissons Ratio (z) = -0.27662 0.90881
#
# Static dielectric constant tensor:
#      x y z
#    x 2.044060 0.102750 0.000300 
#    y 0.102750 1.947590 0.046260 
#    z 0.000300 0.046260 1.987800 
# 
# From -- ./inp_files/564479.got.cif
#   From: 2010.05.17/outbox.cif.g08.bks.cpg/sg2_283_cif.got.tgz:564479.got - 2010.06.03 11:33:40.
