data_PCOD9017606
_publ_section_title
;
Structure prediction by ZEFSAII (Michael W. Deem and Ramdas Pophale) SiO2 
 PCOD9017606
Probable space group: P -1
;
_chemical_formula_sum "Si O2"
_cell_formula_units_Z 14
_cell_length_a 8.803473
_cell_length_b 9.542492
_cell_length_c 13.312592
_cell_angle_alpha 111.089730
_cell_angle_beta 54.309016
_cell_angle_gamma 130.801801
_cell_volume 687.141687
_symmetry_space_group_name_H-M "P -1"
_symmetry_group_IT_number 2
_symmetry_cell_setting 'triclinic'
loop_
_space_group_symop_operation_xyz
x,y,z
-x,-y,-z
loop_
_atom_site_type_symbol
_atom_site_label
_atom_site_fract_x
_atom_site_fract_y
_atom_site_fract_z
Si Si1 0.529865 0.366231 0.522479
Si Si2 0.447702 0.049577 0.786489
Si Si3 0.735859 0.172882 0.400018
Si Si4 0.798710 0.780429 0.752554
Si Si5 0.585832 0.633117 0.201641
Si Si6 0.079397 0.931668 0.044537
Si Si7 0.750014 0.930660 0.611093
O O1 0.500000 0.500000 0.500000
O O2 0.753092 0.362848 0.451009
O O3 0.439461 0.357457 0.666024
O O4 0.391666 0.184187 0.460783
O O5 0.470725 0.233426 0.793740
O O6 0.287740 0.896528 0.723418
O O7 0.687380 0.072456 0.696271
O O8 0.312725 0.967726 0.922116
O O9 0.968639 0.203829 0.358505
O O10 0.500000 0.000000 0.500000
O O11 0.599557 0.576069 0.815801
O O12 0.698744 0.810487 0.698986
O O13 0.868031 0.939961 0.846919
O O14 0.854417 0.725397 0.099606
O O15 0.000000 0.000000 0.000000
O O16 0.000000 0.000000 0.500000
#
# Coordination Sequence:
#
# PCOD9017606 Si02
#       7
#     2   2   2   2   2   2   2
#     4  11  22  40  58  89 134 160 199 267 321 366
#     4  10  22  42  65  89 127 176 201 261 324 372
#     4  11  20  39  65  87 126 167 206 251 324 377
#     4  12  23  39  66  97 122 168 218 262 302 387
#     4  11  22  40  68  94 126 165 218 258 316 374
#     4  10  21  43  65  88 131 168 209 262 319 367
#     4  11  24  38  65  94 129 162 214 260 320 376
#
# _framework density 20.374257
#
# number of rings (size 3 to 8) (size 9 to 14) (size 15 to 20)
#    0.000    1.143    5.714    2.571    0.000    4.571 
#    0.000    0.714    0.000    0.000    0.000    0.000 
#    0.000    0.000    0.000    0.000    0.000    0.000 
#
# Total GULP energy -78015.863973 kJ/mol
# GULP energy per Si atom -5572.561712 kJ/mol
# Density = 2.032788 g / cm^3
# Si number density = 20.374257 Si / 1000 Ang^3
#
#
#
# Elastic Constant Matrix: (Units=GPa)
#
#
# Indices 1 2 3 4 5 6 
#
# 1 74.0200 21.7853 20.9530 -5.0492 -10.8387 -13.2692
# 2 21.7853 86.8001 13.6783 -17.1495 -16.3051 -3.4848
# 3 20.9530 13.6783 72.5345 -11.7702 -20.7217 2.8407
# 4 -5.0492 -17.1495 -11.7702 19.7259 1.8840 2.7495
# 5 -10.8387 -16.3051 -20.7217 1.8840 31.0730 3.4351
# 6 -13.2692 -3.4848 2.8407 2.7495 3.4351 34.2452
#
#
#
# Elastic Compliance Matrix: (Units=1/GPa)
#
#
# Indices 1 2 3 4 5 6 
#
# 1 0.017061 -0.003765 -0.004908 -0.002801 0.000115 0.006848
# 2 -0.003765 0.016397 0.002867 0.014471 0.008552 -0.002048
# 3 -0.004908 0.002867 0.020913 0.013222 0.013575 -0.005768
# 4 -0.002801 0.014471 0.013222 0.070356 0.012005 -0.007562
# 5 0.000115 0.008552 0.013575 0.012005 0.045671 -0.005756
# 6 0.006848 -0.002048 -0.005768 -0.007562 -0.005756 0.033309
#
#
# Mechanical properties :
#
#
# Convention : Reuss Voigt Hill
#
# Bulk Modulus (GPa) = 23.38704 38.46530 30.92617
# Shear Modulus (GPa) = 21.77954 28.80471 25.29213
#
# Velocity S-wave (km/s) = 3.27306 3.76411 3.52714
# Velocity P-wave (km/s) = 5.07815 6.14912 5.63911
#
# Compressibility (1/GPa) = 0.04275873
#
# Stress axis : x y z
#
# Youngs Moduli (GPa) = 58.61394 60.98556 47.81662
#
# Poissons Ratio (x) = 0.22963 0.23469
# Poissons Ratio (y) = 0.22070 -0.13710
# Poissons Ratio (z) = 0.28768 -0.17485
#
# Static dielectric constant tensor:
#      x y z
#    x 1.362590 -0.033300 0.004440 
#    y -0.033300 1.760530 -0.011040 
#    z 0.004440 -0.011040 1.753090 
# 
# From -- ./inp_files/242012.got.cif
#   From: 2010.05.17/outbox.cif.g08.bks.cpg/sg2_122_cif.got.tgz:242012.got - 2010.06.03 11:33:40.
