data_PCOD9017755
_publ_section_title
;
Structure prediction by ZEFSAII (Michael W. Deem and Ramdas Pophale) SiO2 
 PCOD9017755
Probable space group: P -1
;
_chemical_formula_sum "Si O2"
_cell_formula_units_Z 15
_cell_length_a 17.169090
_cell_length_b 10.431134
_cell_length_c 7.612106
_cell_angle_alpha 112.279045
_cell_angle_beta 50.164036
_cell_angle_gamma 146.311262
_cell_volume 541.431542
_symmetry_space_group_name_H-M "P -1"
_symmetry_group_IT_number 2
_symmetry_cell_setting 'triclinic'
loop_
_space_group_symop_operation_xyz
x,y,z
-x,-y,-z
loop_
_atom_site_type_symbol
_atom_site_label
_atom_site_fract_x
_atom_site_fract_y
_atom_site_fract_z
Si Si1 0.715743 0.944902 0.248373
Si Si2 0.757697 0.569230 0.095289
Si Si3 0.662394 0.631798 0.954453
Si Si4 0.000000 0.000000 0.500000
Si Si5 0.726958 0.210651 0.896722
Si Si6 0.163367 0.076170 0.627057
Si Si7 0.872808 0.396654 0.384576
Si Si8 0.440907 0.799356 0.369372
O O1 0.707968 0.875921 0.419847
O O2 0.525599 0.771746 0.346101
O O3 0.836092 0.217388 0.229515
O O4 0.781159 0.892811 0.004448
O O5 0.626972 0.497766 0.106352
O O6 0.713384 0.356346 0.055916
O O7 0.778491 0.700918 0.294022
O O8 0.966316 0.813076 0.853018
O O9 0.812259 0.714759 0.681072
O O10 0.500000 0.500000 0.000000
O O11 0.872682 0.965790 0.547332
O O12 0.765222 0.254943 0.653881
O O13 0.443006 0.059971 0.907973
O O14 0.913826 0.353952 0.768045
O O15 0.770689 0.408503 0.450899
O O16 0.500000 0.000000 0.500000
#
# Coordination Sequence:
#
# PCOD9017755 Si02
#       8
#     2   2   2   1   2   2   2   2
#     4  10  21  43  66  91 143 174 211 289 332 397
#     4   9  19  39  67  93 133 170 211 284 329 402
#     4  10  23  44  64 100 131 169 222 274 342 408
#     4  10  22  40  68  96 126 172 216 272 336 410
#     4  11  22  42  71  98 130 184 232 279 333 406
#     4   9  18  40  65  96 132 167 218 270 350 389
#     4  10  23  42  65 100 130 183 228 279 335 387
#     4  10  24  44  62  98 137 181 227 279 336 392
#
# _framework density 27.704336000000001
#
# number of rings (size 3 to 8) (size 9 to 14) (size 15 to 20)
#    0.000    2.133    1.333    1.200    1.867    3.200 
#   12.000    2.667    0.000    0.000    0.000    0.000 
#    0.000    0.000    0.000    0.000    0.000    0.000 
#
# Total GULP energy -83589.946648 kJ/mol
# GULP energy per Si atom -5572.663110 kJ/mol
# Density = 2.764128 g / cm^3
# Si number density = 27.704336 Si / 1000 Ang^3
#
#
#
# Elastic Constant Matrix: (Units=GPa)
#
#
# Indices 1 2 3 4 5 6 
#
# 1 162.8564 50.3318 28.1399 2.5196 -22.6645 49.4023
# 2 50.3318 100.0909 41.1959 1.4761 -20.9227 22.5190
# 3 28.1399 41.1959 45.5207 13.3275 2.1922 -1.1919
# 4 2.5196 1.4761 13.3275 50.4197 -13.1721 -17.0796
# 5 -22.6645 -20.9227 2.1922 -13.1721 41.1564 -3.3013
# 6 49.4023 22.5190 -1.1919 -17.0796 -3.3013 60.4789
#
#
#
# Elastic Compliance Matrix: (Units=1/GPa)
#
#
# Indices 1 2 3 4 5 6 
#
# 1 0.010888 0.001661 -0.008913 0.000394 0.006702 -0.009211
# 2 0.001661 0.026358 -0.028451 0.008508 0.017883 -0.008353
# 3 -0.008913 -0.028451 0.059944 -0.017353 -0.027102 0.012676
# 4 0.000394 0.008508 -0.017353 0.030077 0.015535 0.005510
# 5 0.006702 0.017883 -0.027102 0.015535 0.043019 -0.005932
# 6 -0.009211 -0.008353 0.012676 0.005510 -0.005932 0.028651
#
#
# Mechanical properties :
#
#
# Convention : Reuss Voigt Hill
#
# Bulk Modulus (GPa) = 38.78587 60.86704 49.82645
# Shear Modulus (GPa) = 17.92521 42.99769 30.46145
#
# Velocity S-wave (km/s) = 2.54642 3.94384 3.31950
# Velocity P-wave (km/s) = 4.76193 6.53884 5.71981
#
# Compressibility (1/GPa) = 0.02578259
#
# Stress axis : x y z
#
# Youngs Moduli (GPa) = 91.84535 37.93959 16.68226
#
# Poissons Ratio (x) = -0.06301 0.14869
# Poissons Ratio (y) = -0.15255 0.47463
# Poissons Ratio (z) = 0.81863 1.07943
#
# Static dielectric constant tensor:
#      x y z
#    x 2.199220 -0.018910 0.050590 
#    y -0.018910 1.920130 -0.323580 
#    z 0.050590 -0.323580 1.922300 
# 
# From -- ./inp_files/334401.got.cif
#   From: 2010.05.17/outbox.cif.g08.bks.cpg/sg2_168_cif.got.tgz:334401.got - 2010.06.03 11:33:40.
