data_PCOD9017106
_publ_section_title
;
Structure prediction by ZEFSAII (Michael W. Deem and Ramdas Pophale) SiO2 
 PCOD9017106
Probable space group: P -1
;
_chemical_formula_sum "Si O2"
_cell_formula_units_Z 16
_cell_length_a 27.213330
_cell_length_b 5.249784
_cell_length_c 6.197264
_cell_angle_alpha 103.272871
_cell_angle_beta 68.800466
_cell_angle_gamma 128.687127
_cell_volume 644.315264
_symmetry_space_group_name_H-M "P -1"
_symmetry_group_IT_number 2
_symmetry_cell_setting 'triclinic'
loop_
_space_group_symop_operation_xyz
x,y,z
-x,-y,-z
loop_
_atom_site_type_symbol
_atom_site_label
_atom_site_fract_x
_atom_site_fract_y
_atom_site_fract_z
Si Si1 0.640646 0.860633 0.779592
Si Si2 0.543156 0.387770 0.488462
Si Si3 0.252834 0.040219 0.076908
Si Si4 0.354996 0.647626 0.848433
Si Si5 0.989600 0.356597 0.243392
Si Si6 0.851279 0.987628 0.223699
Si Si7 0.717898 0.348338 0.378144
Si Si8 0.124396 0.496314 0.058641
O O1 0.580456 0.569489 0.684952
O O2 0.688286 0.803003 0.816143
O O3 0.693920 0.145166 0.591106
O O4 0.617519 0.030579 0.999890
O O5 0.500000 0.500000 0.500000
O O6 0.600179 0.474694 0.244978
O O7 0.500000 0.000000 0.500000
O O8 0.175792 0.785322 0.200161
O O9 0.278120 0.370002 0.974948
O O10 0.264127 0.830801 0.852874
O O11 0.346310 0.701321 0.624679
O O12 0.000000 0.500000 0.500000
O O13 0.046121 0.303052 0.155942
O O14 0.911023 0.103778 0.312623
O O15 0.000000 0.500000 0.000000
O O16 0.780061 0.720309 0.383448
O O17 0.862369 0.773459 0.002250
O O18 0.856977 0.282006 0.147576
#
# Coordination Sequence:
#
# PCOD9017106 Si02
#       8
#     2   2   2   2   2   2   2   2
#     4  11  26  44  75 106 138 192 235 305 365 432
#     4  12  29  51  73 103 144 188 234 292 365 451
#     4  10  22  42  71 105 139 183 243 300 355 433
#     4  11  24  45  74 102 145 180 239 302 357 444
#     4  10  23  46  69 102 152 200 256 314 376 454
#     4  10  21  42  71 103 142 197 241 301 366 436
#     4  10  21  44  69 104 146 183 242 297 364 422
#     4  10  21  44  70 103 145 190 246 301 370 427
#
# _framework density 24.832564999999999
#
# number of rings (size 3 to 8) (size 9 to 14) (size 15 to 20)
#    0.000    1.500    2.500    1.125    5.250    2.000 
#   13.500    5.000    0.000    0.000    0.000    0.000 
#    0.000    0.000    0.000    0.000    0.000    0.000 
#
# Total GULP energy -89210.795169 kJ/mol
# GULP energy per Si atom -5575.674698 kJ/mol
# Density = 2.477604 g / cm^3
# Si number density = 24.832565 Si / 1000 Ang^3
#
#
#
# Elastic Constant Matrix: (Units=GPa)
#
#
# Indices 1 2 3 4 5 6 
#
# 1 153.9010 38.1552 27.8838 17.2365 -3.2643 18.1543
# 2 38.1552 121.9503 31.5109 26.0956 10.4565 25.9045
# 3 27.8838 31.5109 64.9329 16.8670 5.2996 13.3682
# 4 17.2365 26.0956 16.8670 43.2770 8.1418 11.7223
# 5 -3.2643 10.4565 5.2996 8.1418 35.6227 9.7944
# 6 18.1543 25.9045 13.3682 11.7223 9.7944 50.0383
#
#
#
# Elastic Compliance Matrix: (Units=1/GPa)
#
#
# Indices 1 2 3 4 5 6 
#
# 1 0.007607 -0.001401 -0.002087 -0.001349 0.002163 -0.001584
# 2 -0.001401 0.011023 -0.002986 -0.003821 -0.001144 -0.003281
# 3 -0.002087 -0.002986 0.019267 -0.004279 -0.000736 -0.001698
# 4 -0.001349 -0.003821 -0.004279 0.029073 -0.004365 -0.002346
# 5 0.002163 -0.001144 -0.000736 -0.004365 0.031105 -0.005061
# 6 -0.001584 -0.003281 -0.001698 -0.002346 -0.005061 0.024252
#
#
# Mechanical properties :
#
#
# Convention : Reuss Voigt Hill
#
# Bulk Modulus (GPa) = 40.08157 59.54267 49.81212
# Shear Modulus (GPa) = 34.82145 42.00323 38.41234
#
# Velocity S-wave (km/s) = 3.74872 4.11720 3.93727
# Velocity P-wave (km/s) = 5.90872 6.82872 6.38531
#
# Compressibility (1/GPa) = 0.02494912
#
# Stress axis : x y z
#
# Youngs Moduli (GPa) = 131.45855 90.72201 51.90270
#
# Poissons Ratio (x) = 0.12710 0.10830
# Poissons Ratio (y) = 0.18418 0.15499
# Poissons Ratio (z) = 0.27429 0.27091
#
# Static dielectric constant tensor:
#      x y z
#    x 2.013680 0.015880 -0.018390 
#    y 0.015880 2.002880 -0.010530 
#    z -0.018390 -0.010530 2.041140 
# 
# From -- ./inp_files/13459.got.cif
#   From: 2010.05.17/outbox.cif.g08.bks.cpg/sg2_7_cif.got.tgz:13459.got - 2010.06.03 11:33:40.
