data_PCOD9017878
_publ_section_title
;
Structure prediction by ZEFSAII (Michael W. Deem and Ramdas Pophale) SiO2 
 PCOD9017878
Probable space group: P -1
;
_chemical_formula_sum "Si O2"
_cell_formula_units_Z 14
_cell_length_a 9.784206
_cell_length_b 5.168454
_cell_length_c 15.188096
_cell_angle_alpha 68.616885
_cell_angle_beta 51.499145
_cell_angle_gamma 91.927947
_cell_volume 522.681794
_symmetry_space_group_name_H-M "P -1"
_symmetry_group_IT_number 2
_symmetry_cell_setting 'triclinic'
loop_
_space_group_symop_operation_xyz
x,y,z
-x,-y,-z
loop_
_atom_site_type_symbol
_atom_site_label
_atom_site_fract_x
_atom_site_fract_y
_atom_site_fract_z
Si Si1 0.871878 0.702450 0.039595
Si Si2 0.960439 0.330670 0.730614
Si Si3 0.754447 0.494822 0.929130
Si Si4 0.733178 0.887319 0.387167
Si Si5 0.117929 0.787939 0.474635
Si Si6 0.401274 0.570292 0.664674
Si Si7 0.374472 0.072747 0.187831
O O1 0.687023 0.560162 0.191060
O O2 0.803089 0.711950 0.966537
O O3 0.000000 0.500000 0.000000
O O4 0.000000 0.000000 0.000000
O O5 0.054619 0.091881 0.697641
O O6 0.921862 0.402623 0.835967
O O7 0.321263 0.829778 0.644082
O O8 0.757077 0.205125 0.782124
O O9 0.682927 0.654298 0.859489
O O10 0.592542 0.193064 0.064970
O O11 0.622958 0.719863 0.539105
O O12 0.664572 0.680127 0.353416
O O13 0.894921 0.365271 0.406978
O O14 0.000000 0.500000 0.500000
O O15 0.311436 0.967977 0.325616
O O16 0.000000 0.000000 0.500000
#
# Coordination Sequence:
#
# PCOD9017878 Si02
#       7
#     2   2   2   2   2   2   2
#     4  12  28  48  74 106 146 195 250 307 371 449
#     4  11  23  42  77 110 148 200 251 303 379 453
#     4  11  25  46  73 107 153 198 249 306 376 447
#     4  10  23  43  76 102 142 188 243 313 367 437
#     4  10  21  43  67 104 149 187 248 298 361 443
#     4  10  23  47  67 106 144 185 249 306 372 430
#     4  10  24  46  70 109 151 200 243 308 372 447
#
# _framework density 26.784936999999999
#
# number of rings (size 3 to 8) (size 9 to 14) (size 15 to 20)
#    0.000    1.429    1.429    2.143    8.000    0.000 
#   15.429    0.000    0.000    0.000    0.000    0.000 
#    0.000    0.000    0.000    0.000    0.000    0.000 
#
# Total GULP energy -78466.483088 kJ/mol
# GULP energy per Si atom -5604.748792 kJ/mol
# Density = 2.672397 g / cm^3
# Si number density = 26.784937 Si / 1000 Ang^3
#
#
#
# Elastic Constant Matrix: (Units=GPa)
#
#
# Indices 1 2 3 4 5 6 
#
# 1 53.3299 36.2972 46.9045 10.6144 -2.8126 -4.9724
# 2 36.2972 162.8645 57.9295 16.6296 -7.2598 -9.9294
# 3 46.9045 57.9295 300.6827 16.8902 -2.6444 5.6646
# 4 10.6144 16.6296 16.8902 46.5207 0.6079 0.4202
# 5 -2.8126 -7.2598 -2.6444 0.6079 39.6868 0.0465
# 6 -4.9724 -9.9294 5.6646 0.4202 0.0465 32.7146
#
#
#
# Elastic Compliance Matrix: (Units=1/GPa)
#
#
# Indices 1 2 3 4 5 6 
#
# 1 0.025089 -0.003950 -0.003022 -0.003256 0.000900 0.003178
# 2 -0.003950 0.007624 -0.000790 -0.001568 0.001084 0.001869
# 3 -0.003022 -0.000790 0.004001 -0.000467 -0.000083 -0.001386
# 4 -0.003256 -0.001568 -0.000467 0.022991 -0.000899 -0.001184
# 5 0.000900 0.001084 -0.000083 -0.000899 0.025467 0.000456
# 6 0.003178 0.001869 -0.001386 -0.001184 0.000456 0.031872
#
#
# Mechanical properties :
#
#
# Convention : Reuss Voigt Hill
#
# Bulk Modulus (GPa) = 47.19307 88.79327 67.99317
# Shear Modulus (GPa) = 35.80820 48.83416 42.32118
#
# Velocity S-wave (km/s) = 3.66030 4.27452 3.97928
# Velocity P-wave (km/s) = 5.95997 7.58844 6.82296
#
# Compressibility (1/GPa) = 0.02118955
#
# Stress axis : x y z
#
# Youngs Moduli (GPa) = 39.85741 131.16600 249.93836
#
# Poissons Ratio (x) = 0.51817 0.75525
# Poissons Ratio (y) = 0.15746 0.19749
# Poissons Ratio (z) = 0.12044 0.10364
#
# Static dielectric constant tensor:
#      x y z
#    x 2.147360 -0.000100 0.015170 
#    y -0.000100 2.025990 -0.107870 
#    z 0.015170 -0.107870 2.109420 
# 
# From -- ./inp_files/368123.got.cif
#   From: 2010.05.17/outbox.cif.g08.bks.cpg/sg2_185_cif.got.tgz:368123.got - 2010.06.03 11:33:40.
