data_PCOD9017900
_publ_section_title
;
Structure prediction by ZEFSAII (Michael W. Deem and Ramdas Pophale) SiO2 
 PCOD9017900
Probable space group: P -1
;
_chemical_formula_sum "Si O2"
_cell_formula_units_Z 16
_cell_length_a 7.102196
_cell_length_b 8.842455
_cell_length_c 18.108107
_cell_angle_alpha 46.029142
_cell_angle_beta 97.266075
_cell_angle_gamma 103.011530
_cell_volume 796.702167
_symmetry_space_group_name_H-M "P -1"
_symmetry_group_IT_number 2
_symmetry_cell_setting 'triclinic'
loop_
_space_group_symop_operation_xyz
x,y,z
-x,-y,-z
loop_
_atom_site_type_symbol
_atom_site_label
_atom_site_fract_x
_atom_site_fract_y
_atom_site_fract_z
Si Si1 0.704375 0.467838 0.050349
Si Si2 0.745232 0.380701 0.252069
Si Si3 0.404406 0.198735 0.403831
Si Si4 0.373028 0.587114 0.375071
Si Si5 0.017845 0.827059 0.869344
Si Si6 0.210951 0.370531 0.583050
Si Si7 0.001929 0.693544 0.262313
Si Si8 0.015742 0.069453 0.334721
O O1 0.695917 0.436694 0.148057
O O2 0.784504 0.264023 0.091365
O O3 0.500000 0.500000 0.000000
O O4 0.864917 0.670504 0.964447
O O5 0.556691 0.337917 0.308136
O O6 0.908059 0.568620 0.229351
O O7 0.845140 0.172926 0.326064
O O8 0.375275 0.355833 0.416480
O O9 0.202800 0.116143 0.379669
O O10 0.500000 0.000000 0.500000
O O11 0.287968 0.551483 0.465708
O O12 0.594514 0.705252 0.353376
O O13 0.228579 0.696863 0.282968
O O14 0.945419 0.825592 0.780756
O O15 0.039705 0.069217 0.815026
O O16 0.105189 0.433660 0.628767
O O17 0.067180 0.178680 0.601382
#
# Coordination Sequence:
#
# PCOD9017900 Si02
#       8
#     2   2   2   2   2   2   2   2
#     4  10  21  43  67  91 121 155 207 258 311 380
#     4  11  23  40  64  92 126 165 205 260 315 366
#     4  12  25  38  61  94 128 169 217 253 303 366
#     4  11  23  39  60  87 126 170 213 256 305 364
#     4   9  22  40  65  93 117 159 207 251 317 376
#     4  10  23  39  60  88 123 170 216 253 303 364
#     4  11  22  40  63  89 129 160 205 262 314 364
#     4  10  22  41  63  89 125 166 208 258 308 365
#
# _framework density 20.082785999999999
#
# number of rings (size 3 to 8) (size 9 to 14) (size 15 to 20)
#    0.000    1.500    2.500    1.875    1.750   10.500 
#    0.000    0.625    0.000    0.000    0.000    0.000 
#    0.000    0.000    0.000    0.000    0.000    0.000 
#
# Total GULP energy -89434.005336 kJ/mol
# GULP energy per Si atom -5589.625334 kJ/mol
# Density = 2.003708 g / cm^3
# Si number density = 20.082786 Si / 1000 Ang^3
#
#
#
# Elastic Constant Matrix: (Units=GPa)
#
#
# Indices 1 2 3 4 5 6 
#
# 1 111.8695 13.2560 34.3285 10.8678 29.1873 11.1473
# 2 13.2560 65.2599 6.7237 -1.8196 20.6266 -0.6943
# 3 34.3285 6.7237 59.8411 -1.5977 13.6590 -7.2292
# 4 10.8678 -1.8196 -1.5977 21.3756 -0.8119 3.2821
# 5 29.1873 20.6266 13.6590 -0.8119 36.2553 5.0039
# 6 11.1473 -0.6943 -7.2292 3.2821 5.0039 31.6055
#
#
#
# Elastic Compliance Matrix: (Units=1/GPa)
#
#
# Indices 1 2 3 4 5 6 
#
# 1 0.014570 0.000276 -0.007156 -0.007543 -0.008724 -0.004605
# 2 0.000276 0.018877 0.000628 0.000739 -0.011486 0.002203
# 3 -0.007156 0.000628 0.022774 0.004007 -0.004191 0.007994
# 4 -0.007543 0.000739 0.004007 0.051604 0.005666 -0.002663
# 5 -0.008724 -0.011486 -0.004191 0.005666 0.043622 -0.005629
# 6 -0.004605 0.002203 0.007994 -0.002663 -0.005629 0.036309
#
#
# Mechanical properties :
#
#
# Convention : Reuss Voigt Hill
#
# Bulk Modulus (GPa) = 22.87372 38.39853 30.63612
# Shear Modulus (GPa) = 23.27400 30.02478 26.64939
#
# Velocity S-wave (km/s) = 3.40796 3.87078 3.64672
# Velocity P-wave (km/s) = 5.18652 6.25611 5.74626
#
# Compressibility (1/GPa) = 0.04371830
#
# Stress axis : x y z
#
# Youngs Moduli (GPa) = 68.63490 52.97473 43.90882
#
# Poissons Ratio (x) = -0.01461 0.31419
# Poissons Ratio (y) = -0.01893 -0.02759
# Poissons Ratio (z) = 0.49112 -0.03329
#
# Static dielectric constant tensor:
#      x y z
#    x 1.714680 -0.020350 0.006030 
#    y -0.020350 1.689040 -0.000280 
#    z 0.006030 -0.000280 1.724570 
# 
# From -- ./inp_files/37920.got.cif
#   From: 2010.05.17/outbox.cif.g08.bks.cpg/sg2_19_cif.got.tgz:37920.got - 2010.06.03 11:33:40.
