data_PCOD9017089
_publ_section_title
;
Structure prediction by ZEFSAII (Michael W. Deem and Ramdas Pophale) SiO2 
 PCOD9017089
Probable space group: P -1
;
_chemical_formula_sum "Si O2"
_cell_formula_units_Z 16
_cell_length_a 9.303653
_cell_length_b 11.795727
_cell_length_c 7.565300
_cell_angle_alpha 54.827027
_cell_angle_beta 73.971238
_cell_angle_gamma 77.351592
_cell_volume 650.370080
_symmetry_space_group_name_H-M "P -1"
_symmetry_group_IT_number 2
_symmetry_cell_setting 'triclinic'
loop_
_space_group_symop_operation_xyz
x,y,z
-x,-y,-z
loop_
_atom_site_type_symbol
_atom_site_label
_atom_site_fract_x
_atom_site_fract_y
_atom_site_fract_z
Si Si1 0.460410 0.664568 0.906572
Si Si2 0.373067 0.086533 0.862874
Si Si3 0.080045 0.396063 0.844436
Si Si4 0.434563 0.366514 0.720295
Si Si5 0.788559 0.151271 0.374252
Si Si6 0.039774 0.108025 0.037965
Si Si7 0.997912 0.696647 0.646121
Si Si8 0.697502 0.883493 0.527853
O O1 0.309572 0.727301 0.805997
O O2 0.584958 0.767289 0.712758
O O3 0.500000 0.500000 0.000000
O O4 0.465415 0.677986 0.104363
O O5 0.427019 0.241976 0.697130
O O6 0.339598 0.045360 0.712071
O O7 0.218024 0.085918 0.024201
O O8 0.500000 0.000000 0.000000
O O9 0.259565 0.398687 0.799552
O O10 0.016474 0.549354 0.675630
O O11 0.028553 0.273243 0.846819
O O12 0.028041 0.350780 0.098131
O O13 0.500000 0.500000 0.500000
O O14 0.931603 0.096994 0.252387
O O15 0.854839 0.217324 0.467664
O O16 0.698346 0.013962 0.543055
O O17 0.000000 0.000000 0.000000
O O18 0.858070 0.797124 0.544857
#
# Coordination Sequence:
#
# PCOD9017089 Si02
#       8
#     2   2   2   2   2   2   2   2
#     4  12  26  45  74 102 142 185 243 294 349 425
#     4  11  25  47  69  97 142 185 229 285 350 421
#     4   9  20  41  69  97 137 186 228 294 348 410
#     4  11  23  45  65  98 136 182 231 285 348 414
#     4  11  24  43  70 106 141 182 232 297 358 412
#     4  10  21  43  69  95 140 187 232 276 351 423
#     4  10  21  42  71 101 142 174 235 297 355 408
#     4  12  24  45  70 108 137 185 240 291 355 422
#
# _framework density 24.601376999999999
#
# number of rings (size 3 to 8) (size 9 to 14) (size 15 to 20)
#    0.000    1.250    2.500    3.000    3.500    0.000 
#    6.750    1.250    0.000    0.000    0.000    0.000 
#    0.000    0.000    0.000    0.000    0.000    0.000 
#
# Total GULP energy -89573.808093 kJ/mol
# GULP energy per Si atom -5598.363006 kJ/mol
# Density = 2.454538 g / cm^3
# Si number density = 24.601377 Si / 1000 Ang^3
#
#
#
# Elastic Constant Matrix: (Units=GPa)
#
#
# Indices 1 2 3 4 5 6 
#
# 1 127.3184 36.8627 44.6618 -30.0204 4.8902 3.5720
# 2 36.8627 131.2653 31.3142 -41.1117 0.0756 20.6028
# 3 44.6618 31.3142 98.0730 -19.5910 5.4589 5.5633
# 4 -30.0204 -41.1117 -19.5910 40.9385 5.2230 4.1724
# 5 4.8902 0.0756 5.4589 5.2230 43.6227 -10.6118
# 6 3.5720 20.6028 5.5633 4.1724 -10.6118 33.6045
#
#
#
# Elastic Compliance Matrix: (Units=1/GPa)
#
#
# Indices 1 2 3 4 5 6 
#
# 1 0.010768 0.000447 -0.003320 0.007301 -0.002273 -0.002494
# 2 0.000447 0.015025 -0.000555 0.017134 -0.005206 -0.012939
# 3 -0.003320 -0.000555 0.012917 0.003758 -0.002338 -0.002650
# 4 0.007301 0.017134 0.003758 0.052765 -0.013134 -0.022602
# 5 -0.002273 -0.005206 -0.002338 -0.013134 0.028574 0.014474
# 6 -0.002494 -0.012939 -0.002650 -0.022602 0.014474 0.045772
#
#
# Mechanical properties :
#
#
# Convention : Reuss Voigt Hill
#
# Bulk Modulus (GPa) = 31.39245 64.70378 48.04812
# Shear Modulus (GPa) = 27.27866 39.88768 33.58317
#
# Velocity S-wave (km/s) = 3.33352 4.03098 3.69872
# Velocity P-wave (km/s) = 5.25401 6.92987 6.14929
#
# Compressibility (1/GPa) = 0.03185479
#
# Stress axis : x y z
#
# Youngs Moduli (GPa) = 92.86566 66.55586 77.41889
#
# Poissons Ratio (x) = -0.02977 0.25705
# Poissons Ratio (y) = -0.04154 0.04295
# Poissons Ratio (z) = 0.30833 0.03692
#
# Static dielectric constant tensor:
#      x y z
#    x 2.185890 -0.233190 0.048070 
#    y -0.233190 2.272930 -0.110880 
#    z 0.048070 -0.110880 2.005530 
# 
# From -- ./inp_files/184088.got.cif
#   From: 2010.05.17/outbox.cif.g08.bks.cpg/sg2_93_cif.got.tgz:184088.got - 2010.06.03 11:33:40.
