data_PCOD9017222
_publ_section_title
;
Structure prediction by ZEFSAII (Michael W. Deem and Ramdas Pophale) SiO2 
 PCOD9017222
Probable space group: P -1
;
_chemical_formula_sum "Si O2"
_cell_formula_units_Z 14
_cell_length_a 15.052711
_cell_length_b 8.453645
_cell_length_c 12.640007
_cell_angle_alpha 129.558775
_cell_angle_beta 28.872435
_cell_angle_gamma 120.000971
_cell_volume 591.545758
_symmetry_space_group_name_H-M "P -1"
_symmetry_group_IT_number 2
_symmetry_cell_setting 'triclinic'
loop_
_space_group_symop_operation_xyz
x,y,z
-x,-y,-z
loop_
_atom_site_type_symbol
_atom_site_label
_atom_site_fract_x
_atom_site_fract_y
_atom_site_fract_z
Si Si1 0.862473 0.578534 0.772414
Si Si2 0.980651 0.287090 0.872974
Si Si3 0.947511 0.771647 0.452600
Si Si4 0.908843 0.085693 0.240476
Si Si5 0.539915 0.759729 0.889488
Si Si6 0.447104 0.690131 0.720773
Si Si7 0.473105 0.846003 0.224272
O O1 0.000000 0.500000 0.500000
O O2 0.877757 0.381148 0.749251
O O3 0.978099 0.731906 0.776171
O O4 0.662280 0.708231 0.010209
O O5 0.100416 0.270880 0.636049
O O6 0.775484 0.273419 0.039516
O O7 0.042925 0.096951 0.802990
O O8 0.000000 0.500000 0.000000
O O9 0.756192 0.733865 0.690528
O O10 0.000000 0.000000 0.500000
O O11 0.689906 0.161200 0.522581
O O12 0.000000 0.000000 0.000000
O O13 0.506618 0.646688 0.764190
O O14 0.432587 0.749870 0.109842
O O15 0.500000 0.000000 0.000000
O O16 0.500000 0.500000 0.500000
O O17 0.507739 0.909678 0.711923
#
# Coordination Sequence:
#
# PCOD9017222 Si02
#       7
#     2   2   2   2   2   2   2
#     4  12  26  49  76 113 159 199 258 318 390 461
#     4  12  24  46  74 108 150 196 256 313 376 462
#     4  12  24  45  76 108 150 197 254 315 378 456
#     4  12  28  51  77 108 155 202 258 329 392 462
#     4  10  21  42  72 110 151 196 256 310 379 462
#     4  11  23  43  76 115 155 201 257 314 382 465
#     4  11  24  51  75 111 158 203 257 318 387 462
#
# _framework density 23.666810000000002
#
# number of rings (size 3 to 8) (size 9 to 14) (size 15 to 20)
#    0.000    0.571    2.857    6.857    0.000    2.286 
#    7.714    0.000    0.000    0.000    0.000    0.000 
#    0.000    0.000    0.000    0.000    0.000    0.000 
#
# Total GULP energy -78262.698078 kJ/mol
# GULP energy per Si atom -5590.192720 kJ/mol
# Density = 2.361294 g / cm^3
# Si number density = 23.666810 Si / 1000 Ang^3
#
#
#
# Elastic Constant Matrix: (Units=GPa)
#
#
# Indices 1 2 3 4 5 6 
#
# 1 125.2056 58.7088 90.1132 6.8291 1.9776 5.8041
# 2 58.7088 114.2098 44.3781 23.8530 1.2259 2.2991
# 3 90.1132 44.3781 182.5313 -6.9971 4.7088 0.7664
# 4 6.8291 23.8530 -6.9971 46.0462 7.9851 1.8367
# 5 1.9776 1.2259 4.7088 7.9851 62.7619 8.6616
# 6 5.8041 2.2991 0.7664 1.8367 8.6616 53.4336
#
#
#
# Elastic Compliance Matrix: (Units=1/GPa)
#
#
# Indices 1 2 3 4 5 6 
#
# 1 0.014891 -0.005155 -0.006119 -0.000473 0.000337 -0.001346
# 2 -0.005155 0.013049 -0.000888 -0.006265 0.000757 0.000104
# 3 -0.006119 -0.000888 0.008845 0.002843 -0.000901 0.000624
# 4 -0.000473 -0.006265 0.002843 0.026054 -0.003382 -0.000067
# 5 0.000337 0.000757 -0.000901 -0.003382 0.016773 -0.002659
# 6 -0.001346 0.000104 0.000624 -0.000067 -0.002659 0.019281
#
#
# Mechanical properties :
#
#
# Convention : Reuss Voigt Hill
#
# Bulk Modulus (GPa) = 80.24975 89.81631 85.03303
# Shear Modulus (GPa) = 39.25563 47.69811 43.47687
#
# Velocity S-wave (km/s) = 4.07711 4.49419 4.29072
# Velocity P-wave (km/s) = 7.49303 8.05997 7.78166
#
# Compressibility (1/GPa) = 0.01246110
#
# Stress axis : x y z
#
# Youngs Moduli (GPa) = 67.15463 76.63518 113.05726
#
# Poissons Ratio (x) = 0.39502 0.69185
# Poissons Ratio (y) = 0.34615 0.10038
# Poissons Ratio (z) = 0.41095 0.06804
#
# Static dielectric constant tensor:
#      x y z
#    x 1.951150 0.000740 -0.007760 
#    y 0.000740 1.919310 -0.098460 
#    z -0.007760 -0.098460 1.938220 
# 
# From -- ./inp_files/448129.got.cif
#   From: 2010.05.17/outbox.cif.g08.bks.cpg/sg2_225_cif.got.tgz:448129.got - 2010.06.03 11:33:40.
