data_PCOD9017162
_publ_section_title
;
Structure prediction by ZEFSAII (Michael W. Deem and Ramdas Pophale) SiO2 
 PCOD9017162
Probable space group: P -1
;
_chemical_formula_sum "Si O2"
_cell_formula_units_Z 14
_cell_length_a 26.398751
_cell_length_b 19.456531
_cell_length_c 10.734412
_cell_angle_alpha 26.477971
_cell_angle_beta 153.478079
_cell_angle_gamma 164.354066
_cell_volume 637.779927
_symmetry_space_group_name_H-M "P -1"
_symmetry_group_IT_number 2
_symmetry_cell_setting 'triclinic'
loop_
_space_group_symop_operation_xyz
x,y,z
-x,-y,-z
loop_
_atom_site_type_symbol
_atom_site_label
_atom_site_fract_x
_atom_site_fract_y
_atom_site_fract_z
Si Si1 0.230394 0.190549 0.342171
Si Si2 0.476457 0.907417 0.460280
Si Si3 0.125144 0.684266 0.670441
Si Si4 0.139414 0.359943 0.701761
Si Si5 0.478238 0.171048 0.829415
Si Si6 0.128223 0.224725 0.311857
Si Si7 0.155260 0.835952 0.220355
O O1 0.369877 0.203749 0.591506
O O2 0.216035 0.209045 0.426403
O O3 0.269471 0.390137 0.025057
O O4 0.013780 0.905891 0.283510
O O5 0.262745 0.599208 0.489982
O O6 0.500000 0.000000 0.500000
O O7 0.627872 0.935205 0.725969
O O8 0.509291 0.082513 0.151891
O O9 0.171115 0.751868 0.516219
O O10 0.985097 0.664985 0.443556
O O11 0.983046 0.379218 0.846857
O O12 0.324895 0.921023 0.802579
O O13 0.683521 0.458173 0.757153
O O14 0.000000 0.000000 0.500000
O O15 0.956430 0.139454 0.014632
#
# Coordination Sequence:
#
# PCOD9017162 Si02
#       7
#     2   2   2   2   2   2   2
#     4  10  23  44  69  97 137 175 220 268 331 398
#     4  12  25  42  70 101 132 176 226 272 332 391
#     4  10  21  44  70  96 130 174 220 278 334 378
#     4  10  21  42  71  98 132 176 221 270 326 402
#     4  11  26  44  71  99 132 175 228 278 322 398
#     4  12  27  43  65  99 137 178 216 276 337 399
#     4  11  24  42  68  94 139 172 217 279 333 394
#
# _framework density 21.951146000000001
#
# number of rings (size 3 to 8) (size 9 to 14) (size 15 to 20)
#    0.000    1.143    2.857    3.000    4.000    6.857 
#    0.000    1.429    0.000    0.000    0.000    0.000 
#    0.000    0.000    0.000    0.000    0.000    0.000 
#
# Total GULP energy -78078.575928 kJ/mol
# GULP energy per Si atom -5577.041138 kJ/mol
# Density = 2.190118 g / cm^3
# Si number density = 21.951146 Si / 1000 Ang^3
#
#
#
# Elastic Constant Matrix: (Units=GPa)
#
#
# Indices 1 2 3 4 5 6 
#
# 1 74.7240 46.0155 15.9167 12.2834 -1.5787 -1.5352
# 2 46.0155 119.1666 42.2545 -6.1506 -20.5237 14.1240
# 3 15.9167 42.2545 79.6421 2.8088 -3.5360 15.0326
# 4 12.2834 -6.1506 2.8088 31.6735 8.8740 0.5804
# 5 -1.5787 -20.5237 -3.5360 8.8740 31.7469 0.6810
# 6 -1.5352 14.1240 15.0326 0.5804 0.6810 29.2770
#
#
#
# Elastic Compliance Matrix: (Units=1/GPa)
#
#
# Indices 1 2 3 4 5 6 
#
# 1 0.021033 -0.009836 0.000078 -0.009399 -0.002807 0.006060
# 2 -0.009836 0.016542 -0.005507 0.005318 0.008233 -0.005966
# 3 0.000078 -0.005507 0.016589 -0.002193 -0.000971 -0.005791
# 4 -0.009399 0.005318 -0.002193 0.038746 -0.008050 -0.002513
# 5 -0.002807 0.008233 -0.000971 -0.008050 0.038918 -0.004366
# 6 0.006060 -0.005966 -0.005791 -0.002513 -0.004366 0.040477
#
#
# Mechanical properties :
#
#
# Convention : Reuss Voigt Hill
#
# Bulk Modulus (GPa) = 42.30982 53.54513 47.92748
# Shear Modulus (GPa) = 23.72891 29.82919 26.77905
#
# Velocity S-wave (km/s) = 3.29140 3.69031 3.49655
# Velocity P-wave (km/s) = 5.81041 6.52715 6.17918
#
# Compressibility (1/GPa) = 0.02363517
#
# Stress axis : x y z
#
# Youngs Moduli (GPa) = 47.54336 60.45243 60.27935
#
# Poissons Ratio (x) = 0.59464 -0.00472
# Poissons Ratio (y) = 0.46766 0.33193
# Poissons Ratio (z) = -0.00372 0.33289
#
# Static dielectric constant tensor:
#      x y z
#    x 1.824320 -0.045900 0.021450 
#    y -0.045900 1.886230 -0.031080 
#    z 0.021450 -0.031080 1.892590 
# 
# From -- ./inp_files/244855.got.cif
#   From: 2010.05.17/outbox.cif.g08.bks.cpg/sg2_123_cif.got.tgz:244855.got - 2010.06.03 11:33:40.
