data_PCOD9017374
_publ_section_title
;
Structure prediction by ZEFSAII (Michael W. Deem and Ramdas Pophale) SiO2 
 PCOD9017374
Probable space group: P -1
;
_chemical_formula_sum "Si O2"
_cell_formula_units_Z 14
_cell_length_a 8.717200
_cell_length_b 8.189950
_cell_length_c 9.327017
_cell_angle_alpha 119.360008
_cell_angle_beta 86.032805
_cell_angle_gamma 85.790460
_cell_volume 574.540200
_symmetry_space_group_name_H-M "P -1"
_symmetry_group_IT_number 2
_symmetry_cell_setting 'triclinic'
loop_
_space_group_symop_operation_xyz
x,y,z
-x,-y,-z
loop_
_atom_site_type_symbol
_atom_site_label
_atom_site_fract_x
_atom_site_fract_y
_atom_site_fract_z
Si Si1 0.545087 0.776916 0.113710
Si Si2 0.668043 0.325773 0.699497
Si Si3 0.523817 0.792260 0.594011
Si Si4 0.157334 0.139546 0.996913
Si Si5 0.340147 0.728867 0.838599
Si Si6 0.836537 0.611282 0.618114
Si Si7 0.888097 0.340116 0.957647
O O1 0.480374 0.635962 0.169101
O O2 0.488682 0.990103 0.261528
O O3 0.725599 0.747530 0.055232
O O4 0.468801 0.768001 0.960524
O O5 0.585336 0.202159 0.536298
O O6 0.747705 0.467403 0.655187
O O7 0.798205 0.281487 0.797095
O O8 0.433304 0.674866 0.665510
O O9 0.706417 0.706545 0.553341
O O10 0.135270 0.232494 0.195669
O O11 0.999776 0.159247 0.928467
O O12 0.240062 0.928819 0.901442
O O13 0.226754 0.607637 0.877878
O O14 0.000000 0.500000 0.500000
O O15 0.000000 0.500000 0.000000
#
# Coordination Sequence:
#
# PCOD9017374 Si02
#       7
#     2   2   2   2   2   2   2
#     4  10  21  44  74  99 125 175 226 281 324 393
#     4  11  26  42  65 102 136 177 216 275 346 382
#     4  11  22  46  70  99 133 172 228 272 331 408
#     4  11  21  44  71  97 132 174 231 270 323 403
#     4  10  21  42  76  97 123 184 227 271 323 398
#     4  12  26  43  67  99 140 176 216 278 340 396
#     4  11  24  41  65 100 140 174 220 275 333 392
#
# _framework density 24.367311000000001
#
# number of rings (size 3 to 8) (size 9 to 14) (size 15 to 20)
#    0.000    1.143    4.286    2.143    2.000    2.857 
#    0.000    3.571    0.000    0.000    0.000    0.000 
#    0.000    0.000    0.000    0.000    0.000    0.000 
#
# Total GULP energy -78144.647466 kJ/mol
# GULP energy per Si atom -5581.760533 kJ/mol
# Density = 2.431185 g / cm^3
# Si number density = 24.367311 Si / 1000 Ang^3
#
#
#
# Elastic Constant Matrix: (Units=GPa)
#
#
# Indices 1 2 3 4 5 6 
#
# 1 183.6773 65.7091 62.5872 -2.7912 -8.8549 -19.7366
# 2 65.7091 76.4402 36.9944 1.2443 -4.6574 -8.2307
# 3 62.5872 36.9944 140.6061 -3.1597 9.5898 -10.4338
# 4 -2.7912 1.2443 -3.1597 34.9904 -1.9040 -11.4845
# 5 -8.8549 -4.6574 9.5898 -1.9040 56.5633 -12.7311
# 6 -19.7366 -8.2307 -10.4338 -11.4845 -12.7311 59.3627
#
#
#
# Elastic Compliance Matrix: (Units=1/GPa)
#
#
# Indices 1 2 3 4 5 6 
#
# 1 0.008749 -0.006116 -0.002198 0.001596 0.001827 0.002375
# 2 -0.006116 0.019684 -0.002543 -0.001279 0.001105 0.000238
# 3 -0.002198 -0.002543 0.008925 0.000673 -0.002002 0.000186
# 4 0.001596 -0.001279 0.000673 0.031289 0.002682 0.007100
# 5 0.001827 0.001105 -0.002002 0.002682 0.019643 0.005140
# 6 0.002375 0.000238 0.000186 0.007100 0.005140 0.020177
#
#
# Mechanical properties :
#
#
# Convention : Reuss Voigt Hill
#
# Bulk Modulus (GPa) = 63.92065 81.25611 72.58838
# Shear Modulus (GPa) = 36.92924 45.87880 41.40402
#
# Velocity S-wave (km/s) = 3.89720 4.34383 4.12656
# Velocity P-wave (km/s) = 6.82202 7.65358 7.24973
#
# Compressibility (1/GPa) = 0.01564440
#
# Stress axis : x y z
#
# Youngs Moduli (GPa) = 114.30486 50.80290 112.04633
#
# Poissons Ratio (x) = 0.31070 0.24623
# Poissons Ratio (y) = 0.69906 0.28495
# Poissons Ratio (z) = 0.25120 0.12920
#
# Static dielectric constant tensor:
#      x y z
#    x 2.000630 0.045810 -0.031020 
#    y 0.045810 2.057140 -0.018620 
#    z -0.031020 -0.018620 1.964470 
# 
# From -- ./inp_files/160135.got.cif
#   From: 2010.05.17/outbox.cif.g08.bks.cpg/sg2_81_cif.got.tgz:160135.got - 2010.06.03 11:33:40.
