data_PCOD9017664
_publ_section_title
;
Structure prediction by ZEFSAII (Michael W. Deem and Ramdas Pophale) SiO2 
 PCOD9017664
Probable space group: P -1
;
_chemical_formula_sum "Si O2"
_cell_formula_units_Z 14
_cell_length_a 9.999881
_cell_length_b 15.100834
_cell_length_c 5.004941
_cell_angle_alpha 74.488314
_cell_angle_beta 83.112523
_cell_angle_gamma 127.478853
_cell_volume 536.994400
_symmetry_space_group_name_H-M "P -1"
_symmetry_group_IT_number 2
_symmetry_cell_setting 'triclinic'
loop_
_space_group_symop_operation_xyz
x,y,z
-x,-y,-z
loop_
_atom_site_type_symbol
_atom_site_label
_atom_site_fract_x
_atom_site_fract_y
_atom_site_fract_z
Si Si1 0.605504 0.436397 0.782828
Si Si2 0.989997 0.818569 0.622073
Si Si3 0.882867 0.308999 0.519744
Si Si4 0.805713 0.362804 0.994311
Si Si5 0.625406 0.653695 0.565850
Si Si6 0.485057 0.890450 0.471916
Si Si7 0.871237 0.029948 0.020535
O O1 0.761941 0.434442 0.785529
O O2 0.660740 0.562336 0.564200
O O3 0.450761 0.334341 0.692243
O O4 0.528811 0.413354 0.117822
O O5 0.802479 0.769852 0.582430
O O6 0.004488 0.718426 0.629480
O O7 0.021340 0.853024 0.895561
O O8 0.138767 0.936018 0.304841
O O9 0.916591 0.347016 0.785217
O O10 0.673691 0.178434 0.657281
O O11 0.880719 0.395234 0.250928
O O12 0.608141 0.223374 0.206559
O O13 0.500000 0.000000 0.500000
O O14 0.671588 0.936710 0.270957
O O15 0.000000 0.000000 0.000000
#
# Coordination Sequence:
#
# PCOD9017664 Si02
#       7
#     2   2   2   2   2   2   2
#     4  10  21  43  65  96 117 166 215 257 335 389
#     4  12  24  44  60  91 134 166 214 263 332 378
#     4  10  22  38  63  91 120 173 211 258 312 383
#     4  10  22  37  66  91 123 156 226 266 298 381
#     4  10  23  40  68  88 128 166 204 266 330 397
#     4  10  22  41  63  87 125 178 213 255 310 385
#     4  12  27  40  62  94 133 173 219 267 317 380
#
# _framework density 26.071038000000001
#
# number of rings (size 3 to 8) (size 9 to 14) (size 15 to 20)
#    0.857    0.571    1.429    3.857    4.000    2.286 
#    0.000    1.429    0.000    0.000    0.000    0.000 
#    0.000    0.000    0.000    0.000    0.000    0.000 
#
# Total GULP energy -78313.725867 kJ/mol
# GULP energy per Si atom -5593.837562 kJ/mol
# Density = 2.601170 g / cm^3
# Si number density = 26.071038 Si / 1000 Ang^3
#
#
#
# Elastic Constant Matrix: (Units=GPa)
#
#
# Indices 1 2 3 4 5 6 
#
# 1 135.9133 20.7776 24.5651 7.0365 0.7264 -2.8758
# 2 20.7776 60.1284 5.3694 16.9291 -5.3099 3.6687
# 3 24.5651 5.3694 90.3409 12.8045 3.0929 -12.2678
# 4 7.0365 16.9291 12.8045 50.5564 2.5831 0.6389
# 5 0.7264 -5.3099 3.0929 2.5831 41.3760 2.3841
# 6 -2.8758 3.6687 -12.2678 0.6389 2.3841 44.9555
#
#
#
# Elastic Compliance Matrix: (Units=1/GPa)
#
#
# Indices 1 2 3 4 5 6 
#
# 1 0.008142 -0.002769 -0.002056 0.000331 -0.000377 0.000201
# 2 -0.002769 0.019761 0.000132 -0.006399 0.003079 -0.001826
# 3 -0.002056 0.000132 0.012523 -0.002926 -0.000894 0.003364
# 4 0.000331 -0.006399 -0.002926 0.022726 -0.002000 -0.000472
# 5 -0.000377 0.003079 -0.000894 -0.002000 0.024866 -0.001810
# 6 0.000201 -0.001826 0.003364 -0.000472 -0.001810 0.023427
#
#
# Mechanical properties :
#
#
# Convention : Reuss Voigt Hill
#
# Bulk Modulus (GPa) = 32.21653 43.08964 37.65309
# Shear Modulus (GPa) = 38.11656 43.08894 40.60275
#
# Velocity S-wave (km/s) = 3.82779 4.06981 3.95066
# Velocity P-wave (km/s) = 5.64978 6.21677 5.94004
#
# Compressibility (1/GPa) = 0.03103997
#
# Stress axis : x y z
#
# Youngs Moduli (GPa) = 122.82600 50.60440 79.85546
#
# Poissons Ratio (x) = 0.14010 0.16419
# Poissons Ratio (y) = 0.34005 -0.01054
# Poissons Ratio (z) = 0.25254 -0.00668
#
# Static dielectric constant tensor:
#      x y z
#    x 2.045760 0.046590 0.003790 
#    y 0.046590 2.175650 -0.116450 
#    z 0.003790 -0.116450 1.963930 
# 
# From -- ./inp_files/40686.got.cif
#   From: 2010.05.17/outbox.cif.g08.bks.cpg/sg2_21_cif.got.tgz:40686.got - 2010.06.03 11:33:40.
