data_PCOD9017934
_publ_section_title
;
Structure prediction by ZEFSAII (Michael W. Deem and Ramdas Pophale) SiO2 
 PCOD9017934
Probable space group: P -1
;
_chemical_formula_sum "Si O2"
_cell_formula_units_Z 16
_cell_length_a 13.127295
_cell_length_b 10.803433
_cell_length_c 9.863455
_cell_angle_alpha 66.617456
_cell_angle_beta 82.965559
_cell_angle_gamma 36.514197
_cell_volume 712.820650
_symmetry_space_group_name_H-M "P -1"
_symmetry_group_IT_number 2
_symmetry_cell_setting 'triclinic'
loop_
_space_group_symop_operation_xyz
x,y,z
-x,-y,-z
loop_
_atom_site_type_symbol
_atom_site_label
_atom_site_fract_x
_atom_site_fract_y
_atom_site_fract_z
Si Si1 0.759164 0.690913 0.648274
Si Si2 0.267188 0.496784 0.838819
Si Si3 0.952522 0.845855 0.163263
Si Si4 0.219546 0.273495 0.057855
Si Si5 0.535981 0.305875 0.101739
Si Si6 0.062113 0.006166 0.190692
Si Si7 0.559325 0.156824 0.448918
Si Si8 0.414147 0.780377 0.280455
O O1 0.720279 0.743458 0.793651
O O2 0.608773 0.765554 0.561937
O O3 0.944124 0.406793 0.724432
O O4 0.739550 0.866210 0.527406
O O5 0.387537 0.433495 0.729033
O O6 0.067805 0.780992 0.768917
O O7 0.259101 0.342829 0.907006
O O8 0.382642 0.400256 0.998064
O O9 0.738040 0.055666 0.124234
O O10 0.990809 0.863448 0.999460
O O11 0.018539 0.895387 0.229766
O O12 0.313028 0.026295 0.132971
O O13 0.000000 0.500000 0.000000
O O14 0.529204 0.281945 0.270891
O O15 0.500000 0.500000 0.000000
O O16 0.275576 0.808779 0.262081
O O17 0.568745 0.220891 0.561289
#
# Coordination Sequence:
#
# PCOD9017934 Si02
#       8
#     2   2   2   2   2   2   2   2
#     4  10  21  43  67  94 137 185 219 280 348 394
#     4  12  22  41  68 102 135 175 238 276 331 418
#     4  11  22  40  71 100 134 181 233 283 336 397
#     4  11  20  38  67 100 136 176 227 286 332 399
#     4  12  24  43  72 102 131 181 238 279 335 421
#     4  11  22  40  67 104 137 174 233 286 329 406
#     4  10  24  45  66  98 142 176 228 285 342 412
#     4  11  24  42  66  99 138 184 219 282 357 392
#
# _framework density 22.44604
#
# number of rings (size 3 to 8) (size 9 to 14) (size 15 to 20)
#    0.000    1.000    6.250    0.375    1.750    0.500 
#    2.250    3.125    0.000    0.000    0.000    0.000 
#    0.000    0.000    0.000    0.000    0.000    0.000 
#
# Total GULP energy -89496.724960 kJ/mol
# GULP energy per Si atom -5593.545310 kJ/mol
# Density = 2.239495 g / cm^3
# Si number density = 22.446040 Si / 1000 Ang^3
#
#
#
# Elastic Constant Matrix: (Units=GPa)
#
#
# Indices 1 2 3 4 5 6 
#
# 1 58.4820 -9.5036 12.9501 6.2286 3.8979 -5.1933
# 2 -9.5036 78.0217 11.6452 -0.8570 -7.5355 -7.5795
# 3 12.9501 11.6452 81.6534 3.2982 -8.3022 14.5214
# 4 6.2286 -0.8570 3.2982 22.0582 1.6338 -1.4654
# 5 3.8979 -7.5355 -8.3022 1.6338 27.9628 0.1847
# 6 -5.1933 -7.5795 14.5214 -1.4654 0.1847 30.3960
#
#
#
# Elastic Compliance Matrix: (Units=1/GPa)
#
#
# Indices 1 2 3 4 5 6 
#
# 1 0.019980 0.003456 -0.004965 -0.004104 -0.003131 0.006468
# 2 0.003456 0.014552 -0.003439 0.000318 0.002362 0.005863
# 3 -0.004965 -0.003439 0.015740 -0.002049 0.004620 -0.009352
# 4 -0.004104 0.000318 -0.002049 0.047190 -0.002725 0.002649
# 5 -0.003131 0.002362 0.004620 -0.002725 0.038382 -0.002518
# 6 0.006468 0.005863 -0.009352 0.002649 -0.002518 0.040077
#
#
# Mechanical properties :
#
#
# Convention : Reuss Voigt Hill
#
# Bulk Modulus (GPa) = 24.76635 27.59339 26.17987
# Shear Modulus (GPa) = 25.09066 29.62109 27.35588
#
# Velocity S-wave (km/s) = 3.34701 3.63665 3.49483
# Velocity P-wave (km/s) = 5.09846 5.47298 5.28904
#
# Compressibility (1/GPa) = 0.04037736
#
# Stress axis : x y z
#
# Youngs Moduli (GPa) = 50.04924 68.71767 63.53044
#
# Poissons Ratio (x) = -0.23746 0.31540
# Poissons Ratio (y) = -0.17295 0.21848
# Poissons Ratio (z) = 0.24847 0.23631
#
# Static dielectric constant tensor:
#      x y z
#    x 1.812030 0.029790 -0.036000 
#    y 0.029790 1.853370 -0.022090 
#    z -0.036000 -0.022090 1.825620 
# 
# From -- ./inp_files/307012.got.cif
#   From: 2010.05.17/outbox.cif.g08.bks.cpg/sg2_154_cif.got.tgz:307012.got - 2010.06.03 11:33:40.
