data_PCOD9017886
_publ_section_title
;
Structure prediction by ZEFSAII (Michael W. Deem and Ramdas Pophale) SiO2 
 PCOD9017886
Probable space group: P -1
;
_chemical_formula_sum "Si O2"
_cell_formula_units_Z 16
_cell_length_a 11.977244
_cell_length_b 8.975241
_cell_length_c 16.098353
_cell_angle_alpha 72.537206
_cell_angle_beta 25.717896
_cell_angle_gamma 70.697964
_cell_volume 708.733434
_symmetry_space_group_name_H-M "P -1"
_symmetry_group_IT_number 2
_symmetry_cell_setting 'triclinic'
loop_
_space_group_symop_operation_xyz
x,y,z
-x,-y,-z
loop_
_atom_site_type_symbol
_atom_site_label
_atom_site_fract_x
_atom_site_fract_y
_atom_site_fract_z
Si Si1 0.636050 0.746900 0.472600
Si Si2 0.358963 0.934482 0.479932
Si Si3 0.844338 0.217127 0.930666
Si Si4 0.567430 0.711484 0.133631
Si Si5 0.703568 0.375939 0.154684
Si Si6 0.846525 0.886508 0.036517
Si Si7 0.455892 0.318406 0.041818
Si Si8 0.046631 0.841324 0.552186
O O1 0.434852 0.810859 0.524430
O O2 0.520457 0.624023 0.627868
O O3 0.915507 0.686701 0.256305
O O4 0.677266 0.894752 0.480015
O O5 0.609835 0.921428 0.253697
O O6 0.133393 0.893627 0.577053
O O7 0.643445 0.297721 0.120299
O O8 0.694636 0.214506 0.946015
O O9 0.962221 0.046541 0.915712
O O10 0.735863 0.551783 0.081404
O O11 0.719744 0.847922 0.041200
O O12 0.290835 0.735731 0.361833
O O13 0.535786 0.705500 0.058135
O O14 0.947189 0.256951 0.045845
O O15 0.195195 0.256338 0.260984
O O16 0.500000 0.500000 0.000000
O O17 0.000000 0.000000 0.500000
#
# Coordination Sequence:
#
# PCOD9017886 Si02
#       8
#     2   2   2   2   2   2   2   2
#     4  11  24  38  72 104 137 188 228 293 357 415
#     4  10  21  43  67 109 138 177 241 292 350 417
#     4  12  25  44  71 103 144 183 244 291 344 437
#     4  11  28  46  72 103 143 189 234 296 371 419
#     4  12  24  44  69 104 145 187 228 295 364 426
#     4  11  22  45  69 103 145 181 236 300 350 424
#     4  12  28  48  73 104 146 195 243 293 359 438
#     4  11  28  49  74 106 147 190 242 303 352 431
#
# _framework density 22.575483999999999
#
# number of rings (size 3 to 8) (size 9 to 14) (size 15 to 20)
#    0.000    0.750    3.750    3.750    7.000    1.500 
#    0.000    1.250    0.000    0.000    0.000    0.000 
#    0.000    0.000    0.000    0.000    0.000    0.000 
#
# Total GULP energy -89490.365413 kJ/mol
# GULP energy per Si atom -5593.147838 kJ/mol
# Density = 2.252410 g / cm^3
# Si number density = 22.575484 Si / 1000 Ang^3
#
#
#
# Elastic Constant Matrix: (Units=GPa)
#
#
# Indices 1 2 3 4 5 6 
#
# 1 148.6672 32.3599 31.0088 -11.9534 11.1839 10.0692
# 2 32.3599 83.0678 22.0346 -7.0501 4.0780 -6.7344
# 3 31.0088 22.0346 84.2291 -10.1590 7.3639 -1.9936
# 4 -11.9534 -7.0501 -10.1590 27.6343 0.0722 -2.3362
# 5 11.1839 4.0780 7.3639 0.0722 40.2532 3.7810
# 6 10.0692 -6.7344 -1.9936 -2.3362 3.7810 30.8627
#
#
#
# Elastic Compliance Matrix: (Units=1/GPa)
#
#
# Indices 1 2 3 4 5 6 
#
# 1 0.008195 -0.002676 -0.002049 0.001852 -0.001345 -0.003085
# 2 -0.002676 0.014230 -0.002349 0.001954 -0.000653 0.004054
# 3 -0.002049 -0.002349 0.013897 0.003761 -0.001889 0.001570
# 4 0.001852 0.001954 0.003761 0.039148 -0.001776 0.003246
# 5 -0.001345 -0.000653 -0.001889 -0.001776 0.025926 -0.003136
# 6 -0.003085 0.004054 0.001570 0.003246 -0.003136 0.035024
#
#
# Mechanical properties :
#
#
# Convention : Reuss Voigt Hill
#
# Bulk Modulus (GPa) = 45.09608 54.08562 49.59085
# Shear Modulus (GPa) = 31.65347 35.12077 33.38712
#
# Velocity S-wave (km/s) = 3.74855 3.94852 3.84983
# Velocity P-wave (km/s) = 6.22531 6.69309 6.46343
#
# Compressibility (1/GPa) = 0.02217488
#
# Stress axis : x y z
#
# Youngs Moduli (GPa) = 122.02123 70.27190 71.95695
#
# Poissons Ratio (x) = 0.18804 0.14745
# Poissons Ratio (y) = 0.32652 0.16902
# Poissons Ratio (z) = 0.25004 0.16506
#
# Static dielectric constant tensor:
#      x y z
#    x 1.837720 0.008400 0.003810 
#    y 0.008400 1.826220 0.016900 
#    z 0.003810 0.016900 1.843720 
# 
# From -- ./inp_files/515276.got.cif
#   From: 2010.05.17/outbox.cif.g08.bks.cpg/sg2_258_cif.got.tgz:515276.got - 2010.06.03 11:33:40.
