data_PCOD9017848
_publ_section_title
;
Structure prediction by ZEFSAII (Michael W. Deem and Ramdas Pophale) SiO2 
 PCOD9017848
Probable space group: P -1
;
_chemical_formula_sum "Si O2"
_cell_formula_units_Z 16
_cell_length_a 8.840265
_cell_length_b 11.938233
_cell_length_c 13.960806
_cell_angle_alpha 102.293137
_cell_angle_beta 150.166235
_cell_angle_gamma 83.241851
_cell_volume 709.340295
_symmetry_space_group_name_H-M "P -1"
_symmetry_group_IT_number 2
_symmetry_cell_setting 'triclinic'
loop_
_space_group_symop_operation_xyz
x,y,z
-x,-y,-z
loop_
_atom_site_type_symbol
_atom_site_label
_atom_site_fract_x
_atom_site_fract_y
_atom_site_fract_z
Si Si1 0.219057 0.010810 0.716255
Si Si2 0.767650 0.421748 0.149817
Si Si3 0.778459 0.392446 0.472074
Si Si4 0.937092 0.591936 0.899541
Si Si5 0.816900 0.190355 0.586468
Si Si6 0.124601 0.799775 0.172269
Si Si7 0.351187 0.995303 0.205828
Si Si8 0.408728 0.771967 0.835995
O O1 0.255249 0.890207 0.765871
O O2 0.533352 0.049196 0.839688
O O3 0.000000 0.000000 0.500000
O O4 0.071310 0.102550 0.714685
O O5 0.633699 0.297257 0.099606
O O6 0.007738 0.487684 0.370478
O O7 0.931989 0.420661 0.136695
O O8 0.500000 0.500000 0.000000
O O9 0.428001 0.406873 0.307638
O O10 0.917950 0.304296 0.603346
O O11 0.749716 0.322424 0.344335
O O12 0.105064 0.710160 0.059020
O O13 0.000000 0.500000 0.000000
O O14 0.740661 0.230185 0.657320
O O15 0.537270 0.117701 0.361487
O O16 0.350952 0.910325 0.279858
O O17 0.762021 0.803025 0.998116
O O18 0.000000 0.000000 0.000000
#
# Coordination Sequence:
#
# PCOD9017848 Si02
#       8
#     2   2   2   2   2   2   2   2
#     4  10  21  43  66  98 141 181 232 283 341 406
#     4  12  26  45  74 107 135 179 234 288 356 418
#     4  11  22  46  72  97 142 179 226 291 348 420
#     4  11  25  49  70  99 137 183 233 290 350 413
#     4  11  23  43  68 103 140 182 231 282 343 413
#     4  11  24  42  67  96 140 186 229 284 336 411
#     4  11  20  42  67  96 136 184 229 278 342 401
#     4  11  22  44  68 102 141 181 227 288 345 406
#
# _framework density 22.556172
#
# number of rings (size 3 to 8) (size 9 to 14) (size 15 to 20)
#    0.000    1.000    3.750    4.875    0.000    2.500 
#   13.500    0.000    0.000    0.000    0.000    0.000 
#    0.000    0.000    0.000    0.000    0.000    0.000 
#
# Total GULP energy -89310.697028 kJ/mol
# GULP energy per Si atom -5581.918564 kJ/mol
# Density = 2.250483 g / cm^3
# Si number density = 22.556172 Si / 1000 Ang^3
#
#
#
# Elastic Constant Matrix: (Units=GPa)
#
#
# Indices 1 2 3 4 5 6 
#
# 1 87.5311 57.0097 29.1307 -7.8898 -3.7947 16.4359
# 2 57.0097 120.6976 22.5460 -8.8803 15.2917 22.3403
# 3 29.1307 22.5460 59.6709 7.8362 -1.2959 -13.5695
# 4 -7.8898 -8.8803 7.8362 36.6312 -1.1877 1.3632
# 5 -3.7947 15.2917 -1.2959 -1.1877 34.8364 0.0534
# 6 16.4359 22.3403 -13.5695 1.3632 0.0534 40.0045
#
#
#
# Elastic Compliance Matrix: (Units=1/GPa)
#
#
# Indices 1 2 3 4 5 6 
#
# 1 0.022001 -0.006920 -0.010846 0.005889 0.005245 -0.009061
# 2 -0.006920 0.014820 -0.004377 0.003063 -0.007307 -0.007013
# 3 -0.010846 -0.004377 0.028957 -0.010180 0.001444 0.017067
# 4 0.005889 0.003063 -0.010180 0.031811 0.000016 -0.008667
# 5 0.005245 -0.007307 0.001444 0.000016 0.032535 0.002371
# 6 -0.009061 -0.007013 0.017067 -0.008667 0.002371 0.038718
#
#
# Mechanical properties :
#
#
# Convention : Reuss Voigt Hill
#
# Bulk Modulus (GPa) = 46.52874 53.91914 50.22394
# Shear Modulus (GPa) = 22.69731 32.90865 27.80298
#
# Velocity S-wave (km/s) = 3.17560 3.82378 3.51466
# Velocity P-wave (km/s) = 5.84111 6.59176 6.22776
#
# Compressibility (1/GPa) = 0.02149209
#
# Stress axis : x y z
#
# Youngs Moduli (GPa) = 45.45335 67.47478 34.53429
#
# Poissons Ratio (x) = 0.46691 0.37455
# Poissons Ratio (y) = 0.31453 0.15116
# Poissons Ratio (z) = 0.49298 0.29535
#
# Static dielectric constant tensor:
#      x y z
#    x 1.760230 -0.062510 -0.015600 
#    y -0.062510 2.241390 -0.067040 
#    z -0.015600 -0.067040 1.863100 
# 
# From -- ./inp_files/500489.got.cif
#   From: 2010.05.17/outbox.cif.g08.bks.cpg/sg2_251_cif.got.tgz:500489.got - 2010.06.03 11:33:40.
