data_PCOD9017687
_publ_section_title
;
Structure prediction by ZEFSAII (Michael W. Deem and Ramdas Pophale) SiO2 
 PCOD9017687
Probable space group: P -1
;
_chemical_formula_sum "Si O2"
_cell_formula_units_Z 14
_cell_length_a 8.589947
_cell_length_b 11.624383
_cell_length_c 16.391214
_cell_angle_alpha 41.482536
_cell_angle_beta 68.035598
_cell_angle_gamma 37.905823
_cell_volume 563.391507
_symmetry_space_group_name_H-M "P -1"
_symmetry_group_IT_number 2
_symmetry_cell_setting 'triclinic'
loop_
_space_group_symop_operation_xyz
x,y,z
-x,-y,-z
loop_
_atom_site_type_symbol
_atom_site_label
_atom_site_fract_x
_atom_site_fract_y
_atom_site_fract_z
Si Si1 0.148381 0.694390 0.166849
Si Si2 0.300365 0.936339 0.809085
Si Si3 0.861172 0.709803 0.076414
Si Si4 0.585569 0.261607 0.662484
Si Si5 0.179137 0.670616 0.899230
Si Si6 0.645981 0.295939 0.395127
Si Si7 0.395226 0.002583 0.327676
O O1 0.498289 0.416375 0.269356
O O2 0.025215 0.652218 0.153705
O O3 0.009836 0.775314 0.239500
O O4 0.000000 0.000000 0.000000
O O5 0.293712 0.758345 0.860257
O O6 0.405929 0.996531 0.697685
O O7 0.546330 0.696596 0.961071
O O8 0.054151 0.371164 0.198447
O O9 0.956472 0.763900 0.957951
O O10 0.500000 0.000000 0.000000
O O11 0.500000 0.500000 0.500000
O O12 0.492479 0.412212 0.689145
O O13 0.465583 0.188367 0.684583
O O14 0.932565 0.934327 0.743392
O O15 0.568036 0.181615 0.517128
O O16 0.000000 0.000000 0.500000
#
# Coordination Sequence:
#
# PCOD9017687 Si02
#       7
#     2   2   2   2   2   2   2
#     4  12  25  45  73 104 140 194 236 287 363 417
#     4  10  22  41  69  96 139 176 236 295 333 429
#     4  11  26  43  70 107 145 180 237 298 351 426
#     4  10  22  44  65  97 134 183 236 277 353 421
#     4  10  21  43  65  98 136 185 230 284 363 406
#     4  11  26  48  73 104 145 189 236 296 358 424
#     4  10  26  44  66 106 135 192 236 288 359 415
#
# _framework density 24.849504
#
# number of rings (size 3 to 8) (size 9 to 14) (size 15 to 20)
#    0.000    1.429    2.857    0.000    8.000    3.429 
#    0.000    0.000    0.000    0.000    0.000    0.000 
#    0.000    0.000    0.000    0.000    0.000    0.000 
#
# Total GULP energy -78043.293691 kJ/mol
# GULP energy per Si atom -5574.520978 kJ/mol
# Density = 2.479295 g / cm^3
# Si number density = 24.849504 Si / 1000 Ang^3
#
#
#
# Elastic Constant Matrix: (Units=GPa)
#
#
# Indices 1 2 3 4 5 6 
#
# 1 133.2026 52.0599 63.2624 -15.2470 -7.4608 4.9614
# 2 52.0599 88.1370 38.1002 -21.6246 -4.7084 -6.8571
# 3 63.2624 38.1002 155.3613 -27.2787 -1.6934 -1.5780
# 4 -15.2470 -21.6246 -27.2787 25.4522 2.2401 -11.1314
# 5 -7.4608 -4.7084 -1.6934 2.2401 47.6974 -1.6988
# 6 4.9614 -6.8571 -1.5780 -11.1314 -1.6988 50.6633
#
#
#
# Elastic Compliance Matrix: (Units=1/GPa)
#
#
# Indices 1 2 3 4 5 6 
#
# 1 0.011510 -0.006264 -0.003860 -0.003942 0.001126 -0.002924
# 2 -0.006264 0.019304 0.000781 0.016457 0.000426 0.006881
# 3 -0.003860 0.000781 0.009592 0.009972 -0.000549 0.002955
# 4 -0.003942 0.016457 0.009972 0.069663 -0.001262 0.018188
# 5 0.001126 0.000426 -0.000549 -0.001262 0.021236 0.000365
# 6 -0.002924 0.006881 0.002955 0.018188 0.000365 0.025056
#
#
# Mechanical properties :
#
#
# Convention : Reuss Voigt Hill
#
# Bulk Modulus (GPa) = 46.04292 75.94953 60.99623
# Shear Modulus (GPa) = 27.42907 39.64782 33.53845
#
# Velocity S-wave (km/s) = 3.32596 3.99873 3.67776
# Velocity P-wave (km/s) = 5.77220 7.20763 6.52948
#
# Compressibility (1/GPa) = 0.02171886
#
# Stress axis : x y z
#
# Youngs Moduli (GPa) = 86.88376 51.80142 104.25524
#
# Poissons Ratio (x) = 0.32450 0.40243
# Poissons Ratio (y) = 0.54427 -0.08140
# Poissons Ratio (z) = 0.33538 -0.04045
#
# Static dielectric constant tensor:
#      x y z
#    x 2.246550 0.158680 0.075560 
#    y 0.158680 2.291080 -0.122010 
#    z 0.075560 -0.122010 2.151010 
# 
# From -- ./inp_files/559667.got.cif
#   From: 2010.05.17/outbox.cif.g08.bks.cpg/sg2_280_cif.got.tgz:559667.got - 2010.06.03 11:33:40.
