data_PCOD9017195
_publ_section_title
;
Structure prediction by ZEFSAII (Michael W. Deem and Ramdas Pophale) SiO2 
 PCOD9017195
Probable space group: P -1
;
_chemical_formula_sum "Si O2"
_cell_formula_units_Z 16
_cell_length_a 12.319762
_cell_length_b 12.664689
_cell_length_c 5.487415
_cell_angle_alpha 93.997445
_cell_angle_beta 111.668859
_cell_angle_gamma 67.922626
_cell_volume 734.959334
_symmetry_space_group_name_H-M "P -1"
_symmetry_group_IT_number 2
_symmetry_cell_setting 'triclinic'
loop_
_space_group_symop_operation_xyz
x,y,z
-x,-y,-z
loop_
_atom_site_type_symbol
_atom_site_label
_atom_site_fract_x
_atom_site_fract_y
_atom_site_fract_z
Si Si1 0.207958 0.016290 0.701753
Si Si2 0.153082 0.218219 0.055763
Si Si3 0.340900 0.287384 0.535498
Si Si4 0.008926 0.799396 0.689082
Si Si5 0.433566 0.051085 0.702984
Si Si6 0.448991 0.638350 0.473061
Si Si7 0.295956 0.751136 0.862661
Si Si8 0.101936 0.381616 0.639483
O O1 0.068871 0.076759 0.474906
O O2 0.306971 0.023346 0.586802
O O3 0.255536 0.889081 0.826828
O O4 0.212369 0.110006 0.914254
O O5 0.264913 0.224719 0.313035
O O6 0.032863 0.198417 0.065291
O O7 0.110019 0.343883 0.918511
O O8 0.426792 0.180617 0.746196
O O9 0.425000 0.333856 0.449876
O O10 0.235560 0.372472 0.638569
O O11 0.942593 0.715538 0.522435
O O12 0.156358 0.746334 0.753800
O O13 0.500000 0.000000 0.500000
O O14 0.500000 0.000000 0.000000
O O15 0.500000 0.500000 0.500000
O O16 0.373300 0.691699 0.670543
O O17 0.367876 0.693472 0.165870
O O18 0.000000 0.500000 0.500000
#
# Coordination Sequence:
#
# PCOD9017195 Si02
#       8
#     2   2   2   2   2   2   2   2
#     4  11  23  43  69 111 147 181 235 297 369 436
#     4  10  21  42  72 102 148 177 234 300 369 414
#     4  11  24  44  69 104 137 187 234 301 358 420
#     4  10  24  43  70 106 145 186 237 301 362 434
#     4  12  23  37  66  99 140 179 221 283 345 423
#     4  12  31  52  72 103 145 198 250 298 351 429
#     4  12  29  48  75 106 144 201 243 289 364 438
#     4  10  23  40  71 104 135 184 243 300 361 416
#
# _framework density 21.769912000000001
#
# number of rings (size 3 to 8) (size 9 to 14) (size 15 to 20)
#    0.000    1.000    3.750    3.000    8.750    3.500 
#    0.000    0.000    0.000    0.000    0.000    0.000 
#    0.000    0.000    0.000    0.000    0.000    0.000 
#
# Total GULP energy -89173.441857 kJ/mol
# GULP energy per Si atom -5573.340116 kJ/mol
# Density = 2.172036 g / cm^3
# Si number density = 21.769912 Si / 1000 Ang^3
#
#
#
# Elastic Constant Matrix: (Units=GPa)
#
#
# Indices 1 2 3 4 5 6 
#
# 1 170.1861 46.2380 40.3857 -10.9416 -12.4695 7.4517
# 2 46.2380 129.4861 45.6761 -37.7718 -11.8561 -12.9009
# 3 40.3857 45.6761 97.5972 -24.1096 -18.6688 -7.7074
# 4 -10.9416 -37.7718 -24.1096 27.0049 2.0613 4.9946
# 5 -12.4695 -11.8561 -18.6688 2.0613 26.0026 0.1277
# 6 7.4517 -12.9009 -7.7074 4.9946 0.1277 21.6961
#
#
#
# Elastic Compliance Matrix: (Units=1/GPa)
#
#
# Indices 1 2 3 4 5 6 
#
# 1 0.007341 -0.002843 -0.002569 -0.002500 0.000600 -0.004552
# 2 -0.002843 0.015107 -0.000117 0.018532 0.003944 0.005628
# 3 -0.002569 -0.000117 0.016479 0.012068 0.009570 0.003832
# 4 -0.002500 0.018532 0.012068 0.072021 0.010208 -0.000475
# 5 0.000600 0.003944 0.009570 0.010208 0.046591 0.002915
# 6 -0.004552 0.005628 0.003832 -0.000475 0.002915 0.052455
#
#
# Mechanical properties :
#
#
# Convention : Reuss Voigt Hill
#
# Bulk Modulus (GPa) = 35.88340 73.54097 54.71219
# Shear Modulus (GPa) = 21.70704 32.60536 27.15620
#
# Velocity S-wave (km/s) = 3.16113 3.87424 3.53571
# Velocity P-wave (km/s) = 5.46283 7.33944 6.46954
#
# Compressibility (1/GPa) = 0.02786804
#
# Stress axis : x y z
#
# Youngs Moduli (GPa) = 136.22987 66.19495 60.68507
#
# Poissons Ratio (x) = 0.18817 0.15592
# Poissons Ratio (y) = 0.38725 0.00710
# Poissons Ratio (z) = 0.35002 0.00774
#
# Static dielectric constant tensor:
#      x y z
#    x 1.865380 -0.030880 -0.082660 
#    y -0.030880 1.740730 0.036790 
#    z -0.082660 0.036790 1.957690 
# 
# From -- ./inp_files/70759.got.cif
#   From: 2010.05.17/outbox.cif.g08.bks.cpg/sg2_36_cif.got.tgz:70759.got - 2010.06.03 11:33:40.
