data_PCOD9017104
_publ_section_title
;
Structure prediction by ZEFSAII (Michael W. Deem and Ramdas Pophale) SiO2 
 PCOD9017104
Probable space group: P -1
;
_chemical_formula_sum "Si O2"
_cell_formula_units_Z 16
_cell_length_a 7.579061
_cell_length_b 14.345625
_cell_length_c 7.446533
_cell_angle_alpha 118.214499
_cell_angle_beta 92.668831
_cell_angle_gamma 62.799574
_cell_volume 619.514554
_symmetry_space_group_name_H-M "P -1"
_symmetry_group_IT_number 2
_symmetry_cell_setting 'triclinic'
loop_
_space_group_symop_operation_xyz
x,y,z
-x,-y,-z
loop_
_atom_site_type_symbol
_atom_site_label
_atom_site_fract_x
_atom_site_fract_y
_atom_site_fract_z
Si Si1 0.539788 0.480042 0.275283
Si Si2 0.711970 0.717296 0.127087
Si Si3 0.991245 0.406733 0.273938
Si Si4 0.376011 0.728424 0.361906
Si Si5 0.790183 0.892367 0.507024
Si Si6 0.319724 0.791190 0.048521
Si Si7 0.061398 0.141354 0.140059
Si Si8 0.639718 0.050635 0.300142
O O1 0.500000 0.500000 0.500000
O O2 0.764808 0.458265 0.238140
O O3 0.374484 0.606066 0.295204
O O4 0.555088 0.353704 0.113388
O O5 0.831006 0.775522 0.284895
O O6 0.506775 0.818395 0.100476
O O7 0.934945 0.881223 0.667131
O O8 0.858345 0.617401 0.905507
O O9 0.000000 0.500000 0.500000
O O10 0.050054 0.272763 0.234139
O O11 0.598710 0.685516 0.246468
O O12 0.231915 0.798338 0.251097
O O13 0.364378 0.820579 0.597785
O O14 0.750498 0.989420 0.438789
O O15 0.586884 0.920995 0.636800
O O16 0.136538 0.850786 0.957638
O O17 0.249365 0.039181 0.940951
#
# Coordination Sequence:
#
# PCOD9017104 Si02
#       8
#     2   2   2   2   2   2   2   2
#     4  11  23  44  66 102 144 183 235 295 356 423
#     4   9  20  44  69 102 143 183 236 286 356 421
#     4  11  24  40  69 106 141 180 244 297 344 428
#     4   9  22  43  71  97 139 194 229 286 367 408
#     4  10  21  42  71 103 139 191 232 295 354 414
#     4   9  22  44  65  98 143 184 228 291 353 422
#     4  11  23  43  68 106 144 183 243 289 355 423
#     4  10  21  43  72 102 142 185 237 295 353 423
#
# _framework density 25.826673
#
# number of rings (size 3 to 8) (size 9 to 14) (size 15 to 20)
#    0.750    1.250    1.250    1.500    3.500    1.000 
#    6.750    0.625    0.000    0.000    0.000    0.000 
#    0.000    0.000    0.000    0.000    0.000    0.000 
#
# Total GULP energy -89443.077873 kJ/mol
# GULP energy per Si atom -5590.192367 kJ/mol
# Density = 2.576789 g / cm^3
# Si number density = 25.826673 Si / 1000 Ang^3
#
#
#
# Elastic Constant Matrix: (Units=GPa)
#
#
# Indices 1 2 3 4 5 6 
#
# 1 91.7578 2.6227 26.4422 -3.6662 -11.1889 -12.7662
# 2 2.6227 54.4656 22.6511 -2.5574 8.3807 -6.2552
# 3 26.4422 22.6511 187.7091 18.7873 8.1004 0.4030
# 4 -3.6662 -2.5574 18.7873 41.0368 -4.3007 7.9096
# 5 -11.1889 8.3807 8.1004 -4.3007 33.2126 -6.7756
# 6 -12.7662 -6.2552 0.4030 7.9096 -6.7756 26.6082
#
#
#
# Elastic Compliance Matrix: (Units=1/GPa)
#
#
# Indices 1 2 3 4 5 6 
#
# 1 0.013595 0.000268 -0.002417 0.001535 0.006918 0.007928
# 2 0.000268 0.020411 -0.002493 0.001362 -0.003529 0.003662
# 3 -0.002417 -0.002493 0.006407 -0.003275 -0.002478 -0.001500
# 4 0.001535 0.001362 -0.003275 0.027642 0.003271 -0.006278
# 5 0.006918 -0.003529 -0.002478 0.003271 0.036575 0.010868
# 6 0.007928 0.003662 -0.001500 -0.006278 0.010868 0.046903
#
#
# Mechanical properties :
#
#
# Convention : Reuss Voigt Hill
#
# Bulk Modulus (GPa) = 32.12234 48.59606 40.35920
# Shear Modulus (GPa) = 29.20693 38.98594 34.09644
#
# Velocity S-wave (km/s) = 3.36651 3.88947 3.63740
# Velocity P-wave (km/s) = 5.25127 6.24722 5.77077
#
# Compressibility (1/GPa) = 0.03113098
#
# Stress axis : x y z
#
# Youngs Moduli (GPa) = 73.55756 48.99217 156.09087
#
# Poissons Ratio (x) = -0.01315 0.37721
# Poissons Ratio (y) = -0.01975 0.38910
# Poissons Ratio (z) = 0.17776 0.12213
#
# Static dielectric constant tensor:
#      x y z
#    x 2.054660 -0.041940 0.047000 
#    y -0.041940 2.114140 0.062100 
#    z 0.047000 0.062100 2.087310 
# 
# From -- ./inp_files/215869.got.cif
#   From: 2010.05.17/outbox.cif.g08.bks.cpg/sg2_108_cif.got.tgz:215869.got - 2010.06.03 11:33:40.
