data_PCOD9017265
_publ_section_title
;
Structure prediction by ZEFSAII (Michael W. Deem and Ramdas Pophale) SiO2 
 PCOD9017265
Probable space group: P -1
;
_chemical_formula_sum "Si O2"
_cell_formula_units_Z 14
_cell_length_a 11.302144
_cell_length_b 8.003408
_cell_length_c 13.354003
_cell_angle_alpha 69.162451
_cell_angle_beta 146.342357
_cell_angle_gamma 125.588124
_cell_volume 521.774114
_symmetry_space_group_name_H-M "P -1"
_symmetry_group_IT_number 2
_symmetry_cell_setting 'triclinic'
loop_
_space_group_symop_operation_xyz
x,y,z
-x,-y,-z
loop_
_atom_site_type_symbol
_atom_site_label
_atom_site_fract_x
_atom_site_fract_y
_atom_site_fract_z
Si Si1 0.556364 0.087881 0.788990
Si Si2 0.680596 0.780720 0.707202
Si Si3 0.961800 0.258765 0.878594
Si Si4 0.857207 0.869095 0.593841
Si Si5 0.643409 0.693164 0.137183
Si Si6 0.203652 0.717827 0.876735
Si Si7 0.716261 0.392627 0.373648
O O1 0.724996 0.219258 0.784459
O O2 0.322296 0.117417 0.615679
O O3 0.453244 0.839052 0.752373
O O4 0.738467 0.191736 0.989472
O O5 0.707637 0.747113 0.616466
O O6 0.399090 0.682461 0.578379
O O7 0.847695 0.037365 0.787268
O O8 0.827543 0.709141 0.898656
O O9 0.075482 0.464527 0.846710
O O10 0.017937 0.776178 0.684705
O O11 0.069897 0.113630 0.723184
O O12 0.651547 0.567018 0.264796
O O13 0.500000 0.500000 0.000000
O O14 0.477493 0.795929 0.007559
O O15 0.000000 0.500000 0.500000
#
# Coordination Sequence:
#
# PCOD9017265 Si02
#       7
#     2   2   2   2   2   2   2
#     4  11  25  44  74 106 148 190 240 302 361 430
#     4  10  22  44  75 102 140 194 242 301 352 427
#     4  10  21  42  72  99 138 198 236 282 367 422
#     4  12  26  45  71 113 147 181 248 296 362 436
#     4  12  26  48  74 103 140 196 245 298 359 436
#     4  12  25  47  72 102 153 192 229 304 372 429
#     4  11  23  48  73 103 143 193 246 293 356 419
#
# _framework density 26.831533
#
# number of rings (size 3 to 8) (size 9 to 14) (size 15 to 20)
#    0.000    0.857    4.286    2.571    2.000    3.429 
#    5.143    0.000    0.000    0.000    0.000    0.000 
#    0.000    0.000    0.000    0.000    0.000    0.000 
#
# Total GULP energy -78441.394915 kJ/mol
# GULP energy per Si atom -5602.956780 kJ/mol
# Density = 2.677046 g / cm^3
# Si number density = 26.831533 Si / 1000 Ang^3
#
#
#
# Elastic Constant Matrix: (Units=GPa)
#
#
# Indices 1 2 3 4 5 6 
#
# 1 70.4586 22.0643 14.4627 -2.9535 23.1727 14.6564
# 2 22.0643 117.0955 46.8908 -0.6385 10.9215 15.4942
# 3 14.4627 46.8908 116.5091 -8.1776 20.6348 -9.1770
# 4 -2.9535 -0.6385 -8.1776 50.3100 -6.3185 11.3989
# 5 23.1727 10.9215 20.6348 -6.3185 32.5181 1.8167
# 6 14.6564 15.4942 -9.1770 11.3989 1.8167 47.6128
#
#
#
# Elastic Compliance Matrix: (Units=1/GPa)
#
#
# Indices 1 2 3 4 5 6 
#
# 1 0.020335 -0.002005 0.000332 0.000689 -0.013604 -0.005189
# 2 -0.002005 0.011275 -0.004757 0.000294 0.000945 -0.004075
# 3 0.000332 -0.004757 0.011910 0.000202 -0.006377 0.003936
# 4 0.000689 0.000294 0.000202 0.021704 0.003812 -0.005611
# 5 -0.013604 0.000945 -0.006377 0.003812 0.044915 0.000024
# 6 -0.005189 -0.004075 0.003936 -0.005611 0.000024 0.026027
#
#
# Mechanical properties :
#
#
# Convention : Reuss Voigt Hill
#
# Bulk Modulus (GPa) = 32.61593 52.32208 42.46901
# Shear Modulus (GPa) = 31.39772 40.79787 36.09779
#
# Velocity S-wave (km/s) = 3.42450 3.90361 3.67188
# Velocity P-wave (km/s) = 5.27432 6.31349 5.81716
#
# Compressibility (1/GPa) = 0.03065986
#
# Stress axis : x y z
#
# Youngs Moduli (GPa) = 49.17612 88.68818 83.96334
#
# Poissons Ratio (x) = 0.17786 -0.02787
# Poissons Ratio (y) = 0.09862 0.39940
# Poissons Ratio (z) = -0.01632 0.42187
#
# Static dielectric constant tensor:
#      x y z
#    x 2.130140 0.022040 -0.008050 
#    y 0.022040 2.070950 -0.000510 
#    z -0.008050 -0.000510 2.141960 
# 
# From -- ./inp_files/503364.got.cif
#   From: 2010.05.17/outbox.cif.g08.bks.cpg/sg2_252_cif.got.tgz:503364.got - 2010.06.03 11:33:40.
