data_PCOD9017472
_publ_section_title
;
Structure prediction by ZEFSAII (Michael W. Deem and Ramdas Pophale) SiO2 
 PCOD9017472
Probable space group: P -1
;
_chemical_formula_sum "Si O2"
_cell_formula_units_Z 16
_cell_length_a 12.538616
_cell_length_b 8.721402
_cell_length_c 14.021820
_cell_angle_alpha 83.229875
_cell_angle_beta 31.605463
_cell_angle_gamma 102.264360
_cell_volume 637.715385
_symmetry_space_group_name_H-M "P -1"
_symmetry_group_IT_number 2
_symmetry_cell_setting 'triclinic'
loop_
_space_group_symop_operation_xyz
x,y,z
-x,-y,-z
loop_
_atom_site_type_symbol
_atom_site_label
_atom_site_fract_x
_atom_site_fract_y
_atom_site_fract_z
Si Si1 0.949733 0.093798 0.326382
Si Si2 0.774510 0.083533 0.826757
Si Si3 0.769906 0.552387 0.660004
Si Si4 0.663699 0.494549 0.102006
Si Si5 0.143662 0.665076 0.520259
Si Si6 0.709920 0.964444 0.328139
Si Si7 0.969957 0.352505 0.833561
Si Si8 0.759366 0.693100 0.201197
O O1 0.784305 0.129475 0.518487
O O2 0.784430 0.942251 0.379400
O O3 0.128601 0.049226 0.242917
O O4 0.126908 0.297675 0.120875
O O5 0.823688 0.162821 0.892114
O O6 0.974553 0.272263 0.598283
O O7 0.500000 0.000000 0.000000
O O8 0.570241 0.592489 0.785055
O O9 0.861677 0.559721 0.695508
O O10 0.692893 0.357907 0.679236
O O11 0.606783 0.534897 0.247140
O O12 0.768912 0.371138 0.038380
O O13 0.113492 0.535429 0.640140
O O14 0.500000 0.000000 0.500000
O O15 0.632903 0.790818 0.329932
O O16 0.967894 0.143884 0.068341
O O17 0.159631 0.366854 0.764146
#
# Coordination Sequence:
#
# PCOD9017472 Si02
#       8
#     2   2   2   2   2   2   2   2
#     4  10  22  41  64  94 126 171 217 261 332 388
#     4  11  25  42  63  92 133 170 212 272 327 386
#     4  10  23  43  60  98 125 166 223 263 321 394
#     4  10  23  39  70  90 128 172 212 266 326 384
#     4   9  22  40  63  87 130 160 213 265 314 388
#     4  10  22  40  64  98 137 172 217 276 333 391
#     4  10  21  43  63  93 131 168 213 266 329 385
#     4  10  21  43  65  97 133 174 219 272 329 391
#
# _framework density 25.089561
#
# number of rings (size 3 to 8) (size 9 to 14) (size 15 to 20)
#    0.000    2.000    1.250    0.375    8.750    2.500 
#    2.250    2.500    0.000    0.000    0.000    0.000 
#    0.000    0.000    0.000    0.000    0.000    0.000 
#
# Total GULP energy -89519.721668 kJ/mol
# GULP energy per Si atom -5594.982604 kJ/mol
# Density = 2.503246 g / cm^3
# Si number density = 25.089561 Si / 1000 Ang^3
#
#
#
# Elastic Constant Matrix: (Units=GPa)
#
#
# Indices 1 2 3 4 5 6 
#
# 1 122.9072 21.9620 14.2553 11.9688 -1.0133 -10.4158
# 2 21.9620 109.8237 31.7278 31.0448 7.1119 -6.5090
# 3 14.2553 31.7278 78.3222 17.4663 -6.8105 3.3939
# 4 11.9688 31.0448 17.4663 42.0666 1.8644 -7.8479
# 5 -1.0133 7.1119 -6.8105 1.8644 32.9286 11.7060
# 6 -10.4158 -6.5090 3.3939 -7.8479 11.7060 31.1022
#
#
#
# Elastic Compliance Matrix: (Units=1/GPa)
#
#
# Indices 1 2 3 4 5 6 
#
# 1 0.008768 -0.000974 -0.001256 -0.000657 -0.000812 0.003010
# 2 -0.000974 0.012806 -0.003956 -0.006858 -0.004157 0.002620
# 3 -0.001256 -0.003956 0.016701 -0.005291 0.007084 -0.007072
# 4 -0.000657 -0.006858 -0.005291 0.033116 -0.004728 0.009058
# 5 -0.000812 -0.004157 0.007084 -0.004728 0.039343 -0.017916
# 6 0.003010 0.002620 -0.007072 0.009058 -0.017916 0.043508
#
#
# Mechanical properties :
#
#
# Convention : Reuss Voigt Hill
#
# Bulk Modulus (GPa) = 38.60383 49.66036 44.13210
# Shear Modulus (GPa) = 28.53066 37.42668 32.97867
#
# Velocity S-wave (km/s) = 3.37583 3.86647 3.62945
# Velocity P-wave (km/s) = 5.53306 6.30627 5.93228
#
# Compressibility (1/GPa) = 0.02590417
#
# Stress axis : x y z
#
# Youngs Moduli (GPa) = 114.04794 78.08655 59.87586
#
# Poissons Ratio (x) = 0.07605 0.07520
# Poissons Ratio (y) = 0.11107 0.23687
# Poissons Ratio (z) = 0.14323 0.30891
#
# Static dielectric constant tensor:
#      x y z
#    x 1.968090 0.042840 0.034320 
#    y 0.042840 2.007140 0.006840 
#    z 0.034320 0.006840 2.051720 
# 
# From -- ./inp_files/515504.got.cif
#   From: 2010.05.17/outbox.cif.g08.bks.cpg/sg2_258_cif.got.tgz:515504.got - 2010.06.03 11:33:40.
