data_PCOD9017592
_publ_section_title
;
Structure prediction by ZEFSAII (Michael W. Deem and Ramdas Pophale) SiO2 
 PCOD9017592
Probable space group: P -1
;
_chemical_formula_sum "Si O2"
_cell_formula_units_Z 13
_cell_length_a 9.340375
_cell_length_b 5.530804
_cell_length_c 11.698411
_cell_angle_alpha 64.335763
_cell_angle_beta 110.628634
_cell_angle_gamma 84.301777
_cell_volume 486.537522
_symmetry_space_group_name_H-M "P -1"
_symmetry_group_IT_number 2
_symmetry_cell_setting 'triclinic'
loop_
_space_group_symop_operation_xyz
x,y,z
-x,-y,-z
loop_
_atom_site_type_symbol
_atom_site_label
_atom_site_fract_x
_atom_site_fract_y
_atom_site_fract_z
Si Si1 0.044072 0.044254 0.253092
Si Si2 0.248941 0.502068 0.497907
Si Si3 0.589912 0.737115 0.000004
Si Si4 0.504781 0.065875 0.307205
Si Si5 0.208998 0.449513 0.253082
Si Si6 0.000000 0.000000 0.000000
Si Si7 0.802437 0.319737 0.307211
O O1 0.087934 0.324074 0.175870
O O2 0.940069 0.084380 0.329880
O O3 0.215908 0.822453 0.380244
O O4 0.956320 0.984949 0.128170
O O5 0.164312 0.417011 0.380232
O O6 0.176614 0.535459 0.597256
O O7 0.420617 0.269977 0.597274
O O8 0.599883 0.856387 0.853300
O O9 0.500000 0.500000 0.000000
O O10 0.746590 0.562989 0.146712
O O11 0.500000 0.000000 0.000000
O O12 0.389804 0.255842 0.329887
O O13 0.658543 0.182946 0.317089
O O14 0.171829 0.758636 0.128168
#
# Coordination Sequence:
#
# PCOD9017592 Si02
#       7
#     2   2   2   2   2   1   2
#     4  11  25  45  66  97 131 172 224 276 338 412
#     4  11  24  42  68  97 132 178 218 275 348 400
#     4  10  21  43  65 101 135 180 230 295 348 410
#     4  11  24  43  66  97 136 173 225 281 337 409
#     4  11  25  45  66  97 131 172 224 276 338 412
#     4  10  24  46  70  92 128 178 216 272 344 404
#     4  11  24  43  66  97 136 173 225 281 337 409
#
# _framework density 26.719421000000001
#
# number of rings (size 3 to 8) (size 9 to 14) (size 15 to 20)
#    0.000    1.231    1.538    3.231    0.000    7.385 
#   11.077    0.000    0.000    0.000    0.000    0.000 
#    0.000    0.000    0.000    0.000    0.000    0.000 
#
# Total GULP energy -72375.723002 kJ/mol
# GULP energy per Si atom -5567.363308 kJ/mol
# Density = 2.665861 g / cm^3
# Si number density = 26.719421 Si / 1000 Ang^3
#
#
#
# Elastic Constant Matrix: (Units=GPa)
#
#
# Indices 1 2 3 4 5 6 
#
# 1 109.2483 59.9654 14.4139 -0.3565 0.6881 -19.6171
# 2 59.9654 136.7929 64.3717 -0.3473 -0.1842 -31.5734
# 3 14.4139 64.3717 236.8118 0.6481 -0.5026 -34.4713
# 4 -0.3565 -0.3473 0.6481 32.9874 -21.9794 -0.1190
# 5 0.6881 -0.1842 -0.5026 -21.9794 17.5588 -0.1545
# 6 -19.6171 -31.5734 -34.4713 -0.1190 -0.1545 54.3757
#
#
#
# Elastic Compliance Matrix: (Units=1/GPa)
#
#
# Indices 1 2 3 4 5 6 
#
# 1 0.012375 -0.005464 0.001011 -0.001612 -0.002514 0.001922
# 2 -0.005464 0.011570 -0.002335 0.001920 0.002701 0.003278
# 3 0.001011 -0.002335 0.005125 -0.000229 -0.000184 0.002257
# 4 -0.001612 0.001920 -0.000229 0.183102 0.229290 0.001441
# 5 -0.002514 0.002701 -0.000184 0.229290 0.344107 0.002025
# 6 0.001922 0.003278 0.002257 0.001441 0.002025 0.022427
#
#
# Mechanical properties :
#
#
# Convention : Reuss Voigt Hill
#
# Bulk Modulus (GPa) = 64.54500 84.48388 74.51444
# Shear Modulus (GPa) = 8.36895 43.92450 26.14673
#
# Velocity S-wave (km/s) = 1.77171 4.05892 3.13160
# Velocity P-wave (km/s) = 5.32863 7.32489 6.40501
#
# Compressibility (1/GPa) = 0.01549307
#
# Stress axis : x y z
#
# Youngs Moduli (GPa) = 80.80709 86.43348 195.13772
#
# Poissons Ratio (x) = 0.47232 -0.19728
# Poissons Ratio (y) = 0.44157 0.45557
# Poissons Ratio (z) = -0.08170 0.20179
#
# Static dielectric constant tensor:
#      x y z
#    x 1.971290 -0.099060 0.000840 
#    y -0.099060 2.180160 -0.002650 
#    z 0.000840 -0.002650 2.017630 
# 
# From -- ./inp_files/82283.got.cif
#   From: 2010.05.17/outbox.cif.g08.bks.cpg/sg2_42_cif.got.tgz:82283.got - 2010.06.03 11:33:40.
