data_PCOD9017564
_publ_section_title
;
Structure prediction by ZEFSAII (Michael W. Deem and Ramdas Pophale) SiO2 
 PCOD9017564
Probable space group: P -1
;
_chemical_formula_sum "Si O2"
_cell_formula_units_Z 14
_cell_length_a 7.493720
_cell_length_b 11.634409
_cell_length_c 9.169426
_cell_angle_alpha 47.145251
_cell_angle_beta 89.439311
_cell_angle_gamma 79.210430
_cell_volume 567.970245
_symmetry_space_group_name_H-M "P -1"
_symmetry_group_IT_number 2
_symmetry_cell_setting 'triclinic'
loop_
_space_group_symop_operation_xyz
x,y,z
-x,-y,-z
loop_
_atom_site_type_symbol
_atom_site_label
_atom_site_fract_x
_atom_site_fract_y
_atom_site_fract_z
Si Si1 0.221229 0.119977 0.814294
Si Si2 0.334175 0.668671 0.507806
Si Si3 0.841413 0.104396 0.210650
Si Si4 0.046724 0.411916 0.369490
Si Si5 0.684757 0.386873 0.783403
Si Si6 0.819316 0.831650 0.671912
Si Si7 0.374612 0.012977 0.211816
O O1 0.139524 0.299008 0.601426
O O2 0.421351 0.054443 0.793925
O O3 0.102453 0.007581 0.837559
O O4 0.255696 0.099277 0.001920
O O5 0.523663 0.549053 0.661248
O O6 0.340303 0.677165 0.323463
O O7 0.312288 0.851825 0.402085
O O8 0.165565 0.593195 0.620142
O O9 0.003719 0.164621 0.234356
O O10 0.788870 0.982405 0.431563
O O11 0.688791 0.255593 0.020584
O O12 0.116758 0.572319 0.245929
O O13 0.135111 0.324663 0.295311
O O14 0.653108 0.865577 0.757415
#
# Coordination Sequence:
#
# PCOD9017564 Si02
#       7
#     2   2   2   2   2   2   2
#     4  10  22  39  72  99 128 173 231 274 337 377
#     4  11  23  41  70 102 135 172 225 285 313 409
#     4  10  21  43  64  96 130 176 218 272 328 394
#     4  11  24  45  67 101 134 178 221 273 333 400
#     4  11  24  44  68  98 139 178 219 273 339 386
#     4  10  24  43  67  96 138 167 230 273 326 399
#     4  11  21  41  69 104 130 170 227 285 321 398
#
# _framework density 24.649180000000001
#
# number of rings (size 3 to 8) (size 9 to 14) (size 15 to 20)
#    0.000    1.429    2.857    3.000    2.000    4.000 
#    5.143    2.857    0.000    0.000    0.000    0.000 
#    0.000    0.000    0.000    0.000    0.000    0.000 
#
# Total GULP energy -78411.209957 kJ/mol
# GULP energy per Si atom -5600.800711 kJ/mol
# Density = 2.459308 g / cm^3
# Si number density = 24.649180 Si / 1000 Ang^3
#
#
#
# Elastic Constant Matrix: (Units=GPa)
#
#
# Indices 1 2 3 4 5 6 
#
# 1 96.9741 5.3460 25.9151 9.6449 -6.4195 -4.0138
# 2 5.3460 68.8296 23.3291 23.8803 4.7886 -5.2944
# 3 25.9151 23.3291 103.3044 7.0484 29.0515 -1.2994
# 4 9.6449 23.8803 7.0484 30.0773 0.7388 -10.4259
# 5 -6.4195 4.7886 29.0515 0.7388 22.5124 2.4830
# 6 -4.0138 -5.2944 -1.2994 -10.4259 2.4830 32.3113
#
#
#
# Elastic Compliance Matrix: (Units=1/GPa)
#
#
# Indices 1 2 3 4 5 6 
#
# 1 0.013400 0.002124 -0.007118 -0.004923 0.012810 -0.000847
# 2 0.002124 0.021877 -0.005325 -0.017711 0.003666 -0.002362
# 3 -0.007118 -0.005325 0.020132 0.003219 -0.027223 0.002183
# 4 -0.004923 -0.017711 0.003219 0.053169 -0.005097 0.014164
# 5 0.012810 0.003666 -0.027223 -0.005097 0.083358 -0.006953
# 6 -0.000847 -0.002362 0.002183 0.014164 -0.006953 0.035649
#
#
# Mechanical properties :
#
#
# Convention : Reuss Voigt Hill
#
# Bulk Modulus (GPa) = 28.76171 42.03204 35.39688
# Shear Modulus (GPa) = 19.24446 31.28137 25.26291
#
# Velocity S-wave (km/s) = 2.79719 3.56626 3.20488
# Velocity P-wave (km/s) = 4.70384 5.83496 5.29966
#
# Compressibility (1/GPa) = 0.03476844
#
# Stress axis : x y z
#
# Youngs Moduli (GPa) = 74.62773 45.71045 49.67176
#
# Poissons Ratio (x) = -0.09707 0.35358
# Poissons Ratio (y) = -0.15848 0.26452
# Poissons Ratio (z) = 0.53123 0.24343
#
# Static dielectric constant tensor:
#      x y z
#    x 2.022010 -0.002140 -0.037430 
#    y -0.002140 1.963740 -0.011980 
#    z -0.037430 -0.011980 1.924340 
# 
# From -- ./inp_files/174132.got.cif
#   From: 2010.05.17/outbox.cif.g08.bks.cpg/sg2_88_cif.got.tgz:174132.got - 2010.06.03 11:33:40.
