data_PCOD9017433
_publ_section_title
;
Structure prediction by ZEFSAII (Michael W. Deem and Ramdas Pophale) SiO2 
 PCOD9017433
Probable space group: P -1
;
_chemical_formula_sum "Si O2"
_cell_formula_units_Z 16
_cell_length_a 22.772451
_cell_length_b 15.668017
_cell_length_c 12.021225
_cell_angle_alpha 37.027593
_cell_angle_beta 25.902028
_cell_angle_gamma 21.090612
_cell_volume 650.954917
_symmetry_space_group_name_H-M "P -1"
_symmetry_group_IT_number 2
_symmetry_cell_setting 'triclinic'
loop_
_space_group_symop_operation_xyz
x,y,z
-x,-y,-z
loop_
_atom_site_type_symbol
_atom_site_label
_atom_site_fract_x
_atom_site_fract_y
_atom_site_fract_z
Si Si1 0.050920 0.836284 0.992093
Si Si2 0.077260 0.390035 0.318811
Si Si3 0.442127 0.844479 0.232132
Si Si4 0.931724 0.470434 0.039030
Si Si5 0.353879 0.365724 0.101766
Si Si6 0.559939 0.225404 0.455518
Si Si7 0.604184 0.356109 0.819410
Si Si8 0.995665 0.921888 0.741488
O O1 0.072708 0.864207 0.798653
O O2 0.258845 0.567793 0.967955
O O3 0.812663 0.949894 0.280446
O O4 0.000000 0.000000 0.000000
O O5 0.849408 0.570755 0.595360
O O6 0.207819 0.127509 0.372433
O O7 0.304671 0.294624 0.046911
O O8 0.987943 0.512702 0.222942
O O9 0.455083 0.721969 0.440947
O O10 0.421756 0.869419 0.106961
O O11 0.650147 0.701277 0.279526
O O12 0.011452 0.236813 0.125102
O O13 0.000000 0.500000 0.000000
O O14 0.426727 0.381310 0.073815
O O15 0.516450 0.394233 0.271658
O O16 0.808049 0.173452 0.568524
O O17 0.749494 0.210634 0.835813
#
# Coordination Sequence:
#
# PCOD9017433 Si02
#       8
#     2   2   2   2   2   2   2   2
#     4  12  24  41  66 102 142 178 225 281 348 414
#     4  10  22  41  60  98 132 175 229 278 334 407
#     4  10  22  39  65  92 142 176 219 284 341 398
#     4  10  23  46  69  92 134 185 228 286 344 402
#     4  12  23  38  69 101 131 179 233 279 342 412
#     4  10  21  43  63 100 136 175 224 287 342 404
#     4  10  23  43  66  96 134 177 223 289 341 408
#     4  10  25  46  66  98 138 180 234 280 347 416
#
# _framework density 24.579276
#
# number of rings (size 3 to 8) (size 9 to 14) (size 15 to 20)
#    0.000    1.500    2.500    2.625    3.500    2.500 
#    4.500    1.250    0.000    0.000    0.000    0.000 
#    0.000    0.000    0.000    0.000    0.000    0.000 
#
# Total GULP energy -89229.365271 kJ/mol
# GULP energy per Si atom -5576.835329 kJ/mol
# Density = 2.452333 g / cm^3
# Si number density = 24.579276 Si / 1000 Ang^3
#
#
#
# Elastic Constant Matrix: (Units=GPa)
#
#
# Indices 1 2 3 4 5 6 
#
# 1 106.0946 3.2430 11.2830 -21.8215 -0.6016 -9.7635
# 2 3.2430 52.1495 -0.1662 -14.2373 1.4859 -10.4856
# 3 11.2830 -0.1662 98.4223 -6.3711 14.4523 -8.7885
# 4 -21.8215 -14.2373 -6.3711 29.8674 -3.4311 4.0086
# 5 -0.6016 1.4859 14.4523 -3.4311 37.5947 -1.6910
# 6 -9.7635 -10.4856 -8.7885 4.0086 -1.6910 24.7500
#
#
#
# Elastic Compliance Matrix: (Units=1/GPa)
#
#
# Indices 1 2 3 4 5 6 
#
# 1 0.011696 0.002585 -0.000567 0.009260 0.001332 0.004099
# 2 0.002585 0.024414 0.001417 0.012521 0.000117 0.009847
# 3 -0.000567 0.001417 0.011277 0.001685 -0.004074 0.003830
# 4 0.009260 0.012521 0.001685 0.046662 0.003364 0.002228
# 5 0.001332 0.000117 -0.004074 0.003364 0.028513 0.000532
# 6 0.004099 0.009847 0.003830 0.002228 0.000532 0.047228
#
#
# Mechanical properties :
#
#
# Convention : Reuss Voigt Hill
#
# Bulk Modulus (GPa) = 18.43019 31.70956 25.06988
# Shear Modulus (GPa) = 27.62351 34.59620 31.10985
#
# Velocity S-wave (km/s) = 3.35603 3.75578 3.56152
# Velocity P-wave (km/s) = 4.74677 5.63354 5.20906
#
# Compressibility (1/GPa) = 0.05425881
#
# Stress axis : x y z
#
# Youngs Moduli (GPa) = 85.49866 40.95986 88.67617
#
# Poissons Ratio (x) = -0.10588 0.05025
# Poissons Ratio (y) = -0.22102 -0.12569
# Poissons Ratio (z) = 0.04845 -0.05806
#
# Static dielectric constant tensor:
#      x y z
#    x 2.219340 0.112260 0.058040 
#    y 0.112260 2.045480 0.038210 
#    z 0.058040 0.038210 1.940730 
# 
# From -- ./inp_files/475353.got.cif
#   From: 2010.05.17/outbox.cif.g08.bks.cpg/sg2_238_cif.got.tgz:475353.got - 2010.06.03 11:33:40.
