data_PCOD9017117
_publ_section_title
;
Structure prediction by ZEFSAII (Michael W. Deem and Ramdas Pophale) SiO2 
 PCOD9017117
Probable space group: P -1
;
_chemical_formula_sum "Si O2"
_cell_formula_units_Z 16
_cell_length_a 27.658290
_cell_length_b 5.314423
_cell_length_c 5.716971
_cell_angle_alpha 97.680485
_cell_angle_beta 88.104589
_cell_angle_gamma 131.017401
_cell_volume 626.666373
_symmetry_space_group_name_H-M "P -1"
_symmetry_group_IT_number 2
_symmetry_cell_setting 'triclinic'
loop_
_space_group_symop_operation_xyz
x,y,z
-x,-y,-z
loop_
_atom_site_type_symbol
_atom_site_label
_atom_site_fract_x
_atom_site_fract_y
_atom_site_fract_z
Si Si1 0.266289 0.300796 0.414367
Si Si2 0.573148 0.738627 0.104077
Si Si3 0.102505 0.258754 0.553285
Si Si4 0.317921 0.965568 0.232029
Si Si5 0.139073 0.966811 0.154574
Si Si6 0.460627 0.852774 0.734403
Si Si7 0.786110 0.498983 0.173350
Si Si8 0.982607 0.728849 0.776513
O O1 0.251991 0.439178 0.647953
O O2 0.305280 0.636063 0.286432
O O3 0.301982 0.154981 0.419040
O O4 0.194994 0.001601 0.278930
O O5 0.574913 0.538762 0.284434
O O6 0.615012 0.798486 0.884761
O O7 0.586294 0.066852 0.235749
O O8 0.500000 0.500000 0.000000
O O9 0.164103 0.534215 0.732861
O O10 0.061997 0.333282 0.440698
O O11 0.050217 0.910708 0.662221
O O12 0.133747 0.200697 0.339343
O O13 0.265209 0.813007 0.017304
O O14 0.167208 0.152904 0.931326
O O15 0.066174 0.619454 0.120911
O O16 0.500000 0.000000 0.500000
O O17 0.500000 0.000000 0.000000
O O18 0.000000 0.000000 0.000000
#
# Coordination Sequence:
#
# PCOD9017117 Si02
#       8
#     2   2   2   2   2   2   2   2
#     4  10  25  43  72  99 141 188 238 299 349 431
#     4  10  22  44  73 106 146 191 235 306 366 443
#     4  10  23  42  61  95 128 172 223 285 357 420
#     4  11  24  49  70 106 144 184 249 290 365 427
#     4  10  23  42  64  88 133 174 223 287 352 420
#     4  10  21  42  71 107 151 194 243 290 371 442
#     4  10  24  46  69  97 132 188 235 294 354 423
#     4  11  24  38  65  97 129 169 221 286 356 427
#
# _framework density 25.531925000000001
#
# number of rings (size 3 to 8) (size 9 to 14) (size 15 to 20)
#    0.000    1.750    0.000    2.250    7.000    8.000 
#   15.750    0.000    0.000    0.000    0.000    0.000 
#    0.000    0.000    0.000    0.000    0.000    0.000 
#
# Total GULP energy -89417.576215 kJ/mol
# GULP energy per Si atom -5588.598513 kJ/mol
# Density = 2.547381 g / cm^3
# Si number density = 25.531925 Si / 1000 Ang^3
#
#
#
# Elastic Constant Matrix: (Units=GPa)
#
#
# Indices 1 2 3 4 5 6 
#
# 1 118.7073 34.2893 20.9296 6.3875 -9.7292 8.3567
# 2 34.2893 83.0275 16.4653 -19.3454 -1.3151 4.3876
# 3 20.9296 16.4653 86.1087 -17.9592 -6.4887 9.9528
# 4 6.3875 -19.3454 -17.9592 39.6335 14.8522 -12.7194
# 5 -9.7292 -1.3151 -6.4887 14.8522 39.6014 7.0003
# 6 8.3567 4.3876 9.9528 -12.7194 7.0003 41.6146
#
#
#
# Elastic Compliance Matrix: (Units=1/GPa)
#
#
# Indices 1 2 3 4 5 6 
#
# 1 0.012586 -0.006870 -0.002873 -0.011492 0.007752 -0.005933
# 2 -0.006870 0.017785 0.000094 0.014182 -0.007292 0.005043
# 3 -0.002873 0.000094 0.013719 0.006963 -0.000992 -0.000419
# 4 -0.011492 0.014182 0.006963 0.052443 -0.024285 0.019261
# 5 0.007752 -0.007292 -0.000992 -0.024285 0.038411 -0.014435
# 6 -0.005933 0.005043 -0.000419 0.019261 -0.014435 0.033105
#
#
# Mechanical properties :
#
#
# Convention : Reuss Voigt Hill
#
# Bulk Modulus (GPa) = 40.33099 47.91242 44.12170
# Shear Modulus (GPa) = 25.56104 38.58053 32.07078
#
# Velocity S-wave (km/s) = 3.16751 3.89147 3.54800
# Velocity P-wave (km/s) = 5.40445 6.24482 5.83977
#
# Compressibility (1/GPa) = 0.02479483
#
# Stress axis : x y z
#
# Youngs Moduli (GPa) = 79.45104 56.22722 72.88996
#
# Poissons Ratio (x) = 0.38627 0.20939
# Poissons Ratio (y) = 0.54581 -0.00689
# Poissons Ratio (z) = 0.22823 -0.00531
#
# Static dielectric constant tensor:
#      x y z
#    x 2.061640 0.019130 0.123740 
#    y 0.019130 2.036420 -0.043150 
#    z 0.123740 -0.043150 2.043210 
# 
# From -- ./inp_files/14604.got.cif
#   From: 2010.05.17/outbox.cif.g08.bks.cpg/sg2_8_cif.got.tgz:14604.got - 2010.06.03 11:33:40.
