data_PCOD9017067
_publ_section_title
;
Structure prediction by ZEFSAII (Michael W. Deem and Ramdas Pophale) SiO2 
 PCOD9017067
Probable space group: P -1
;
_chemical_formula_sum "Si O2"
_cell_formula_units_Z 12
_cell_length_a 8.470110
_cell_length_b 12.126176
_cell_length_c 5.912687
_cell_angle_alpha 70.828335
_cell_angle_beta 56.566510
_cell_angle_gamma 90.679497
_cell_volume 464.153784
_symmetry_space_group_name_H-M "P -1"
_symmetry_group_IT_number 2
_symmetry_cell_setting 'triclinic'
loop_
_space_group_symop_operation_xyz
x,y,z
-x,-y,-z
loop_
_atom_site_type_symbol
_atom_site_label
_atom_site_fract_x
_atom_site_fract_y
_atom_site_fract_z
Si Si1 0.026294 0.641839 0.368168
Si Si2 0.606713 0.582135 0.662238
Si Si3 0.831866 0.044747 0.228137
Si Si4 0.001129 0.716386 0.834870
Si Si5 0.482398 0.899089 0.887006
Si Si6 0.528218 0.665601 0.263753
O O1 0.810097 0.663841 0.520159
O O2 0.000000 0.500000 0.500000
O O3 0.088552 0.689021 0.543210
O O4 0.079240 0.668449 0.040286
O O5 0.503807 0.670802 0.549948
O O6 0.613502 0.465326 0.584141
O O7 0.500000 0.500000 0.000000
O O8 0.934429 0.140886 0.269719
O O9 0.714168 0.104401 0.095750
O O10 0.666084 0.943083 0.546403
O O11 0.000000 0.000000 0.000000
O O12 0.762510 0.671493 0.051666
O O13 0.489912 0.772203 0.074058
O O14 0.500000 0.000000 0.000000
#
# Coordination Sequence:
#
# PCOD9017067 Si02
#       6
#     2   2   2   2   2   2
#     4  11  25  44  68 111 147 196 254 316 389 467
#     4  10  21  42  70  99 142 192 243 307 379 451
#     4  11  28  49  77 113 154 207 259 330 396 468
#     4  11  25  45  74 106 150 202 252 320 396 456
#     4  11  27  49  75 114 151 202 267 321 399 475
#     4  10  23  42  72 104 145 197 254 310 388 464
#
# _framework density 25.853498999999999
#
# number of rings (size 3 to 8) (size 9 to 14) (size 15 to 20)
#    0.000    1.333    1.667    1.500    7.000    4.000 
#    0.000    0.000    0.000    0.000    0.000    0.000 
#    0.000    0.000    0.000    0.000    0.000    0.000 
#
# Total GULP energy -66952.104669 kJ/mol
# GULP energy per Si atom -5579.342056 kJ/mol
# Density = 2.579465 g / cm^3
# Si number density = 25.853499 Si / 1000 Ang^3
#
#
#
# Elastic Constant Matrix: (Units=GPa)
#
#
# Indices 1 2 3 4 5 6 
#
# 1 129.9820 56.0967 85.5994 7.4370 9.6105 -1.0219
# 2 56.0967 117.8537 36.7621 11.8269 19.0979 7.8470
# 3 85.5994 36.7621 160.0478 6.1226 39.3704 -28.6643
# 4 7.4370 11.8269 6.1226 46.3342 -4.2649 13.6824
# 5 9.6105 19.0979 39.3704 -4.2649 58.5694 -1.3945
# 6 -1.0219 7.8470 -28.6643 13.6824 -1.3945 45.3615
#
#
#
# Elastic Compliance Matrix: (Units=1/GPa)
#
#
# Indices 1 2 3 4 5 6 
#
# 1 0.015708 -0.005257 -0.009608 0.002170 0.005628 -0.005290
# 2 -0.005257 0.011578 0.001012 -0.002329 -0.003784 -0.000896
# 3 -0.009608 0.001012 0.015505 -0.004733 -0.009269 0.010549
# 4 0.002170 -0.002329 -0.004733 0.025949 0.005232 -0.010205
# 5 0.005628 -0.003784 -0.009269 0.005232 0.023855 -0.005921
# 6 -0.005290 -0.000896 0.010549 -0.010205 -0.005921 0.031643
#
#
# Mechanical properties :
#
#
# Convention : Reuss Voigt Hill
#
# Bulk Modulus (GPa) = 66.29681 84.97775 75.63728
# Shear Modulus (GPa) = 31.85221 45.34804 38.60012
#
# Velocity S-wave (km/s) = 3.51383 4.19267 3.86817
# Velocity P-wave (km/s) = 6.49320 7.50855 7.01926
#
# Compressibility (1/GPa) = 0.01508368
#
# Stress axis : x y z
#
# Youngs Moduli (GPa) = 63.66191 86.36793 64.49387
#
# Poissons Ratio (x) = 0.45405 0.61969
# Poissons Ratio (y) = 0.33468 -0.06524
# Poissons Ratio (z) = 0.61169 -0.08737
#
# Static dielectric constant tensor:
#      x y z
#    x 2.697050 -0.328660 -0.233260 
#    y -0.328660 2.045100 -0.088150 
#    z -0.233260 -0.088150 1.978850 
# 
# From -- ./inp_files/26427.got.cif
#   From: 2010.05.17/outbox.cif.g08.bks.cpg/sg2_14_cif.got.tgz:26427.got - 2010.06.03 11:33:40.
