data_PCOD9017653
_publ_section_title
;
Structure prediction by ZEFSAII (Michael W. Deem and Ramdas Pophale) SiO2 
 PCOD9017653
Probable space group: P -1
;
_chemical_formula_sum "Si O2"
_cell_formula_units_Z 16
_cell_length_a 21.784352
_cell_length_b 6.672549
_cell_length_c 10.837603
_cell_angle_alpha 70.721926
_cell_angle_beta 148.805338
_cell_angle_gamma 119.910491
_cell_volume 690.761953
_symmetry_space_group_name_H-M "P -1"
_symmetry_group_IT_number 2
_symmetry_cell_setting 'triclinic'
loop_
_space_group_symop_operation_xyz
x,y,z
-x,-y,-z
loop_
_atom_site_type_symbol
_atom_site_label
_atom_site_fract_x
_atom_site_fract_y
_atom_site_fract_z
Si Si1 0.620421 0.445292 0.750224
Si Si2 0.385132 0.273246 0.780120
Si Si3 0.327127 0.544820 0.436204
Si Si4 0.440242 0.041202 0.126227
Si Si5 0.921133 0.010198 0.666544
Si Si6 0.983846 0.699217 0.005427
Si Si7 0.226954 0.152811 0.888562
Si Si8 0.004973 0.271054 0.500617
O O1 0.500000 0.500000 0.500000
O O2 0.656099 0.382992 0.691247
O O3 0.595919 0.224991 0.841400
O O4 0.719460 0.694242 0.928333
O O5 0.384802 0.361254 0.621218
O O6 0.230594 0.185744 0.567856
O O7 0.500000 0.500000 0.000000
O O8 0.413578 0.065975 0.930851
O O9 0.410870 0.779456 0.613528
O O10 0.171242 0.410505 0.210732
O O11 0.345418 0.137510 0.017404
O O12 0.010261 0.909414 0.911342
O O13 0.977069 0.117770 0.609678
O O14 0.929835 0.209016 0.740953
O O15 0.000000 0.500000 0.000000
O O16 0.136980 0.284169 0.661629
O O17 0.119630 0.879930 0.769122
O O18 0.000000 0.500000 0.500000
#
# Coordination Sequence:
#
# PCOD9017653 Si02
#       8
#     2   2   2   2   2   2   2   2
#     4  12  25  43  68 104 139 178 229 287 347 408
#     4   9  20  42  71  92 131 178 222 281 337 396
#     4  10  22  44  68  97 140 181 230 286 338 412
#     4  11  22  45  68  96 139 182 231 290 338 407
#     4  10  21  43  65  94 138 169 224 284 329 405
#     4  10  23  43  67  96 131 182 222 278 345 408
#     4  11  24  40  69  99 135 183 227 278 347 407
#     4  11  24  43  66 103 136 178 225 282 342 407
#
# _framework density 23.162825999999999
#
# number of rings (size 3 to 8) (size 9 to 14) (size 15 to 20)
#    0.000    1.500    2.500    1.875    0.000    3.000 
#    6.750    0.625    0.000    0.000    0.000    0.000 
#    0.000    0.000    0.000    0.000    0.000    0.000 
#
# Total GULP energy -89149.929886 kJ/mol
# GULP energy per Si atom -5571.870618 kJ/mol
# Density = 2.311011 g / cm^3
# Si number density = 23.162826 Si / 1000 Ang^3
#
#
#
# Elastic Constant Matrix: (Units=GPa)
#
#
# Indices 1 2 3 4 5 6 
#
# 1 39.4172 29.4194 14.4408 -8.3241 -4.0097 4.3007
# 2 29.4194 104.1918 33.7428 -1.6948 -5.0896 -5.3504
# 3 14.4408 33.7428 118.1857 23.4933 -4.1727 4.1684
# 4 -8.3241 -1.6948 23.4933 36.7413 2.8607 -7.9031
# 5 -4.0097 -5.0896 -4.1727 2.8607 38.7821 -1.1095
# 6 4.3007 -5.3504 4.1684 -7.9031 -1.1095 36.5540
#
#
#
# Elastic Compliance Matrix: (Units=1/GPa)
#
#
# Indices 1 2 3 4 5 6 
#
# 1 0.035686 -0.008892 -0.003478 0.009126 0.001387 -0.003088
# 2 -0.008892 0.013346 -0.003099 0.001330 0.000505 0.003656
# 3 -0.003478 -0.003099 0.011769 -0.009263 0.001087 -0.003356
# 4 0.009126 0.001330 -0.009263 0.037208 -0.002390 0.008149
# 5 0.001387 0.000505 0.001087 -0.002390 0.026290 0.000068
# 6 -0.003088 0.003656 -0.003356 0.008149 0.000068 0.030402
#
#
# Mechanical properties :
#
#
# Convention : Reuss Voigt Hill
#
# Bulk Modulus (GPa) = 33.48694 46.33339 39.91016
# Shear Modulus (GPa) = 25.56304 34.69495 30.12900
#
# Velocity S-wave (km/s) = 3.32569 3.87443 3.61050
# Velocity P-wave (km/s) = 5.40699 6.32943 5.88631
#
# Compressibility (1/GPa) = 0.02986239
#
# Stress axis : x y z
#
# Youngs Moduli (GPa) = 28.02219 74.92719 84.96764
#
# Poissons Ratio (x) = 0.66628 0.29550
# Poissons Ratio (y) = 0.24918 0.26335
# Poissons Ratio (z) = 0.09746 0.23223
#
# Static dielectric constant tensor:
#      x y z
#    x 1.874540 0.030880 0.063910 
#    y 0.030880 1.919620 -0.019230 
#    z 0.063910 -0.019230 2.037820 
# 
# From -- ./inp_files/473405.got.cif
#   From: 2010.05.17/outbox.cif.g08.bks.cpg/sg2_237_cif.got.tgz:473405.got - 2010.06.03 11:33:40.
