data_PCOD9017684
_publ_section_title
;
Structure prediction by ZEFSAII (Michael W. Deem and Ramdas Pophale) SiO2 
 PCOD9017684
Probable space group: P -1
;
_chemical_formula_sum "Si O2"
_cell_formula_units_Z 16
_cell_length_a 9.187839
_cell_length_b 11.685432
_cell_length_c 18.981480
_cell_angle_alpha 122.529050
_cell_angle_beta 150.341817
_cell_angle_gamma 52.182847
_cell_volume 796.556588
_symmetry_space_group_name_H-M "P -1"
_symmetry_group_IT_number 2
_symmetry_cell_setting 'triclinic'
loop_
_space_group_symop_operation_xyz
x,y,z
-x,-y,-z
loop_
_atom_site_type_symbol
_atom_site_label
_atom_site_fract_x
_atom_site_fract_y
_atom_site_fract_z
Si Si1 0.631935 0.841648 0.623942
Si Si2 0.910642 0.884187 0.473474
Si Si3 0.216659 0.647687 0.411147
Si Si4 0.646328 0.619091 0.078259
Si Si5 0.068178 0.895931 0.927669
Si Si6 0.098417 0.834343 0.693586
Si Si7 0.769596 0.650580 0.980481
Si Si8 0.873312 0.930924 0.128149
O O1 0.395060 0.753336 0.492627
O O2 0.840912 0.812347 0.774628
O O3 0.854168 0.802038 0.634821
O O4 0.429530 0.013185 0.606056
O O5 0.995248 0.742033 0.412745
O O6 0.082853 0.827858 0.601162
O O7 0.000000 0.000000 0.500000
O O8 0.500000 0.500000 0.500000
O O9 0.980369 0.606267 0.246770
O O10 0.663844 0.620969 0.002600
O O11 0.500000 0.500000 0.000000
O O12 0.400853 0.776684 0.045165
O O13 0.065506 0.994956 0.891924
O O14 0.000000 0.000000 0.000000
O O15 0.019598 0.003824 0.736965
O O16 0.450090 0.733295 0.830501
O O17 0.958811 0.761516 0.102959
O O18 0.000000 0.500000 0.000000
O O19 0.500000 0.000000 0.000000
#
# Coordination Sequence:
#
# PCOD9017684 Si02
#       8
#     2   2   2   2   2   2   2   2
#     4  10  21  43  65  98 134 173 223 281 342 398
#     4  10  23  40  66  99 131 176 221 274 339 410
#     4  11  26  43  65  96 138 181 222 273 348 406
#     4  12  26  46  68  95 139 180 228 286 338 410
#     4  11  22  40  69 102 130 174 228 285 333 398
#     4  10  21  43  69  97 136 173 228 287 338 406
#     4  11  25  42  68 100 134 184 231 280 341 405
#     4   9  19  38  62  92 129 168 220 275 330 384
#
# _framework density 20.086455999999998
#
# number of rings (size 3 to 8) (size 9 to 14) (size 15 to 20)
#    0.000    1.500    3.750    1.875    7.000    4.000 
#    0.000    0.625    0.000    0.000    0.000    0.000 
#    0.000    0.000    0.000    0.000    0.000    0.000 
#
# Total GULP energy -89104.926315 kJ/mol
# GULP energy per Si atom -5569.057895 kJ/mol
# Density = 2.004074 g / cm^3
# Si number density = 20.086456 Si / 1000 Ang^3
#
#
#
# Elastic Constant Matrix: (Units=GPa)
#
#
# Indices 1 2 3 4 5 6 
#
# 1 77.5160 27.6273 35.8580 0.1097 -9.0787 -4.7126
# 2 27.6273 120.9062 18.6445 -15.0648 10.6323 -7.4644
# 3 35.8580 18.6445 116.1293 -12.8119 -1.6006 12.8451
# 4 0.1097 -15.0648 -12.8119 35.5968 2.8123 9.4540
# 5 -9.0787 10.6323 -1.6006 2.8123 33.6121 0.7511
# 6 -4.7126 -7.4644 12.8451 9.4540 0.7511 32.5710
#
#
#
# Elastic Compliance Matrix: (Units=1/GPa)
#
#
# Indices 1 2 3 4 5 6 
#
# 1 0.018390 -0.004209 -0.006230 -0.006120 0.006385 0.005782
# 2 -0.004209 0.010251 0.000042 0.004612 -0.004774 0.000495
# 3 -0.006230 0.000042 0.012051 0.006482 -0.001497 -0.007491
# 4 -0.006120 0.004612 0.006482 0.036227 -0.005549 -0.012772
# 5 0.006385 -0.004774 -0.001497 -0.005549 0.033351 0.001261
# 6 0.005782 0.000495 -0.007491 -0.012772 0.001261 0.038285
#
#
# Mechanical properties :
#
#
# Convention : Reuss Voigt Hill
#
# Bulk Modulus (GPa) = 50.25123 53.20123 51.72623
# Shear Modulus (GPa) = 28.41229 35.85077 32.13153
#
# Velocity S-wave (km/s) = 3.76506 4.22930 4.00392
# Velocity P-wave (km/s) = 6.63119 7.09880 6.86898
#
# Compressibility (1/GPa) = 0.01990001
#
# Stress axis : x y z
#
# Youngs Moduli (GPa) = 54.37670 97.54978 82.98065
#
# Poissons Ratio (x) = 0.41055 0.51693
# Poissons Ratio (y) = 0.22885 -0.00348
# Poissons Ratio (z) = 0.33874 -0.00409
#
# Static dielectric constant tensor:
#      x y z
#    x 1.680860 0.041020 0.037410 
#    y 0.041020 1.694210 0.018690 
#    z 0.037410 0.018690 1.772150 
# 
# From -- ./inp_files/559881.got.cif
#   From: 2010.05.17/outbox.cif.g08.bks.cpg/sg2_280_cif.got.tgz:559881.got - 2010.06.03 11:33:40.
