data_PCOD9017586
_publ_section_title
;
Structure prediction by ZEFSAII (Michael W. Deem and Ramdas Pophale) SiO2 
 PCOD9017586
Probable space group: P -1
;
_chemical_formula_sum "Si O2"
_cell_formula_units_Z 13
_cell_length_a 17.755173
_cell_length_b 14.449772
_cell_length_c 11.527653
_cell_angle_alpha 147.666773
_cell_angle_beta 25.007561
_cell_angle_gamma 149.392576
_cell_volume 606.884304
_symmetry_space_group_name_H-M "P -1"
_symmetry_group_IT_number 2
_symmetry_cell_setting 'triclinic'
loop_
_space_group_symop_operation_xyz
x,y,z
-x,-y,-z
loop_
_atom_site_type_symbol
_atom_site_label
_atom_site_fract_x
_atom_site_fract_y
_atom_site_fract_z
Si Si1 0.563673 0.731404 0.549293
Si Si2 0.152276 0.608515 0.574700
Si Si3 0.500000 0.000000 0.500000
Si Si4 0.804870 0.969820 0.672295
Si Si5 0.416000 0.925706 0.278807
Si Si6 0.109749 0.614697 0.083000
Si Si7 0.235900 0.488704 0.097268
O O1 0.703979 0.801449 0.540774
O O2 0.602126 0.923647 0.625574
O O3 0.332471 0.631258 0.797815
O O4 0.619685 0.591999 0.243987
O O5 0.237032 0.506667 0.254077
O O6 0.036305 0.485061 0.714320
O O7 0.983318 0.642987 0.777155
O O8 0.328755 0.798272 0.570744
O O9 0.610073 0.033207 0.508709
O O10 0.856346 0.167386 0.743982
O O11 0.636288 0.943225 0.972514
O O12 0.000000 0.000000 0.500000
O O13 0.283711 0.701229 0.207956
O O14 0.000000 0.500000 0.000000
#
# Coordination Sequence:
#
# PCOD9017586 Si02
#       7
#     2   2   1   2   2   2   2
#     4  11  24  44  72 100 137 183 227 283 343 412
#     4  10  21  43  65 100 135 177 223 281 338 401
#     4  10  22  42  68  90 144 176 214 282 338 402
#     4  11  25  42  66 102 136 173 229 285 342 404
#     4  10  22  45  64  99 139 177 219 281 343 398
#     4  11  24  43  70 101 139 178 225 284 338 410
#     4  10  23  41  72  96 133 180 227 275 341 414
#
# _framework density 21.420887
#
# number of rings (size 3 to 8) (size 9 to 14) (size 15 to 20)
#    0.000    1.538    0.000    5.538    6.462    1.231 
#    2.769   10.000    0.000    0.000    0.000    0.000 
#    0.000    0.000    0.000    0.000    0.000    0.000 
#
# Total GULP energy -72379.353996 kJ/mol
# GULP energy per Si atom -5567.642615 kJ/mol
# Density = 2.137213 g / cm^3
# Si number density = 21.420887 Si / 1000 Ang^3
#
#
#
# Elastic Constant Matrix: (Units=GPa)
#
#
# Indices 1 2 3 4 5 6 
#
# 1 97.9856 40.7416 33.0092 -4.8758 12.2230 15.2728
# 2 40.7416 158.6535 55.4175 -17.9614 5.0460 12.9567
# 3 33.0092 55.4175 91.2644 -4.4755 3.3113 -1.6337
# 4 -4.8758 -17.9614 -4.4755 27.4946 0.0847 0.5866
# 5 12.2230 5.0460 3.3113 0.0847 32.4527 -11.9688
# 6 15.2728 12.9567 -1.6337 0.5866 -11.9688 40.8130
#
#
#
# Elastic Compliance Matrix: (Units=1/GPa)
#
#
# Indices 1 2 3 4 5 6 
#
# 1 0.014267 -0.001214 -0.004223 0.001229 -0.007460 -0.007328
# 2 -0.001214 0.009223 -0.004909 0.005085 -0.001683 -0.003237
# 3 -0.004223 -0.004909 0.015381 -0.001556 0.002446 0.004494
# 4 0.001229 0.005085 -0.001556 0.039738 -0.002464 -0.003430
# 5 -0.007460 -0.001683 0.002446 -0.002464 0.039153 0.014941
# 6 -0.007328 -0.003237 0.004494 -0.003430 0.014941 0.032883
#
#
# Mechanical properties :
#
#
# Convention : Reuss Voigt Hill
#
# Bulk Modulus (GPa) = 55.00917 67.36002 61.18459
# Shear Modulus (GPa) = 28.18556 34.73441 31.45999
#
# Velocity S-wave (km/s) = 3.63133 4.03118 3.83647
# Velocity P-wave (km/s) = 6.58164 7.29256 6.94620
#
# Compressibility (1/GPa) = 0.01817879
#
# Stress axis : x y z
#
# Youngs Moduli (GPa) = 70.09261 108.42524 65.01538
#
# Poissons Ratio (x) = 0.13158 0.27459
# Poissons Ratio (y) = 0.08506 0.31916
# Poissons Ratio (z) = 0.29604 0.53225
#
# Static dielectric constant tensor:
#      x y z
#    x 1.812060 -0.017390 0.026150 
#    y -0.017390 1.794280 0.031070 
#    z 0.026150 0.031070 1.780490 
# 
# From -- ./inp_files/291244.got.cif
#   From: 2010.05.17/outbox.cif.g08.bks.cpg/sg2_146_cif.got.tgz:291244.got - 2010.06.03 11:33:40.
