data_PCOD9017410
_publ_section_title
;
Structure prediction by ZEFSAII (Michael W. Deem and Ramdas Pophale) SiO2 
 PCOD9017410
Probable space group: P -1
;
_chemical_formula_sum "Si O2"
_cell_formula_units_Z 16
_cell_length_a 11.642480
_cell_length_b 23.800088
_cell_length_c 8.002815
_cell_angle_alpha 132.608984
_cell_angle_beta 61.900675
_cell_angle_gamma 152.816392
_cell_volume 686.482387
_symmetry_space_group_name_H-M "P -1"
_symmetry_group_IT_number 2
_symmetry_cell_setting 'triclinic'
loop_
_space_group_symop_operation_xyz
x,y,z
-x,-y,-z
loop_
_atom_site_type_symbol
_atom_site_label
_atom_site_fract_x
_atom_site_fract_y
_atom_site_fract_z
Si Si1 0.112196 0.485076 0.288195
Si Si2 0.668777 0.830800 0.707059
Si Si3 0.320278 0.415616 0.788577
Si Si4 0.995349 0.133604 0.936023
Si Si5 0.617361 0.259389 0.946136
Si Si6 0.622412 0.411671 0.095312
Si Si7 0.179178 0.395844 0.344277
Si Si8 0.090304 0.917614 0.506516
O O1 0.432156 0.673119 0.434183
O O2 0.095276 0.401681 0.251250
O O3 0.000000 0.500000 0.500000
O O4 0.893188 0.370575 0.059224
O O5 0.537399 0.773756 0.864996
O O6 0.916302 0.898157 0.664792
O O7 0.776384 0.968221 0.847272
O O8 0.301124 0.494072 0.919511
O O9 0.510922 0.474581 0.637518
O O10 0.043850 0.228148 0.624397
O O11 0.500000 0.500000 0.000000
O O12 0.953337 0.101890 0.702059
O O13 0.296346 0.257506 0.025932
O O14 0.001705 0.227983 0.154764
O O15 0.667049 0.344935 0.935756
O O16 0.403223 0.087320 0.682561
O O17 0.799076 0.537662 0.379693
#
# Coordination Sequence:
#
# PCOD9017410 Si02
#       8
#     2   2   2   2   2   2   2   2
#     4  10  21  43  62  86 123 166 206 251 302 361
#     4  11  22  38  65  89 124 162 207 251 306 357
#     4  11  21  36  61  94 125 158 194 252 313 359
#     4  11  24  36  60  98 127 154 201 262 311 354
#     4  11  24  40  64  92 125 159 210 252 302 363
#     4  11  21  37  61  92 126 152 204 252 309 353
#     4  11  21  39  63  87 129 159 205 250 307 361
#     4  12  22  39  62  95 126 158 202 256 306 361
#
# _framework density 23.307226
#
# number of rings (size 3 to 8) (size 9 to 14) (size 15 to 20)
#    0.000    1.000    7.500    2.250    3.500    0.000 
#    0.000    5.000    0.000    0.000    0.000    0.000 
#    0.000    0.000    0.000    0.000    0.000    0.000 
#
# Total GULP energy -89553.010005 kJ/mol
# GULP energy per Si atom -5597.063125 kJ/mol
# Density = 2.325418 g / cm^3
# Si number density = 23.307226 Si / 1000 Ang^3
#
#
#
# Elastic Constant Matrix: (Units=GPa)
#
#
# Indices 1 2 3 4 5 6 
#
# 1 138.2751 46.9050 53.4701 46.8511 9.7569 -27.2603
# 2 46.9050 68.0327 28.7755 26.7400 -6.2199 -25.5115
# 3 53.4701 28.7755 126.7581 46.2894 7.1637 -18.4150
# 4 46.8511 26.7400 46.2894 50.0888 -6.2183 -12.6001
# 5 9.7569 -6.2199 7.1637 -6.2183 41.8709 3.3810
# 6 -27.2603 -25.5115 -18.4150 -12.6001 3.3810 46.5018
#
#
#
# Elastic Compliance Matrix: (Units=1/GPa)
#
#
# Indices 1 2 3 4 5 6 
#
# 1 0.013017 -0.004570 -0.000315 -0.009386 -0.005281 0.002840
# 2 -0.004570 0.023600 -0.000395 -0.005454 0.003150 0.008405
# 3 -0.000315 -0.000395 0.012729 -0.011283 -0.003990 0.001873
# 4 -0.009386 -0.005454 -0.011283 0.042778 0.009829 -0.002086
# 5 -0.005281 0.003150 -0.003990 0.009829 0.027911 -0.002314
# 6 0.002840 0.008405 0.001873 -0.002086 -0.002314 0.028125
#
#
# Mechanical properties :
#
#
# Convention : Reuss Voigt Hill
#
# Bulk Modulus (GPa) = 25.78229 65.70745 45.74487
# Shear Modulus (GPa) = 29.12946 41.28664 35.20805
#
# Velocity S-wave (km/s) = 3.53909 4.21338 3.89087
# Velocity P-wave (km/s) = 5.27126 7.20577 6.31305
#
# Compressibility (1/GPa) = 0.03878631
#
# Stress axis : x y z
#
# Youngs Moduli (GPa) = 76.82524 42.37263 78.55948
#
# Poissons Ratio (x) = 0.19365 0.02473
# Poissons Ratio (y) = 0.35110 0.03103
# Poissons Ratio (z) = 0.02418 0.01674
#
# Static dielectric constant tensor:
#      x y z
#    x 1.847980 -0.016190 -0.004270 
#    y -0.016190 1.936190 -0.084590 
#    z -0.004270 -0.084590 1.929510 
# 
# From -- ./inp_files/284922.got.cif
#   From: 2010.05.17/outbox.cif.g08.bks.cpg/sg2_143_cif.got.tgz:284922.got - 2010.06.03 11:33:40.
