data_PCOD9017001
_publ_section_title
;
Structure prediction by ZEFSAII (Michael W. Deem and Ramdas Pophale) SiO2 
 PCOD9017001
Probable space group: P -1
;
_chemical_formula_sum "Si O2"
_cell_formula_units_Z 12
_cell_length_a 4.866301
_cell_length_b 9.035278
_cell_length_c 16.936687
_cell_angle_alpha 49.358273
_cell_angle_beta 88.249952
_cell_angle_gamma 73.045168
_cell_volume 527.304470
_symmetry_space_group_name_H-M "P -1"
_symmetry_group_IT_number 2
_symmetry_cell_setting 'triclinic'
loop_
_space_group_symop_operation_xyz
x,y,z
-x,-y,-z
loop_
_atom_site_type_symbol
_atom_site_label
_atom_site_fract_x
_atom_site_fract_y
_atom_site_fract_z
Si Si1 0.508643 0.445273 0.817669
Si Si2 0.202528 0.194490 0.451059
Si Si3 0.042903 0.354753 0.750264
Si Si4 0.086772 0.921788 0.833571
Si Si5 0.720595 0.687172 0.973660
Si Si6 0.873993 0.105535 0.333486
O O1 0.852385 0.343675 0.832862
O O2 0.430835 0.695748 0.737326
O O3 0.336831 0.386472 0.766878
O O4 0.384615 0.373025 0.921513
O O5 0.162089 0.435910 0.366602
O O6 0.019276 0.174160 0.383133
O O7 0.500000 0.000000 0.500000
O O8 0.115250 0.121409 0.560812
O O9 0.098363 0.147386 0.772761
O O10 0.420633 0.760565 0.899721
O O11 0.989874 0.906085 0.749833
O O12 0.854972 0.870834 0.909566
O O13 0.000000 0.500000 0.000000
#
# Coordination Sequence:
#
# PCOD9017001 Si02
#       6
#     2   2   2   2   2   2
#     4  11  23  43  69  92 134 178 223 264 322 400
#     4  10  21  42  70  95 125 179 224 263 329 405
#     4  11  25  43  66 101 136 172 216 276 336 381
#     4  12  27  43  66 103 138 167 221 283 328 381
#     4  12  26  43  70 100 130 179 227 266 325 394
#     4  10  23  40  68  97 127 173 227 271 323 392
#
# _framework density 22.757252000000001
#
# number of rings (size 3 to 8) (size 9 to 14) (size 15 to 20)
#    0.000    1.000    3.333    2.500    4.667    4.667 
#    0.000    0.833    0.000    0.000    0.000    0.000 
#    0.000    0.000    0.000    0.000    0.000    0.000 
#
# Total GULP energy -66984.103474 kJ/mol
# GULP energy per Si atom -5582.008623 kJ/mol
# Density = 2.270546 g / cm^3
# Si number density = 22.757252 Si / 1000 Ang^3
#
#
#
# Elastic Constant Matrix: (Units=GPa)
#
#
# Indices 1 2 3 4 5 6 
#
# 1 85.3032 -3.8172 27.7542 -3.3479 -6.6913 -4.3057
# 2 -3.8172 61.2916 35.8753 -14.4484 -2.6532 4.9435
# 3 27.7542 35.8753 132.5563 -4.3787 -10.4351 3.3326
# 4 -3.3479 -14.4484 -4.3787 27.6227 3.8752 -6.3297
# 5 -6.6913 -2.6532 -10.4351 3.8752 31.8794 -5.1589
# 6 -4.3057 4.9435 3.3326 -6.3297 -5.1589 30.2978
#
#
#
# Elastic Compliance Matrix: (Units=1/GPa)
#
#
# Indices 1 2 3 4 5 6 
#
# 1 0.013478 0.003583 -0.003595 0.003289 0.001996 0.002753
# 2 0.003583 0.023172 -0.006709 0.011562 -0.000967 -0.000283
# 3 -0.003595 -0.006709 0.010215 -0.002812 0.002252 -0.000744
# 4 0.003289 0.011562 -0.002812 0.044423 -0.003440 0.007585
# 5 0.001996 -0.000967 0.002252 -0.003440 0.033706 0.005214
# 6 0.002753 -0.000283 -0.000744 0.007585 0.005214 0.035997
#
#
# Mechanical properties :
#
#
# Convention : Reuss Voigt Hill
#
# Bulk Modulus (GPa) = 29.91868 44.30843 37.11355
# Shear Modulus (GPa) = 26.94348 32.58256 29.76302
#
# Velocity S-wave (km/s) = 3.44459 3.78794 3.62034
# Velocity P-wave (km/s) = 5.38477 6.21640 5.81547
#
# Compressibility (1/GPa) = 0.03342394
#
# Stress axis : x y z
#
# Youngs Moduli (GPa) = 74.19745 43.15601 97.89094
#
# Poissons Ratio (x) = -0.15464 0.35193
# Poissons Ratio (y) = -0.26587 0.65671
# Poissons Ratio (z) = 0.26675 0.28952
#
# Static dielectric constant tensor:
#      x y z
#    x 1.905010 -0.015540 -0.031390 
#    y -0.015540 1.859200 -0.041960 
#    z -0.031390 -0.041960 1.965770 
# 
# From -- ./inp_files/23745.got.cif
#   From: 2010.05.17/outbox.cif.g08.bks.cpg/sg2_12_cif.got.tgz:23745.got - 2010.06.03 11:33:40.
