data_PCOD9017518
_publ_section_title
;
Structure prediction by ZEFSAII (Michael W. Deem and Ramdas Pophale) SiO2 
 PCOD9017518
Probable space group: P -1
;
_chemical_formula_sum "Si O2"
_cell_formula_units_Z 16
_cell_length_a 10.964025
_cell_length_b 16.216963
_cell_length_c 12.342457
_cell_angle_alpha 61.930743
_cell_angle_beta 58.296013
_cell_angle_gamma 21.979284
_cell_volume 697.809971
_symmetry_space_group_name_H-M "P -1"
_symmetry_group_IT_number 2
_symmetry_cell_setting 'triclinic'
loop_
_space_group_symop_operation_xyz
x,y,z
-x,-y,-z
loop_
_atom_site_type_symbol
_atom_site_label
_atom_site_fract_x
_atom_site_fract_y
_atom_site_fract_z
Si Si1 0.711295 0.909510 0.353142
Si Si2 0.450424 0.989177 0.871788
Si Si3 0.198580 0.501841 0.857912
Si Si4 0.785410 0.553435 0.636131
Si Si5 0.826676 0.645282 0.221923
Si Si6 0.220905 0.918109 0.041519
Si Si7 0.136364 0.816717 0.305815
Si Si8 0.750114 0.078378 0.510043
O O1 0.019437 0.657962 0.339556
O O2 0.896767 0.897573 0.291503
O O3 0.500000 0.000000 0.500000
O O4 0.490555 0.041131 0.266944
O O5 0.821499 0.759646 0.890187
O O6 0.264032 0.194500 0.864890
O O7 0.235336 0.021384 0.971116
O O8 0.188896 0.423748 0.821330
O O9 0.387023 0.349674 0.971154
O O10 0.457356 0.430300 0.741875
O O11 0.443111 0.759231 0.601271
O O12 0.000000 0.500000 0.500000
O O13 0.833333 0.554890 0.738022
O O14 0.521951 0.799952 0.354328
O O15 0.105698 0.940964 0.195813
O O16 0.000000 0.000000 0.000000
O O17 0.006133 0.862469 0.456090
O O18 0.000000 0.000000 0.500000
#
# Coordination Sequence:
#
# PCOD9017518 Si02
#       8
#     2   2   2   2   2   2   2   2
#     4  11  22  37  62  94 117 163 213 251 312 382
#     4  11  22  40  67  89 127 163 211 265 306 373
#     4  10  23  39  66  94 122 171 204 258 323 362
#     4   9  21  35  57  81 123 162 194 255 307 361
#     4  10  22  40  60  96 125 160 210 254 314 382
#     4  10  21  43  64  88 126 166 209 267 310 366
#     4  10  22  38  60  90 121 165 209 244 321 369
#     4  11  20  39  57  87 131 161 202 259 313 370
#
# _framework density 22.928877
#
# number of rings (size 3 to 8) (size 9 to 14) (size 15 to 20)
#    0.750    1.000    2.500    2.625    5.250    1.500 
#    0.000    1.875    2.750    3.000    0.000    0.000 
#    0.000    0.000    0.000    0.000    0.000    0.000 
#
# Total GULP energy -89179.256049 kJ/mol
# GULP energy per Si atom -5573.703503 kJ/mol
# Density = 2.287669 g / cm^3
# Si number density = 22.928877 Si / 1000 Ang^3
#
#
#
# Elastic Constant Matrix: (Units=GPa)
#
#
# Indices 1 2 3 4 5 6 
#
# 1 103.3103 52.7331 33.4474 -12.6689 12.8650 -37.0656
# 2 52.7331 64.9393 28.1763 -12.5121 -5.7893 -30.2936
# 3 33.4474 28.1763 97.5761 1.6122 -1.1515 -12.2807
# 4 -12.6689 -12.5121 1.6122 31.2315 -0.5384 -1.4788
# 5 12.8650 -5.7893 -1.1515 -0.5384 37.5723 -2.5785
# 6 -37.0656 -30.2936 -12.2807 -1.4788 -2.5785 37.3928
#
#
#
# Elastic Compliance Matrix: (Units=1/GPa)
#
#
# Indices 1 2 3 4 5 6 
#
# 1 0.022179 -0.010939 -0.003157 0.005185 -0.008499 0.011705
# 2 -0.010939 0.039873 -0.005196 0.012998 0.011361 0.021051
# 3 -0.003157 -0.005196 0.012479 -0.004160 0.000371 -0.003379
# 4 0.005185 0.012998 -0.004160 0.040333 0.001777 0.016021
# 5 -0.008499 0.011361 0.000371 0.001777 0.031529 0.003146
# 6 0.011705 0.021051 -0.003379 0.016021 0.003146 0.055141
#
#
# Mechanical properties :
#
#
# Convention : Reuss Voigt Hill
#
# Bulk Modulus (GPa) = 27.81718 54.94881 41.38299
# Shear Modulus (GPa) = 19.83351 31.33725 25.58538
#
# Velocity S-wave (km/s) = 2.94428 3.70092 3.34407
# Velocity P-wave (km/s) = 4.86998 6.50226 5.74439
#
# Compressibility (1/GPa) = 0.03594901
#
# Stress axis : x y z
#
# Youngs Moduli (GPa) = 45.08825 25.07947 80.13738
#
# Poissons Ratio (x) = 0.27434 0.25296
# Poissons Ratio (y) = 0.49321 0.41635
# Poissons Ratio (z) = 0.14233 0.13030
#
# Static dielectric constant tensor:
#      x y z
#    x 1.924720 -0.042610 0.094820 
#    y -0.042610 2.069020 0.019580 
#    z 0.094820 0.019580 1.923590 
# 
# From -- ./inp_files/523449.got.cif
#   From: 2010.05.17/outbox.cif.g08.bks.cpg/sg2_262_cif.got.tgz:523449.got - 2010.06.03 11:33:40.
