data_PCOD9017496
_publ_section_title
;
Structure prediction by ZEFSAII (Michael W. Deem and Ramdas Pophale) SiO2 
 PCOD9017496
Probable space group: P -1
;
_chemical_formula_sum "Si O2"
_cell_formula_units_Z 16
_cell_length_a 8.843267
_cell_length_b 15.322328
_cell_length_c 9.858879
_cell_angle_alpha 84.100860
_cell_angle_beta 77.977170
_cell_angle_gamma 130.881805
_cell_volume 934.778672
_symmetry_space_group_name_H-M "P -1"
_symmetry_group_IT_number 2
_symmetry_cell_setting 'triclinic'
loop_
_space_group_symop_operation_xyz
x,y,z
-x,-y,-z
loop_
_atom_site_type_symbol
_atom_site_label
_atom_site_fract_x
_atom_site_fract_y
_atom_site_fract_z
Si Si1 0.447354 0.194370 0.423269
Si Si2 0.507372 0.409328 0.083243
Si Si3 0.339728 0.783945 0.349233
Si Si4 0.327150 0.960878 0.426084
Si Si5 0.829332 0.750940 0.604539
Si Si6 0.800301 0.466740 0.253951
Si Si7 0.834896 0.561866 0.526260
Si Si8 0.710941 0.379434 0.818985
O O1 0.500745 0.183910 0.566974
O O2 0.273023 0.203201 0.451525
O O3 0.664910 0.323405 0.304897
O O4 0.375943 0.081537 0.368711
O O5 0.286738 0.302926 0.220294
O O6 0.693307 0.479822 0.151881
O O7 0.500000 0.500000 0.000000
O O8 0.565080 0.361335 0.966179
O O9 0.343698 0.891032 0.321253
O O10 0.378288 0.743718 0.213861
O O11 0.096196 0.662044 0.460860
O O12 0.085406 0.859489 0.544757
O O13 0.500000 0.000000 0.500000
O O14 0.774875 0.639161 0.553310
O O15 0.766730 0.499589 0.401585
O O16 0.051786 0.547979 0.179376
O O17 0.745829 0.464410 0.677537
#
# Coordination Sequence:
#
# PCOD9017496 Si02
#       8
#     2   2   2   2   2   2   2   2
#     4  10  17  30  52  79 104 129 168 224 263 290
#     4  11  23  33  47  76 117 147 162 202 263 323
#     4   9  17  31  52  79  98 135 174 219 255 290
#     4   9  19  33  54  76  96 130 179 227 257 293
#     4  10  21  33  49  77 108 135 170 212 265 309
#     4  10  20  33  53  81 104 139 178 211 254 300
#     4  10  17  32  55  75 109 133 173 221 249 302
#     4  11  18  34  53  75 113 141 169 205 253 322
#
# _framework density 17.116353
#
# number of rings (size 3 to 8) (size 9 to 14) (size 15 to 20)
#    0.000    2.000    3.750    1.500    0.000    3.000 
#    0.000    0.000    0.000    6.000    0.000    7.000 
#    0.000    0.000    0.000    0.000    0.000    0.000 
#
# Total GULP energy -89195.178203 kJ/mol
# GULP energy per Si atom -5574.698638 kJ/mol
# Density = 1.707740 g / cm^3
# Si number density = 17.116353 Si / 1000 Ang^3
#
#
#
# Elastic Constant Matrix: (Units=GPa)
#
#
# Indices 1 2 3 4 5 6 
#
# 1 106.3020 53.6490 41.1117 5.8347 0.9917 -19.0488
# 2 53.6490 125.7785 43.3651 9.0896 -7.9818 -24.1119
# 3 41.1117 43.3651 74.0176 16.4401 -7.5935 -11.5705
# 4 5.8347 9.0896 16.4401 16.6178 -4.2328 -3.1157
# 5 0.9917 -7.9818 -7.5935 -4.2328 28.9588 3.1335
# 6 -19.0488 -24.1119 -11.5705 -3.1157 3.1335 26.7465
#
#
#
# Elastic Compliance Matrix: (Units=1/GPa)
#
#
# Indices 1 2 3 4 5 6 
#
# 1 0.014289 -0.003409 -0.006140 0.003090 -0.003147 0.005177
# 2 -0.003409 0.012169 -0.004085 0.000259 0.001723 0.006604
# 3 -0.006140 -0.004085 0.023616 -0.018358 0.002624 -0.000285
# 4 0.003090 0.000259 -0.018358 0.079306 0.006421 0.002978
# 5 -0.003147 0.001723 0.002624 0.006421 0.037082 -0.003149
# 6 0.005177 0.006604 -0.000285 0.002978 -0.003149 0.047621
#
#
# Mechanical properties :
#
#
# Convention : Reuss Voigt Hill
#
# Bulk Modulus (GPa) = 43.84372 64.70553 54.27463
# Shear Modulus (GPa) = 20.08411 25.66277 22.87344
#
# Velocity S-wave (km/s) = 3.42919 3.87630 3.65958
# Velocity P-wave (km/s) = 6.43038 7.61050 7.04519
#
# Compressibility (1/GPa) = 0.02280828
#
# Stress axis : x y z
#
# Youngs Moduli (GPa) = 69.98198 82.17285 42.34435
#
# Poissons Ratio (x) = 0.28011 0.25998
# Poissons Ratio (y) = 0.23856 0.17296
# Poissons Ratio (z) = 0.42967 0.33565
#
# Static dielectric constant tensor:
#      x y z
#    x 1.605370 -0.016320 0.001240 
#    y -0.016320 1.606640 0.005140 
#    z 0.001240 0.005140 1.561590 
# 
# From -- ./inp_files/169442.got.cif
#   From: 2010.05.17/outbox.cif.g08.bks.cpg/sg2_85_cif.got.tgz:169442.got - 2010.06.03 11:33:40.
