data_PCOD9017968
_publ_section_title
;
Structure prediction by ZEFSAII (Michael W. Deem and Ramdas Pophale) SiO2 
 PCOD9017968
Probable space group: P -1
;
_chemical_formula_sum "Si O2"
_cell_formula_units_Z 13
_cell_length_a 10.597549
_cell_length_b 7.173064
_cell_length_c 6.822086
_cell_angle_alpha 95.530976
_cell_angle_beta 92.040408
_cell_angle_gamma 104.478453
_cell_volume 498.826482
_symmetry_space_group_name_H-M "P -1"
_symmetry_group_IT_number 2
_symmetry_cell_setting 'triclinic'
loop_
_space_group_symop_operation_xyz
x,y,z
-x,-y,-z
loop_
_atom_site_type_symbol
_atom_site_label
_atom_site_fract_x
_atom_site_fract_y
_atom_site_fract_z
Si Si1 0.650216 0.724824 0.871498
Si Si2 0.500000 0.000000 0.500000
Si Si3 0.903962 0.837621 0.158691
Si Si4 0.406981 0.733746 0.097798
Si Si5 0.241730 0.357232 0.491827
Si Si6 0.276440 0.741378 0.717154
Si Si7 0.006767 0.285686 0.205656
O O1 0.619547 0.493649 0.878355
O O2 0.667836 0.750558 0.639860
O O3 0.778269 0.825908 0.011264
O O4 0.530518 0.787943 0.963578
O O5 0.431343 0.853153 0.307010
O O6 0.365263 0.919670 0.625288
O O7 0.845568 0.764032 0.356512
O O8 0.990968 0.053972 0.208390
O O9 0.978840 0.702496 0.029408
O O10 0.293760 0.763325 0.953929
O O11 0.319892 0.552013 0.622585
O O12 0.140418 0.396702 0.327728
O O13 0.119808 0.686341 0.687759
#
# Coordination Sequence:
#
# PCOD9017968 Si02
#       7
#     2   1   2   2   2   2   2
#     4  10  22  42  67  95 133 172 230 271 318 403
#     4  12  26  44  64  98 136 172 220 278 332 396
#     4  10  21  43  67  96 131 180 222 269 333 394
#     4  11  24  43  66  95 134 180 218 276 330 392
#     4  11  22  42  70 100 131 178 227 268 334 395
#     4  12  25  43  66 101 137 176 220 276 339 392
#     4  10  24  41  66 100 137 172 221 279 324 399
#
# _framework density 26.061167000000001
#
# number of rings (size 3 to 8) (size 9 to 14) (size 15 to 20)
#    0.000    1.231    3.077    2.308    0.000    4.923 
#    0.000    3.077    0.000    0.000    0.000    0.000 
#    0.000    0.000    0.000    0.000    0.000    0.000 
#
# Total GULP energy -72570.748202 kJ/mol
# GULP energy per Si atom -5582.365246 kJ/mol
# Density = 2.600185 g / cm^3
# Si number density = 26.061167 Si / 1000 Ang^3
#
#
#
# Elastic Constant Matrix: (Units=GPa)
#
#
# Indices 1 2 3 4 5 6 
#
# 1 58.4737 16.0515 25.9149 6.6755 -16.8163 20.4526
# 2 16.0515 56.4219 30.2087 8.2816 -5.3096 1.7595
# 3 25.9149 30.2087 193.2642 6.8081 -18.7352 -0.0580
# 4 6.6755 8.2816 6.8081 50.6714 21.7869 -7.3914
# 5 -16.8163 -5.3096 -18.7352 21.7869 45.7196 3.2786
# 6 20.4526 1.7595 -0.0580 -7.3914 3.2786 31.1091
#
#
#
# Elastic Compliance Matrix: (Units=1/GPa)
#
#
# Indices 1 2 3 4 5 6 
#
# 1 0.040918 -0.004202 -0.001556 -0.020825 0.026315 -0.034388
# 2 -0.004202 0.020751 -0.002463 -0.002903 0.001183 0.000770
# 3 -0.001556 -0.002463 0.005995 -0.000950 0.001998 0.000737
# 4 -0.020825 -0.002903 -0.000950 0.039403 -0.029048 0.026277
# 5 0.026315 0.001183 0.001998 -0.029048 0.048456 -0.029372
# 6 -0.034388 0.000770 0.000737 0.026277 -0.029372 0.064050
#
#
# Mechanical properties :
#
#
# Convention : Reuss Voigt Hill
#
# Bulk Modulus (GPa) = 19.52253 50.27886 34.90069
# Shear Modulus (GPa) = 19.75581 41.23232 30.49407
#
# Velocity S-wave (km/s) = 2.75627 3.98192 3.42438
# Velocity P-wave (km/s) = 4.19960 6.36203 5.39037
#
# Compressibility (1/GPa) = 0.05122288
#
# Stress axis : x y z
#
# Youngs Moduli (GPa) = 24.43909 48.18970 166.79979
#
# Poissons Ratio (x) = 0.20251 0.25947
# Poissons Ratio (y) = 0.10270 0.41080
# Poissons Ratio (z) = 0.03802 0.11868
#
# Static dielectric constant tensor:
#      x y z
#    x 2.499520 -0.347490 0.184780 
#    y -0.347490 2.228110 -0.177470 
#    z 0.184780 -0.177470 2.157200 
# 
# From -- ./inp_files/19553.got.cif
#   From: 2010.05.17/outbox.cif.g08.bks.cpg/sg2_10_cif.got.tgz:19553.got - 2010.06.03 11:33:40.
