data_PCOD9017593
_publ_section_title
;
Structure prediction by ZEFSAII (Michael W. Deem and Ramdas Pophale) SiO2 
 PCOD9017593
Probable space group: P -1
;
_chemical_formula_sum "Si O2"
_cell_formula_units_Z 16
_cell_length_a 5.319334
_cell_length_b 23.283343
_cell_length_c 20.756795
_cell_angle_alpha 17.103327
_cell_angle_beta 65.491240
_cell_angle_gamma 65.225716
_cell_volume 685.481623
_symmetry_space_group_name_H-M "P -1"
_symmetry_group_IT_number 2
_symmetry_cell_setting 'triclinic'
loop_
_space_group_symop_operation_xyz
x,y,z
-x,-y,-z
loop_
_atom_site_type_symbol
_atom_site_label
_atom_site_fract_x
_atom_site_fract_y
_atom_site_fract_z
Si Si1 0.705579 0.725219 0.086171
Si Si2 0.399978 0.495999 0.941844
Si Si3 0.209634 0.476482 0.361921
Si Si4 0.364718 0.255337 0.452936
Si Si5 0.095126 0.161990 0.363538
Si Si6 0.585750 0.830991 0.118675
Si Si7 0.035509 0.971250 0.346174
Si Si8 0.006189 0.764896 0.243063
O O1 0.434121 0.632652 0.186875
O O2 0.623350 0.882113 0.984545
O O3 0.911815 0.567007 0.270600
O O4 0.889838 0.817562 0.912802
O O5 0.610150 0.569084 0.789304
O O6 0.137407 0.657809 0.792290
O O7 0.500000 0.500000 0.000000
O O8 0.325851 0.273656 0.181900
O O9 0.318594 0.342803 0.434218
O O10 0.169538 0.336443 0.576810
O O11 0.659347 0.128365 0.561993
O O12 0.122969 0.130521 0.585543
O O13 0.147791 0.061171 0.535663
O O14 0.000000 0.000000 0.500000
O O15 0.329057 0.698150 0.286253
O O16 0.871453 0.734304 0.221147
O O17 0.500000 0.000000 0.000000
O O18 0.000000 0.000000 0.000000
#
# Coordination Sequence:
#
# PCOD9017593 Si02
#       8
#     2   2   2   2   2   2   2   2
#     4  12  27  44  68 104 140 164 232 284 336 406
#     4  10  21  43  65 101 135 180 233 287 335 412
#     4  12  27  44  69 104 134 176 215 294 345 385
#     4  11  25  44  72  94 140 184 227 269 345 414
#     4  10  23  41  69 100 139 182 232 286 346 403
#     4  10  23  41  68  94 126 178 211 272 329 403
#     4  11  25  45  69 100 135 188 227 268 337 423
#     4  10  23  41  68  95 126 171 227 254 339 405
#
# _framework density 23.341255
#
# number of rings (size 3 to 8) (size 9 to 14) (size 15 to 20)
#    0.000    1.250    1.250    3.000    8.750    4.500 
#    0.000    0.000    0.000    0.000    0.000    0.000 
#    0.000    0.000    0.000    0.000    0.000    0.000 
#
# Total GULP energy -89368.659858 kJ/mol
# GULP energy per Si atom -5585.541241 kJ/mol
# Density = 2.328813 g / cm^3
# Si number density = 23.341255 Si / 1000 Ang^3
#
#
#
# Elastic Constant Matrix: (Units=GPa)
#
#
# Indices 1 2 3 4 5 6 
#
# 1 136.7626 2.2882 37.7559 6.3377 -21.5511 27.1106
# 2 2.2882 46.2281 23.9110 -1.6332 -0.0611 18.7071
# 3 37.7559 23.9110 85.0473 -2.9112 -15.2260 -0.4082
# 4 6.3377 -1.6332 -2.9112 22.1091 8.3676 -4.7539
# 5 -21.5511 -0.0611 -15.2260 8.3676 38.5677 -0.0039
# 6 27.1106 18.7071 -0.4082 -4.7539 -0.0039 35.6339
#
#
#
# Elastic Compliance Matrix: (Units=1/GPa)
#
#
# Indices 1 2 3 4 5 6 
#
# 1 0.015077 0.011200 -0.009006 -0.011564 0.007394 -0.018996
# 2 0.011200 0.042771 -0.017190 -0.009943 0.001694 -0.032499
# 3 -0.009006 -0.017190 0.021234 0.007102 0.001784 0.017067
# 4 -0.011564 -0.009943 0.007102 0.059791 -0.016644 0.022074
# 5 0.007394 0.001694 0.001784 -0.016644 0.034377 -0.008711
# 6 -0.018996 -0.032499 0.017067 0.022074 -0.008711 0.062716
#
#
# Mechanical properties :
#
#
# Convention : Reuss Voigt Hill
#
# Bulk Modulus (GPa) = 20.37055 43.99424 32.18239
# Shear Modulus (GPa) = 17.71028 32.86766 25.28897
#
# Velocity S-wave (km/s) = 2.75754 3.75658 3.29514
# Velocity P-wave (km/s) = 4.34568 6.14045 5.31930
#
# Compressibility (1/GPa) = 0.04909048
#
# Stress axis : x y z
#
# Youngs Moduli (GPa) = 66.32456 23.38022 47.09518
#
# Poissons Ratio (x) = -0.26186 0.42412
# Poissons Ratio (y) = -0.74284 0.80958
# Poissons Ratio (z) = 0.59729 0.40192
#
# Static dielectric constant tensor:
#      x y z
#    x 1.168180 -0.125400 0.462240 
#    y -0.125400 2.220740 -0.342030 
#    z 0.462240 -0.342030 2.086690 
# 
# From -- ./inp_files/550958.got.cif
#   From: 2010.05.17/outbox.cif.g08.bks.cpg/sg2_276_cif.got.tgz:550958.got - 2010.06.03 11:33:40.
