data_PCOD9017574
_publ_section_title
;
Structure prediction by ZEFSAII (Michael W. Deem and Ramdas Pophale) SiO2 
 PCOD9017574
Probable space group: P -1
;
_chemical_formula_sum "Si O2"
_cell_formula_units_Z 14
_cell_length_a 9.291709
_cell_length_b 11.813985
_cell_length_c 11.802640
_cell_angle_alpha 138.146261
_cell_angle_beta 116.421844
_cell_angle_gamma 39.293643
_cell_volume 520.288979
_symmetry_space_group_name_H-M "P -1"
_symmetry_group_IT_number 2
_symmetry_cell_setting 'triclinic'
loop_
_space_group_symop_operation_xyz
x,y,z
-x,-y,-z
loop_
_atom_site_type_symbol
_atom_site_label
_atom_site_fract_x
_atom_site_fract_y
_atom_site_fract_z
Si Si1 0.164663 0.982929 0.878544
Si Si2 0.685869 0.202296 0.855732
Si Si3 0.069119 0.185482 0.755954
Si Si4 0.302946 0.752789 0.353386
Si Si5 0.861647 0.714883 0.746597
Si Si6 0.686702 0.765847 0.303033
Si Si7 0.241656 0.545192 0.590115
O O1 0.123903 0.134890 0.869084
O O2 0.907257 0.114391 0.931758
O O3 0.275342 0.712489 0.683112
O O4 0.267970 0.029728 0.043215
O O5 0.786632 0.094923 0.681997
O O6 0.501364 0.197630 0.807999
O O7 0.500000 0.500000 0.000000
O O8 0.176475 0.238636 0.750606
O O9 0.787482 0.368877 0.775616
O O10 0.193343 0.919245 0.551046
O O11 0.577074 0.585820 0.338759
O O12 0.717745 0.653777 0.621720
O O13 0.092363 0.480469 0.729019
O O14 0.977696 0.706637 0.666862
O O15 0.500000 0.000000 0.500000
#
# Coordination Sequence:
#
# PCOD9017574 Si02
#       7
#     2   2   2   2   2   2   2
#     4  11  24  44  68 103 139 176 225 284 339 401
#     4  11  20  39  68  97 127 173 228 279 333 385
#     4  10  24  41  69 101 130 176 226 284 343 397
#     4  10  21  43  64  97 133 174 229 266 343 408
#     4  11  24  41  68 106 136 173 237 275 330 407
#     4  12  21  41  70  98 130 169 229 286 330 399
#     4  11  23  43  72  96 138 189 218 277 340 405
#
# _framework density 26.908124999999998
#
# number of rings (size 3 to 8) (size 9 to 14) (size 15 to 20)
#    0.000    1.143    4.286    1.286    4.000    2.286 
#    0.000    0.714    0.000    0.000    0.000    0.000 
#    0.000    0.000    0.000    0.000    0.000    0.000 
#
# Total GULP energy -78093.055901 kJ/mol
# GULP energy per Si atom -5578.075421 kJ/mol
# Density = 2.684688 g / cm^3
# Si number density = 26.908125 Si / 1000 Ang^3
#
#
#
# Elastic Constant Matrix: (Units=GPa)
#
#
# Indices 1 2 3 4 5 6 
#
# 1 170.3955 26.4187 55.3321 -16.3928 38.9000 15.8151
# 2 26.4187 75.9341 22.9965 -24.0522 13.8629 6.4060
# 3 55.3321 22.9965 158.8169 -16.9163 23.9373 7.5056
# 4 -16.3928 -24.0522 -16.9163 39.1515 -0.2478 3.3663
# 5 38.9000 13.8629 23.9373 -0.2478 38.0110 0.9879
# 6 15.8151 6.4060 7.5056 3.3663 0.9879 34.7403
#
#
#
# Elastic Compliance Matrix: (Units=1/GPa)
#
#
# Indices 1 2 3 4 5 6 
#
# 1 0.008828 0.000287 -0.001317 0.003587 -0.008185 -0.003902
# 2 0.000287 0.018436 -0.000323 0.011643 -0.006624 -0.004400
# 3 -0.001317 -0.000323 0.007633 0.002626 -0.003294 -0.001151
# 4 0.003587 0.011643 0.002626 0.035924 -0.009140 -0.007568
# 5 -0.008185 -0.006624 -0.003294 -0.009140 0.038974 0.005436
# 6 -0.003902 -0.004400 -0.001151 -0.007568 0.005436 0.032200
#
#
# Mechanical properties :
#
#
# Convention : Reuss Voigt Hill
#
# Bulk Modulus (GPa) = 31.06542 68.29346 49.67944
# Shear Modulus (GPa) = 32.16900 42.40716 37.28808
#
# Velocity S-wave (km/s) = 3.46137 3.97419 3.72661
# Velocity P-wave (km/s) = 5.24832 6.81867 6.08437
#
# Compressibility (1/GPa) = 0.03219013
#
# Stress axis : x y z
#
# Youngs Moduli (GPa) = 113.28119 54.24306 131.01387
#
# Poissons Ratio (x) = -0.01558 0.17255
# Poissons Ratio (y) = -0.03254 0.04233
# Poissons Ratio (z) = 0.14920 0.01753
#
# Static dielectric constant tensor:
#      x y z
#    x 2.168090 -0.060180 -0.017280 
#    y -0.060180 2.538790 0.089150 
#    z -0.017280 0.089150 2.267130 
# 
# From -- ./inp_files/157478.got.cif
#   From: 2010.05.17/outbox.cif.g08.bks.cpg/sg2_79_cif.got.tgz:157478.got - 2010.06.03 11:33:40.
