data_PCOD9017841
_publ_section_title
;
Structure prediction by ZEFSAII (Michael W. Deem and Ramdas Pophale) SiO2 
 PCOD9017841
Probable space group: P -1
;
_chemical_formula_sum "Si O2"
_cell_formula_units_Z 11
_cell_length_a 11.914511
_cell_length_b 9.375271
_cell_length_c 8.001985
_cell_angle_alpha 106.078654
_cell_angle_beta 81.300516
_cell_angle_gamma 38.665577
_cell_volume 424.307297
_symmetry_space_group_name_H-M "P -1"
_symmetry_group_IT_number 2
_symmetry_cell_setting 'triclinic'
loop_
_space_group_symop_operation_xyz
x,y,z
-x,-y,-z
loop_
_atom_site_type_symbol
_atom_site_label
_atom_site_fract_x
_atom_site_fract_y
_atom_site_fract_z
Si Si1 0.500000 0.500000 0.000000
Si Si2 0.764931 0.692682 0.783821
Si Si3 0.019800 0.908013 0.778179
Si Si4 0.901804 0.891279 0.332690
Si Si5 0.555798 0.117695 0.702893
Si Si6 0.905211 0.452324 0.164623
O O1 0.539214 0.636451 0.087017
O O2 0.232155 0.834823 0.147181
O O3 0.889362 0.392982 0.683980
O O4 0.930160 0.604625 0.833484
O O5 0.742992 0.806053 0.652195
O O6 0.500000 0.000000 0.000000
O O7 0.126978 0.628985 0.704768
O O8 0.136199 0.890384 0.618347
O O9 0.000000 0.000000 0.000000
O O10 0.678050 0.064646 0.506847
O O11 0.964854 0.764970 0.093139
O O12 0.350245 0.240817 0.742968
#
# Coordination Sequence:
#
# PCOD9017841 Si02
#       6
#     1   2   2   2   2   2
#     4  12  20  44  68  96 140 182 218 286 340 392
#     4  12  24  48  74  97 142 185 223 286 347 407
#     4  10  21  43  66  97 137 174 228 277 343 396
#     4  11  25  45  69 105 137 183 230 277 346 408
#     4  12  26  44  71 102 141 179 234 284 338 409
#     4  11  24  48  67 101 142 180 225 286 344 405
#
# _framework density 25.924607999999999
#
# number of rings (size 3 to 8) (size 9 to 14) (size 15 to 20)
#    0.000    0.727    7.273    1.091    0.000    2.182 
#    3.273    0.000    0.000    0.000    0.000    0.000 
#    0.000    0.000    0.000    0.000    0.000    0.000 
#
# Total GULP energy -61298.225492 kJ/mol
# GULP energy per Si atom -5572.565954 kJ/mol
# Density = 2.586560 g / cm^3
# Si number density = 25.924608 Si / 1000 Ang^3
#
#
#
# Elastic Constant Matrix: (Units=GPa)
#
#
# Indices 1 2 3 4 5 6 
#
# 1 147.6310 67.9342 37.3598 -5.4255 -22.1712 -4.8009
# 2 67.9342 130.9519 14.3199 -1.4542 -15.3492 17.2579
# 3 37.3598 14.3199 66.6227 -7.9001 -13.8426 2.7663
# 4 -5.4255 -1.4542 -7.9001 41.3960 11.5007 -13.3055
# 5 -22.1712 -15.3492 -13.8426 11.5007 52.6286 10.1681
# 6 -4.8009 17.2579 2.7663 -13.3055 10.1681 67.0729
#
#
#
# Elastic Compliance Matrix: (Units=1/GPa)
#
#
# Indices 1 2 3 4 5 6 
#
# 1 0.010570 -0.005132 -0.004590 0.000725 0.001159 0.002235
# 2 -0.005132 0.011001 0.000959 -0.002107 0.002540 -0.004040
# 3 -0.004590 0.000959 0.018270 0.001583 0.003092 -0.001484
# 4 0.000725 -0.002107 0.001583 0.029004 -0.007669 0.007445
# 5 0.001159 0.002540 0.003092 -0.007669 0.023846 -0.005834
# 6 0.002235 -0.004040 -0.001484 0.007445 -0.005834 0.018531
#
#
# Mechanical properties :
#
#
# Convention : Reuss Voigt Hill
#
# Bulk Modulus (GPa) = 44.81596 64.93704 54.87650
# Shear Modulus (GPa) = 36.71422 47.25894 41.98658
#
# Velocity S-wave (km/s) = 3.76731 4.27422 4.02875
# Velocity P-wave (km/s) = 6.02064 7.03288 6.54635
#
# Compressibility (1/GPa) = 0.02231348
#
# Stress axis : x y z
#
# Youngs Moduli (GPa) = 94.60476 90.90272 54.73564
#
# Poissons Ratio (x) = 0.46654 0.25126
# Poissons Ratio (y) = 0.48554 -0.05249
# Poissons Ratio (z) = 0.43427 -0.08718
#
# Static dielectric constant tensor:
#      x y z
#    x 2.149550 0.041590 0.112590 
#    y 0.041590 2.025270 -0.131130 
#    z 0.112590 -0.131130 2.198600 
# 
# From -- ./inp_files/301122.got.cif
#   From: 2010.05.17/outbox.cif.g08.bks.cpg/sg2_151_cif.got.tgz:301122.got - 2010.06.03 11:33:40.
