data_PCOD9017775
_publ_section_title
;
Structure prediction by ZEFSAII (Michael W. Deem and Ramdas Pophale) SiO2 
 PCOD9017775
Probable space group: P -1
;
_chemical_formula_sum "Si O2"
_cell_formula_units_Z 16
_cell_length_a 8.015044
_cell_length_b 9.881426
_cell_length_c 10.963436
_cell_angle_alpha 97.346981
_cell_angle_beta 86.777534
_cell_angle_gamma 49.587600
_cell_volume 644.475265
_symmetry_space_group_name_H-M "P -1"
_symmetry_group_IT_number 2
_symmetry_cell_setting 'triclinic'
loop_
_space_group_symop_operation_xyz
x,y,z
-x,-y,-z
loop_
_atom_site_type_symbol
_atom_site_label
_atom_site_fract_x
_atom_site_fract_y
_atom_site_fract_z
Si Si1 0.214977 0.838653 0.766161
Si Si2 0.469014 0.299303 0.782583
Si Si3 0.070673 0.093348 0.585134
Si Si4 0.206190 0.090873 0.931311
Si Si5 0.336876 0.519678 0.297002
Si Si6 0.724109 0.468727 0.966967
Si Si7 0.451994 0.039678 0.662416
Si Si8 0.198823 0.104636 0.200895
O O1 0.457205 0.676545 0.680289
O O2 0.083500 0.015655 0.707612
O O3 0.063022 0.787072 0.774274
O O4 0.243340 0.906747 0.898458
O O5 0.549894 0.397012 0.735118
O O6 0.406946 0.225340 0.672022
O O7 0.675669 0.108962 0.815059
O O8 0.287935 0.417891 0.909299
O O9 0.886103 0.311424 0.606949
O O10 0.000000 0.000000 0.500000
O O11 0.317069 0.028118 0.565658
O O12 0.335094 0.078814 0.806838
O O13 0.945648 0.262139 0.947972
O O14 0.262352 0.120699 0.065592
O O15 0.275291 0.481611 0.166691
O O16 0.500000 0.500000 0.000000
O O17 0.704985 0.873466 0.679518
#
# Coordination Sequence:
#
# PCOD9017775 Si02
#       8
#     2   2   2   2   2   2   2   2
#     4  11  21  37  63  85 114 158 200 245 280 350
#     4   9  19  33  54  84 123 155 190 228 287 351
#     4  11  23  45  65  84 112 150 204 257 299 344
#     4  11  19  33  53  87 125 164 196 228 284 349
#     4  11  20  39  60  87 116 155 207 238 278 356
#     4  10  17  30  52  83 122 156 193 227 270 343
#     4   9  21  36  56  84 126 156 189 245 303 339
#     4  10  18  34  54  85 123 152 194 227 289 352
#
# _framework density 24.8264
#
# number of rings (size 3 to 8) (size 9 to 14) (size 15 to 20)
#    0.750    1.000    3.750    3.750    0.000    1.000 
#    0.000    5.000    0.000    1.500    0.000    0.000 
#    0.000    0.000    0.000    0.000    0.000    0.000 
#
# Total GULP energy -89168.364761 kJ/mol
# GULP energy per Si atom -5573.022798 kJ/mol
# Density = 2.476989 g / cm^3
# Si number density = 24.826400 Si / 1000 Ang^3
#
#
#
# Elastic Constant Matrix: (Units=GPa)
#
#
# Indices 1 2 3 4 5 6 
#
# 1 63.2745 4.4714 15.5406 6.8178 30.9267 -14.3691
# 2 4.4714 99.5720 11.9781 21.2238 1.3859 -30.5814
# 3 15.5406 11.9781 85.3339 11.9105 38.2880 -10.6372
# 4 6.8178 21.2238 11.9105 36.4324 -2.5986 -6.7785
# 5 30.9267 1.3859 38.2880 -2.5986 37.8304 -4.0773
# 6 -14.3691 -30.5814 -10.6372 -6.7785 -4.0773 29.1757
#
#
#
# Elastic Compliance Matrix: (Units=1/GPa)
#
#
# Indices 1 2 3 4 5 6 
#
# 1 0.050248 0.009466 0.026064 -0.022638 -0.066161 0.029666
# 2 0.009466 0.017995 0.005518 -0.010994 -0.012448 0.021241
# 3 0.026064 0.005518 0.038383 -0.021307 -0.059739 0.019315
# 4 -0.022638 -0.010994 -0.021307 0.045452 0.042088 -0.013999
# 5 -0.066161 -0.012448 -0.059739 0.042088 0.140230 -0.038037
# 6 0.029666 0.021241 0.019315 -0.013999 -0.038037 0.069625
#
#
# Mechanical properties :
#
#
# Convention : Reuss Voigt Hill
#
# Bulk Modulus (GPa) = 5.29887 34.68451 19.99169
# Shear Modulus (GPa) = 14.58812 35.10040 24.84426
#
# Velocity S-wave (km/s) = 2.42669 3.76418 3.16685
# Velocity P-wave (km/s) = 3.16081 5.73526 4.63055
#
# Compressibility (1/GPa) = 0.18871934
#
# Stress axis : x y z
#
# Youngs Moduli (GPa) = 19.90139 55.57240 26.05310
#
# Poissons Ratio (x) = -0.52602 -0.67904
# Poissons Ratio (y) = -0.18838 -0.14375
# Poissons Ratio (z) = -0.51870 -0.30663
#
# Static dielectric constant tensor:
#      x y z
#    x 2.200060 -0.020820 0.048900 
#    y -0.020820 1.953970 -0.030540 
#    z 0.048900 -0.030540 2.179420 
# 
# From -- ./inp_files/498130.got.cif
#   From: 2010.05.17/outbox.cif.g08.bks.cpg/sg2_250_cif.got.tgz:498130.got - 2010.06.03 11:33:40.
