data_PCOD9017683
_publ_section_title
;
Structure prediction by ZEFSAII (Michael W. Deem and Ramdas Pophale) SiO2 
 PCOD9017683
Probable space group: P -1
;
_chemical_formula_sum "Si O2"
_cell_formula_units_Z 16
_cell_length_a 9.130574
_cell_length_b 12.232968
_cell_length_c 8.546912
_cell_angle_alpha 72.880584
_cell_angle_beta 66.834218
_cell_angle_gamma 61.684461
_cell_volume 765.773101
_symmetry_space_group_name_H-M "P -1"
_symmetry_group_IT_number 2
_symmetry_cell_setting 'triclinic'
loop_
_space_group_symop_operation_xyz
x,y,z
-x,-y,-z
loop_
_atom_site_type_symbol
_atom_site_label
_atom_site_fract_x
_atom_site_fract_y
_atom_site_fract_z
Si Si1 0.428755 0.995848 0.703974
Si Si2 0.849089 0.481569 0.671353
Si Si3 0.235347 0.725021 0.360946
Si Si4 0.954150 0.957164 0.201787
Si Si5 0.564592 0.772003 0.284044
Si Si6 0.523274 0.725806 0.691948
Si Si7 0.148388 0.773344 0.737276
Si Si8 0.047513 0.368368 0.946744
O O1 0.484893 0.848220 0.763695
O O2 0.500000 0.000000 0.500000
O O3 0.220467 0.063432 0.746979
O O4 0.487725 0.078129 0.760933
O O5 0.761417 0.405539 0.642483
O O6 0.693194 0.611838 0.728334
O O7 0.000000 0.500000 0.500000
O O8 0.939808 0.402228 0.817361
O O9 0.420442 0.733772 0.283878
O O10 0.166807 0.744408 0.558951
O O11 0.103816 0.835962 0.262241
O O12 0.908978 0.077969 0.280528
O O13 0.000000 0.000000 0.000000
O O14 0.566027 0.744129 0.482981
O O15 0.750058 0.697788 0.157484
O O16 0.340691 0.710570 0.763164
O O17 0.016187 0.722773 0.890586
O O18 0.000000 0.500000 0.000000
#
# Coordination Sequence:
#
# PCOD9017683 Si02
#       8
#     2   2   2   2   2   2   2   2
#     4   9  19  39  67  95 130 167 216 275 322 385
#     4  12  24  43  69  96 128 182 224 263 332 402
#     4  11  25  42  71  96 130 177 220 269 332 399
#     4  11  22  43  67  96 132 175 220 272 332 389
#     4  10  21  43  65  98 134 171 218 275 328 384
#     4   9  21  39  69  96 129 174 224 268 324 391
#     4  10  23  42  65  99 132 172 221 279 326 387
#     4  12  26  45  65  97 139 173 220 277 328 390
#
# _framework density 20.893916000000001
#
# number of rings (size 3 to 8) (size 9 to 14) (size 15 to 20)
#    0.000    1.500    1.250    4.125    3.500    1.500 
#    6.750    1.250    0.000    0.000    0.000    0.000 
#    0.000    0.000    0.000    0.000    0.000    0.000 
#
# Total GULP energy -89451.782886 kJ/mol
# GULP energy per Si atom -5590.736430 kJ/mol
# Density = 2.084636 g / cm^3
# Si number density = 20.893916 Si / 1000 Ang^3
#
#
#
# Elastic Constant Matrix: (Units=GPa)
#
#
# Indices 1 2 3 4 5 6 
#
# 1 108.6846 57.8334 43.0656 1.1031 -29.1264 10.5542
# 2 57.8334 97.5556 6.7908 12.0117 -8.2109 4.2319
# 3 43.0656 6.7908 70.0974 3.3658 -23.2350 -4.2824
# 4 1.1031 12.0117 3.3658 30.5218 -0.3551 3.5986
# 5 -29.1264 -8.2109 -23.2350 -0.3551 35.7367 4.5957
# 6 10.5542 4.2319 -4.2824 3.5986 4.5957 48.8952
#
#
#
# Elastic Compliance Matrix: (Units=1/GPa)
#
#
# Indices 1 2 3 4 5 6 
#
# 1 0.023447 -0.012801 -0.010451 0.006204 0.010244 -0.006288
# 2 -0.012801 0.018016 0.005633 -0.007583 -0.003034 0.002541
# 3 -0.010451 0.005633 0.022971 -0.004695 0.007221 0.003447
# 4 0.006204 -0.007583 -0.004695 0.036513 0.001124 -0.003887
# 5 0.010244 -0.003034 0.007221 0.001124 0.041016 -0.005254
# 6 -0.006288 0.002541 0.003447 -0.003887 -0.005254 0.022671
#
#
# Mechanical properties :
#
#
# Convention : Reuss Voigt Hill
#
# Bulk Modulus (GPa) = 34.25355 54.63525 44.44440
# Shear Modulus (GPa) = 23.85455 34.27393 29.06424
#
# Velocity S-wave (km/s) = 3.38257 4.05455 3.73371
# Velocity P-wave (km/s) = 5.62897 6.93721 6.31705
#
# Compressibility (1/GPa) = 0.02919406
#
# Stress axis : x y z
#
# Youngs Moduli (GPa) = 42.64940 55.50767 43.53360
#
# Poissons Ratio (x) = 0.71057 0.45499
# Poissons Ratio (y) = 0.54597 -0.24523
# Poissons Ratio (z) = 0.44575 -0.31268
#
# Static dielectric constant tensor:
#      x y z
#    x 1.744620 0.067260 0.016480 
#    y 0.067260 1.887820 0.054080 
#    z 0.016480 0.054080 1.760230 
# 
# From -- ./inp_files/185689.got.cif
#   From: 2010.05.17/outbox.cif.g08.bks.cpg/sg2_93_cif.got.tgz:185689.got - 2010.06.03 11:33:40.
