data_PCOD9017015
_publ_section_title
;
Structure prediction by ZEFSAII (Michael W. Deem and Ramdas Pophale) SiO2 
 PCOD9017015
Probable space group: P -1
;
_chemical_formula_sum "Si O2"
_cell_formula_units_Z 13
_cell_length_a 24.876929
_cell_length_b 11.742601
_cell_length_c 16.594676
_cell_angle_alpha 154.762287
_cell_angle_beta 164.551465
_cell_angle_gamma 23.374974
_cell_volume 503.254225
_symmetry_space_group_name_H-M "P -1"
_symmetry_group_IT_number 2
_symmetry_cell_setting 'triclinic'
loop_
_space_group_symop_operation_xyz
x,y,z
-x,-y,-z
loop_
_atom_site_type_symbol
_atom_site_label
_atom_site_fract_x
_atom_site_fract_y
_atom_site_fract_z
Si Si1 0.202182 0.715893 0.446789
Si Si2 0.607705 0.860121 0.740245
Si Si3 0.308832 0.349735 0.839104
Si Si4 0.188317 0.742793 0.768881
Si Si5 0.424251 0.251948 0.202957
Si Si6 0.175335 0.729970 0.032467
Si Si7 0.000000 0.000000 0.500000
O O1 0.227675 0.434698 0.253117
O O2 0.449731 0.692815 0.803283
O O3 0.102415 0.763114 0.422289
O O4 0.025331 0.008424 0.337806
O O5 0.665005 0.863808 0.921694
O O6 0.376045 0.834155 0.383375
O O7 0.626752 0.126395 0.891881
O O8 0.276507 0.463734 0.773733
O O9 0.141318 0.606640 0.817861
O O10 0.362703 0.007910 0.691739
O O11 0.111301 0.741010 0.565361
O O12 0.500000 0.500000 0.500000
O O13 0.244601 0.430326 0.992379
O O14 0.000000 0.000000 0.000000
#
# Coordination Sequence:
#
# PCOD9017015 Si02
#       7
#     2   2   2   2   2   2   1
#     4   9  21  39  61 106 137 181 218 277 353 426
#     4  10  21  42  70  95 147 180 218 297 345 412
#     4  11  23  45  74  97 146 183 222 304 347 416
#     4  10  22  42  66 108 135 180 226 275 371 416
#     4  10  23  45  68  94 136 187 236 284 344 399
#     4  10  24  45  70 106 132 188 245 280 340 417
#     4   8  20  36  60 100 142 174 220 268 334 444
#
# _framework density 25.831873999999999
#
# number of rings (size 3 to 8) (size 9 to 14) (size 15 to 20)
#    0.923    1.231    0.000    1.846    2.154    4.923 
#    8.308    4.615    0.000    0.000    0.000    0.000 
#    0.000    0.000    0.000    0.000    0.000    0.000 
#
# Total GULP energy -72425.770625 kJ/mol
# GULP energy per Si atom -5571.213125 kJ/mol
# Density = 2.577308 g / cm^3
# Si number density = 25.831874 Si / 1000 Ang^3
#
#
#
# Elastic Constant Matrix: (Units=GPa)
#
#
# Indices 1 2 3 4 5 6 
#
# 1 156.2108 85.0681 30.0049 -9.9691 -8.3828 -25.2349
# 2 85.0681 166.3519 38.7624 -19.0938 -6.9067 -15.8039
# 3 30.0049 38.7624 68.1373 7.6022 3.2422 -7.7691
# 4 -9.9691 -19.0938 7.6022 36.8792 -5.4633 -0.4507
# 5 -8.3828 -6.9067 3.2422 -5.4633 52.3042 -4.8310
# 6 -25.2349 -15.8039 -7.7691 -0.4507 -4.8310 61.0296
#
#
#
# Elastic Compliance Matrix: (Units=1/GPa)
#
#
# Indices 1 2 3 4 5 6 
#
# 1 0.009528 -0.003994 -0.001801 0.001133 0.001488 0.002802
# 2 -0.003994 0.009770 -0.004386 0.005111 0.001500 0.000476
# 3 -0.001801 -0.004386 0.018913 -0.007061 -0.002754 0.000257
# 4 0.001133 0.005111 -0.007061 0.032254 0.004803 0.001512
# 5 0.001488 0.001500 -0.002754 0.004803 0.020441 0.002307
# 6 0.002802 0.000476 0.000257 0.001512 0.002307 0.017894
#
#
# Mechanical properties :
#
#
# Convention : Reuss Voigt Hill
#
# Bulk Modulus (GPa) = 56.03157 77.59676 66.81417
# Shear Modulus (GPa) = 37.00628 45.83357 41.41993
#
# Velocity S-wave (km/s) = 3.78905 4.21682 4.00864
# Velocity P-wave (km/s) = 6.39379 7.33574 6.88090
#
# Compressibility (1/GPa) = 0.01784708
#
# Stress axis : x y z
#
# Youngs Moduli (GPa) = 104.95734 102.35121 52.87389
#
# Poissons Ratio (x) = 0.40884 0.09523
# Poissons Ratio (y) = 0.41925 0.23193
# Poissons Ratio (z) = 0.18903 0.44896
#
# Static dielectric constant tensor:
#      x y z
#    x 2.075430 0.100620 -0.085340 
#    y 0.100620 2.292150 -0.092170 
#    z -0.085340 -0.092170 1.895700 
# 
# From -- ./inp_files/579746.got.cif
#   From: 2010.05.17/outbox.cif.g08.bks.cpg/sg2_290_cif.got.tgz:579746.got - 2010.06.03 11:33:40.
