data_PCOD9017492
_publ_section_title
;
Structure prediction by ZEFSAII (Michael W. Deem and Ramdas Pophale) SiO2 
 PCOD9017492
Probable space group: P -1
;
_chemical_formula_sum "Si O2"
_cell_formula_units_Z 14
_cell_length_a 7.675902
_cell_length_b 9.808971
_cell_length_c 9.109528
_cell_angle_alpha 91.665091
_cell_angle_beta 100.018314
_cell_angle_gamma 123.721495
_cell_volume 555.132120
_symmetry_space_group_name_H-M "P -1"
_symmetry_group_IT_number 2
_symmetry_cell_setting 'triclinic'
loop_
_space_group_symop_operation_xyz
x,y,z
-x,-y,-z
loop_
_atom_site_type_symbol
_atom_site_label
_atom_site_fract_x
_atom_site_fract_y
_atom_site_fract_z
Si Si1 0.625085 0.415253 0.478078
Si Si2 0.822080 0.039158 0.348402
Si Si3 0.406668 0.304738 0.875799
Si Si4 0.783969 0.927149 0.654668
Si Si5 0.582884 0.032949 0.844389
Si Si6 0.183783 0.581084 0.204522
Si Si7 0.276465 0.541609 0.842258
O O1 0.500000 0.500000 0.500000
O O2 0.440855 0.221306 0.445827
O O3 0.797534 0.444301 0.622292
O O4 0.714865 0.457283 0.329990
O O5 0.643893 0.071712 0.282161
O O6 0.056888 0.132773 0.312566
O O7 0.715201 0.857373 0.248322
O O8 0.862997 0.051835 0.529971
O O9 0.635768 0.441132 0.836054
O O10 0.266019 0.376870 0.874804
O O11 0.503799 0.305123 0.048021
O O12 0.741148 0.988085 0.799887
O O13 0.710627 0.227754 0.822955
O O14 0.500000 0.000000 0.000000
O O15 0.931244 0.469885 0.131868
#
# Coordination Sequence:
#
# PCOD9017492 Si02
#       7
#     2   2   2   2   2   2   2
#     4  12  24  45  67 102 135 175 232 276 325 412
#     4  10  22  44  69  96 129 181 223 282 339 391
#     4  10  21  43  63  96 138 164 227 274 326 404
#     4  11  23  44  71  95 136 177 227 279 340 387
#     4  11  25  44  68 104 137 172 227 282 336 407
#     4  11  23  45  67  94 136 172 227 275 327 398
#     4  11  23  40  69  96 132 186 211 272 345 388
#
# _framework density 25.219224000000001
#
# number of rings (size 3 to 8) (size 9 to 14) (size 15 to 20)
#    0.000    1.143    4.286    2.143    4.000    1.714 
#    7.714    0.000    0.000    0.000    0.000    0.000 
#    0.000    0.000    0.000    0.000    0.000    0.000 
#
# Total GULP energy -78173.739379 kJ/mol
# GULP energy per Si atom -5583.838527 kJ/mol
# Density = 2.516182 g / cm^3
# Si number density = 25.219224 Si / 1000 Ang^3
#
#
#
# Elastic Constant Matrix: (Units=GPa)
#
#
# Indices 1 2 3 4 5 6 
#
# 1 110.0004 14.9179 36.6118 -5.7441 -5.0979 23.2213
# 2 14.9179 22.5607 34.5440 -3.0241 0.6466 -7.3110
# 3 36.6118 34.5440 144.1873 -22.5396 -20.0803 2.2732
# 4 -5.7441 -3.0241 -22.5396 32.0423 4.9354 -0.5234
# 5 -5.0979 0.6466 -20.0803 4.9354 47.9257 9.9058
# 6 23.2213 -7.3110 2.2732 -0.5234 9.9058 21.1410
#
#
#
# Elastic Compliance Matrix: (Units=1/GPa)
#
#
# Indices 1 2 3 4 5 6 
#
# 1 0.024140 -0.045247 0.008246 0.002422 0.016907 -0.050911
# 2 -0.045247 0.194685 -0.047232 -0.011807 -0.056680 0.148369
# 3 0.008246 -0.047232 0.020275 0.008182 0.016413 -0.035059
# 4 0.002422 -0.011807 0.008182 0.035898 0.001705 -0.007534
# 5 0.016907 -0.056680 0.016413 0.001705 0.042491 -0.059804
# 6 -0.050911 0.148369 -0.035059 -0.007534 -0.059804 0.186136
#
#
# Mechanical properties :
#
#
# Convention : Reuss Voigt Hill
#
# Bulk Modulus (GPa) = 14.15715 49.87732 32.01723
# Shear Modulus (GPa) = 7.18770 32.93345 20.06057
#
# Velocity S-wave (km/s) = 1.69005 3.61763 2.82343
# Velocity P-wave (km/s) = 3.07151 6.10492 4.83240
#
# Compressibility (1/GPa) = 0.07063568
#
# Stress axis : x y z
#
# Youngs Moduli (GPa) = 41.42531 5.13650 49.32269
#
# Poissons Ratio (x) = 0.23241 -0.40673
# Poissons Ratio (y) = 1.87436 2.32959
# Poissons Ratio (z) = -0.34161 0.24261
#
# Static dielectric constant tensor:
#      x y z
#    x 2.008590 -0.046130 0.011330 
#    y -0.046130 2.057300 -0.078470 
#    z 0.011330 -0.078470 2.094480 
# 
# From -- ./inp_files/188555.got.cif
#   From: 2010.05.17/outbox.cif.g08.bks.cpg/sg2_95_cif.got.tgz:188555.got - 2010.06.03 11:33:40.
