data_PCOD9017929
_publ_section_title
;
Structure prediction by ZEFSAII (Michael W. Deem and Ramdas Pophale) SiO2 
 PCOD9017929
Probable space group: P -1
;
_chemical_formula_sum "Si O2"
_cell_formula_units_Z 14
_cell_length_a 10.246158
_cell_length_b 11.088684
_cell_length_c 11.287829
_cell_angle_alpha 97.100224
_cell_angle_beta 127.164373
_cell_angle_gamma 124.641539
_cell_volume 590.171368
_symmetry_space_group_name_H-M "P -1"
_symmetry_group_IT_number 2
_symmetry_cell_setting 'triclinic'
loop_
_space_group_symop_operation_xyz
x,y,z
-x,-y,-z
loop_
_atom_site_type_symbol
_atom_site_label
_atom_site_fract_x
_atom_site_fract_y
_atom_site_fract_z
Si Si1 0.630403 0.891955 0.575745
Si Si2 0.515509 0.619403 0.857453
Si Si3 0.258264 0.285186 0.269089
Si Si4 0.929903 0.716971 0.262431
Si Si5 0.259651 0.715653 0.740046
Si Si6 0.979712 0.470828 0.170340
Si Si7 0.702682 0.099766 0.869626
O O1 0.796649 0.875160 0.714161
O O2 0.311215 0.657611 0.358848
O O3 0.644000 0.002586 0.699156
O O4 0.772519 0.037414 0.556835
O O5 0.604792 0.660559 0.776774
O O6 0.211693 0.379745 0.698624
O O7 0.482151 0.740721 0.883832
O O8 0.730972 0.678643 0.065862
O O9 0.500000 0.500000 0.500000
O O10 0.974832 0.189939 0.080021
O O11 0.932437 0.583782 0.189746
O O12 0.129065 0.668064 0.789240
O O13 0.000000 0.500000 0.500000
O O14 0.428019 0.913339 0.777867
O O15 0.805732 0.301045 0.950902
#
# Coordination Sequence:
#
# PCOD9017929 Si02
#       7
#     2   2   2   2   2   2   2
#     4  12  22  43  68  99 131 176 220 276 336 387
#     4  10  21  43  67  94 131 178 217 270 335 391
#     4  12  23  42  71 100 132 167 230 281 326 394
#     4  10  23  41  68  93 138 179 219 265 331 405
#     4  11  21  40  69  96 130 170 221 278 332 384
#     4  11  24  41  62 100 133 175 225 265 331 403
#     4  12  23  39  69  97 135 170 215 283 331 384
#
# _framework density 23.721923
#
# number of rings (size 3 to 8) (size 9 to 14) (size 15 to 20)
#    0.000    0.857    5.714    2.143    0.000    0.571 
#    0.000    0.714    0.000    0.000    0.000    0.000 
#    0.000    0.000    0.000    0.000    0.000    0.000 
#
# Total GULP energy -78383.461706 kJ/mol
# GULP energy per Si atom -5598.818693 kJ/mol
# Density = 2.366793 g / cm^3
# Si number density = 23.721923 Si / 1000 Ang^3
#
#
#
# Elastic Constant Matrix: (Units=GPa)
#
#
# Indices 1 2 3 4 5 6 
#
# 1 60.0409 38.1433 13.4913 15.1450 14.5708 2.7039
# 2 38.1433 137.8522 20.8603 29.2466 8.2630 26.1251
# 3 13.4913 20.8603 93.7844 27.5442 7.9442 5.3489
# 4 15.1450 29.2466 27.5442 47.5691 -4.7849 14.3914
# 5 14.5708 8.2630 7.9442 -4.7849 37.4878 2.0612
# 6 2.7039 26.1251 5.3489 14.3914 2.0612 35.4138
#
#
#
# Elastic Compliance Matrix: (Units=1/GPa)
#
#
# Indices 1 2 3 4 5 6 
#
# 1 0.023992 -0.005734 0.000339 -0.006981 -0.009339 0.005728
# 2 -0.005734 0.010646 -0.000430 -0.002563 -0.000007 -0.006309
# 3 0.000339 -0.000430 0.013493 -0.008682 -0.004116 0.002021
# 4 -0.006981 -0.002563 -0.008682 0.034099 0.010059 -0.010708
# 5 -0.009339 -0.000007 -0.004116 0.010059 0.032719 -0.004653
# 6 0.005728 -0.006309 0.002021 -0.010708 -0.004653 0.036771
#
#
# Mechanical properties :
#
#
# Convention : Reuss Voigt Hill
#
# Bulk Modulus (GPa) = 27.41275 48.51860 37.96567
# Shear Modulus (GPa) = 28.48538 38.70631 33.59584
#
# Velocity S-wave (km/s) = 3.46902 4.04377 3.76737
# Velocity P-wave (km/s) = 5.25609 6.50387 5.91298
#
# Compressibility (1/GPa) = 0.03647938
#
# Stress axis : x y z
#
# Youngs Moduli (GPa) = 41.68135 93.93597 74.11371
#
# Poissons Ratio (x) = 0.53865 -0.02512
# Poissons Ratio (y) = 0.23901 0.03187
# Poissons Ratio (z) = -0.01413 0.04039
#
# Static dielectric constant tensor:
#      x y z
#    x 1.907750 0.008720 0.021300 
#    y 0.008720 1.936460 -0.010540 
#    z 0.021300 -0.010540 1.920950 
# 
# From -- ./inp_files/425922.got.cif
#   From: 2010.05.17/outbox.cif.g08.bks.cpg/sg2_213_cif.got.tgz:425922.got - 2010.06.03 11:33:40.
