data_PCOD9017081
_publ_section_title
;
Structure prediction by ZEFSAII (Michael W. Deem and Ramdas Pophale) SiO2 
 PCOD9017081
Probable space group: P -1
;
_chemical_formula_sum "Si O2"
_cell_formula_units_Z 10
_cell_length_a 12.154115
_cell_length_b 9.734249
_cell_length_c 11.250222
_cell_angle_alpha 127.946659
_cell_angle_beta 156.598442
_cell_angle_gamma 49.233079
_cell_volume 399.840479
_symmetry_space_group_name_H-M "P -1"
_symmetry_group_IT_number 2
_symmetry_cell_setting 'triclinic'
loop_
_space_group_symop_operation_xyz
x,y,z
-x,-y,-z
loop_
_atom_site_type_symbol
_atom_site_label
_atom_site_fract_x
_atom_site_fract_y
_atom_site_fract_z
Si Si1 0.656214 0.160904 0.128526
Si Si2 0.262896 0.925929 0.577895
Si Si3 0.403422 0.211717 0.553318
Si Si4 0.302538 0.382284 0.292442
Si Si5 0.859570 0.344673 0.229986
O O1 0.718048 0.186897 0.340905
O O2 0.669855 0.322262 0.144387
O O3 0.924434 0.999088 0.255580
O O4 0.364762 0.102924 0.806815
O O5 0.500306 0.812817 0.664196
O O6 0.269590 0.340274 0.376199
O O7 0.163899 0.212472 0.415786
O O8 0.500000 0.000000 0.500000
O O9 0.652140 0.296560 0.895793
O O10 0.500000 0.500000 0.500000
O O11 0.000000 0.500000 0.000000
O O12 0.000000 0.500000 0.500000
#
# Coordination Sequence:
#
# PCOD9017081 Si02
#       5
#     2   2   2   2   2
#     4  10  21  42  71 101 135 190 243 302 361 446
#     4  10  22  42  70 100 137 189 246 297 364 443
#     4  12  27  50  77 110 149 207 257 302 375 470
#     4  12  26  45  71 107 149 189 244 313 374 435
#     4  12  26  45  75 110 153 191 250 318 380 436
#
# _framework density 25.009974
#
# number of rings (size 3 to 8) (size 9 to 14) (size 15 to 20)
#    0.000    0.800    0.000    7.200    2.800    0.000 
#   10.800    0.000    0.000    0.000    0.000    0.000 
#    0.000    0.000    0.000    0.000    0.000    0.000 
#
# Total GULP energy -55708.346679 kJ/mol
# GULP energy per Si atom -5570.834668 kJ/mol
# Density = 2.495305 g / cm^3
# Si number density = 25.009974 Si / 1000 Ang^3
#
#
#
# Elastic Constant Matrix: (Units=GPa)
#
#
# Indices 1 2 3 4 5 6 
#
# 1 90.5678 23.0674 22.6347 4.8178 2.1812 10.5431
# 2 23.0674 83.9067 36.8475 5.0969 -25.0221 3.0316
# 3 22.6347 36.8475 166.8863 2.8806 2.0583 7.1427
# 4 4.8178 5.0969 2.8806 34.7745 1.3171 12.0588
# 5 2.1812 -25.0221 2.0583 1.3171 39.9291 -8.1610
# 6 10.5431 3.0316 7.1427 12.0588 -8.1610 69.5911
#
#
#
# Elastic Compliance Matrix: (Units=1/GPa)
#
#
# Indices 1 2 3 4 5 6 
#
# 1 0.012613 -0.004199 -0.000646 -0.000225 -0.003700 -0.002057
# 2 -0.004199 0.018582 -0.003731 -0.003082 0.012623 0.002224
# 3 -0.000646 -0.003731 0.006968 0.000469 -0.002855 -0.000871
# 4 -0.000225 -0.003082 0.000469 0.031371 -0.004164 -0.005804
# 5 -0.003700 0.012623 -0.002855 -0.004164 0.034477 0.005069
# 6 -0.002057 0.002224 -0.000871 -0.005804 0.005069 0.016274
#
#
# Mechanical properties :
#
#
# Convention : Reuss Voigt Hill
#
# Bulk Modulus (GPa) = 47.59540 56.27333 51.93436
# Shear Modulus (GPa) = 34.61627 46.11302 40.36464
#
# Velocity S-wave (km/s) = 3.72438 4.29859 4.02175
# Velocity P-wave (km/s) = 6.12916 6.86923 6.50972
#
# Compressibility (1/GPa) = 0.02101044
#
# Stress axis : x y z
#
# Youngs Moduli (GPa) = 79.28367 53.81565 143.51587
#
# Poissons Ratio (x) = 0.22599 0.09271
# Poissons Ratio (y) = 0.33294 0.53544
# Poissons Ratio (z) = 0.05121 0.20078
#
# Static dielectric constant tensor:
#      x y z
#    x 1.846000 0.076150 -0.080510 
#    y 0.076150 2.152140 -0.054590 
#    z -0.080510 -0.054590 1.913140 
# 
# From -- ./inp_files/185587.got.cif
#   From: 2010.05.17/outbox.cif.g08.bks.cpg/sg2_93_cif.got.tgz:185587.got - 2010.06.03 11:33:40.
