data_PCOD9017638
_publ_section_title
;
Structure prediction by ZEFSAII (Michael W. Deem and Ramdas Pophale) SiO2 
 PCOD9017638
Probable space group: P -1
;
_chemical_formula_sum "Si O2"
_cell_formula_units_Z 12
_cell_length_a 9.718320
_cell_length_b 12.198574
_cell_length_c 6.801417
_cell_angle_alpha 66.929349
_cell_angle_beta 96.969174
_cell_angle_gamma 140.071014
_cell_volume 453.683322
_symmetry_space_group_name_H-M "P -1"
_symmetry_group_IT_number 2
_symmetry_cell_setting 'triclinic'
loop_
_space_group_symop_operation_xyz
x,y,z
-x,-y,-z
loop_
_atom_site_type_symbol
_atom_site_label
_atom_site_fract_x
_atom_site_fract_y
_atom_site_fract_z
Si Si1 0.771915 0.776491 0.190216
Si Si2 0.789247 0.400003 0.900857
Si Si3 0.807382 0.626938 0.982228
Si Si4 0.193120 0.043321 0.587235
Si Si5 0.400976 0.026174 0.313005
Si Si6 0.914342 0.617505 0.407416
O O1 0.694398 0.662618 0.050315
O O2 0.815915 0.684797 0.386902
O O3 0.675834 0.802014 0.319762
O O4 0.000000 0.000000 0.000000
O O5 0.716068 0.484380 0.894444
O O6 0.579738 0.177016 0.071674
O O7 0.000000 0.500000 0.000000
O O8 0.850975 0.466439 0.641325
O O9 0.839847 0.555049 0.215332
O O10 0.050327 0.838176 0.800275
O O11 0.336156 0.095119 0.391348
O O12 0.000000 0.000000 0.500000
O O13 0.500000 0.000000 0.500000
O O14 0.177226 0.821627 0.326018
#
# Coordination Sequence:
#
# PCOD9017638 Si02
#       6
#     2   2   2   2   2   2
#     4   8  17  34  67  91 120 166 209 258 321 372
#     4  12  23  43  64  91 136 173 213 271 321 384
#     4   9  20  40  66  93 128 168 214 270 318 375
#     4  11  17  38  71  92 128 174 210 266 323 383
#     4  12  24  41  66  97 128 175 217 262 333 385
#     4  10  21  43  65  93 131 164 221 263 319 378
#
# _framework density 26.450165999999999
#
# number of rings (size 3 to 8) (size 9 to 14) (size 15 to 20)
#    1.000    0.667    5.000    0.000    0.000    0.667 
#    3.000    5.833    0.000    0.000    0.000    0.000 
#    0.000    0.000    0.000    0.000    0.000    0.000 
#
# Total GULP energy -67056.334068 kJ/mol
# GULP energy per Si atom -5588.027839 kJ/mol
# Density = 2.638996 g / cm^3
# Si number density = 26.450166 Si / 1000 Ang^3
#
#
#
# Elastic Constant Matrix: (Units=GPa)
#
#
# Indices 1 2 3 4 5 6 
#
# 1 103.3760 14.6835 23.7253 -0.1759 -7.1708 -7.9964
# 2 14.6835 65.0382 13.2987 -6.3240 -17.2113 -22.1549
# 3 23.7253 13.2987 211.4087 -16.4225 5.6724 6.7476
# 4 -0.1759 -6.3240 -16.4225 36.8831 -6.3954 -8.7636
# 5 -7.1708 -17.2113 5.6724 -6.3954 37.9863 4.2643
# 6 -7.9964 -22.1549 6.7476 -8.7636 4.2643 37.6563
#
#
#
# Elastic Compliance Matrix: (Units=1/GPa)
#
#
# Indices 1 2 3 4 5 6 
#
# 1 0.010329 -0.001217 -0.001175 -0.000082 0.001390 0.001511
# 2 -0.001217 0.025199 -0.001528 0.009320 0.011218 0.015740
# 3 -0.001175 -0.001528 0.005154 0.001429 -0.001264 -0.001596
# 4 -0.000082 0.009320 0.001429 0.033662 0.008302 0.012103
# 5 0.001390 0.011218 -0.001264 0.008302 0.032656 0.005356
# 6 0.001511 0.015740 -0.001596 0.012103 0.005356 0.038634
#
#
# Mechanical properties :
#
#
# Convention : Reuss Voigt Hill
#
# Bulk Modulus (GPa) = 30.44776 53.69308 42.07042
# Shear Modulus (GPa) = 30.40979 44.37952 37.39466
#
# Velocity S-wave (km/s) = 3.39440 4.10061 3.76410
# Velocity P-wave (km/s) = 5.18642 6.53940 5.90181
#
# Compressibility (1/GPa) = 0.03284314
#
# Stress axis : x y z
#
# Youngs Moduli (GPa) = 96.81421 39.68352 194.02564
#
# Poissons Ratio (x) = 0.04830 0.22789
# Poissons Ratio (y) = 0.11783 0.29647
# Poissons Ratio (z) = 0.11371 0.06064
#
# Static dielectric constant tensor:
#      x y z
#    x 1.839740 -0.248470 0.085430 
#    y -0.248470 1.845680 0.111630 
#    z 0.085430 0.111630 1.976740 
# 
# From -- ./inp_files/195308.got.cif
#   From: 2010.05.17/outbox.cif.g08.bks.cpg/sg2_98_cif.got.tgz:195308.got - 2010.06.03 11:33:40.
