data_PCOD9017282
_publ_section_title
;
Structure prediction by ZEFSAII (Michael W. Deem and Ramdas Pophale) SiO2 
 PCOD9017282
Probable space group: P -1
;
_chemical_formula_sum "Si O2"
_cell_formula_units_Z 14
_cell_length_a 14.662718
_cell_length_b 30.090892
_cell_length_c 24.576108
_cell_angle_alpha 169.983470
_cell_angle_beta 18.033603
_cell_angle_gamma 161.390802
_cell_volume 570.774434
_symmetry_space_group_name_H-M "P -1"
_symmetry_group_IT_number 2
_symmetry_cell_setting 'triclinic'
loop_
_space_group_symop_operation_xyz
x,y,z
-x,-y,-z
loop_
_atom_site_type_symbol
_atom_site_label
_atom_site_fract_x
_atom_site_fract_y
_atom_site_fract_z
Si Si1 0.099874 0.811112 0.320247
Si Si2 0.736360 0.361531 0.763173
Si Si3 0.655889 0.600667 0.589318
Si Si4 0.606935 0.226944 0.500742
Si Si5 0.124886 0.967085 0.617027
Si Si6 0.523230 0.849248 0.639038
Si Si7 0.780487 0.398194 0.378752
O O1 0.877641 0.919367 0.535892
O O2 0.443320 0.931811 0.252874
O O3 0.044638 0.900454 0.520215
O O4 0.000000 0.500000 0.000000
O O5 0.473531 0.120757 0.604858
O O6 0.996856 0.414072 0.634610
O O7 0.880614 0.280499 0.639426
O O8 0.579772 0.601441 0.151359
O O9 0.500000 0.500000 0.500000
O O10 0.562250 0.438731 0.502033
O O11 0.611327 0.891839 0.973248
O O12 0.547092 0.279797 0.535201
O O13 0.957472 0.340286 0.449161
O O14 0.934330 0.157671 0.983415
O O15 0.374599 0.673776 0.562255
#
# Coordination Sequence:
#
# PCOD9017282 Si02
#       7
#     2   2   2   2   2   2   2
#     4  12  27  45  72 103 143 191 239 289 357 426
#     4  10  21  43  72 103 137 184 239 291 344 419
#     4  12  26  42  72 105 148 182 234 295 360 418
#     4  11  25  49  71 101 147 190 241 290 350 428
#     4  10  21  42  73 102 136 186 240 288 345 424
#     4  12  27  46  70 109 144 184 237 297 358 416
#     4  11  25  47  75 107 141 188 238 294 358 418
#
# _framework density 24.528079999999999
#
# number of rings (size 3 to 8) (size 9 to 14) (size 15 to 20)
#    0.000    0.857    1.429    5.143    4.000    4.000 
#    5.143    0.000    0.000    0.000    0.000    0.000 
#    0.000    0.000    0.000    0.000    0.000    0.000 
#
# Total GULP energy -78512.399902 kJ/mol
# GULP energy per Si atom -5608.028564 kJ/mol
# Density = 2.447225 g / cm^3
# Si number density = 24.528080 Si / 1000 Ang^3
#
#
#
# Elastic Constant Matrix: (Units=GPa)
#
#
# Indices 1 2 3 4 5 6 
#
# 1 142.3306 24.7485 -2.9511 -2.6725 5.8763 -12.7267
# 2 24.7485 106.8848 26.7591 2.2478 1.5681 -16.8769
# 3 -2.9511 26.7591 64.6583 -2.9431 -4.0070 -2.0501
# 4 -2.6725 2.2478 -2.9431 29.4988 -4.6020 -5.1476
# 5 5.8763 1.5681 -4.0070 -4.6020 38.5272 3.3269
# 6 -12.7267 -16.8769 -2.0501 -5.1476 3.3269 43.0310
#
#
#
# Elastic Compliance Matrix: (Units=1/GPa)
#
#
# Indices 1 2 3 4 5 6 
#
# 1 0.007578 -0.001757 0.001119 0.001093 -0.000994 0.001813
# 2 -0.001757 0.011621 -0.004891 -0.001057 -0.001165 0.003769
# 3 0.001119 -0.004891 0.017773 0.002487 0.002227 -0.000615
# 4 0.001093 -0.001057 0.002487 0.035654 0.004050 0.003979
# 5 -0.000994 -0.001165 0.002227 0.004050 0.027065 -0.002253
# 6 0.001813 0.003769 -0.000615 0.003979 -0.002253 0.025875
#
#
# Mechanical properties :
#
#
# Convention : Reuss Voigt Hill
#
# Bulk Modulus (GPa) = 38.58801 45.66519 42.12660
# Shear Modulus (GPa) = 34.42075 39.89920 37.15997
#
# Velocity S-wave (km/s) = 3.75016 4.03758 3.89652
# Velocity P-wave (km/s) = 5.87519 6.35563 6.12013
#
# Compressibility (1/GPa) = 0.02591479
#
# Stress axis : x y z
#
# Youngs Moduli (GPa) = 131.95610 86.04755 56.26615
#
# Poissons Ratio (x) = 0.15117 -0.06294
# Poissons Ratio (y) = 0.23183 0.27517
# Poissons Ratio (z) = -0.14761 0.42082
#
# Static dielectric constant tensor:
#      x y z
#    x 1.944220 0.002060 0.008870 
#    y 0.002060 1.975750 0.021440 
#    z 0.008870 0.021440 1.920030 
# 
# From -- ./inp_files/263710.got.cif
#   From: 2010.05.17/outbox.cif.g08.bks.cpg/sg2_132_cif.got.tgz:263710.got - 2010.06.03 11:33:40.
