data_PCOD9017877
_publ_section_title
;
Structure prediction by ZEFSAII (Michael W. Deem and Ramdas Pophale) SiO2 
 PCOD9017877
Probable space group: P -1
;
_chemical_formula_sum "Si O2"
_cell_formula_units_Z 16
_cell_length_a 14.656292
_cell_length_b 8.581327
_cell_length_c 9.038040
_cell_angle_alpha 69.480113
_cell_angle_beta 105.684120
_cell_angle_gamma 53.447599
_cell_volume 659.381592
_symmetry_space_group_name_H-M "P -1"
_symmetry_group_IT_number 2
_symmetry_cell_setting 'triclinic'
loop_
_space_group_symop_operation_xyz
x,y,z
-x,-y,-z
loop_
_atom_site_type_symbol
_atom_site_label
_atom_site_fract_x
_atom_site_fract_y
_atom_site_fract_z
Si Si1 0.784555 0.160866 0.374115
Si Si2 0.103940 0.643206 0.672961
Si Si3 0.823797 0.127303 0.731171
Si Si4 0.585619 0.214139 0.596408
Si Si5 0.649962 0.795201 0.882923
Si Si6 0.892484 0.534029 0.545538
Si Si7 0.405467 0.869162 0.722570
Si Si8 0.863791 0.380154 0.866383
O O1 0.843270 0.244919 0.290883
O O2 0.749973 0.253406 0.496785
O O3 0.653523 0.233628 0.220012
O O4 0.931976 0.849375 0.562352
O O5 0.117040 0.615341 0.512018
O O6 0.221854 0.360046 0.887821
O O7 0.751687 0.047151 0.767371
O O8 0.795171 0.314895 0.770675
O O9 0.000088 0.869580 0.893904
O O10 0.500000 0.500000 0.500000
O O11 0.574129 0.179474 0.429928
O O12 0.555218 0.088461 0.718154
O O13 0.545864 0.777133 0.877030
O O14 0.740413 0.633235 0.826562
O O15 0.933132 0.413319 0.765386
O O16 0.000000 0.500000 0.500000
O O17 0.733988 0.828845 0.399972
#
# Coordination Sequence:
#
# PCOD9017877 Si02
#       8
#     2   2   2   2   2   2   2   2
#     4  10  21  43  67 104 142 184 226 280 357 410
#     4  11  24  43  70 100 144 186 228 288 346 420
#     4  10  22  39  69 104 138 182 231 297 341 413
#     4  11  25  43  69 103 140 182 236 295 360 406
#     4  12  26  44  73 106 140 182 242 294 351 418
#     4  12  25  43  69 101 143 187 229 284 355 419
#     4  11  25  43  72 101 138 187 232 289 355 423
#     4  11  23  43  71 107 138 179 243 292 347 419
#
# _framework density 24.265158
#
# number of rings (size 3 to 8) (size 9 to 14) (size 15 to 20)
#    0.000    1.000    5.000    1.125    3.500    1.500 
#    0.000    1.250    0.000    0.000    0.000    0.000 
#    0.000    0.000    0.000    0.000    0.000    0.000 
#
# Total GULP energy -89325.668736 kJ/mol
# GULP energy per Si atom -5582.854296 kJ/mol
# Density = 2.420993 g / cm^3
# Si number density = 24.265158 Si / 1000 Ang^3
#
#
#
# Elastic Constant Matrix: (Units=GPa)
#
#
# Indices 1 2 3 4 5 6 
#
# 1 117.1272 -5.5010 5.8799 -6.0443 9.8055 -1.4298
# 2 -5.5010 90.9426 12.6351 -9.5165 5.7866 -12.8157
# 3 5.8799 12.6351 45.0515 -10.7768 12.0406 -14.2280
# 4 -6.0443 -9.5165 -10.7768 26.3998 -2.5885 -4.5457
# 5 9.8055 5.7866 12.0406 -2.5885 33.3786 1.6722
# 6 -1.4298 -12.8157 -14.2280 -4.5457 1.6722 30.0042
#
#
#
# Elastic Compliance Matrix: (Units=1/GPa)
#
#
# Indices 1 2 3 4 5 6 
#
# 1 0.008971 0.001185 0.000447 0.002676 -0.002880 0.001712
# 2 0.001185 0.012749 0.000573 0.006018 -0.002641 0.006833
# 3 0.000447 0.000573 0.036158 0.017374 -0.012967 0.020767
# 4 0.002676 0.006018 0.017374 0.050501 -0.005126 0.018873
# 5 -0.002880 -0.002641 -0.012967 -0.005126 0.036054 -0.010200
# 6 0.001712 0.006833 0.020767 0.018873 -0.010200 0.049604
#
#
# Mechanical properties :
#
#
# Convention : Reuss Voigt Hill
#
# Bulk Modulus (GPa) = 16.05439 31.01661 23.53550
# Shear Modulus (GPa) = 23.76560 33.96367 28.86464
#
# Velocity S-wave (km/s) = 3.13295 3.74530 3.45273
# Velocity P-wave (km/s) = 4.44047 5.61366 5.06117
#
# Compressibility (1/GPa) = 0.06228826
#
# Stress axis : x y z
#
# Youngs Moduli (GPa) = 111.46955 78.43966 27.65666
#
# Poissons Ratio (x) = -0.09295 -0.01237
# Poissons Ratio (y) = -0.13209 -0.01585
# Poissons Ratio (z) = -0.04987 -0.04495
#
# Static dielectric constant tensor:
#      x y z
#    x 2.038970 0.039560 -0.016490 
#    y 0.039560 1.941750 -0.009710 
#    z -0.016490 -0.009710 1.904000 
# 
# From -- ./inp_files/297915.got.cif
#   From: 2010.05.17/outbox.cif.g08.bks.cpg/sg2_149_cif.got.tgz:297915.got - 2010.06.03 11:33:40.
