data_PCOD9017821
_publ_section_title
;
Structure prediction by ZEFSAII (Michael W. Deem and Ramdas Pophale) SiO2 
 PCOD9017821
Probable space group: P -1
;
_chemical_formula_sum "Si O2"
_cell_formula_units_Z 16
_cell_length_a 7.038331
_cell_length_b 14.272592
_cell_length_c 8.633719
_cell_angle_alpha 67.098110
_cell_angle_beta 71.777717
_cell_angle_gamma 63.101855
_cell_volume 702.573998
_symmetry_space_group_name_H-M "P -1"
_symmetry_group_IT_number 2
_symmetry_cell_setting 'triclinic'
loop_
_space_group_symop_operation_xyz
x,y,z
-x,-y,-z
loop_
_atom_site_type_symbol
_atom_site_label
_atom_site_fract_x
_atom_site_fract_y
_atom_site_fract_z
Si Si1 0.024912 0.339398 0.195329
Si Si2 0.608791 0.604431 0.761982
Si Si3 0.410185 0.125065 0.610001
Si Si4 0.621985 0.381250 0.474229
Si Si5 0.554522 0.109440 0.913491
Si Si6 0.797994 0.356210 0.946482
Si Si7 0.626435 0.865752 0.728914
Si Si8 0.088940 0.811188 0.246620
O O1 0.203421 0.373415 0.210156
O O2 0.120013 0.207205 0.275126
O O3 0.803157 0.392709 0.307252
O O4 0.979328 0.365065 0.010719
O O5 0.544761 0.646167 0.577098
O O6 0.691830 0.471823 0.811959
O O7 0.395785 0.648895 0.894268
O O8 0.449426 0.167671 0.741374
O O9 0.450092 0.160530 0.403253
O O10 0.157458 0.141594 0.665397
O O11 0.562205 0.995784 0.659833
O O12 0.500000 0.500000 0.500000
O O13 0.754810 0.285544 0.619817
O O14 0.802269 0.098653 0.849835
O O15 0.469600 0.162900 0.068998
O O16 0.500000 0.000000 0.000000
O O17 0.894143 0.251730 0.879617
#
# Coordination Sequence:
#
# PCOD9017821 Si02
#       8
#     2   2   2   2   2   2   2   2
#     4  11  22  41  67  94 131 180 222 274 340 396
#     4  10  22  41  63  95 134 178 223 277 329 399
#     4  10  23  44  67  96 135 173 228 281 335 416
#     4  11  24  42  61  95 140 174 228 273 330 408
#     4  10  24  44  68 101 135 176 229 284 339 407
#     4  10  22  40  64  97 134 173 227 273 333 408
#     4  10  21  43  66  96 133 170 226 278 332 406
#     4  12  23  43  69  98 135 183 219 280 345 398
#
# _framework density 22.773405
#
# number of rings (size 3 to 8) (size 9 to 14) (size 15 to 20)
#    0.000    1.500    2.500    1.875    1.750    2.500 
#    4.500   10.625    0.000    0.000    0.000    0.000 
#    0.000    0.000    0.000    0.000    0.000    0.000 
#
# Total GULP energy -89271.426396 kJ/mol
# GULP energy per Si atom -5579.464150 kJ/mol
# Density = 2.272157 g / cm^3
# Si number density = 22.773405 Si / 1000 Ang^3
#
#
#
# Elastic Constant Matrix: (Units=GPa)
#
#
# Indices 1 2 3 4 5 6 
#
# 1 116.3121 24.0746 38.7292 17.2297 15.5343 7.9814
# 2 24.0746 90.6265 20.0816 10.8053 -2.4645 -14.9759
# 3 38.7292 20.0816 137.7060 13.2883 33.8208 3.9223
# 4 17.2297 10.8053 13.2883 30.7021 -1.3645 7.0013
# 5 15.5343 -2.4645 33.8208 -1.3645 36.6831 0.4449
# 6 7.9814 -14.9759 3.9223 7.0013 0.4449 39.5606
#
#
#
# Elastic Compliance Matrix: (Units=1/GPa)
#
#
# Indices 1 2 3 4 5 6 
#
# 1 0.010837 -0.002551 -0.001289 -0.004283 -0.003704 -0.002224
# 2 -0.002551 0.013808 -0.001997 -0.003905 0.003624 0.006590
# 3 -0.001289 -0.001997 0.010592 -0.003387 -0.009470 -0.000840
# 4 -0.004283 -0.003905 -0.003387 0.039778 0.006244 -0.007388
# 5 -0.003704 0.003624 -0.009470 0.006244 0.038017 0.001525
# 6 -0.002224 0.006590 -0.000840 -0.007388 0.001525 0.029595
#
#
# Mechanical properties :
#
#
# Convention : Reuss Voigt Hill
#
# Bulk Modulus (GPa) = 42.44082 56.71281 49.57681
# Shear Modulus (GPa) = 30.83482 38.83977 34.83729
#
# Velocity S-wave (km/s) = 3.68364 4.13424 3.91543
# Velocity P-wave (km/s) = 6.06374 6.90987 6.50059
#
# Compressibility (1/GPa) = 0.02356222
#
# Stress axis : x y z
#
# Youngs Moduli (GPa) = 92.27963 72.42417 94.40800
#
# Poissons Ratio (x) = 0.18473 0.12174
# Poissons Ratio (y) = 0.23537 0.18854
# Poissons Ratio (z) = 0.11899 0.14463
#
# Static dielectric constant tensor:
#      x y z
#    x 1.838250 0.041940 0.034720 
#    y 0.041940 1.878940 -0.018650 
#    z 0.034720 -0.018650 1.901270 
# 
# From -- ./inp_files/135116.got.cif
#   From: 2010.05.17/outbox.cif.g08.bks.cpg/sg2_68_cif.got.tgz:135116.got - 2010.06.03 11:33:40.
