data_PCOD9017142
_publ_section_title
;
Structure prediction by ZEFSAII (Michael W. Deem and Ramdas Pophale) SiO2 
 PCOD9017142
Probable space group: P -1
;
_chemical_formula_sum "Si O2"
_cell_formula_units_Z 16
_cell_length_a 12.408488
_cell_length_b 7.423673
_cell_length_c 11.395778
_cell_angle_alpha 102.328645
_cell_angle_beta 104.467762
_cell_angle_gamma 130.212602
_cell_volume 669.103856
_symmetry_space_group_name_H-M "P -1"
_symmetry_group_IT_number 2
_symmetry_cell_setting 'triclinic'
loop_
_space_group_symop_operation_xyz
x,y,z
-x,-y,-z
loop_
_atom_site_type_symbol
_atom_site_label
_atom_site_fract_x
_atom_site_fract_y
_atom_site_fract_z
Si Si1 0.537537 0.272128 0.938496
Si Si2 0.177050 0.154339 0.514364
Si Si3 0.126282 0.490081 0.889353
Si Si4 0.962502 0.409050 0.612498
Si Si5 0.213570 0.922167 0.151419
Si Si6 0.507498 0.420749 0.177173
Si Si7 0.541722 0.066683 0.688895
Si Si8 0.744033 0.468119 0.611155
O O1 0.477805 0.380076 0.869758
O O2 0.490976 0.056493 0.804963
O O3 0.734303 0.486397 0.037894
O O4 0.480213 0.220432 0.049049
O O5 0.330030 0.396325 0.673616
O O6 0.208953 0.296056 0.418968
O O7 0.165825 0.919192 0.468192
O O8 0.000000 0.000000 0.500000
O O9 0.109852 0.516208 0.750943
O O10 0.948692 0.205660 0.847174
O O11 0.159394 0.716190 0.004220
O O12 0.899675 0.521531 0.670117
O O13 0.000000 0.500000 0.500000
O O14 0.326001 0.935730 0.269435
O O15 0.340911 0.224815 0.178931
O O16 0.641379 0.350248 0.687942
O O17 0.382641 0.805213 0.541217
#
# Coordination Sequence:
#
# PCOD9017142 Si02
#       8
#     2   2   2   2   2   2   2   2
#     4  10  24  43  68  98 138 181 232 293 346 414
#     4  12  25  44  69 105 141 185 235 292 356 422
#     4  10  23  43  66 102 133 182 234 281 351 420
#     4  12  25  42  69 102 140 182 231 289 351 420
#     4  10  21  42  71  94 140 178 232 287 345 417
#     4  11  24  45  67 103 137 180 238 295 347 418
#     4  10  21  43  68  99 135 185 227 285 362 411
#     4  11  23  43  69 101 142 182 230 290 350 429
#
# _framework density 23.912579000000001
#
# number of rings (size 3 to 8) (size 9 to 14) (size 15 to 20)
#    0.000    1.250    3.750    1.500    0.000    6.500 
#    2.250    2.500    0.000    0.000    0.000    0.000 
#    0.000    0.000    0.000    0.000    0.000    0.000 
#
# Total GULP energy -89448.140733 kJ/mol
# GULP energy per Si atom -5590.508796 kJ/mol
# Density = 2.385815 g / cm^3
# Si number density = 23.912579 Si / 1000 Ang^3
#
#
#
# Elastic Constant Matrix: (Units=GPa)
#
#
# Indices 1 2 3 4 5 6 
#
# 1 57.3706 18.0124 20.0003 1.4024 -3.5136 0.1576
# 2 18.0124 117.3424 -1.3565 -13.6948 -6.1192 -5.9839
# 3 20.0003 -1.3565 82.8582 -4.0603 9.6377 -1.0355
# 4 1.4024 -13.6948 -4.0603 30.8152 4.6078 13.9431
# 5 -3.5136 -6.1192 9.6377 4.6078 27.3745 4.9950
# 6 0.1576 -5.9839 -1.0355 13.9431 4.9950 27.9878
#
#
#
# Elastic Compliance Matrix: (Units=1/GPa)
#
#
# Indices 1 2 3 4 5 6 
#
# 1 0.020951 -0.003507 -0.005848 -0.004015 0.004623 0.000091
# 2 -0.003507 0.009630 0.001162 0.004639 0.000566 -0.000290
# 3 -0.005848 0.001162 0.014394 0.003532 -0.006182 0.000157
# 4 -0.004015 0.004639 0.003532 0.045131 -0.004574 -0.020522
# 5 0.004623 0.000566 -0.006182 -0.004574 0.041145 -0.005198
# 6 0.000091 -0.000290 0.000157 -0.020522 -0.005198 0.046825
#
#
# Mechanical properties :
#
#
# Convention : Reuss Voigt Hill
#
# Bulk Modulus (GPa) = 34.97781 36.76483 35.87132
# Shear Modulus (GPa) = 24.51098 31.96317 28.23708
#
# Velocity S-wave (km/s) = 3.20507 3.66001 3.44007
# Velocity P-wave (km/s) = 5.32502 5.76793 5.55089
#
# Compressibility (1/GPa) = 0.02858955
#
# Stress axis : x y z
#
# Youngs Moduli (GPa) = 47.72995 103.84348 69.47580
#
# Poissons Ratio (x) = 0.36413 0.40629
# Poissons Ratio (y) = 0.16737 -0.08073
# Poissons Ratio (z) = 0.27912 -0.12066
#
# Static dielectric constant tensor:
#      x y z
#    x 1.961740 0.028110 -0.039370 
#    y 0.028110 1.944290 -0.015250 
#    z -0.039370 -0.015250 1.902840 
# 
# From -- ./inp_files/447537.got.cif
#   From: 2010.05.17/outbox.cif.g08.bks.cpg/sg2_224_cif.got.tgz:447537.got - 2010.06.03 11:33:40.
