data_PCOD9017251
_publ_section_title
;
Structure prediction by ZEFSAII (Michael W. Deem and Ramdas Pophale) SiO2 
 PCOD9017251
Probable space group: P -1
;
_chemical_formula_sum "Si O2"
_cell_formula_units_Z 16
_cell_length_a 9.511841
_cell_length_b 11.926027
_cell_length_c 7.648953
_cell_angle_alpha 108.720822
_cell_angle_beta 58.080558
_cell_angle_gamma 108.027754
_cell_volume 686.894801
_symmetry_space_group_name_H-M "P -1"
_symmetry_group_IT_number 2
_symmetry_cell_setting 'triclinic'
loop_
_space_group_symop_operation_xyz
x,y,z
-x,-y,-z
loop_
_atom_site_type_symbol
_atom_site_label
_atom_site_fract_x
_atom_site_fract_y
_atom_site_fract_z
Si Si1 0.388801 0.100538 0.566345
Si Si2 0.016220 0.067573 0.841304
Si Si3 0.764137 0.489897 0.332190
Si Si4 0.426633 0.751625 0.181356
Si Si5 0.311611 0.922729 0.109988
Si Si6 0.536365 0.263136 0.238538
Si Si7 0.316220 0.490788 0.206509
Si Si8 0.080274 0.351769 0.008514
O O1 0.195292 0.045511 0.646347
O O2 0.438657 0.199248 0.736574
O O3 0.425754 0.178259 0.404805
O O4 0.500000 0.000000 0.500000
O O5 0.852308 0.025336 0.806991
O O6 0.040389 0.210095 0.934611
O O7 0.000000 0.000000 0.000000
O O8 0.699356 0.368285 0.741842
O O9 0.601922 0.395062 0.330288
O O10 0.725287 0.531758 0.573037
O O11 0.917274 0.414290 0.181471
O O12 0.320104 0.855649 0.254127
O O13 0.517426 0.732914 0.926771
O O14 0.310118 0.811120 0.921601
O O15 0.500000 0.000000 0.000000
O O16 0.181184 0.407567 0.796453
O O17 0.195503 0.397022 0.121201
O O18 0.500000 0.500000 0.000000
#
# Coordination Sequence:
#
# PCOD9017251 Si02
#       8
#     2   2   2   2   2   2   2   2
#     4  12  25  43  73 105 146 204 245 305 381 446
#     4  12  26  45  75 107 145 192 253 311 367 454
#     4  11  23  45  76 103 145 191 245 303 384 437
#     4  10  22  42  71  99 144 189 246 301 376 432
#     4  10  21  44  73  96 141 190 240 305 372 426
#     4  10  21  42  72  97 137 191 242 296 376 432
#     4  12  25  41  70 109 145 189 243 308 372 457
#     4  11  24  46  71 106 145 193 247 307 369 446
#
# _framework density 23.293234000000002
#
# number of rings (size 3 to 8) (size 9 to 14) (size 15 to 20)
#    0.750    0.250    3.750    3.375    1.750    1.500 
#    0.000    2.500    2.750    0.000    0.000    0.000 
#    0.000    0.000    0.000    0.000    0.000    0.000 
#
# Total GULP energy -89279.690128 kJ/mol
# GULP energy per Si atom -5579.980633 kJ/mol
# Density = 2.324022 g / cm^3
# Si number density = 23.293234 Si / 1000 Ang^3
#
#
#
# Elastic Constant Matrix: (Units=GPa)
#
#
# Indices 1 2 3 4 5 6 
#
# 1 136.7910 37.4599 56.3053 -8.2042 1.2524 12.8155
# 2 37.4599 120.8651 51.6149 -6.4485 6.9419 0.1814
# 3 56.3053 51.6149 155.9795 -15.8378 29.6184 -0.3525
# 4 -8.2042 -6.4485 -15.8378 40.2785 -6.1970 6.7564
# 5 1.2524 6.9419 29.6184 -6.1970 46.1697 2.4905
# 6 12.8155 0.1814 -0.3525 6.7564 2.4905 30.3732
#
#
#
# Elastic Compliance Matrix: (Units=1/GPa)
#
#
# Indices 1 2 3 4 5 6 
#
# 1 0.009607 -0.001641 -0.003257 0.001583 0.002538 -0.004642
# 2 -0.001641 0.009941 -0.002738 0.000134 0.000295 0.000547
# 3 -0.003257 -0.002738 0.009723 0.001588 -0.005611 0.001610
# 4 0.001583 0.000134 0.001588 0.027427 0.002977 -0.006995
# 5 0.002538 0.000295 -0.005611 0.002977 0.025756 -0.003912
# 6 -0.004642 0.000547 0.001610 -0.006995 -0.003912 0.036775
#
#
# Mechanical properties :
#
#
# Convention : Reuss Voigt Hill
#
# Bulk Modulus (GPa) = 71.43326 78.26618 74.84972
# Shear Modulus (GPa) = 35.92804 41.24797 38.58801
#
# Velocity S-wave (km/s) = 3.93163 4.21267 4.07457
# Velocity P-wave (km/s) = 7.16546 7.57202 7.37154
#
# Compressibility (1/GPa) = 0.01399908
#
# Stress axis : x y z
#
# Youngs Moduli (GPa) = 104.09266 100.59239 102.84737
#
# Poissons Ratio (x) = 0.16509 0.33493
# Poissons Ratio (y) = 0.17083 0.28163
# Poissons Ratio (z) = 0.33898 0.27546
#
# Static dielectric constant tensor:
#      x y z
#    x 1.917990 -0.040420 -0.045160 
#    y -0.040420 1.942050 0.019150 
#    z -0.045160 0.019150 2.029470 
# 
# From -- ./inp_files/202955.got.cif
#   From: 2010.05.17/outbox.cif.g08.bks.cpg/sg2_102_cif.got.tgz:202955.got - 2010.06.03 11:33:40.
