data_PCOD9017163
_publ_section_title
;
Structure prediction by ZEFSAII (Michael W. Deem and Ramdas Pophale) SiO2 
 PCOD9017163
Probable space group: P -1
;
_chemical_formula_sum "Si O2"
_cell_formula_units_Z 12
_cell_length_a 9.194155
_cell_length_b 12.487727
_cell_length_c 11.974432
_cell_angle_alpha 123.707253
_cell_angle_beta 131.260399
_cell_angle_gamma 97.463972
_cell_volume 523.802099
_symmetry_space_group_name_H-M "P -1"
_symmetry_group_IT_number 2
_symmetry_cell_setting 'triclinic'
loop_
_space_group_symop_operation_xyz
x,y,z
-x,-y,-z
loop_
_atom_site_type_symbol
_atom_site_label
_atom_site_fract_x
_atom_site_fract_y
_atom_site_fract_z
Si Si1 0.248710 0.146104 0.058034
Si Si2 0.264582 0.537042 0.116079
Si Si3 0.930463 0.491545 0.586262
Si Si4 0.848244 0.624578 0.251362
Si Si5 0.270523 0.322793 0.383086
Si Si6 0.063972 0.071047 0.443548
O O1 0.583959 0.253250 0.301850
O O2 0.290978 0.290805 0.245045
O O3 0.977432 0.912125 0.830552
O O4 0.168517 0.122874 0.873694
O O5 0.426984 0.549723 0.310073
O O6 0.578736 0.754229 0.329854
O O7 0.069240 0.343725 0.818715
O O8 0.000000 0.500000 0.000000
O O9 0.892579 0.623832 0.658502
O O10 0.000000 0.500000 0.500000
O O11 0.158963 0.523698 0.792171
O O12 0.018128 0.818106 0.528942
O O13 0.500000 0.500000 0.000000
O O14 0.000000 0.000000 0.500000
#
# Coordination Sequence:
#
# PCOD9017163 Si02
#       6
#     2   2   2   2   2   2
#     4  10  23  43  67  98 135 172 232 277 333 413
#     4  10  21  42  71  98 133 177 229 279 339 413
#     4  12  24  39  70 103 130 181 228 279 341 403
#     4  10  23  43  64  96 135 176 226 277 340 414
#     4  10  23  45  70  96 136 180 223 285 341 394
#     4  10  23  42  68  98 138 183 218 288 349 398
#
# _framework density 22.909414000000002
#
# number of rings (size 3 to 8) (size 9 to 14) (size 15 to 20)
#    0.000    1.667    0.000    4.500    7.000    2.667 
#    0.000    0.833    0.000    0.000    0.000    0.000 
#    0.000    0.000    0.000    0.000    0.000    0.000 
#
# Total GULP energy -66840.931838 kJ/mol
# GULP energy per Si atom -5570.077653 kJ/mol
# Density = 2.285727 g / cm^3
# Si number density = 22.909414 Si / 1000 Ang^3
#
#
#
# Elastic Constant Matrix: (Units=GPa)
#
#
# Indices 1 2 3 4 5 6 
#
# 1 206.9316 66.2428 64.5588 -23.5989 -20.2694 -20.5052
# 2 66.2428 117.7618 43.0960 -48.5031 -6.5462 -8.4715
# 3 64.5588 43.0960 91.2789 -31.9909 -21.7520 -13.6270
# 4 -23.5989 -48.5031 -31.9909 32.5147 1.7891 1.1013
# 5 -20.2694 -6.5462 -21.7520 1.7891 49.0926 0.3494
# 6 -20.5052 -8.4715 -13.6270 1.1013 0.3494 49.2922
#
#
#
# Elastic Compliance Matrix: (Units=1/GPa)
#
#
# Indices 1 2 3 4 5 6 
#
# 1 0.007431 -0.005463 -0.005282 -0.007998 0.000285 0.000869
# 2 -0.005463 0.027344 0.007694 0.044101 0.003167 0.003546
# 3 -0.005282 0.007694 0.024991 0.031573 0.008730 0.005267
# 4 -0.007998 0.044101 0.031573 0.120791 0.012093 0.010196
# 5 0.000285 0.003167 0.008730 0.012093 0.024318 0.002634
# 6 0.000869 0.003546 0.005267 0.010196 0.002634 0.022468
#
#
# Mechanical properties :
#
#
# Convention : Reuss Voigt Hill
#
# Bulk Modulus (GPa) = 18.63439 84.86303 51.74871
# Shear Modulus (GPa) = 19.89400 42.31821 31.10610
#
# Velocity S-wave (km/s) = 2.95002 4.30257 3.68881
# Velocity P-wave (km/s) = 4.44467 7.86168 6.38597
#
# Compressibility (1/GPa) = 0.05366422
#
# Stress axis : x y z
#
# Youngs Moduli (GPa) = 134.57053 36.57102 40.01468
#
# Poissons Ratio (x) = 0.19978 0.21136
# Poissons Ratio (y) = 0.73512 -0.30787
# Poissons Ratio (z) = 0.71080 -0.28137
#
# Static dielectric constant tensor:
#      x y z
#    x 1.918740 -0.013770 -0.028120 
#    y -0.013770 2.042800 0.012010 
#    z -0.028120 0.012010 1.932010 
# 
# From -- ./inp_files/183812.got.cif
#   From: 2010.05.17/outbox.cif.g08.bks.cpg/sg2_92_cif.got.tgz:183812.got - 2010.06.03 11:33:40.
