data_PCOD9017923
_publ_section_title
;
Structure prediction by ZEFSAII (Michael W. Deem and Ramdas Pophale) SiO2 
 PCOD9017923
Probable space group: P -1
;
_chemical_formula_sum "Si O2"
_cell_formula_units_Z 16
_cell_length_a 8.672171
_cell_length_b 14.496841
_cell_length_c 9.011296
_cell_angle_alpha 80.701709
_cell_angle_beta 45.131779
_cell_angle_gamma 77.330854
_cell_volume 783.328686
_symmetry_space_group_name_H-M "P -1"
_symmetry_group_IT_number 2
_symmetry_cell_setting 'triclinic'
loop_
_space_group_symop_operation_xyz
x,y,z
-x,-y,-z
loop_
_atom_site_type_symbol
_atom_site_label
_atom_site_fract_x
_atom_site_fract_y
_atom_site_fract_z
Si Si1 0.283310 0.231248 0.671235
Si Si2 0.078823 0.079438 0.324915
Si Si3 0.928866 0.612429 0.695259
Si Si4 0.564112 0.288573 0.957132
Si Si5 0.208960 0.038214 0.919818
Si Si6 0.440764 0.136801 0.280000
Si Si7 0.949735 0.395372 0.731941
Si Si8 0.278803 0.744470 0.473977
O O1 0.223864 0.144843 0.832591
O O2 0.338116 0.186654 0.483684
O O3 0.090049 0.318553 0.761296
O O4 0.499966 0.267068 0.578806
O O5 0.250593 0.126223 0.294227
O O6 0.872555 0.158074 0.405503
O O7 0.188315 0.036743 0.111492
O O8 0.000000 0.000000 0.500000
O O9 0.947942 0.615702 0.501476
O O10 0.949360 0.502755 0.752580
O O11 0.126434 0.662713 0.611373
O O12 0.692199 0.667852 0.887495
O O13 0.652968 0.251582 0.746280
O O14 0.706160 0.368559 0.889718
O O15 0.592826 0.203652 0.078275
O O16 0.424248 0.965329 0.749137
O O17 0.000000 0.000000 0.000000
#
# Coordination Sequence:
#
# PCOD9017923 Si02
#       8
#     2   2   2   2   2   2   2   2
#     4  12  24  42  61  97 135 170 208 269 331 382
#     4  12  23  42  65  93 127 173 221 262 309 383
#     4  10  21  43  67  94 127 169 222 267 315 379
#     4  11  20  42  67  95 123 170 219 266 316 378
#     4  12  25  40  63  96 135 168 212 268 329 381
#     4  12  22  41  65  92 125 172 220 258 315 388
#     4  10  22  40  68  97 125 170 219 267 316 387
#     4  11  24  40  64  94 136 164 211 271 325 381
#
# _framework density 20.425651999999999
#
# number of rings (size 3 to 8) (size 9 to 14) (size 15 to 20)
#    0.000    0.750    2.500    6.375    0.000    0.500 
#    0.000    0.625    0.000    0.000    0.000    0.000 
#    0.000    0.000    0.000    0.000    0.000    0.000 
#
# Total GULP energy -89549.781528 kJ/mol
# GULP energy per Si atom -5596.861345 kJ/mol
# Density = 2.037916 g / cm^3
# Si number density = 20.425652 Si / 1000 Ang^3
#
#
#
# Elastic Constant Matrix: (Units=GPa)
#
#
# Indices 1 2 3 4 5 6 
#
# 1 83.1632 9.5871 4.3183 -8.7192 -16.3516 0.3904
# 2 9.5871 114.9570 15.3716 -18.6792 -9.7412 -8.7600
# 3 4.3183 15.3716 54.0489 -16.1262 -9.3000 2.3436
# 4 -8.7192 -18.6792 -16.1262 30.9033 -1.0009 -4.1879
# 5 -16.3516 -9.7412 -9.3000 -1.0009 33.7463 1.9767
# 6 0.3904 -8.7600 2.3436 -4.1879 1.9767 29.9229
#
#
#
# Elastic Compliance Matrix: (Units=1/GPa)
#
#
# Indices 1 2 3 4 5 6 
#
# 1 0.013910 0.000058 0.001649 0.005049 0.007365 -0.000073
# 2 0.000058 0.010377 -0.000688 0.006538 0.002804 0.003821
# 3 0.001649 -0.000688 0.023631 0.012513 0.007532 -0.000820
# 4 0.005049 0.006538 0.012513 0.045450 0.008741 0.006652
# 5 0.007365 0.002804 0.007532 0.008741 0.036408 -0.001047
# 6 -0.000073 0.003821 -0.000820 0.006652 -0.001047 0.035603
#
#
# Mechanical properties :
#
#
# Convention : Reuss Voigt Hill
#
# Bulk Modulus (GPa) = 20.01748 34.52479 27.27114
# Shear Modulus (GPa) = 27.77888 33.77395 30.77642
#
# Velocity S-wave (km/s) = 3.69182 4.07074 3.88590
# Velocity P-wave (km/s) = 5.29095 6.24772 5.78913
#
# Compressibility (1/GPa) = 0.04995633
#
# Stress axis : x y z
#
# Youngs Moduli (GPa) = 71.89019 96.36435 42.31763
#
# Poissons Ratio (x) = -0.00563 -0.06978
# Poissons Ratio (y) = -0.00420 0.02913
# Poissons Ratio (z) = -0.11855 0.06633
#
# Static dielectric constant tensor:
#      x y z
#    x 1.716360 0.009300 -0.016050 
#    y 0.009300 1.715780 -0.023640 
#    z -0.016050 -0.023640 1.716030 
# 
# From -- ./inp_files/37857.got.cif
#   From: 2010.05.17/outbox.cif.g08.bks.cpg/sg2_19_cif.got.tgz:37857.got - 2010.06.03 11:33:40.
