data_PCOD9017685
_publ_section_title
;
Structure prediction by ZEFSAII (Michael W. Deem and Ramdas Pophale) SiO2 
 PCOD9017685
Probable space group: P -1
;
_chemical_formula_sum "Si O2"
_cell_formula_units_Z 16
_cell_length_a 9.418580
_cell_length_b 18.949413
_cell_length_c 12.988404
_cell_angle_alpha 151.423813
_cell_angle_beta 136.902179
_cell_angle_gamma 57.137422
_cell_volume 722.287423
_symmetry_space_group_name_H-M "P -1"
_symmetry_group_IT_number 2
_symmetry_cell_setting 'triclinic'
loop_
_space_group_symop_operation_xyz
x,y,z
-x,-y,-z
loop_
_atom_site_type_symbol
_atom_site_label
_atom_site_fract_x
_atom_site_fract_y
_atom_site_fract_z
Si Si1 0.742483 0.576229 0.481025
Si Si2 0.149729 0.607452 0.879082
Si Si3 0.839973 0.832478 0.705220
Si Si4 0.506923 0.356236 0.389048
Si Si5 0.769605 0.864636 0.193871
Si Si6 0.008733 0.658127 0.396631
Si Si7 0.999204 0.324439 0.805611
Si Si8 0.362382 0.860532 0.464910
O O1 0.712416 0.451412 0.211720
O O2 0.851391 0.740979 0.697608
O O3 0.535918 0.595760 0.456918
O O4 0.912781 0.558829 0.636214
O O5 0.119637 0.515172 0.853966
O O6 0.243262 0.781445 0.194702
O O7 0.593549 0.829895 0.552366
O O8 0.933642 0.747451 0.559792
O O9 0.000000 0.000000 0.000000
O O10 0.500000 0.500000 0.500000
O O11 0.738591 0.330256 0.461514
O O12 0.323537 0.202926 0.053167
O O13 0.813757 0.716404 0.081456
O O14 0.614304 0.956565 0.278907
O O15 0.000000 0.000000 0.500000
O O16 0.963804 0.729329 0.357458
O O17 0.780335 0.224887 0.620826
O O18 0.000000 0.500000 0.000000
#
# Coordination Sequence:
#
# PCOD9017685 Si02
#       8
#     2   2   2   2   2   2   2   2
#     4  10  22  41  69  96 134 180 227 290 344 413
#     4  10  21  43  65  98 136 176 225 283 353 412
#     4  11  26  45  63  92 140 185 233 282 344 417
#     4  12  22  41  72 102 133 178 234 284 348 417
#     4  10  24  41  67 101 140 177 222 285 348 409
#     4  11  23  40  64 102 132 173 231 289 328 415
#     4  11  21  42  71 105 137 170 230 285 346 405
#     4  11  23  46  69  97 143 186 223 288 355 415
#
# _framework density 22.151845999999999
#
# number of rings (size 3 to 8) (size 9 to 14) (size 15 to 20)
#    0.000    1.250    2.500    3.750    0.000    5.000 
#    4.500    5.625    0.000    0.000    0.000    0.000 
#    0.000    0.000    0.000    0.000    0.000    0.000 
#
# Total GULP energy -89186.611948 kJ/mol
# GULP energy per Si atom -5574.163247 kJ/mol
# Density = 2.210143 g / cm^3
# Si number density = 22.151846 Si / 1000 Ang^3
#
#
#
# Elastic Constant Matrix: (Units=GPa)
#
#
# Indices 1 2 3 4 5 6 
#
# 1 150.8356 33.8854 22.4697 2.8981 -15.6372 -0.5214
# 2 33.8854 69.7636 2.8963 8.7278 -10.2369 -2.4846
# 3 22.4697 2.8963 73.7848 9.2277 -0.9802 3.3349
# 4 2.8981 8.7278 9.2277 31.9328 -0.1078 -8.4330
# 5 -15.6372 -10.2369 -0.9802 -0.1078 11.6297 3.8848
# 6 -0.5214 -2.4846 3.3349 -8.4330 3.8848 36.7724
#
#
#
# Elastic Compliance Matrix: (Units=1/GPa)
#
#
# Indices 1 2 3 4 5 6 
#
# 1 0.008546 -0.002816 -0.002409 0.000541 0.009042 -0.000682
# 2 -0.002816 0.018141 0.001051 -0.005355 0.012716 -0.001481
# 3 -0.002409 0.001051 0.014983 -0.005046 -0.000279 -0.002450
# 4 0.000541 -0.005355 -0.005046 0.036609 -0.007164 0.009256
# 5 0.009042 0.012716 -0.000279 -0.007164 0.113462 -0.012617
# 6 -0.000682 -0.001481 -0.002450 0.009256 -0.012617 0.030762
#
#
# Mechanical properties :
#
#
# Convention : Reuss Voigt Hill
#
# Bulk Modulus (GPa) = 30.00916 45.87634 37.94275
# Shear Modulus (GPa) = 20.66470 31.74249 26.20359
#
# Velocity S-wave (km/s) = 3.05760 3.78954 3.44307
# Velocity P-wave (km/s) = 5.10310 6.31683 5.74213
#
# Compressibility (1/GPa) = 0.03332315
#
# Stress axis : x y z
#
# Youngs Moduli (GPa) = 117.01704 55.12277 66.74109
#
# Poissons Ratio (x) = 0.15523 0.16075
# Poissons Ratio (y) = 0.32952 -0.07014
# Poissons Ratio (z) = 0.28184 -0.05793
#
# Static dielectric constant tensor:
#      x y z
#    x 1.785450 -0.065820 -0.050810 
#    y -0.065820 1.763620 -0.113530 
#    z -0.050810 -0.113530 1.831190 
# 
# From -- ./inp_files/403650.got.cif
#   From: 2010.05.17/outbox.cif.g08.bks.cpg/sg2_202_cif.got.tgz:403650.got - 2010.06.03 11:33:40.
