data_PCOD9017136
_publ_section_title
;
Structure prediction by ZEFSAII (Michael W. Deem and Ramdas Pophale) SiO2 
 PCOD9017136
Probable space group: P -1
;
_chemical_formula_sum "Si O2"
_cell_formula_units_Z 14
_cell_length_a 7.724914
_cell_length_b 13.237327
_cell_length_c 7.453031
_cell_angle_alpha 60.757138
_cell_angle_beta 58.898871
_cell_angle_gamma 89.177864
_cell_volume 539.748357
_symmetry_space_group_name_H-M "P -1"
_symmetry_group_IT_number 2
_symmetry_cell_setting 'triclinic'
loop_
_space_group_symop_operation_xyz
x,y,z
-x,-y,-z
loop_
_atom_site_type_symbol
_atom_site_label
_atom_site_fract_x
_atom_site_fract_y
_atom_site_fract_z
Si Si1 0.306627 0.684195 0.876705
Si Si2 0.414081 0.745536 0.176952
Si Si3 0.828679 0.830208 0.081311
Si Si4 0.964250 0.459692 0.345886
Si Si5 0.239774 0.298319 0.418445
Si Si6 0.827896 0.970642 0.461128
Si Si7 0.447037 0.902883 0.331048
O O1 0.507121 0.634374 0.781632
O O2 0.345146 0.792119 0.619798
O O3 0.339062 0.728644 0.027873
O O4 0.079939 0.580437 0.066869
O O5 0.665762 0.770614 0.057154
O O6 0.360809 0.854618 0.220506
O O7 0.281633 0.621791 0.461789
O O8 0.830826 0.728719 0.312927
O O9 0.692630 0.911407 0.172471
O O10 0.057747 0.918704 0.830123
O O11 0.102244 0.367881 0.331055
O O12 0.000000 0.500000 0.500000
O O13 0.204337 0.163636 0.474963
O O14 0.617001 0.987461 0.646998
O O15 0.000000 0.000000 0.500000
#
# Coordination Sequence:
#
# PCOD9017136 Si02
#       7
#     2   2   2   2   2   2   2
#     4  10  21  42  71  92 134 178 218 276 329 383
#     4   9  20  43  61  98 134 168 220 270 323 391
#     4   9  23  43  63  99 137 168 219 274 324 395
#     4  10  22  40  68  96 128 179 219 274 334 378
#     4  11  23  43  64  99 133 171 230 267 327 403
#     4  12  24  41  68  99 132 180 217 269 338 396
#     4   9  23  43  65 102 133 168 224 262 339 389
#
# _framework density 25.938013000000002
#
# number of rings (size 3 to 8) (size 9 to 14) (size 15 to 20)
#    0.857    1.143    0.000    2.571    4.000    3.429 
#    7.714    2.857    0.000    0.000    0.000    0.000 
#    0.000    0.000    0.000    0.000    0.000    0.000 
#
# Total GULP energy -78307.437433 kJ/mol
# GULP energy per Si atom -5593.388388 kJ/mol
# Density = 2.587898 g / cm^3
# Si number density = 25.938013 Si / 1000 Ang^3
#
#
#
# Elastic Constant Matrix: (Units=GPa)
#
#
# Indices 1 2 3 4 5 6 
#
# 1 55.0088 21.3601 17.9302 6.0444 1.0124 8.8423
# 2 21.3601 74.5023 18.7240 17.3227 -0.0307 8.7045
# 3 17.9302 18.7240 122.7446 17.3122 -12.6220 9.5188
# 4 6.0444 17.3227 17.3122 26.5875 3.2377 -9.4870
# 5 1.0124 -0.0307 -12.6220 3.2377 48.1028 1.4277
# 6 8.8423 8.7045 9.5188 -9.4870 1.4277 44.3036
#
#
#
# Elastic Compliance Matrix: (Units=1/GPa)
#
#
# Indices 1 2 3 4 5 6 
#
# 1 0.021429 -0.004958 -0.002025 -0.001342 -0.000802 -0.003129
# 2 -0.004958 0.018509 0.000344 -0.013314 0.001269 -0.005613
# 3 -0.002025 0.000344 0.010167 -0.008112 0.003366 -0.003694
# 4 -0.001342 -0.013314 -0.008112 0.058904 -0.006592 0.017452
# 5 -0.000802 0.001269 0.003366 -0.006592 0.022221 -0.002940
# 6 -0.003129 -0.005613 -0.003694 0.017452 -0.002940 0.028924
#
#
# Mechanical properties :
#
#
# Convention : Reuss Voigt Hill
#
# Bulk Modulus (GPa) = 27.15192 40.92048 34.03620
# Shear Modulus (GPa) = 26.92425 36.74820 31.83622
#
# Velocity S-wave (km/s) = 3.22533 3.76808 3.50722
# Velocity P-wave (km/s) = 4.93569 5.89422 5.43612
#
# Compressibility (1/GPa) = 0.03682980
#
# Stress axis : x y z
#
# Youngs Moduli (GPa) = 46.66535 54.02714 98.35798
#
# Poissons Ratio (x) = 0.26784 0.19913
# Poissons Ratio (y) = 0.23135 -0.03387
# Poissons Ratio (z) = 0.09448 -0.01860
#
# Static dielectric constant tensor:
#      x y z
#    x 2.007430 0.020300 0.008060 
#    y 0.020300 2.065140 0.025970 
#    z 0.008060 0.025970 2.111890 
# 
# From -- ./inp_files/166004.got.cif
#   From: 2010.05.17/outbox.cif.g08.bks.cpg/sg2_84_cif.got.tgz:166004.got - 2010.06.03 11:33:40.
