data_PCOD9017538
_publ_section_title
;
Structure prediction by ZEFSAII (Michael W. Deem and Ramdas Pophale) SiO2 
 PCOD9017538
Probable space group: P -1
;
_chemical_formula_sum "Si O2"
_cell_formula_units_Z 16
_cell_length_a 8.606186
_cell_length_b 12.929357
_cell_length_c 19.231772
_cell_angle_alpha 38.872121
_cell_angle_beta 52.941908
_cell_angle_gamma 83.019045
_cell_volume 771.516187
_symmetry_space_group_name_H-M "P -1"
_symmetry_group_IT_number 2
_symmetry_cell_setting 'triclinic'
loop_
_space_group_symop_operation_xyz
x,y,z
-x,-y,-z
loop_
_atom_site_type_symbol
_atom_site_label
_atom_site_fract_x
_atom_site_fract_y
_atom_site_fract_z
Si Si1 0.113883 0.472036 0.100418
Si Si2 0.550403 0.987144 0.760563
Si Si3 0.001347 0.696967 0.409764
Si Si4 0.434400 0.424849 0.772503
Si Si5 0.939406 0.147910 0.968702
Si Si6 0.823450 0.065440 0.503118
Si Si7 0.684568 0.430241 0.148483
Si Si8 0.230041 0.933318 0.087829
O O1 0.968892 0.272492 0.300665
O O2 0.919673 0.487785 0.102911
O O3 0.360635 0.715069 0.942722
O O4 0.224955 0.444210 0.016160
O O5 0.748219 0.107219 0.710751
O O6 0.738643 0.101211 0.580803
O O7 0.318892 0.990312 0.837824
O O8 0.018496 0.785866 0.282881
O O9 0.000000 0.500000 0.500000
O O10 0.726962 0.592514 0.573522
O O11 0.444854 0.506289 0.802819
O O12 0.207240 0.378797 0.810234
O O13 0.316423 0.172871 0.937849
O O14 0.864547 0.193733 0.893562
O O15 0.000000 0.000000 0.000000
O O16 0.537201 0.839112 0.666582
O O17 0.000000 0.000000 0.500000
O O18 0.500000 0.000000 0.000000
#
# Coordination Sequence:
#
# PCOD9017538 Si02
#       8
#     2   2   2   2   2   2   2   2
#     4  10  23  45  69  94 135 174 217 278 334 398
#     4  11  23  42  69  96 132 180 220 269 342 389
#     4  12  24  41  64  98 133 172 223 273 325 390
#     4  11  23  41  66  97 131 168 225 272 325 400
#     4  10  21  43  64  92 133 169 220 270 323 394
#     4  11  25  43  66 103 137 170 223 279 334 409
#     4  10  22  43  68  97 131 175 220 275 333 391
#     4  11  22  42  67  92 130 181 217 274 333 385
#
# _framework density 20.738385999999998
#
# number of rings (size 3 to 8) (size 9 to 14) (size 15 to 20)
#    0.000    1.250    3.750    1.875    0.000    7.500 
#    4.500    0.000    0.000    0.000    0.000    0.000 
#    0.000    0.000    0.000    0.000    0.000    0.000 
#
# Total GULP energy -89232.070185 kJ/mol
# GULP energy per Si atom -5577.004387 kJ/mol
# Density = 2.069118 g / cm^3
# Si number density = 20.738386 Si / 1000 Ang^3
#
#
#
# Elastic Constant Matrix: (Units=GPa)
#
#
# Indices 1 2 3 4 5 6 
#
# 1 75.8148 33.2182 35.6606 7.7586 -8.1917 18.5307
# 2 33.2182 124.1943 41.0753 40.3755 -5.2681 19.0846
# 3 35.6606 41.0753 126.5564 32.2272 2.2138 10.9162
# 4 7.7586 40.3755 32.2272 43.6568 -0.9218 -12.5097
# 5 -8.1917 -5.2681 2.2138 -0.9218 30.5947 2.5210
# 6 18.5307 19.0846 10.9162 -12.5097 2.5210 31.1539
#
#
#
# Elastic Compliance Matrix: (Units=1/GPa)
#
#
# Indices 1 2 3 4 5 6 
#
# 1 0.018886 -0.000993 -0.003377 -0.003010 0.005957 -0.011133
# 2 -0.000993 0.020111 0.002651 -0.027139 0.004156 -0.023892
# 3 -0.003377 0.002651 0.012274 -0.013598 -0.000979 -0.009297
# 4 -0.003010 -0.027139 -0.013598 0.073715 -0.006668 0.053319
# 5 0.005957 0.004156 -0.000979 -0.006668 0.035799 -0.011320
# 6 -0.011133 -0.023892 -0.009297 0.053319 -0.011320 0.078941
#
#
# Mechanical properties :
#
#
# Convention : Reuss Voigt Hill
#
# Bulk Modulus (GPa) = 20.90514 60.71930 40.81222
# Shear Modulus (GPa) = 19.29697 35.52185 27.40941
#
# Velocity S-wave (km/s) = 3.05371 4.14316 3.63943
# Velocity P-wave (km/s) = 4.74719 7.22703 6.11415
#
# Compressibility (1/GPa) = 0.04783513
#
# Stress axis : x y z
#
# Youngs Moduli (GPa) = 52.94883 49.72381 81.47117
#
# Poissons Ratio (x) = 0.04936 0.27513
# Poissons Ratio (y) = 0.05256 -0.21601
# Poissons Ratio (z) = 0.17881 -0.13184
#
# Static dielectric constant tensor:
#      x y z
#    x 1.476180 -0.203300 -0.352910 
#    y -0.203300 1.693190 -0.125570 
#    z -0.352910 -0.125570 1.425150 
# 
# From -- ./inp_files/519509.got.cif
#   From: 2010.05.17/outbox.cif.g08.bks.cpg/sg2_260_cif.got.tgz:519509.got - 2010.06.03 11:33:40.
