data_PCOD9017756
_publ_section_title
;
Structure prediction by ZEFSAII (Michael W. Deem and Ramdas Pophale) SiO2 
 PCOD9017756
Probable space group: P -1
;
_chemical_formula_sum "Si O2"
_cell_formula_units_Z 12
_cell_length_a 7.707314
_cell_length_b 16.353942
_cell_length_c 6.395625
_cell_angle_alpha 68.592437
_cell_angle_beta 66.332565
_cell_angle_gamma 39.250487
_cell_volume 465.108854
_symmetry_space_group_name_H-M "P -1"
_symmetry_group_IT_number 2
_symmetry_cell_setting 'triclinic'
loop_
_space_group_symop_operation_xyz
x,y,z
-x,-y,-z
loop_
_atom_site_type_symbol
_atom_site_label
_atom_site_fract_x
_atom_site_fract_y
_atom_site_fract_z
Si Si1 0.712239 0.248787 0.309865
Si Si2 0.968187 0.735112 0.528516
Si Si3 0.871120 0.914009 0.114316
Si Si4 0.267420 0.879878 0.238650
Si Si5 0.264817 0.533998 0.222485
Si Si6 0.183929 0.353021 0.992485
O O1 0.877847 0.255009 0.386952
O O2 0.396215 0.392521 0.319469
O O3 0.016006 0.057842 0.789097
O O4 0.727082 0.146937 0.497021
O O5 0.201513 0.604495 0.401900
O O6 0.791645 0.855376 0.340129
O O7 0.805066 0.717862 0.754188
O O8 0.677918 0.039321 0.939431
O O9 0.125225 0.802061 0.939423
O O10 0.506629 0.736877 0.154309
O O11 0.500000 0.500000 0.000000
O O12 0.983080 0.631574 0.134791
O O13 0.000000 0.500000 0.000000
#
# Coordination Sequence:
#
# PCOD9017756 Si02
#       6
#     2   2   2   2   2   2
#     4  11  21  40  68  91 124 171 213 253 309 381
#     4  11  23  40  65  93 125 168 210 255 314 378
#     4  10  21  43  66  92 122 175 212 251 315 375
#     4  10  24  40  64  95 131 161 213 263 308 371
#     4  12  23  40  66  93 125 168 208 253 318 377
#     4  12  26  41  62 100 130 160 207 267 316 367
#
# _framework density 25.800412000000001
#
# number of rings (size 3 to 8) (size 9 to 14) (size 15 to 20)
#    0.000    1.000    3.333    3.000    2.333    4.667 
#    0.000    3.333    0.000    0.000    0.000    0.000 
#    0.000    0.000    0.000    0.000    0.000    0.000 
#
# Total GULP energy -67189.200183 kJ/mol
# GULP energy per Si atom -5599.100015 kJ/mol
# Density = 2.574169 g / cm^3
# Si number density = 25.800412 Si / 1000 Ang^3
#
#
#
# Elastic Constant Matrix: (Units=GPa)
#
#
# Indices 1 2 3 4 5 6 
#
# 1 51.7314 2.7466 28.3681 1.1277 15.2538 7.3049
# 2 2.7466 93.2953 26.3469 -11.6086 3.1858 22.9814
# 3 28.3681 26.3469 157.1477 -28.6024 -6.4726 17.7263
# 4 1.1277 -11.6086 -28.6024 70.3186 15.5685 0.3152
# 5 15.2538 3.1858 -6.4726 15.5685 39.4034 -2.6670
# 6 7.3049 22.9814 17.7263 0.3152 -2.6670 26.7651
#
#
#
# Elastic Compliance Matrix: (Units=1/GPa)
#
#
# Indices 1 2 3 4 5 6 
#
# 1 0.026439 0.003027 -0.004730 0.000875 -0.012137 -0.007903
# 2 0.003027 0.014745 -0.001175 0.002993 -0.004633 -0.013205
# 3 -0.004730 -0.001175 0.008363 0.002863 0.001960 -0.003077
# 4 0.000875 0.002993 0.002863 0.017534 -0.007420 -0.005651
# 5 -0.012137 -0.004633 0.001960 -0.007420 0.034349 0.009503
# 6 -0.007903 -0.013205 -0.003077 -0.005651 0.009503 0.053909
#
#
# Mechanical properties :
#
#
# Convention : Reuss Voigt Hill
#
# Bulk Modulus (GPa) = 22.83511 46.34416 34.58963
# Shear Modulus (GPa) = 28.45901 43.61160 36.03531
#
# Velocity S-wave (km/s) = 3.32481 4.11584 3.74129
# Velocity P-wave (km/s) = 4.85892 6.37090 5.66558
#
# Compressibility (1/GPa) = 0.04379221
#
# Stress axis : x y z
#
# Youngs Moduli (GPa) = 37.82266 67.82044 119.57003
#
# Poissons Ratio (x) = -0.20531 0.56552
# Poissons Ratio (y) = -0.11450 0.14051
# Poissons Ratio (z) = 0.17889 0.07970
#
# Static dielectric constant tensor:
#      x y z
#    x 2.011530 0.053470 -0.020290 
#    y 0.053470 2.078070 -0.078630 
#    z -0.020290 -0.078630 2.031740 
# 
# From -- ./inp_files/43559.got.cif
#   From: 2010.05.17/outbox.cif.g08.bks.cpg/sg2_22_cif.got.tgz:43559.got - 2010.06.03 11:33:40.
