data_PCOD9017531
_publ_section_title
;
Structure prediction by ZEFSAII (Michael W. Deem and Ramdas Pophale) SiO2 
 PCOD9017531
Probable space group: P -1
;
_chemical_formula_sum "Si O2"
_cell_formula_units_Z 10
_cell_length_a 11.527607
_cell_length_b 9.105114
_cell_length_c 7.124427
_cell_angle_alpha 65.067738
_cell_angle_beta 52.171971
_cell_angle_gamma 38.170794
_cell_volume 362.194784
_symmetry_space_group_name_H-M "P -1"
_symmetry_group_IT_number 2
_symmetry_cell_setting 'triclinic'
loop_
_space_group_symop_operation_xyz
x,y,z
-x,-y,-z
loop_
_atom_site_type_symbol
_atom_site_label
_atom_site_fract_x
_atom_site_fract_y
_atom_site_fract_z
Si Si1 0.861772 0.502993 0.997009
Si Si2 0.367337 0.911838 0.177103
Si Si3 0.190189 0.826888 0.673092
Si Si4 0.522313 0.311817 0.188139
Si Si5 0.956239 0.322919 0.588170
O O1 0.606986 0.759123 0.094951
O O2 0.854311 0.323627 0.176401
O O3 0.961024 0.405040 0.740918
O O4 0.000000 0.500000 0.000000
O O5 0.315785 0.773514 0.387462
O O6 0.376609 0.893026 0.954859
O O7 0.168291 0.169008 0.331016
O O8 0.336140 0.781388 0.718701
O O9 0.976749 0.112524 0.726407
O O10 0.275556 0.454808 0.393007
O O11 0.500000 0.500000 0.000000
#
# Coordination Sequence:
#
# PCOD9017531 Si02
#       5
#     2   2   2   2   2
#     4  11  21  38  63  91 127 161 198 255 306 360
#     4   9  22  40  63  93 118 162 210 245 304 364
#     4  10  21  43  64  92 120 160 209 248 305 360
#     4  11  20  36  63  99 123 143 212 272 283 351
#     4   9  22  40  63  93 118 162 210 245 304 364
#
# _framework density 27.609453999999999
#
# number of rings (size 3 to 8) (size 9 to 14) (size 15 to 20)
#    1.200    0.800    4.000    1.200    0.000    1.600 
#    7.200    0.000    0.000   21.600    0.000    0.000 
#    0.000    0.000    0.000    0.000    0.000    0.000 
#
# Total GULP energy -56141.232867 kJ/mol
# GULP energy per Si atom -5614.123287 kJ/mol
# Density = 2.754661 g / cm^3
# Si number density = 27.609454 Si / 1000 Ang^3
#
#
#
# Elastic Constant Matrix: (Units=GPa)
#
#
# Indices 1 2 3 4 5 6 
#
# 1 267.0226 75.0336 110.1712 25.9827 15.4262 -17.1152
# 2 75.0336 110.0507 70.8680 29.6489 -3.6160 -6.4425
# 3 110.1712 70.8680 215.3160 49.1002 5.8924 -8.2903
# 4 25.9827 29.6489 49.1002 52.9164 -4.3111 -4.5092
# 5 15.4262 -3.6160 5.8924 -4.3111 53.4010 0.0646
# 6 -17.1152 -6.4425 -8.2903 -4.5092 0.0646 51.5805
#
#
#
# Elastic Compliance Matrix: (Units=1/GPa)
#
#
# Indices 1 2 3 4 5 6 
#
# 1 0.005371 -0.002534 -0.001961 0.000586 -0.001461 0.001203
# 2 -0.002534 0.013400 -0.002226 -0.004062 0.001557 0.000118
# 3 -0.001961 -0.002226 0.007497 -0.004824 -0.000801 -0.000145
# 4 0.000586 -0.004062 -0.004824 0.025635 0.002156 0.001150
# 5 -0.001461 0.001557 -0.000801 0.002156 0.019516 -0.000255
# 6 0.001203 0.000118 -0.000145 0.001150 -0.000255 0.019879
#
#
# Mechanical properties :
#
#
# Convention : Reuss Voigt Hill
#
# Bulk Modulus (GPa) = 77.97132 122.72609 100.34871
# Shear Modulus (GPa) = 45.86497 54.00069 49.93283
#
# Velocity S-wave (km/s) = 4.08021 4.42733 4.25731
# Velocity P-wave (km/s) = 7.10631 8.40727 7.78402
#
# Compressibility (1/GPa) = 0.01282523
#
# Stress axis : x y z
#
# Youngs Moduli (GPa) = 186.18890 74.62583 133.39180
#
# Poissons Ratio (x) = 0.18913 0.26163
# Poissons Ratio (y) = 0.47187 0.29687
# Poissons Ratio (z) = 0.36518 0.16608
#
# Static dielectric constant tensor:
#      x y z
#    x 2.098620 0.093020 -0.057480 
#    y 0.093020 2.260080 -0.055400 
#    z -0.057480 -0.055400 2.159050 
# 
# From -- ./inp_files/243896.got.cif
#   From: 2010.05.17/outbox.cif.g08.bks.cpg/sg2_122_cif.got.tgz:243896.got - 2010.06.03 11:33:40.
