data_PCOD9017554
_publ_section_title
;
Structure prediction by ZEFSAII (Michael W. Deem and Ramdas Pophale) SiO2 
 PCOD9017554
Probable space group: P -1
;
_chemical_formula_sum "Si O2"
_cell_formula_units_Z 10
_cell_length_a 14.784082
_cell_length_b 6.864953
_cell_length_c 10.155245
_cell_angle_alpha 115.209757
_cell_angle_beta 26.707267
_cell_angle_gamma 101.785104
_cell_volume 377.683872
_symmetry_space_group_name_H-M "P -1"
_symmetry_group_IT_number 2
_symmetry_cell_setting 'triclinic'
loop_
_space_group_symop_operation_xyz
x,y,z
-x,-y,-z
loop_
_atom_site_type_symbol
_atom_site_label
_atom_site_fract_x
_atom_site_fract_y
_atom_site_fract_z
Si Si1 0.733313 0.686259 0.628539
Si Si2 0.550537 0.106698 0.679420
Si Si3 0.635121 0.568082 0.454112
Si Si4 0.958497 0.933972 0.244183
Si Si5 0.877776 0.677709 0.829300
O O1 0.592218 0.623715 0.683333
O O2 0.798872 0.892377 0.547480
O O3 0.974116 0.467557 0.283142
O O4 0.597137 0.769339 0.964201
O O5 0.610410 0.826823 0.514615
O O6 0.793684 0.088856 0.386482
O O7 0.386451 0.247045 0.814664
O O8 0.500000 0.500000 0.500000
O O9 0.870030 0.334360 0.088495
O O10 0.089073 0.083007 0.164872
O O11 0.000000 0.500000 0.500000
#
# Coordination Sequence:
#
# PCOD9017554 Si02
#       5
#     2   2   2   2   2
#     4  10  23  42  66  94 125 165 212 250 312 378
#     4  10  21  43  64  95 126 162 212 255 305 381
#     4  11  21  41  64  94 127 165 208 259 308 371
#     4  11  22  42  66  88 131 166 202 263 313 357
#     4  10  23  41  62  97 128 156 215 258 303 375
#
# _framework density 26.477170999999998
#
# number of rings (size 3 to 8) (size 9 to 14) (size 15 to 20)
#    0.000    1.600    2.000    4.800    0.000    7.200 
#   10.800    2.000    0.000    0.000    0.000    0.000 
#    0.000    0.000    0.000    0.000    0.000    0.000 
#
# Total GULP energy -55905.022301 kJ/mol
# GULP energy per Si atom -5590.502230 kJ/mol
# Density = 2.641691 g / cm^3
# Si number density = 26.477171 Si / 1000 Ang^3
#
#
#
# Elastic Constant Matrix: (Units=GPa)
#
#
# Indices 1 2 3 4 5 6 
#
# 1 173.8696 40.5852 69.6597 -0.7725 -18.4172 2.8958
# 2 40.5852 93.3648 12.3461 9.4671 4.4724 8.8369
# 3 69.6597 12.3461 167.2671 22.6642 -22.6338 -2.4763
# 4 -0.7725 9.4671 22.6642 37.1177 0.4326 -5.3176
# 5 -18.4172 4.4724 -22.6338 0.4326 73.2013 9.6789
# 6 2.8958 8.8369 -2.4763 -5.3176 9.6789 36.1546
#
#
#
# Elastic Compliance Matrix: (Units=1/GPa)
#
#
# Indices 1 2 3 4 5 6 
#
# 1 0.008028 -0.003426 -0.003350 0.003089 0.001161 0.000108
# 2 -0.003426 0.012870 0.000894 -0.004348 -0.000923 -0.003202
# 3 -0.003350 0.000894 0.008280 -0.005470 0.001783 -0.000665
# 4 0.003089 -0.004348 -0.005470 0.032277 -0.001581 0.005611
# 5 0.001161 -0.000923 0.001783 -0.001581 0.015102 -0.004021
# 6 0.000108 -0.003202 -0.000665 0.005611 -0.004021 0.030289
#
#
# Mechanical properties :
#
#
# Convention : Reuss Voigt Hill
#
# Bulk Modulus (GPa) = 57.42792 75.52038 66.47415
# Shear Modulus (GPa) = 40.18784 50.08874 45.13829
#
# Velocity S-wave (km/s) = 3.90016 4.35417 4.13340
# Velocity P-wave (km/s) = 6.48216 7.33915 6.92392
#
# Compressibility (1/GPa) = 0.01741313
#
# Stress axis : x y z
#
# Youngs Moduli (GPa) = 124.55935 77.70086 120.76760
#
# Poissons Ratio (x) = 0.26619 0.40462
# Poissons Ratio (y) = 0.42672 -0.10792
# Poissons Ratio (z) = 0.41733 -0.06943
#
# Static dielectric constant tensor:
#      x y z
#    x 2.132640 -0.037340 -0.018800 
#    y -0.037340 2.049850 -0.040980 
#    z -0.018800 -0.040980 2.056180 
# 
# From -- ./inp_files/148318.got.cif
#   From: 2010.05.17/outbox.cif.g08.bks.cpg/sg2_75_cif.got.tgz:148318.got - 2010.06.03 11:33:40.
