data_PCOD9017113
_publ_section_title
;
Structure prediction by ZEFSAII (Michael W. Deem and Ramdas Pophale) SiO2 
 PCOD9017113
Probable space group: P -1
;
_chemical_formula_sum "Si O2"
_cell_formula_units_Z 16
_cell_length_a 5.255502
_cell_length_b 27.377868
_cell_length_c 5.323080
_cell_angle_alpha 105.686491
_cell_angle_beta 97.413622
_cell_angle_gamma 52.700487
_cell_volume 585.965817
_symmetry_space_group_name_H-M "P -1"
_symmetry_group_IT_number 2
_symmetry_cell_setting 'triclinic'
loop_
_space_group_symop_operation_xyz
x,y,z
-x,-y,-z
loop_
_atom_site_type_symbol
_atom_site_label
_atom_site_fract_x
_atom_site_fract_y
_atom_site_fract_z
Si Si1 0.260775 0.074260 0.639224
Si Si2 0.525419 0.719003 0.905763
Si Si3 0.807419 0.182470 0.396648
Si Si4 0.878128 0.043324 0.797657
Si Si5 0.132350 0.243575 0.626227
Si Si6 0.236716 0.398862 0.005786
Si Si7 0.088250 0.635799 0.471669
Si Si8 0.340830 0.479373 0.756102
O O1 0.496447 0.088731 0.797415
O O2 0.070796 0.111058 0.416109
O O3 0.020472 0.082055 0.829584
O O4 0.500000 0.000000 0.500000
O O5 0.238994 0.782320 0.820462
O O6 0.469171 0.670484 0.959984
O O7 0.796388 0.669943 0.672263
O O8 0.707085 0.741138 0.117085
O O9 0.459908 0.198921 0.437816
O O10 0.940823 0.215011 0.624657
O O11 0.000000 0.000000 0.500000
O O12 0.000000 0.000000 0.000000
O O13 0.888302 0.308946 0.535802
O O14 0.003529 0.455072 0.252442
O O15 0.305109 0.433024 0.854675
O O16 0.031768 0.380329 0.810439
O O17 0.410556 0.567787 0.492772
O O18 0.500000 0.500000 0.000000
#
# Coordination Sequence:
#
# PCOD9017113 Si02
#       8
#     2   2   2   2   2   2   2   2
#     4  10  22  44  73 106 143 185 233 295 366 435
#     4  10  23  43  68  97 130 187 238 283 355 419
#     4  11  24  48  68 102 147 179 237 294 352 428
#     4  10  21  42  71 105 146 189 237 289 360 436
#     4  10  24  43  67 100 138 186 232 290 348 417
#     4   9  19  39  60  95 127 173 225 286 352 421
#     4   9  20  37  62  88 128 174 220 290 339 412
#     4   9  18  36  61  89 136 165 219 294 350 414
#
# _framework density 27.305346
#
# number of rings (size 3 to 8) (size 9 to 14) (size 15 to 20)
#    0.000    2.250    0.000    1.125    5.250    2.500 
#   22.500    5.625    0.000    0.000    0.000    0.000 
#    0.000    0.000    0.000    0.000    0.000    0.000 
#
# Total GULP energy -89431.306865 kJ/mol
# GULP energy per Si atom -5589.456679 kJ/mol
# Density = 2.724320 g / cm^3
# Si number density = 27.305346 Si / 1000 Ang^3
#
#
#
# Elastic Constant Matrix: (Units=GPa)
#
#
# Indices 1 2 3 4 5 6 
#
# 1 137.2160 19.6051 5.4467 -12.8165 4.4767 1.1913
# 2 19.6051 172.5966 33.3444 -28.0211 9.8348 1.7413
# 3 5.4467 33.3444 72.9670 -29.4525 9.0990 2.4065
# 4 -12.8165 -28.0211 -29.4525 42.4089 -2.4881 8.8151
# 5 4.4767 9.8348 9.0990 -2.4881 33.2526 -15.5742
# 6 1.1913 1.7413 2.4065 8.8151 -15.5742 32.6935
#
#
#
# Elastic Compliance Matrix: (Units=1/GPa)
#
#
# Indices 1 2 3 4 5 6 
#
# 1 0.007690 -0.000454 0.001267 0.003240 -0.002031 -0.002190
# 2 -0.000454 0.006885 -0.001062 0.004064 -0.002602 -0.002607
# 3 0.001267 -0.001062 0.022576 0.017059 -0.009893 -0.010963
# 4 0.003240 0.004064 0.017059 0.042270 -0.011875 -0.018644
# 5 -0.002031 -0.002602 -0.009893 -0.011875 0.044890 0.025527
# 6 -0.002190 -0.002607 -0.010963 -0.018644 0.025527 0.048800
#
#
# Mechanical properties :
#
#
# Convention : Reuss Voigt Hill
#
# Bulk Modulus (GPa) = 27.28306 55.50799 41.39552
# Shear Modulus (GPa) = 26.90670 43.29657 35.10163
#
# Velocity S-wave (km/s) = 3.14251 3.98634 3.58931
# Velocity P-wave (km/s) = 4.81464 6.44675 5.68952
#
# Compressibility (1/GPa) = 0.03665278
#
# Stress axis : x y z
#
# Youngs Moduli (GPa) = 130.03378 145.24621 44.29436
#
# Poissons Ratio (x) = 0.06601 -0.05611
# Poissons Ratio (y) = 0.05910 0.04703
# Poissons Ratio (z) = -0.16473 0.15420
#
# Static dielectric constant tensor:
#      x y z
#    x 2.349460 -0.016650 -0.003260 
#    y -0.016650 2.109480 -0.052480 
#    z -0.003260 -0.052480 2.116980 
# 
# From -- ./inp_files/14622.got.cif
#   From: 2010.05.17/outbox.cif.g08.bks.cpg/sg2_8_cif.got.tgz:14622.got - 2010.06.03 11:33:40.
