data_PCOD9017273
_publ_section_title
;
Structure prediction by ZEFSAII (Michael W. Deem and Ramdas Pophale) SiO2 
 PCOD9017273
Probable space group: P -1
;
_chemical_formula_sum "Si O2"
_cell_formula_units_Z 12
_cell_length_a 5.263306
_cell_length_b 9.022547
_cell_length_c 11.399596
_cell_angle_alpha 105.374254
_cell_angle_beta 113.830983
_cell_angle_gamma 65.000351
_cell_volume 445.882477
_symmetry_space_group_name_H-M "P -1"
_symmetry_group_IT_number 2
_symmetry_cell_setting 'triclinic'
loop_
_space_group_symop_operation_xyz
x,y,z
-x,-y,-z
loop_
_atom_site_type_symbol
_atom_site_label
_atom_site_fract_x
_atom_site_fract_y
_atom_site_fract_z
Si Si1 0.836977 0.509207 0.782493
Si Si2 0.054367 0.341560 0.396325
Si Si3 0.635185 0.229133 0.607495
Si Si4 0.678860 0.071080 0.821619
Si Si5 0.413360 0.348741 0.996783
Si Si6 0.178435 0.933343 0.711268
O O1 0.532099 0.194426 0.710708
O O2 0.097015 0.377008 0.880294
O O3 0.965088 0.599470 0.728799
O O4 0.674460 0.404085 0.661205
O O5 0.391147 0.225884 0.468155
O O6 0.000000 0.500000 0.500000
O O7 0.846716 0.238778 0.366189
O O8 0.640822 0.631072 0.870791
O O9 0.951446 0.082955 0.623144
O O10 0.644390 0.184234 0.951377
O O11 0.489770 0.955757 0.779807
O O12 0.004915 0.975924 0.812629
O O13 0.500000 0.500000 0.000000
#
# Coordination Sequence:
#
# PCOD9017273 Si02
#       6
#     2   2   2   2   2   2
#     4  11  24  41  69 104 138 179 237 290 348 408
#     4  12  27  44  67 107 144 182 229 299 351 414
#     4  10  22  44  71  99 143 182 231 274 353 421
#     4  10  21  42  73 101 131 191 234 280 336 427
#     4  11  20  42  71  98 134 184 235 288 343 418
#     4  10  24  45  71 102 143 185 236 276 358 425
#
# _framework density 26.912921000000001
#
# number of rings (size 3 to 8) (size 9 to 14) (size 15 to 20)
#    1.000    0.333    3.333    2.000    2.333    3.333 
#    0.000    1.667    0.000    0.000    0.000    0.000 
#    0.000    0.000    0.000    0.000    0.000    0.000 
#
# Total GULP energy -67326.899790 kJ/mol
# GULP energy per Si atom -5610.574982 kJ/mol
# Density = 2.685167 g / cm^3
# Si number density = 26.912921 Si / 1000 Ang^3
#
#
#
# Elastic Constant Matrix: (Units=GPa)
#
#
# Indices 1 2 3 4 5 6 
#
# 1 125.0989 15.7868 23.1023 22.2836 -21.1810 14.2943
# 2 15.7868 98.3347 28.5458 22.3561 -15.0703 11.1684
# 3 23.1023 28.5458 96.4356 4.8908 -17.6215 1.7444
# 4 22.2836 22.3561 4.8908 68.5014 -6.4022 -1.9896
# 5 -21.1810 -15.0703 -17.6215 -6.4022 51.9583 15.9867
# 6 14.2943 11.1684 1.7444 -1.9896 15.9867 44.8499
#
#
#
# Elastic Compliance Matrix: (Units=1/GPa)
#
#
# Indices 1 2 3 4 5 6 
#
# 1 0.010226 0.000940 -0.001517 -0.003196 0.005204 -0.005431
# 2 0.000940 0.013055 -0.003019 -0.004106 0.004215 -0.005117
# 3 -0.001517 -0.003019 0.012092 0.000869 0.002771 -0.000184
# 4 -0.003196 -0.004106 0.000869 0.016906 -0.001083 0.003143
# 5 0.005204 0.004215 0.002771 -0.001083 0.027268 -0.012584
# 6 -0.005431 -0.005117 -0.000184 0.003143 -0.012584 0.029934
#
#
# Mechanical properties :
#
#
# Convention : Reuss Voigt Hill
#
# Bulk Modulus (GPa) = 35.48337 50.52655 43.00496
# Shear Modulus (GPa) = 39.66136 49.89087 44.77611
#
# Velocity S-wave (km/s) = 3.84303 4.31024 4.08332
# Velocity P-wave (km/s) = 5.73629 6.60195 6.18428
#
# Compressibility (1/GPa) = 0.02818222
#
# Stress axis : x y z
#
# Youngs Moduli (GPa) = 97.78760 76.59703 82.69855
#
# Poissons Ratio (x) = -0.07197 0.12543
# Poissons Ratio (y) = -0.09188 0.24964
# Poissons Ratio (z) = 0.14831 0.23122
#
# Static dielectric constant tensor:
#      x y z
#    x 2.097180 -0.098440 0.015000 
#    y -0.098440 2.099910 -0.037560 
#    z 0.015000 -0.037560 2.067580 
# 
# From -- ./inp_files/548360.got.cif
#   From: 2010.05.17/outbox.cif.g08.bks.cpg/sg2_275_cif.got.tgz:548360.got - 2010.06.03 11:33:40.
