data_PCOD9017650
_publ_section_title
;
Structure prediction by ZEFSAII (Michael W. Deem and Ramdas Pophale) SiO2 
 PCOD9017650
Probable space group: P -1
;
_chemical_formula_sum "Si O2"
_cell_formula_units_Z 14
_cell_length_a 11.259882
_cell_length_b 13.374865
_cell_length_c 9.859864
_cell_angle_alpha 138.736581
_cell_angle_beta 49.303538
_cell_angle_gamma 138.112319
_cell_volume 639.288284
_symmetry_space_group_name_H-M "P -1"
_symmetry_group_IT_number 2
_symmetry_cell_setting 'triclinic'
loop_
_space_group_symop_operation_xyz
x,y,z
-x,-y,-z
loop_
_atom_site_type_symbol
_atom_site_label
_atom_site_fract_x
_atom_site_fract_y
_atom_site_fract_z
Si Si1 0.943822 0.554507 0.903745
Si Si2 0.509060 0.933843 0.776838
Si Si3 0.078092 0.789191 0.292902
Si Si4 0.066176 0.179403 0.305598
Si Si5 0.750483 0.415145 0.473298
Si Si6 0.417728 0.622382 0.154858
Si Si7 0.270542 0.015936 0.832292
O O1 0.944128 0.388867 0.804655
O O2 0.964983 0.840485 0.530044
O O3 0.736053 0.478320 0.944891
O O4 0.077641 0.599282 0.721194
O O5 0.421802 0.723801 0.628957
O O6 0.715838 0.051879 0.696570
O O7 0.379992 0.957705 0.789997
O O8 0.014859 0.722702 0.119721
O O9 0.500000 0.000000 0.000000
O O10 0.196157 0.384598 0.384662
O O11 0.874506 0.115540 0.304812
O O12 0.153971 0.071526 0.070657
O O13 0.688958 0.367731 0.625051
O O14 0.575566 0.812961 0.186454
O O15 0.500000 0.500000 0.000000
#
# Coordination Sequence:
#
# PCOD9017650 Si02
#       7
#     2   2   2   2   2   2   2
#     4  10  22  40  66  97 133 171 223 272 326 389
#     4  12  25  43  68 101 132 171 227 274 324 394
#     4  10  21  43  65  94 132 177 218 273 329 391
#     4  10  24  44  68  98 134 178 218 269 344 387
#     4  11  24  40  70  98 131 174 221 271 324 401
#     4  12  24  42  67 103 133 171 223 275 329 391
#     4  11  25  45  66  97 140 172 218 281 326 393
#
# _framework density 21.899353999999999
#
# number of rings (size 3 to 8) (size 9 to 14) (size 15 to 20)
#    0.000    1.143    4.286    1.286    6.000    1.143 
#    2.571    2.143    0.000    0.000    0.000    0.000 
#    0.000    0.000    0.000    0.000    0.000    0.000 
#
# Total GULP energy -78290.170388 kJ/mol
# GULP energy per Si atom -5592.155028 kJ/mol
# Density = 2.184951 g / cm^3
# Si number density = 21.899354 Si / 1000 Ang^3
#
#
#
# Elastic Constant Matrix: (Units=GPa)
#
#
# Indices 1 2 3 4 5 6 
#
# 1 33.4471 14.2086 21.8726 7.3252 15.1546 15.2216
# 2 14.2086 126.3062 29.5512 -1.0667 5.1322 27.1743
# 3 21.8726 29.5512 102.4817 -7.6134 21.2355 7.0822
# 4 7.3252 -1.0667 -7.6134 42.6290 6.8908 10.1477
# 5 15.1546 5.1322 21.2355 6.8908 17.7866 6.8460
# 6 15.2216 27.1743 7.0822 10.1477 6.8460 35.3873
#
#
#
# Elastic Compliance Matrix: (Units=1/GPa)
#
#
# Indices 1 2 3 4 5 6 
#
# 1 0.056794 -0.000781 -0.002830 -0.000302 -0.038623 -0.015704
# 2 -0.000781 0.010281 -0.002962 0.001150 0.003887 -0.008048
# 3 -0.002830 -0.002962 0.015155 0.005443 -0.017841 0.002349
# 4 -0.000302 0.001150 0.005443 0.028627 -0.014905 -0.007168
# 5 -0.038623 0.003887 -0.017841 -0.014905 0.115412 -0.000855
# 6 -0.015704 -0.008048 0.002349 -0.007168 -0.000855 0.042945
#
#
# Mechanical properties :
#
#
# Convention : Reuss Voigt Hill
#
# Bulk Modulus (GPa) = 14.47524 43.72219 29.09872
# Shear Modulus (GPa) = 16.37267 32.26742 24.32005
#
# Velocity S-wave (km/s) = 2.73725 3.84271 3.33609
# Velocity P-wave (km/s) = 4.07607 6.30055 5.30619
#
# Compressibility (1/GPa) = 0.06908346
#
# Stress axis : x y z
#
# Youngs Moduli (GPa) = 17.60764 97.26269 65.98591
#
# Poissons Ratio (x) = 0.07598 0.18675
# Poissons Ratio (y) = 0.01375 0.19544
# Poissons Ratio (z) = 0.04983 0.28808
#
# Static dielectric constant tensor:
#      x y z
#    x 1.792440 -0.022030 0.013800 
#    y -0.022030 1.804140 0.004970 
#    z 0.013800 0.004970 1.815360 
# 
# From -- ./inp_files/454077.got.cif
#   From: 2010.05.17/outbox.cif.g08.bks.cpg/sg2_228_cif.got.tgz:454077.got - 2010.06.03 11:33:40.
