data_PCOD9017725
_publ_section_title
;
Structure prediction by ZEFSAII (Michael W. Deem and Ramdas Pophale) SiO2 
 PCOD9017725
Probable space group: P -1
;
_chemical_formula_sum "Si O2"
_cell_formula_units_Z 16
_cell_length_a 6.780646
_cell_length_b 5.223066
_cell_length_c 28.201714
_cell_angle_alpha 61.683926
_cell_angle_beta 52.620129
_cell_angle_gamma 74.582125
_cell_volume 698.347295
_symmetry_space_group_name_H-M "P -1"
_symmetry_group_IT_number 2
_symmetry_cell_setting 'triclinic'
loop_
_space_group_symop_operation_xyz
x,y,z
-x,-y,-z
loop_
_atom_site_type_symbol
_atom_site_label
_atom_site_fract_x
_atom_site_fract_y
_atom_site_fract_z
Si Si1 0.079198 0.055161 0.552130
Si Si2 0.248180 0.448157 0.347401
Si Si3 0.260205 0.657218 0.933623
Si Si4 0.609595 0.461838 0.580465
Si Si5 0.873520 0.890575 0.348179
Si Si6 0.711790 0.255144 0.253683
Si Si7 0.885356 0.918937 0.166543
Si Si8 0.470119 0.927496 0.066360
O O1 0.309577 0.223031 0.479614
O O2 0.118969 0.025820 0.605145
O O3 0.840983 0.250930 0.558880
O O4 0.982929 0.735472 0.579122
O O5 0.422816 0.524461 0.359547
O O6 0.414837 0.261261 0.305070
O O7 0.124937 0.719171 0.317280
O O8 0.432415 0.398410 0.913699
O O9 0.212521 0.885352 0.879034
O O10 0.376128 0.837266 0.945148
O O11 0.000000 0.500000 0.000000
O O12 0.365457 0.324426 0.605053
O O13 0.837889 0.142318 0.293337
O O14 0.798357 0.585289 0.202011
O O15 0.783558 0.047842 0.218825
O O16 0.183078 0.940190 0.120944
O O17 0.500000 0.000000 0.000000
#
# Coordination Sequence:
#
# PCOD9017725 Si02
#       8
#     2   2   2   2   2   2   2   2
#     4  10  22  40  70 100 136 176 246 299 382 438
#     4  11  25  43  69  98 138 191 237 304 369 435
#     4  12  26  47  81 116 155 192 235 297 367 424
#     4  10  21  43  66 104 136 178 236 314 373 443
#     4  11  25  43  70  97 138 192 236 303 373 427
#     4  12  28  50  70 101 153 193 254 295 354 435
#     4  12  29  49  75 109 148 200 243 301 352 431
#     4  12  26  47  81 117 153 189 241 294 364 431
#
# _framework density 22.911237
#
# number of rings (size 3 to 8) (size 9 to 14) (size 15 to 20)
#    0.000    0.750    2.500    3.750    7.000    3.500 
#    0.000    0.000    0.000    0.000    0.000    0.000 
#    0.000    0.000    0.000    0.000    0.000    0.000 
#
# Total GULP energy -89654.872760 kJ/mol
# GULP energy per Si atom -5603.429548 kJ/mol
# Density = 2.285909 g / cm^3
# Si number density = 22.911237 Si / 1000 Ang^3
#
#
#
# Elastic Constant Matrix: (Units=GPa)
#
#
# Indices 1 2 3 4 5 6 
#
# 1 109.9353 33.0395 45.0956 2.4418 12.8134 15.5457
# 2 33.0395 100.4172 30.2817 -1.8425 -0.3564 0.2111
# 3 45.0956 30.2817 106.3782 -13.3855 -0.8816 -6.4085
# 4 2.4418 -1.8425 -13.3855 49.0767 -5.8971 -2.3682
# 5 12.8134 -0.3564 -0.8816 -5.8971 28.0270 -11.6778
# 6 15.5457 0.2111 -6.4085 -2.3682 -11.6778 48.6186
#
#
#
# Elastic Compliance Matrix: (Units=1/GPa)
#
#
# Indices 1 2 3 4 5 6 
#
# 1 0.015757 -0.003178 -0.007022 -0.004732 -0.012263 -0.009126
# 2 -0.003178 0.011558 -0.001795 0.000423 0.002161 0.001269
# 3 -0.007022 -0.001795 0.013978 0.005263 0.007276 0.006099
# 4 -0.004732 0.000423 0.005263 0.023495 0.009638 0.005664
# 5 -0.012263 0.002161 0.007276 0.009638 0.050889 0.017563
# 6 -0.009126 0.001269 0.006099 0.005664 0.017563 0.028779
#
#
# Mechanical properties :
#
#
# Convention : Reuss Voigt Hill
#
# Bulk Modulus (GPa) = 57.79392 59.28491 58.53941
# Shear Modulus (GPa) = 28.70050 39.03205 33.86627
#
# Velocity S-wave (km/s) = 3.54316 4.13197 3.84884
# Velocity P-wave (km/s) = 6.48218 6.97828 6.73479
#
# Compressibility (1/GPa) = 0.01730286
#
# Stress axis : x y z
#
# Youngs Moduli (GPa) = 63.46561 86.51823 71.54045
#
# Poissons Ratio (x) = 0.27495 0.50234
# Poissons Ratio (y) = 0.20169 0.12844
# Poissons Ratio (z) = 0.44564 0.15533
#
# Static dielectric constant tensor:
#      x y z
#    x 1.814390 -0.003480 -0.013540 
#    y -0.003480 1.873900 -0.016640 
#    z -0.013540 -0.016640 1.843830 
# 
# From -- ./inp_files/614835.got.cif
#   From: 2010.05.17/outbox.cif.g08.bks.cpg/sg2_308_cif.got.tgz:614835.got - 2010.06.03 11:33:40.
