data_PCOD9017809
_publ_section_title
;
Structure prediction by ZEFSAII (Michael W. Deem and Ramdas Pophale) SiO2 
 PCOD9017809
Probable space group: P -1
;
_chemical_formula_sum "Si O2"
_cell_formula_units_Z 16
_cell_length_a 8.923176
_cell_length_b 22.080590
_cell_length_c 21.274079
_cell_angle_alpha 19.697628
_cell_angle_beta 34.820878
_cell_angle_gamma 48.772039
_cell_volume 650.457307
_symmetry_space_group_name_H-M "P -1"
_symmetry_group_IT_number 2
_symmetry_cell_setting 'triclinic'
loop_
_space_group_symop_operation_xyz
x,y,z
-x,-y,-z
loop_
_atom_site_type_symbol
_atom_site_label
_atom_site_fract_x
_atom_site_fract_y
_atom_site_fract_z
Si Si1 0.817160 0.327702 0.788705
Si Si2 0.876554 0.135594 0.512786
Si Si3 0.892016 0.340316 0.431626
Si Si4 0.752288 0.649523 0.581680
Si Si5 0.156879 0.903785 0.679597
Si Si6 0.004606 0.203932 0.027387
Si Si7 0.177887 0.132504 0.914077
Si Si8 0.692346 0.235823 0.347060
O O1 0.751070 0.456954 0.736914
O O2 0.000000 0.500000 0.500000
O O3 0.038473 0.253094 0.810776
O O4 0.467745 0.095264 0.123797
O O5 0.812478 0.197967 0.406921
O O6 0.137367 0.080135 0.475700
O O7 0.987853 0.313712 0.355623
O O8 0.503119 0.191331 0.714049
O O9 0.038159 0.276964 0.498248
O O10 0.000952 0.585277 0.170922
O O11 0.410832 0.600314 0.767121
O O12 0.921505 0.865208 0.267072
O O13 0.500000 0.000000 0.500000
O O14 0.094137 0.722263 0.828640
O O15 0.930065 0.831456 0.889475
O O16 0.249885 0.225136 0.870634
O O17 0.655474 0.997599 0.322911
#
# Coordination Sequence:
#
# PCOD9017809 Si02
#       8
#     2   2   2   2   2   2   2   2
#     4  12  27  42  68 103 143 184 218 276 339 402
#     4  12  24  43  68 102 137 176 227 277 339 404
#     4  12  24  38  68 101 135 185 224 272 334 404
#     4  11  23  45  68  94 139 182 227 273 334 397
#     4  10  23  44  71  96 131 175 227 290 341 390
#     4  10  21  43  66  95 134 177 222 279 329 400
#     4  11  23  43  67  96 143 177 230 269 330 401
#     4  10  22  46  68  93 136 176 225 287 338 396
#
# _framework density 24.598075999999999
#
# number of rings (size 3 to 8) (size 9 to 14) (size 15 to 20)
#    0.000    1.000    3.750    4.125    3.500    1.000 
#    0.000    9.375    0.000    0.000    0.000    0.000 
#    0.000    0.000    0.000    0.000    0.000    0.000 
#
# Total GULP energy -89582.962396 kJ/mol
# GULP energy per Si atom -5598.935150 kJ/mol
# Density = 2.454209 g / cm^3
# Si number density = 24.598076 Si / 1000 Ang^3
#
#
#
# Elastic Constant Matrix: (Units=GPa)
#
#
# Indices 1 2 3 4 5 6 
#
# 1 152.2849 67.6528 14.3953 -12.0821 25.7783 -12.4224
# 2 67.6528 122.5337 2.7604 -23.4287 -2.3546 2.6935
# 3 14.3953 2.7604 86.7050 -17.4068 -2.4724 9.5164
# 4 -12.0821 -23.4287 -17.4068 32.5410 2.9412 2.7648
# 5 25.7783 -2.3546 -2.4724 2.9412 32.1083 -10.3366
# 6 -12.4224 2.6935 9.5164 2.7648 -10.3366 37.3827
#
#
#
# Elastic Compliance Matrix: (Units=1/GPa)
#
#
# Indices 1 2 3 4 5 6 
#
# 1 0.011390 -0.006717 -0.002480 -0.001346 -0.008886 0.002543
# 2 -0.006717 0.013639 0.002934 0.008745 0.004758 -0.003293
# 3 -0.002480 0.002934 0.014283 0.009194 0.000813 -0.005127
# 4 -0.001346 0.008745 0.009194 0.042448 -0.003918 -0.007641
# 5 -0.008886 0.004758 0.000813 -0.003918 0.041729 0.008326
# 6 0.002543 -0.003293 -0.005127 -0.007641 0.008326 0.032005
#
#
# Mechanical properties :
#
#
# Convention : Reuss Voigt Hill
#
# Bulk Modulus (GPa) = 37.33242 59.01562 48.17402
# Shear Modulus (GPa) = 28.25669 38.85406 33.55537
#
# Velocity S-wave (km/s) = 3.39298 3.97868 3.69744
# Velocity P-wave (km/s) = 5.52808 6.71941 6.15265
#
# Compressibility (1/GPa) = 0.02678637
#
# Stress axis : x y z
#
# Youngs Moduli (GPa) = 87.79839 73.31817 70.01174
#
# Poissons Ratio (x) = 0.49245 0.17362
# Poissons Ratio (y) = 0.58971 -0.20539
# Poissons Ratio (z) = 0.21773 -0.21509
#
# Static dielectric constant tensor:
#      x y z
#    x 1.922620 0.007870 0.025820 
#    y 0.007870 2.003430 0.046090 
#    z 0.025820 0.046090 2.014240 
# 
# From -- ./inp_files/206216.got.cif
#   From: 2010.05.17/outbox.cif.g08.bks.cpg/sg2_104_cif.got.tgz:206216.got - 2010.06.03 11:33:40.
