data_PCOD9017315
_publ_section_title
;
Structure prediction by ZEFSAII (Michael W. Deem and Ramdas Pophale) SiO2 
 PCOD9017315
Probable space group: P -1
;
_chemical_formula_sum "Si O2"
_cell_formula_units_Z 16
_cell_length_a 5.257898
_cell_length_b 13.795895
_cell_length_c 10.365715
_cell_angle_alpha 116.196115
_cell_angle_beta 101.503166
_cell_angle_gamma 90.122561
_cell_volume 657.635407
_symmetry_space_group_name_H-M "P -1"
_symmetry_group_IT_number 2
_symmetry_cell_setting 'triclinic'
loop_
_space_group_symop_operation_xyz
x,y,z
-x,-y,-z
loop_
_atom_site_type_symbol
_atom_site_label
_atom_site_fract_x
_atom_site_fract_y
_atom_site_fract_z
Si Si1 0.379059 0.020560 0.861308
Si Si2 0.566451 0.689310 0.616366
Si Si3 0.186018 0.995055 0.299657
Si Si4 0.516132 0.258144 0.083934
Si Si5 0.011325 0.375534 0.077053
Si Si6 0.810426 0.250710 0.744868
Si Si7 0.766512 0.790245 0.440869
Si Si8 0.155163 0.515059 0.391022
O O1 0.552427 0.976788 0.740459
O O2 0.074031 0.984964 0.794549
O O3 0.421631 0.150924 0.933155
O O4 0.500000 0.000000 0.000000
O O5 0.502966 0.760539 0.774495
O O6 0.755824 0.745992 0.561267
O O7 0.317350 0.631033 0.483094
O O8 0.670480 0.585047 0.633981
O O9 0.201361 0.078765 0.468914
O O10 0.165336 0.868071 0.257760
O O11 0.304862 0.341128 0.074961
O O12 0.814487 0.297099 0.102104
O O13 0.015810 0.487425 0.224031
O O14 0.885054 0.349155 0.909792
O O15 0.511893 0.247978 0.671354
O O16 0.010003 0.250598 0.646924
O O17 0.000000 0.500000 0.500000
#
# Coordination Sequence:
#
# PCOD9017315 Si02
#       8
#     2   2   2   2   2   2   2   2
#     4  12  23  37  63  98 136 169 212 280 335 383
#     4  10  24  41  65 103 129 167 217 274 341 394
#     4  12  24  44  63  94 135 181 232 261 319 392
#     4  11  20  39  63  93 130 165 205 276 325 398
#     4  11  22  40  69  93 124 167 220 259 331 389
#     4  12  24  45  66  93 133 188 227 263 314 389
#     4  12  27  43  67  95 137 178 231 274 312 383
#     4  10  21  42  73  96 129 166 209 277 348 411
#
# _framework density 24.329592000000002
#
# number of rings (size 3 to 8) (size 9 to 14) (size 15 to 20)
#    0.000    0.750    3.750    4.125    1.750    2.000 
#    0.000    1.250    0.000    0.000    0.000    0.000 
#    0.000    0.000    0.000    0.000    0.000    0.000 
#
# Total GULP energy -89474.919820 kJ/mol
# GULP energy per Si atom -5592.182489 kJ/mol
# Density = 2.427422 g / cm^3
# Si number density = 24.329592 Si / 1000 Ang^3
#
#
#
# Elastic Constant Matrix: (Units=GPa)
#
#
# Indices 1 2 3 4 5 6 
#
# 1 74.3865 14.3454 19.2477 -4.0231 -9.1931 -9.1983
# 2 14.3454 37.7015 15.6183 -12.4350 0.6113 9.6886
# 3 19.2477 15.6183 148.5607 20.1926 -7.8180 0.0546
# 4 -4.0231 -12.4350 20.1926 46.7541 7.3644 2.0905
# 5 -9.1931 0.6113 -7.8180 7.3644 45.3724 -7.6661
# 6 -9.1983 9.6886 0.0546 2.0905 -7.6661 27.1331
#
#
#
# Elastic Compliance Matrix: (Units=1/GPa)
#
#
# Indices 1 2 3 4 5 6 
#
# 1 0.017611 -0.010343 -0.000552 -0.002452 0.005960 0.011537
# 2 -0.010343 0.044597 -0.006101 0.016297 -0.010382 -0.023607
# 3 -0.000552 -0.006101 0.008400 -0.005904 0.002926 0.003256
# 4 -0.002452 0.016297 -0.005904 0.029909 -0.008505 -0.011346
# 5 0.005960 -0.010382 0.002926 -0.008505 0.027670 0.014195
# 6 0.011537 -0.023607 0.003256 -0.011346 0.014195 0.054074
#
#
# Mechanical properties :
#
#
# Convention : Reuss Voigt Hill
#
# Bulk Modulus (GPa) = 27.31005 39.89684 33.60344
# Shear Modulus (GPa) = 21.88574 37.94772 29.91673
#
# Velocity S-wave (km/s) = 3.00251 3.95363 3.51043
# Velocity P-wave (km/s) = 4.82384 6.10538 5.50205
#
# Compressibility (1/GPa) = 0.03661656
#
# Stress axis : x y z
#
# Youngs Moduli (GPa) = 56.78188 22.42284 119.05433
#
# Poissons Ratio (x) = 0.23191 0.06569
# Poissons Ratio (y) = 0.58728 0.72640
# Poissons Ratio (z) = 0.03133 0.13681
#
# Static dielectric constant tensor:
#      x y z
#    x 1.950790 -0.060450 0.010560 
#    y -0.060450 2.024910 -0.031670 
#    z 0.010560 -0.031670 2.022050 
# 
# From -- ./inp_files/135710.got.cif
#   From: 2010.05.17/outbox.cif.g08.bks.cpg/sg2_68_cif.got.tgz:135710.got - 2010.06.03 11:33:40.
