data_PCOD9017422
_publ_section_title
;
Structure prediction by ZEFSAII (Michael W. Deem and Ramdas Pophale) SiO2 
 PCOD9017422
Probable space group: P -1
;
_chemical_formula_sum "Si O2"
_cell_formula_units_Z 14
_cell_length_a 12.524105
_cell_length_b 9.363118
_cell_length_c 14.192964
_cell_angle_alpha 82.045099
_cell_angle_beta 29.484085
_cell_angle_gamma 101.876195
_cell_volume 602.737659
_symmetry_space_group_name_H-M "P -1"
_symmetry_group_IT_number 2
_symmetry_cell_setting 'triclinic'
loop_
_space_group_symop_operation_xyz
x,y,z
-x,-y,-z
loop_
_atom_site_type_symbol
_atom_site_label
_atom_site_fract_x
_atom_site_fract_y
_atom_site_fract_z
Si Si1 0.081373 0.977280 0.336562
Si Si2 0.326289 0.560089 0.490726
Si Si3 0.389450 0.254657 0.442391
Si Si4 0.379208 0.389862 0.002288
Si Si5 0.979914 0.621608 0.432795
Si Si6 0.014738 0.395450 0.127094
Si Si7 0.983062 0.901334 0.927326
O O1 0.803249 0.855485 0.493213
O O2 0.170879 0.848415 0.282950
O O3 0.000000 0.000000 0.500000
O O4 0.300990 0.189048 0.101979
O O5 0.359009 0.403554 0.494242
O O6 0.042841 0.443893 0.650006
O O7 0.630031 0.750222 0.193410
O O8 0.245837 0.617656 0.638402
O O9 0.723036 0.394972 0.138819
O O10 0.219181 0.075952 0.660731
O O11 0.500000 0.500000 0.000000
O O12 0.652274 0.528991 0.712268
O O13 0.125865 0.358628 0.140612
O O14 0.000000 0.500000 0.500000
O O15 0.946887 0.237693 0.119839
O O16 0.000000 0.000000 0.000000
#
# Coordination Sequence:
#
# PCOD9017422 Si02
#       7
#     2   2   2   2   2   2   2
#     4  11  20  35  60  88 122 175 214 251 322 382
#     4  10  23  41  62  97 129 165 216 268 322 385
#     4  10  21  43  62  94 129 166 216 265 327 385
#     4  12  20  37  60  88 130 173 215 260 317 382
#     4  11  22  37  57  90 130 167 217 268 315 380
#     4  11  22  41  67  91 128 171 208 270 322 380
#     4  11  24  45  69  92 128 171 214 272 329 382
#
# _framework density 23.227350999999999
#
# number of rings (size 3 to 8) (size 9 to 14) (size 15 to 20)
#    0.000    1.143    7.143    0.857    0.000    4.571 
#    0.000    4.286    0.000    0.000    0.000    0.000 
#    0.000    0.000    0.000    0.000    0.000    0.000 
#
# Total GULP energy -78099.590757 kJ/mol
# GULP energy per Si atom -5578.542197 kJ/mol
# Density = 2.317448 g / cm^3
# Si number density = 23.227351 Si / 1000 Ang^3
#
#
#
# Elastic Constant Matrix: (Units=GPa)
#
#
# Indices 1 2 3 4 5 6 
#
# 1 61.3917 45.2701 18.3667 -14.2189 4.6880 6.1422
# 2 45.2701 160.0850 67.0268 -16.8725 6.0076 16.8087
# 3 18.3667 67.0268 143.0140 -25.5070 23.3949 -8.9661
# 4 -14.2189 -16.8725 -25.5070 56.1362 -6.0619 11.6266
# 5 4.6880 6.0076 23.3949 -6.0619 26.3784 -1.0799
# 6 6.1422 16.8087 -8.9661 11.6266 -1.0799 41.7865
#
#
#
# Elastic Compliance Matrix: (Units=1/GPa)
#
#
# Indices 1 2 3 4 5 6 
#
# 1 0.021640 -0.005785 0.000991 0.004318 -0.002493 -0.001907
# 2 -0.005785 0.010277 -0.004685 0.000714 0.002826 -0.004415
# 3 0.000991 -0.004685 0.011018 0.002287 -0.008222 0.003254
# 4 0.004318 0.000714 0.002287 0.021681 0.001761 -0.006418
# 5 -0.002493 0.002826 -0.008222 0.001761 0.045330 -0.001853
# 6 -0.001907 -0.004415 0.003254 -0.006418 -0.001853 0.028423
#
#
# Mechanical properties :
#
#
# Convention : Reuss Voigt Hill
#
# Bulk Modulus (GPa) = 41.71036 69.53531 55.62283
# Shear Modulus (GPa) = 30.24415 40.44870 35.34643
#
# Velocity S-wave (km/s) = 3.61237 4.17757 3.90520
# Velocity P-wave (km/s) = 5.94940 7.29871 6.65832
#
# Compressibility (1/GPa) = 0.02397486
#
# Stress axis : x y z
#
# Youngs Moduli (GPa) = 46.21096 97.30278 90.76106
#
# Poissons Ratio (x) = 0.56293 -0.08992
# Poissons Ratio (y) = 0.26735 0.42525
# Poissons Ratio (z) = -0.04578 0.45590
#
# Static dielectric constant tensor:
#      x y z
#    x 2.162770 0.101670 -0.043090 
#    y 0.101670 1.962170 -0.012670 
#    z -0.043090 -0.012670 1.861470 
# 
# From -- ./inp_files/315098.got.cif
#   From: 2010.05.17/outbox.cif.g08.bks.cpg/sg2_158_cif.got.tgz:315098.got - 2010.06.03 11:33:40.
