data_PCOD9017827
_publ_section_title
;
Structure prediction by ZEFSAII (Michael W. Deem and Ramdas Pophale) SiO2 
 PCOD9017827
Probable space group: P -1
;
_chemical_formula_sum "Si O2"
_cell_formula_units_Z 16
_cell_length_a 11.905159
_cell_length_b 5.051624
_cell_length_c 25.257611
_cell_angle_alpha 101.811942
_cell_angle_beta 149.281672
_cell_angle_gamma 68.123530
_cell_volume 698.309329
_symmetry_space_group_name_H-M "P -1"
_symmetry_group_IT_number 2
_symmetry_cell_setting 'triclinic'
loop_
_space_group_symop_operation_xyz
x,y,z
-x,-y,-z
loop_
_atom_site_type_symbol
_atom_site_label
_atom_site_fract_x
_atom_site_fract_y
_atom_site_fract_z
Si Si1 0.956611 0.849705 0.290331
Si Si2 0.358401 0.242175 0.681213
Si Si3 0.979856 0.833220 0.171872
Si Si4 0.698699 0.432010 0.032218
Si Si5 0.164990 0.591071 0.510263
Si Si6 0.593337 0.746165 0.682588
Si Si7 0.385705 0.985294 0.509387
Si Si8 0.644431 0.523608 0.198299
O O1 0.764934 0.174197 0.239137
O O2 0.978428 0.849256 0.235540
O O3 0.843693 0.625938 0.256825
O O4 0.206468 0.823148 0.416423
O O5 0.254045 0.476623 0.601046
O O6 0.432715 0.345253 0.769544
O O7 0.113429 0.205590 0.596533
O O8 0.568812 0.969397 0.728750
O O9 0.783649 0.699082 0.072463
O O10 0.231834 0.581738 0.247717
O O11 0.914776 0.139938 0.128371
O O12 0.500000 0.500000 0.000000
O O13 0.576850 0.387731 0.927724
O O14 0.323243 0.769167 0.567440
O O15 0.236609 0.303115 0.489834
O O16 0.616527 0.838189 0.635788
O O17 0.500000 0.000000 0.500000
#
# Coordination Sequence:
#
# PCOD9017827 Si02
#       8
#     2   2   2   2   2   2   2   2
#     4  12  24  41  69 104 136 177 220 282 347 406
#     4  10  23  41  68  99 130 190 229 277 327 405
#     4  12  26  44  72 100 141 177 224 281 357 410
#     4  12  24  47  70 103 131 177 230 290 350 404
#     4  10  21  43  66  96 138 183 232 269 329 412
#     4  11  26  42  66  96 146 186 220 279 339 409
#     4  11  25  38  64 104 144 178 220 272 344 417
#     4  12  25  43  73 100 134 170 237 294 331 399
#
# _framework density 22.912481
#
# number of rings (size 3 to 8) (size 9 to 14) (size 15 to 20)
#    0.000    0.750    3.750    3.000    8.750    1.000 
#    0.000    1.250    0.000    0.000    0.000    0.000 
#    0.000    0.000    0.000    0.000    0.000    0.000 
#
# Total GULP energy -89552.294083 kJ/mol
# GULP energy per Si atom -5597.018380 kJ/mol
# Density = 2.286033 g / cm^3
# Si number density = 22.912481 Si / 1000 Ang^3
#
#
#
# Elastic Constant Matrix: (Units=GPa)
#
#
# Indices 1 2 3 4 5 6 
#
# 1 58.4095 5.6873 30.9670 15.8767 -19.5590 -24.9436
# 2 5.6873 65.3401 22.2869 0.2890 -12.8089 -19.3696
# 3 30.9670 22.2869 114.2735 12.7774 -30.7399 -27.7605
# 4 15.8767 0.2890 12.7774 47.6989 -4.9789 -1.7147
# 5 -19.5590 -12.8089 -30.7399 -4.9789 40.2453 15.6683
# 6 -24.9436 -19.3696 -27.7605 -1.7147 15.6683 39.6347
#
#
#
# Elastic Compliance Matrix: (Units=1/GPa)
#
#
# Indices 1 2 3 4 5 6 
#
# 1 0.028964 0.004246 -0.002173 -0.007823 0.006642 0.015817
# 2 0.004246 0.018928 -0.001656 -0.000422 0.003058 0.009535
# 3 -0.002173 -0.001656 0.012515 -0.001829 0.006164 0.004073
# 4 -0.007823 -0.000422 -0.001829 0.023837 -0.000343 -0.005244
# 5 0.006642 0.003058 0.006164 -0.000343 0.035257 -0.003960
# 6 0.015817 0.009535 0.004073 -0.005244 -0.003960 0.044036
#
#
# Mechanical properties :
#
#
# Convention : Reuss Voigt Hill
#
# Bulk Modulus (GPa) = 16.32913 39.54507 27.93710
# Shear Modulus (GPa) = 27.30507 37.45457 32.37982
#
# Velocity S-wave (km/s) = 3.45586 4.04750 3.76333
# Velocity P-wave (km/s) = 4.80273 6.25617 5.57700
#
# Compressibility (1/GPa) = 0.06124027
#
# Stress axis : x y z
#
# Youngs Moduli (GPa) = 34.52515 52.83245 79.90523
#
# Poissons Ratio (x) = -0.22431 0.17366
# Poissons Ratio (y) = -0.14658 0.13230
# Poissons Ratio (z) = 0.07503 0.08748
#
# Static dielectric constant tensor:
#      x y z
#    x 2.016490 0.036900 -0.005700 
#    y 0.036900 1.867250 0.009780 
#    z -0.005700 0.009780 1.876220 
# 
# From -- ./inp_files/69592.got.cif
#   From: 2010.05.17/outbox.cif.g08.bks.cpg/sg2_35_cif.got.tgz:69592.got - 2010.06.03 11:33:40.
