data_PCOD9017068
_publ_section_title
;
Structure prediction by ZEFSAII (Michael W. Deem and Ramdas Pophale) SiO2 
 PCOD9017068
Probable space group: P -1
;
_chemical_formula_sum "Si O2"
_cell_formula_units_Z 15
_cell_length_a 24.814417
_cell_length_b 8.473796
_cell_length_c 14.836072
_cell_angle_alpha 139.601368
_cell_angle_beta 161.987583
_cell_angle_gamma 42.949024
_cell_volume 624.730586
_symmetry_space_group_name_H-M "P -1"
_symmetry_group_IT_number 2
_symmetry_cell_setting 'triclinic'
loop_
_space_group_symop_operation_xyz
x,y,z
-x,-y,-z
loop_
_atom_site_type_symbol
_atom_site_label
_atom_site_fract_x
_atom_site_fract_y
_atom_site_fract_z
Si Si1 0.820024 0.543745 0.646822
Si Si2 0.276098 0.860582 0.934163
Si Si3 0.870542 0.129149 0.778928
Si Si4 0.656974 0.305387 0.668711
Si Si5 0.124273 0.021979 0.464118
Si Si6 0.881722 0.711313 0.256299
Si Si7 0.500000 0.500000 0.000000
Si Si8 0.713151 0.971344 0.777968
O O1 0.829258 0.252611 0.546946
O O2 0.735268 0.686937 0.660694
O O3 0.691274 0.586352 0.377196
O O4 0.008458 0.656511 0.975325
O O5 0.402486 0.685612 0.000893
O O6 0.088283 0.738349 0.593565
O O7 0.216768 0.102699 0.888686
O O8 0.347960 0.937081 0.180695
O O9 0.698144 0.205410 0.592159
O O10 0.814242 0.964605 0.534330
O O11 0.000000 0.000000 0.000000
O O12 0.500000 0.500000 0.500000
O O13 0.635505 0.110966 0.628185
O O14 0.828918 0.446783 0.030215
O O15 0.183685 0.213205 0.715066
O O16 0.916153 0.042378 0.136282
#
# Coordination Sequence:
#
# PCOD9017068 Si02
#       8
#     2   2   2   2   2   2   1   2
#     4  11  23  41  70  99 130 167 221 271 321 385
#     4  10  23  42  70  96 127 170 217 274 322 374
#     4  11  22  44  69  93 128 178 220 258 320 392
#     4  12  27  43  63  96 138 175 211 265 327 389
#     4  10  21  42  71 100 121 170 226 269 315 384
#     4  10  23  45  66  96 130 173 217 259 327 392
#     4  12  24  40  66 102 134 160 214 278 330 366
#     4  10  23  43  63  99 129 175 219 260 325 388
#
# _framework density 24.010349000000001
#
# number of rings (size 3 to 8) (size 9 to 14) (size 15 to 20)
#    0.000    1.333    4.000    2.400    7.467    3.733 
#    2.400    0.667    0.000    0.000    0.000    0.000 
#    0.000    0.000    0.000    0.000    0.000    0.000 
#
# Total GULP energy -83634.137955 kJ/mol
# GULP energy per Si atom -5575.609197 kJ/mol
# Density = 2.395570 g / cm^3
# Si number density = 24.010349 Si / 1000 Ang^3
#
#
#
# Elastic Constant Matrix: (Units=GPa)
#
#
# Indices 1 2 3 4 5 6 
#
# 1 152.8208 55.8612 24.6292 -0.0561 -1.5749 -45.4201
# 2 55.8612 81.4286 -0.0762 -19.8669 8.3962 -21.4479
# 3 24.6292 -0.0762 59.2632 0.2173 -7.4561 -3.2131
# 4 -0.0561 -19.8669 0.2173 29.3579 -12.3697 3.9308
# 5 -1.5749 8.3962 -7.4561 -12.3697 35.2299 -2.5599
# 6 -45.4201 -21.4479 -3.2131 3.9308 -2.5599 34.2087
#
#
#
# Elastic Compliance Matrix: (Units=1/GPa)
#
#
# Indices 1 2 3 4 5 6 
#
# 1 0.014748 -0.007981 -0.005311 -0.007357 -0.000062 0.014919
# 2 -0.007981 0.021730 0.003440 0.014626 0.000452 0.001703
# 3 -0.005311 0.003440 0.019445 0.004458 0.004387 -0.003252
# 4 -0.007357 0.014626 0.004458 0.050714 0.014578 -0.004916
# 5 -0.000062 0.000452 0.004387 0.014578 0.034432 0.001515
# 6 0.014919 0.001703 -0.003252 -0.004916 0.001515 0.050482
#
#
# Mechanical properties :
#
#
# Convention : Reuss Voigt Hill
#
# Bulk Modulus (GPa) = 27.61028 50.48232 39.04630
# Shear Modulus (GPa) = 22.38884 33.96585 28.17735
#
# Velocity S-wave (km/s) = 3.05694 3.76524 3.42943
# Velocity P-wave (km/s) = 4.89736 6.32247 5.65499
#
# Compressibility (1/GPa) = 0.03621840
#
# Stress axis : x y z
#
# Youngs Moduli (GPa) = 67.80707 46.02001 51.42756
#
# Poissons Ratio (x) = 0.36729 0.27314
# Poissons Ratio (y) = 0.54118 -0.17693
# Poissons Ratio (z) = 0.36014 -0.15833
#
# Static dielectric constant tensor:
#      x y z
#    x 2.004450 0.029660 0.018500 
#    y 0.029660 1.924040 0.013340 
#    z 0.018500 0.013340 1.920610 
# 
# From -- ./inp_files/542627.got.cif
#   From: 2010.05.17/outbox.cif.g08.bks.cpg/sg2_272_cif.got.tgz:542627.got - 2010.06.03 11:33:40.
