data_PCOD9017833
_publ_section_title
;
Structure prediction by ZEFSAII (Michael W. Deem and Ramdas Pophale) SiO2 
 PCOD9017833
Probable space group: P -1
;
_chemical_formula_sum "Si O2"
_cell_formula_units_Z 16
_cell_length_a 16.795379
_cell_length_b 9.710752
_cell_length_c 19.037712
_cell_angle_alpha 141.905980
_cell_angle_beta 155.840544
_cell_angle_gamma 37.942659
_cell_volume 752.788114
_symmetry_space_group_name_H-M "P -1"
_symmetry_group_IT_number 2
_symmetry_cell_setting 'triclinic'
loop_
_space_group_symop_operation_xyz
x,y,z
-x,-y,-z
loop_
_atom_site_type_symbol
_atom_site_label
_atom_site_fract_x
_atom_site_fract_y
_atom_site_fract_z
Si Si1 0.931587 0.803355 0.408495
Si Si2 0.493170 0.977509 0.901654
Si Si3 0.226594 0.058100 0.512696
Si Si4 0.572744 0.431986 0.736126
Si Si5 0.668781 0.407621 0.655992
Si Si6 0.953676 0.060232 0.906235
Si Si7 0.314741 0.092423 0.112845
Si Si8 0.779495 0.701006 0.539209
O O1 0.908987 0.867070 0.498052
O O2 0.076863 0.545147 0.417308
O O3 0.708487 0.832383 0.209902
O O4 0.000000 0.000000 0.500000
O O5 0.489105 0.709700 0.781630
O O6 0.658512 0.993412 0.981429
O O7 0.500000 0.000000 0.000000
O O8 0.190508 0.244616 0.496168
O O9 0.188902 0.828601 0.354643
O O10 0.460700 0.992354 0.703842
O O11 0.551078 0.355028 0.608129
O O12 0.811845 0.326074 0.898110
O O13 0.447141 0.316976 0.640381
O O14 0.500000 0.500000 0.500000
O O15 0.750810 0.625393 0.827577
O O16 0.826246 0.899763 0.704673
O O17 0.151569 0.022990 0.002050
O O18 0.000000 0.000000 0.000000
#
# Coordination Sequence:
#
# PCOD9017833 Si02
#       8
#     2   2   2   2   2   2   2   2
#     4  11  24  44  67  97 127 171 232 266 314 395
#     4  10  23  45  68  96 130 173 216 274 328 381
#     4  10  21  43  66  97 129 173 217 269 332 382
#     4  11  23  44  64  96 130 170 222 262 327 394
#     4   9  19  36  69  91 123 166 213 266 323 375
#     4  12  27  40  63 100 134 172 213 270 338 389
#     4   9  22  43  64  98 135 167 221 268 325 397
#     4  12  25  43  68  94 136 173 218 272 326 392
#
# _framework density 21.254321999999998
#
# number of rings (size 3 to 8) (size 9 to 14) (size 15 to 20)
#    0.000    1.500    2.500    2.250    5.250    3.000 
#    2.250    1.250    0.000    0.000    0.000    0.000 
#    0.000    0.000    0.000    0.000    0.000    0.000 
#
# Total GULP energy -89269.595190 kJ/mol
# GULP energy per Si atom -5579.349699 kJ/mol
# Density = 2.120595 g / cm^3
# Si number density = 21.254322 Si / 1000 Ang^3
#
#
#
# Elastic Constant Matrix: (Units=GPa)
#
#
# Indices 1 2 3 4 5 6 
#
# 1 166.7405 20.3664 31.3853 -7.3181 -14.5480 18.1136
# 2 20.3664 102.0383 12.0044 -10.6710 -5.3672 7.9907
# 3 31.3853 12.0044 23.4224 -5.6223 -2.4053 -4.1782
# 4 -7.3181 -10.6710 -5.6223 24.5370 2.5051 -3.1149
# 5 -14.5480 -5.3672 -2.4053 2.5051 39.9683 -2.4454
# 6 18.1136 7.9907 -4.1782 -3.1149 -2.4454 39.2285
#
#
#
# Elastic Compliance Matrix: (Units=1/GPa)
#
#
# Indices 1 2 3 4 5 6 
#
# 1 0.009321 0.000191 -0.013672 -0.001237 0.002321 -0.005752
# 2 0.000191 0.010990 -0.005509 0.003155 0.000856 -0.002610
# 3 -0.013672 -0.005509 0.069258 0.011516 -0.001313 0.015644
# 4 -0.001237 0.003155 0.011516 0.045176 -0.001882 0.004625
# 5 0.002321 0.000856 -0.001313 -0.001882 0.026024 0.000087
# 6 -0.005752 -0.002610 0.015644 0.004625 0.000087 0.030718
#
#
# Mechanical properties :
#
#
# Convention : Reuss Voigt Hill
#
# Bulk Modulus (GPa) = 19.38404 46.63480 33.00942
# Shear Modulus (GPa) = 20.27067 35.97642 28.12355
#
# Velocity S-wave (km/s) = 3.09159 4.11866 3.64152
# Velocity P-wave (km/s) = 4.67800 6.67883 5.76587
#
# Compressibility (1/GPa) = 0.05158884
#
# Stress axis : x y z
#
# Youngs Moduli (GPa) = 107.28966 90.99553 14.43879
#
# Poissons Ratio (x) = -0.01741 0.19741
# Poissons Ratio (y) = -0.02053 0.07954
# Poissons Ratio (z) = 1.46687 0.50128
#
# Static dielectric constant tensor:
#      x y z
#    x 1.783890 -0.029160 0.027240 
#    y -0.029160 1.763200 -0.009990 
#    z 0.027240 -0.009990 1.791430 
# 
# From -- ./inp_files/243330.got.cif
#   From: 2010.05.17/outbox.cif.g08.bks.cpg/sg2_122_cif.got.tgz:243330.got - 2010.06.03 11:33:40.
