data_PCOD9017334
_publ_section_title
;
Structure prediction by ZEFSAII (Michael W. Deem and Ramdas Pophale) SiO2 
 PCOD9017334
Probable space group: P -1
;
_chemical_formula_sum "Si O2"
_cell_formula_units_Z 13
_cell_length_a 21.292705
_cell_length_b 5.175618
_cell_length_c 5.331648
_cell_angle_alpha 91.307143
_cell_angle_beta 82.633101
_cell_angle_gamma 127.617842
_cell_volume 460.415275
_symmetry_space_group_name_H-M "P -1"
_symmetry_group_IT_number 2
_symmetry_cell_setting 'triclinic'
loop_
_space_group_symop_operation_xyz
x,y,z
-x,-y,-z
loop_
_atom_site_type_symbol
_atom_site_label
_atom_site_fract_x
_atom_site_fract_y
_atom_site_fract_z
Si Si1 0.278748 0.686267 0.912823
Si Si2 0.500000 0.500000 0.500000
Si Si3 0.226333 0.059715 0.671327
Si Si4 0.954177 0.714241 0.805979
Si Si5 0.646405 0.785541 0.758240
Si Si6 0.906099 0.086582 0.648853
Si Si7 0.431315 0.776457 0.825647
O O1 0.233882 0.309506 0.871497
O O2 0.374520 0.879965 0.787240
O O3 0.233050 0.795798 0.787139
O O4 0.294465 0.833592 0.184645
O O5 0.563486 0.691057 0.704223
O O6 0.462794 0.691680 0.577131
O O7 0.305094 0.265241 0.461813
O O8 0.153976 0.936431 0.517898
O O9 0.920180 0.340212 0.863639
O O10 0.014750 0.788951 0.551887
O O11 0.887167 0.751738 0.751859
O O12 0.000000 0.000000 0.000000
O O13 0.627559 0.568222 0.005859
O O14 0.500000 0.000000 0.000000
#
# Coordination Sequence:
#
# PCOD9017334 Si02
#       7
#     2   1   2   2   2   2   2
#     4  12  26  47  67 100 136 181 228 285 347 421
#     4  12  24  44  68  90 128 174 224 298 346 396
#     4  12  28  46  71 100 148 181 223 286 348 406
#     4  10  21  42  74 104 141 178 230 272 324 394
#     4  12  27  44  69 101 132 180 234 289 354 420
#     4  10  23  43  68 107 139 182 226 272 330 405
#     4  12  27  45  71  97 130 175 240 292 350 413
#
# _framework density 28.235379999999999
#
# number of rings (size 3 to 8) (size 9 to 14) (size 15 to 20)
#    0.000    0.615    4.615    1.846    4.308    4.308 
#    0.000    0.000    0.000    0.000    0.000    0.000 
#    0.000    0.000    0.000    0.000    0.000    0.000 
#
# Total GULP energy -72632.208489 kJ/mol
# GULP energy per Si atom -5587.092961 kJ/mol
# Density = 2.817112 g / cm^3
# Si number density = 28.235380 Si / 1000 Ang^3
#
#
#
# Elastic Constant Matrix: (Units=GPa)
#
#
# Indices 1 2 3 4 5 6 
#
# 1 240.2377 61.8928 45.3458 26.0015 19.5279 -35.7112
# 2 61.8928 141.5870 48.4343 30.6744 1.2093 -37.2293
# 3 45.3458 48.4343 79.2937 40.7207 -3.6769 -17.8273
# 4 26.0015 30.6744 40.7207 54.1951 -0.6613 4.4037
# 5 19.5279 1.2093 -3.6769 -0.6613 67.8528 7.8812
# 6 -35.7112 -37.2293 -17.8273 4.4037 7.8812 48.8159
#
#
#
# Elastic Compliance Matrix: (Units=1/GPa)
#
#
# Indices 1 2 3 4 5 6 
#
# 1 0.005420 -0.000678 -0.001125 -0.001682 -0.002034 0.003517
# 2 -0.000678 0.011314 -0.002143 -0.005132 -0.001101 0.007991
# 3 -0.001125 -0.002143 0.026029 -0.018498 0.000591 0.008622
# 4 -0.001682 -0.005132 -0.018498 0.037347 0.001743 -0.015550
# 5 -0.002034 -0.001101 0.000591 0.001743 0.015954 -0.004845
# 6 0.003517 0.007991 0.008622 -0.015550 -0.004845 0.034486
#
#
# Mechanical properties :
#
#
# Convention : Reuss Voigt Hill
#
# Bulk Modulus (GPa) = 28.67637 85.82934 57.25286
# Shear Modulus (GPa) = 33.31867 54.53582 43.92724
#
# Velocity S-wave (km/s) = 3.43889 4.39962 3.94858
# Velocity P-wave (km/s) = 5.09374 7.50151 6.41166
#
# Compressibility (1/GPa) = 0.03487191
#
# Stress axis : x y z
#
# Youngs Moduli (GPa) = 184.51348 88.38273 38.41847
#
# Poissons Ratio (x) = 0.05990 0.04324
# Poissons Ratio (y) = 0.12505 0.08231
# Poissons Ratio (z) = 0.20765 0.18936
#
# Static dielectric constant tensor:
#      x y z
#    x 2.158910 0.047630 -0.016290 
#    y 0.047630 2.459150 -0.195010 
#    z -0.016290 -0.195010 2.210330 
# 
# From -- ./inp_files/6606.got.cif
#   From: 2010.05.17/outbox.cif.g08.bks.cpg/sg2_4_cif.got.tgz:6606.got - 2010.06.03 11:33:40.
