data_PCOD9017466
_publ_section_title
;
Structure prediction by ZEFSAII (Michael W. Deem and Ramdas Pophale) SiO2 
 PCOD9017466
Probable space group: P -1
;
_chemical_formula_sum "Si O2"
_cell_formula_units_Z 16
_cell_length_a 13.554488
_cell_length_b 9.269837
_cell_length_c 22.596840
_cell_angle_alpha 40.791943
_cell_angle_beta 31.447618
_cell_angle_gamma 26.843852
_cell_volume 668.789880
_symmetry_space_group_name_H-M "P -1"
_symmetry_group_IT_number 2
_symmetry_cell_setting 'triclinic'
loop_
_space_group_symop_operation_xyz
x,y,z
-x,-y,-z
loop_
_atom_site_type_symbol
_atom_site_label
_atom_site_fract_x
_atom_site_fract_y
_atom_site_fract_z
Si Si1 0.353432 0.664304 0.175758
Si Si2 0.559801 0.205891 0.391955
Si Si3 0.924632 0.400484 0.744895
Si Si4 0.872451 0.091304 0.376952
Si Si5 0.250978 0.119107 0.994605
Si Si6 0.967920 0.208270 0.002303
Si Si7 0.120354 0.353874 0.182806
Si Si8 0.985892 0.814333 0.518190
O O1 0.332383 0.502910 0.183968
O O2 0.134430 0.785476 0.299626
O O3 0.256330 0.970820 0.097649
O O4 0.658641 0.436967 0.113171
O O5 0.272258 0.556939 0.415778
O O6 0.643000 0.261454 0.391974
O O7 0.500000 0.000000 0.500000
O O8 0.813949 0.973557 0.289551
O O9 0.921796 0.453553 0.798811
O O10 0.943229 0.621993 0.633792
O O11 0.951826 0.271266 0.299160
O O12 0.785467 0.032714 0.498359
O O13 0.000000 0.500000 0.000000
O O14 0.189275 0.018907 0.999908
O O15 0.553134 0.968285 0.883894
O O16 0.965953 0.441407 0.895306
O O17 0.000000 0.000000 0.000000
O O18 0.000000 0.000000 0.500000
#
# Coordination Sequence:
#
# PCOD9017466 Si02
#       8
#     2   2   2   2   2   2   2   2
#     4  10  23  41  62  93 130 166 220 267 315 388
#     4   9  23  43  65  90 127 169 214 264 321 379
#     4  10  21  43  63  92 133 169 210 274 317 373
#     4  11  23  41  67  94 128 169 215 265 323 379
#     4  11  23  41  64  93 133 170 212 268 325 381
#     4  11  23  40  63  92 125 173 214 259 326 386
#     4  11  23  40  63  97 132 165 218 271 315 381
#     4  11  23  44  66  95 129 167 215 267 323 381
#
# _framework density 23.923807
#
# number of rings (size 3 to 8) (size 9 to 14) (size 15 to 20)
#    0.000    1.500    1.250    3.000    0.000   15.000 
#    2.250    1.250    0.000    0.000    0.000    0.000 
#    0.000    0.000    0.000    0.000    0.000    0.000 
#
# Total GULP energy -89491.357344 kJ/mol
# GULP energy per Si atom -5593.209834 kJ/mol
# Density = 2.386936 g / cm^3
# Si number density = 23.923807 Si / 1000 Ang^3
#
#
#
# Elastic Constant Matrix: (Units=GPa)
#
#
# Indices 1 2 3 4 5 6 
#
# 1 119.7522 17.1757 15.2994 -12.7770 4.5346 4.5275
# 2 17.1757 71.5773 12.1374 -4.9437 2.3275 4.9227
# 3 15.2994 12.1374 51.3611 -9.2951 4.1566 -13.6375
# 4 -12.7770 -4.9437 -9.2951 23.7909 -0.5201 4.1422
# 5 4.5346 2.3275 4.1566 -0.5201 37.1503 -3.5534
# 6 4.5275 4.9227 -13.6375 4.1422 -3.5534 45.0433
#
#
#
# Elastic Compliance Matrix: (Units=1/GPa)
#
#
# Indices 1 2 3 4 5 6 
#
# 1 0.009385 -0.001441 -0.002116 0.004222 -0.000940 -0.001889
# 2 -0.001441 0.015240 -0.003600 0.001459 -0.000623 -0.002794
# 3 -0.002116 -0.003600 0.024115 0.006249 -0.001436 0.007219
# 4 0.004222 0.001459 0.006249 0.047571 -0.000940 -0.003141
# 5 -0.000940 -0.000623 -0.001436 -0.000940 0.027408 0.001976
# 6 -0.001889 -0.002794 0.007219 -0.003141 0.001976 0.025327
#
#
# Mechanical properties :
#
#
# Convention : Reuss Voigt Hill
#
# Bulk Modulus (GPa) = 29.04753 36.87952 32.96353
# Shear Modulus (GPa) = 28.59820 34.40212 31.50016
#
# Velocity S-wave (km/s) = 3.46119 3.79619 3.63255
# Velocity P-wave (km/s) = 5.30482 5.88758 5.60378
#
# Compressibility (1/GPa) = 0.03442633
#
# Stress axis : x y z
#
# Youngs Moduli (GPa) = 106.55087 65.61555 41.46784
#
# Poissons Ratio (x) = 0.09456 0.08777
# Poissons Ratio (y) = 0.15355 0.14927
# Poissons Ratio (z) = 0.22551 0.23619
#
# Static dielectric constant tensor:
#      x y z
#    x 1.899730 0.035480 -0.001810 
#    y 0.035480 1.925470 0.021000 
#    z -0.001810 0.021000 1.899100 
# 
# From -- ./inp_files/37870.got.cif
#   From: 2010.05.17/outbox.cif.g08.bks.cpg/sg2_19_cif.got.tgz:37870.got - 2010.06.03 11:33:40.
