data_PCOD9017341
_publ_section_title
;
Structure prediction by ZEFSAII (Michael W. Deem and Ramdas Pophale) SiO2 
 PCOD9017341
Probable space group: P -1
;
_chemical_formula_sum "Si O2"
_cell_formula_units_Z 14
_cell_length_a 5.017535
_cell_length_b 21.375243
_cell_length_c 7.787117
_cell_angle_alpha 46.360994
_cell_angle_beta 117.858289
_cell_angle_gamma 107.911514
_cell_volume 534.224904
_symmetry_space_group_name_H-M "P -1"
_symmetry_group_IT_number 2
_symmetry_cell_setting 'triclinic'
loop_
_space_group_symop_operation_xyz
x,y,z
-x,-y,-z
loop_
_atom_site_type_symbol
_atom_site_label
_atom_site_fract_x
_atom_site_fract_y
_atom_site_fract_z
Si Si1 0.997238 0.398728 0.159906
Si Si2 0.298298 0.082203 0.345899
Si Si3 0.845499 0.376858 0.538437
Si Si4 0.788780 0.164583 0.513019
Si Si5 0.411150 0.263393 0.495121
Si Si6 0.595247 0.553125 0.257146
Si Si7 0.155657 0.006847 0.817795
O O1 0.981352 0.362153 0.417335
O O2 0.280939 0.358699 0.220059
O O3 0.687288 0.386674 0.990990
O O4 0.000000 0.500000 0.000000
O O5 0.537221 0.158481 0.296691
O O6 0.182567 0.061389 0.542400
O O7 0.500000 0.000000 0.500000
O O8 0.014708 0.079473 0.135621
O O9 0.625853 0.296496 0.651013
O O10 0.682359 0.472003 0.314515
O O11 0.116900 0.390084 0.725033
O O12 0.604066 0.203790 0.541144
O O13 0.092691 0.217780 0.498320
O O14 0.929898 0.067037 0.750302
O O15 0.500000 0.500000 0.500000
O O16 0.500000 0.000000 0.000000
#
# Coordination Sequence:
#
# PCOD9017341 Si02
#       7
#     2   2   2   2   2   2   2
#     4  12  23  41  69  95 124 178 230 278 335 405
#     4   9  20  40  71  98 141 171 222 267 325 389
#     4  11  23  40  67  93 133 167 224 283 346 389
#     4  11  23  43  67  99 140 181 215 275 341 394
#     4  12  24  42  68  94 139 181 220 278 348 391
#     4  11  23  40  64  97 124 163 229 290 333 396
#     4  10  21  42  74 107 133 177 228 266 324 400
#
# _framework density 26.206188999999998
#
# number of rings (size 3 to 8) (size 9 to 14) (size 15 to 20)
#    0.000    1.143    5.714    0.429    0.000    2.286 
#    0.000    2.857    0.000    0.000    0.000    0.000 
#    0.000    0.000    0.000    0.000    0.000    0.000 
#
# Total GULP energy -78205.202985 kJ/mol
# GULP energy per Si atom -5586.085927 kJ/mol
# Density = 2.614654 g / cm^3
# Si number density = 26.206189 Si / 1000 Ang^3
#
#
#
# Elastic Constant Matrix: (Units=GPa)
#
#
# Indices 1 2 3 4 5 6 
#
# 1 160.9784 71.8756 36.0613 14.9218 44.0797 -2.9772
# 2 71.8756 219.3985 51.1292 39.7364 38.5187 32.3737
# 3 36.0613 51.1292 81.8673 27.9682 34.0737 -5.6871
# 4 14.9218 39.7364 27.9682 44.2735 13.5789 27.6852
# 5 44.0797 38.5187 34.0737 13.5789 45.4456 4.9997
# 6 -2.9772 32.3737 -5.6871 27.6852 4.9997 74.2513
#
#
#
# Elastic Compliance Matrix: (Units=1/GPa)
#
#
# Indices 1 2 3 4 5 6 
#
# 1 0.009174 -0.002007 0.000907 -0.000782 -0.007879 0.002134
# 2 -0.002007 0.006656 -0.002245 -0.002095 -0.001133 -0.002297
# 3 0.000907 -0.002245 0.025362 -0.016156 -0.014259 0.009942
# 4 -0.000782 -0.002095 -0.016156 0.044754 0.003174 -0.017256
# 5 -0.007879 -0.001133 -0.014259 0.003174 0.040882 -0.004850
# 6 0.002134 -0.002297 0.009942 -0.017256 -0.004850 0.022077
#
#
# Mechanical properties :
#
#
# Convention : Reuss Voigt Hill
#
# Bulk Modulus (GPa) = 28.98406 86.70848 57.84627
# Shear Modulus (GPa) = 29.92287 53.00595 41.46441
#
# Velocity S-wave (km/s) = 3.38276 4.50227 3.98205
# Velocity P-wave (km/s) = 5.13239 7.75797 6.57752
#
# Compressibility (1/GPa) = 0.03450172
#
# Stress axis : x y z
#
# Youngs Moduli (GPa) = 109.00066 150.24289 39.42894
#
# Poissons Ratio (x) = 0.30153 -0.03575
# Poissons Ratio (y) = 0.21876 0.08852
# Poissons Ratio (z) = -0.09884 0.33731
#
# Static dielectric constant tensor:
#      x y z
#    x 2.202340 0.085260 -0.061050 
#    y 0.085260 2.122380 -0.014570 
#    z -0.061050 -0.014570 2.202320 
# 
# From -- ./inp_files/141316.got.cif
#   From: 2010.05.17/outbox.cif.g08.bks.cpg/sg2_71_cif.got.tgz:141316.got - 2010.06.03 11:33:40.
