data_PCOD9017245
_publ_section_title
;
Structure prediction by ZEFSAII (Michael W. Deem and Ramdas Pophale) SiO2 
 PCOD9017245
Probable space group: P -1
;
_chemical_formula_sum "Si O2"
_cell_formula_units_Z 12
_cell_length_a 5.065969
_cell_length_b 18.719595
_cell_length_c 5.345742
_cell_angle_alpha 95.213374
_cell_angle_beta 88.626539
_cell_angle_gamma 58.646890
_cell_volume 429.618886
_symmetry_space_group_name_H-M "P -1"
_symmetry_group_IT_number 2
_symmetry_cell_setting 'triclinic'
loop_
_space_group_symop_operation_xyz
x,y,z
-x,-y,-z
loop_
_atom_site_type_symbol
_atom_site_label
_atom_site_fract_x
_atom_site_fract_y
_atom_site_fract_z
Si Si1 0.969002 0.785711 0.146009
Si Si2 0.390892 0.396793 0.568120
Si Si3 0.103480 0.046810 0.821894
Si Si4 0.561460 0.737888 0.866215
Si Si5 0.557458 0.122458 0.446265
Si Si6 0.769354 0.454351 0.771596
O O1 0.862916 0.732653 0.970209
O O2 0.335066 0.743003 0.092851
O O3 0.831954 0.881301 0.072157
O O4 0.782479 0.811487 0.417077
O O5 0.392601 0.330327 0.359243
O O6 0.716873 0.380279 0.656112
O O7 0.294837 0.478671 0.423707
O O8 0.132172 0.418689 0.795796
O O9 0.824346 0.094214 0.640869
O O10 0.399400 0.964854 0.670409
O O11 0.000000 0.000000 0.000000
O O12 0.390596 0.827050 0.754807
O O13 0.500000 0.500000 0.000000
#
# Coordination Sequence:
#
# PCOD9017245 Si02
#       6
#     2   2   2   2   2   2
#     4  12  25  45  63  97 128 176 219 275 329 392
#     4  10  23  42  65 102 132 170 211 268 311 389
#     4  11  23  47  67  93 128 174 230 280 322 393
#     4  12  27  43  67  97 141 167 218 272 334 387
#     4  11  25  42  69  93 129 176 224 278 332 387
#     4  10  21  42  72  97 131 171 218 252 319 384
#
# _framework density 27.931735
#
# number of rings (size 3 to 8) (size 9 to 14) (size 15 to 20)
#    0.000    1.000    3.333    2.000    2.333    5.333 
#    0.000    0.000    0.000    0.000    0.000    0.000 
#    0.000    0.000    0.000    0.000    0.000    0.000 
#
# Total GULP energy -67232.506165 kJ/mol
# GULP energy per Si atom -5602.708847 kJ/mol
# Density = 2.786816 g / cm^3
# Si number density = 27.931735 Si / 1000 Ang^3
#
#
#
# Elastic Constant Matrix: (Units=GPa)
#
#
# Indices 1 2 3 4 5 6 
#
# 1 163.4457 52.7400 42.7614 8.9100 -14.1925 14.4230
# 2 52.7400 128.2852 17.5407 9.7725 -4.2564 28.0023
# 3 42.7614 17.5407 72.1564 10.6582 -35.9214 8.1530
# 4 8.9100 9.7725 10.6582 70.3579 -3.3344 8.8777
# 5 -14.1925 -4.2564 -35.9214 -3.3344 53.9677 -2.8094
# 6 14.4230 28.0023 8.1530 8.8777 -2.8094 61.6804
#
#
#
# Elastic Compliance Matrix: (Units=1/GPa)
#
#
# Indices 1 2 3 4 5 6 
#
# 1 0.008145 -0.002716 -0.004787 0.000024 -0.001263 -0.000100
# 2 -0.002716 0.009815 -0.000548 -0.000494 -0.000528 -0.003701
# 3 -0.004787 -0.000548 0.024708 -0.002239 0.014959 -0.000894
# 4 0.000024 -0.000494 -0.002239 0.014793 -0.000695 -0.001646
# 5 -0.001263 -0.000528 0.014959 -0.000695 0.028066 -0.000064
# 6 -0.000100 -0.003701 -0.000894 -0.001646 -0.000064 0.018268
#
#
# Mechanical properties :
#
#
# Convention : Reuss Voigt Hill
#
# Bulk Modulus (GPa) = 37.64438 65.55238 51.59838
# Shear Modulus (GPa) = 38.83433 53.92422 46.37927
#
# Velocity S-wave (km/s) = 3.73276 4.39859 4.07928
# Velocity P-wave (km/s) = 5.66432 7.02258 6.37970
#
# Compressibility (1/GPa) = 0.02656439
#
# Stress axis : x y z
#
# Youngs Moduli (GPa) = 122.77525 101.88872 40.47332
#
# Poissons Ratio (x) = 0.27671 0.19376
# Poissons Ratio (y) = 0.33344 0.02219
# Poissons Ratio (z) = 0.58778 0.05585
#
# Static dielectric constant tensor:
#      x y z
#    x 2.153560 -0.059000 0.012640 
#    y -0.059000 2.179950 0.032360 
#    z 0.012640 0.032360 2.240030 
# 
# From -- ./inp_files/6456.got.cif
#   From: 2010.05.17/outbox.cif.g08.bks.cpg/sg2_4_cif.got.tgz:6456.got - 2010.06.03 11:33:40.
