data_PCOD9017009
_publ_section_title
;
Structure prediction by ZEFSAII (Michael W. Deem and Ramdas Pophale) SiO2 
 PCOD9017009
Probable space group: P -1
;
_chemical_formula_sum "Si O2"
_cell_formula_units_Z 14
_cell_length_a 15.770489
_cell_length_b 9.600709
_cell_length_c 11.956753
_cell_angle_alpha 83.502145
_cell_angle_beta 27.299759
_cell_angle_gamma 64.192156
_cell_volume 559.674701
_symmetry_space_group_name_H-M "P -1"
_symmetry_group_IT_number 2
_symmetry_cell_setting 'triclinic'
loop_
_space_group_symop_operation_xyz
x,y,z
-x,-y,-z
loop_
_atom_site_type_symbol
_atom_site_label
_atom_site_fract_x
_atom_site_fract_y
_atom_site_fract_z
Si Si1 0.530389 0.221055 0.482553
Si Si2 0.490371 0.914218 0.132149
Si Si3 0.528120 0.952059 0.620162
Si Si4 0.042917 0.944117 0.582398
Si Si5 0.132609 0.487298 0.131315
Si Si6 0.676687 0.323071 0.119887
Si Si7 0.109586 0.636903 0.651763
O O1 0.391343 0.222686 0.536774
O O2 0.327561 0.385448 0.801456
O O3 0.699677 0.251697 0.225394
O O4 0.675051 0.009665 0.393150
O O5 0.443404 0.043281 0.281101
O O6 0.268024 0.918164 0.374766
O O7 0.744640 0.677120 0.897988
O O8 0.500000 0.000000 0.000000
O O9 0.201251 0.161265 0.961973
O O10 0.128783 0.736608 0.519169
O O11 0.000000 0.000000 0.500000
O O12 0.770612 0.140609 0.949221
O O13 0.140766 0.646264 0.135421
O O14 0.886008 0.526535 0.376898
O O15 0.359439 0.532714 0.449060
#
# Coordination Sequence:
#
# PCOD9017009 Si02
#       7
#     2   2   2   2   2   2   2
#     4   9  19  38  69  97 140 180 221 273 336 402
#     4  10  21  42  70  95 134 176 226 282 335 399
#     4   9  19  40  68 102 133 184 227 269 336 405
#     4  12  25  45  69  97 134 184 228 281 344 403
#     4  10  23  44  66 105 140 174 233 274 333 409
#     4  12  24  42  69 102 135 179 227 279 342 395
#     4  10  22  44  66  95 143 171 226 278 328 406
#
# _framework density 25.014531000000002
#
# number of rings (size 3 to 8) (size 9 to 14) (size 15 to 20)
#    0.000    2.000    2.857    2.143    0.000    4.000 
#    0.000   13.571    0.000    0.000    0.000    0.000 
#    0.000    0.000    0.000    0.000    0.000    0.000 
#
# Total GULP energy -78104.884225 kJ/mol
# GULP energy per Si atom -5578.920302 kJ/mol
# Density = 2.495760 g / cm^3
# Si number density = 25.014531 Si / 1000 Ang^3
#
#
#
# Elastic Constant Matrix: (Units=GPa)
#
#
# Indices 1 2 3 4 5 6 
#
# 1 104.9877 22.0978 26.9201 -5.4502 -2.4278 -4.5447
# 2 22.0978 140.8905 22.3634 -35.4352 12.5076 12.2084
# 3 26.9201 22.3634 50.1640 -11.2769 -18.0695 -16.9283
# 4 -5.4502 -35.4352 -11.2769 36.9475 -6.3767 7.3004
# 5 -2.4278 12.5076 -18.0695 -6.3767 46.7886 -16.2093
# 6 -4.5447 12.2084 -16.9283 7.3004 -16.2093 49.1773
#
#
#
# Elastic Compliance Matrix: (Units=1/GPa)
#
#
# Indices 1 2 3 4 5 6 
#
# 1 0.011552 -0.000010 -0.009057 -0.001148 -0.004180 -0.003255
# 2 -0.000010 0.013740 -0.012479 0.009930 -0.011651 -0.013022
# 3 -0.009057 -0.012479 0.054926 0.003216 0.035769 0.032481
# 4 -0.001148 0.009930 0.003216 0.038995 0.001501 -0.006758
# 5 -0.004180 -0.011651 0.035769 0.001501 0.048933 0.030725
# 6 -0.003255 -0.013022 0.032481 -0.006758 0.030725 0.045578
#
#
# Mechanical properties :
#
#
# Convention : Reuss Voigt Hill
#
# Bulk Modulus (GPa) = 26.93481 48.75609 37.84545
# Shear Modulus (GPa) = 18.57410 41.56006 30.06708
#
# Velocity S-wave (km/s) = 2.72790 4.08049 3.47073
# Velocity P-wave (km/s) = 4.55115 6.46019 5.58780
#
# Compressibility (1/GPa) = 0.03712668
#
# Stress axis : x y z
#
# Youngs Moduli (GPa) = 86.56359 72.77958 18.20620
#
# Poissons Ratio (x) = 0.00072 0.16490
# Poissons Ratio (y) = 0.00086 0.22720
# Poissons Ratio (z) = 0.78401 0.90822
#
# Static dielectric constant tensor:
#      x y z
#    x 2.176430 0.135920 -0.003060 
#    y 0.135920 2.128290 0.019120 
#    z -0.003060 0.019120 2.035540 
# 
# From -- ./inp_files/464493.got.cif
#   From: 2010.05.17/outbox.cif.g08.bks.cpg/sg2_233_cif.got.tgz:464493.got - 2010.06.03 11:33:40.
