data_PCOD9017040
_publ_section_title
;
Structure prediction by ZEFSAII (Michael W. Deem and Ramdas Pophale) SiO2 
 PCOD9017040
Probable space group: P -1
;
_chemical_formula_sum "Si O2"
_cell_formula_units_Z 16
_cell_length_a 9.522235
_cell_length_b 9.125161
_cell_length_c 10.240308
_cell_angle_alpha 93.557733
_cell_angle_beta 94.681505
_cell_angle_gamma 47.616145
_cell_volume 655.024036
_symmetry_space_group_name_H-M "P -1"
_symmetry_group_IT_number 2
_symmetry_cell_setting 'triclinic'
loop_
_space_group_symop_operation_xyz
x,y,z
-x,-y,-z
loop_
_atom_site_type_symbol
_atom_site_label
_atom_site_fract_x
_atom_site_fract_y
_atom_site_fract_z
Si Si1 0.362208 0.396727 0.715810
Si Si2 0.612990 0.272692 0.977573
Si Si3 0.072319 0.836519 0.848899
Si Si4 0.064617 0.058322 0.625647
Si Si5 0.383970 0.930178 0.477844
Si Si6 0.059265 0.363237 0.731969
Si Si7 0.779325 0.819853 0.760004
Si Si8 0.408818 0.984156 0.869065
O O1 0.225873 0.626011 0.765531
O O2 0.495255 0.285390 0.592297
O O3 0.213261 0.367253 0.682195
O O4 0.516309 0.273299 0.839891
O O5 0.826542 0.181879 0.011443
O O6 0.584320 0.187916 0.095117
O O7 0.500000 0.500000 0.000000
O O8 0.030111 0.997149 0.753753
O O9 0.889679 0.860093 0.860898
O O10 0.285303 0.942328 0.602699
O O11 0.978826 0.282851 0.639160
O O12 0.000000 0.000000 0.500000
O O13 0.500000 0.000000 0.500000
O O14 0.216581 0.101156 0.375246
O O15 0.892915 0.588693 0.771875
O O16 0.195380 0.190943 0.840010
O O17 0.561681 0.927669 0.771115
O O18 0.500000 0.000000 0.000000
#
# Coordination Sequence:
#
# PCOD9017040 Si02
#       8
#     2   2   2   2   2   2   2   2
#     4  10  21  43  68  98 131 183 229 273 342 412
#     4  10  21  42  70  97 139 176 215 292 341 395
#     4  10  23  43  67  99 143 174 226 289 345 399
#     4  12  24  42  63  97 139 175 224 295 339 392
#     4  12  23  42  71  95 137 182 236 278 344 409
#     4  11  23  43  68  95 134 184 224 280 335 403
#     4  11  25  44  68 101 133 183 234 271 339 423
#     4  12  22  44  72  97 137 178 229 278 334 414
#
# _framework density 24.426583000000001
#
# number of rings (size 3 to 8) (size 9 to 14) (size 15 to 20)
#    0.000    1.000    6.250    0.000    0.000    2.500 
#    4.500    2.500    0.000    0.000    0.000    0.000 
#    0.000    0.000    0.000    0.000    0.000    0.000 
#
# Total GULP energy -89267.459604 kJ/mol
# GULP energy per Si atom -5579.216225 kJ/mol
# Density = 2.437099 g / cm^3
# Si number density = 24.426583 Si / 1000 Ang^3
#
#
#
# Elastic Constant Matrix: (Units=GPa)
#
#
# Indices 1 2 3 4 5 6 
#
# 1 127.7032 27.6917 27.1711 3.2511 25.4096 13.3982
# 2 27.6917 111.5433 -1.3426 -5.3689 6.0593 9.2755
# 3 27.1711 -1.3426 64.8099 1.5273 4.8046 1.3664
# 4 3.2511 -5.3689 1.5273 27.3941 2.9029 8.6235
# 5 25.4096 6.0593 4.8046 2.9029 54.0656 2.0182
# 6 13.3982 9.2755 1.3664 8.6235 2.0182 42.7931
#
#
#
# Elastic Compliance Matrix: (Units=1/GPa)
#
#
# Indices 1 2 3 4 5 6 
#
# 1 0.010217 -0.002177 -0.003969 -0.000241 -0.004104 -0.002358
# 2 -0.002177 0.009836 0.001112 0.002792 -0.000252 -0.002037
# 3 -0.003969 0.001112 0.017099 -0.000457 0.000226 0.000537
# 4 -0.000241 0.002792 -0.000457 0.039985 -0.001990 -0.008479
# 5 -0.004104 -0.000252 0.000226 -0.001990 0.020511 0.000766
# 6 -0.002358 -0.002037 0.000537 -0.008479 0.000766 0.026204
#
#
# Mechanical properties :
#
#
# Convention : Reuss Voigt Hill
#
# Bulk Modulus (GPa) = 36.91942 45.67743 41.29843
# Shear Modulus (GPa) = 34.97736 41.55295 38.26516
#
# Velocity S-wave (km/s) = 3.78820 4.12896 3.96224
# Velocity P-wave (km/s) = 5.85502 6.43984 6.15438
#
# Compressibility (1/GPa) = 0.02708602
#
# Stress axis : x y z
#
# Youngs Moduli (GPa) = 97.87242 101.66326 58.48129
#
# Poissons Ratio (x) = 0.22131 0.23211
# Poissons Ratio (y) = 0.21305 -0.06505
# Poissons Ratio (z) = 0.38846 -0.11307
#
# Static dielectric constant tensor:
#      x y z
#    x 1.921690 0.084630 0.152200 
#    y 0.084630 1.830410 -0.115340 
#    z 0.152200 -0.115340 1.975970 
# 
# From -- ./inp_files/382371.got.cif
#   From: 2010.05.17/outbox.cif.g08.bks.cpg/sg2_192_cif.got.tgz:382371.got - 2010.06.03 11:33:40.
