data_PCOD9017598
_publ_section_title
;
Structure prediction by ZEFSAII (Michael W. Deem and Ramdas Pophale) SiO2 
 PCOD9017598
Probable space group: P -1
;
_chemical_formula_sum "Si O2"
_cell_formula_units_Z 12
_cell_length_a 5.755774
_cell_length_b 12.950741
_cell_length_c 10.052820
_cell_angle_alpha 132.892985
_cell_angle_beta 70.101485
_cell_angle_gamma 101.640899
_cell_volume 515.732929
_symmetry_space_group_name_H-M "P -1"
_symmetry_group_IT_number 2
_symmetry_cell_setting 'triclinic'
loop_
_space_group_symop_operation_xyz
x,y,z
-x,-y,-z
loop_
_atom_site_type_symbol
_atom_site_label
_atom_site_fract_x
_atom_site_fract_y
_atom_site_fract_z
Si Si1 0.004729 0.685799 0.915461
Si Si2 0.466350 0.335047 0.832486
Si Si3 0.286995 0.941095 0.392777
Si Si4 0.253895 0.374994 0.336423
Si Si5 0.336704 0.422396 0.652431
Si Si6 0.404129 0.895880 0.036151
O O1 0.976138 0.627502 0.719806
O O2 0.163529 0.559218 0.844764
O O3 0.137449 0.831922 0.008182
O O4 0.755238 0.705934 0.064202
O O5 0.388768 0.326612 0.685812
O O6 0.696390 0.227889 0.726867
O O7 0.500000 0.500000 0.000000
O O8 0.500000 0.000000 0.500000
O O9 0.390146 0.960519 0.241284
O O10 0.000000 0.000000 0.500000
O O11 0.226773 0.354937 0.481662
O O12 0.409526 0.510371 0.387169
O O13 0.416805 0.241977 0.133204
O O14 0.500000 0.000000 0.000000
#
# Coordination Sequence:
#
# PCOD9017598 Si02
#       6
#     2   2   2   2   2   2
#     4  11  21  44  72 107 150 197 251 328 382 461
#     4  12  23  47  78 111 151 201 258 319 397 462
#     4  12  29  54  78 115 161 204 264 330 389 477
#     4  10  21  43  65 107 151 185 253 316 375 460
#     4  10  22  38  71 111 149 187 249 314 388 454
#     4  11  26  49  70  98 149 207 259 311 388 465
#
# _framework density 23.267855000000001
#
# number of rings (size 3 to 8) (size 9 to 14) (size 15 to 20)
#    0.000    1.000    3.333    3.000    2.333    2.000 
#    0.000    0.000    0.000    0.000    0.000    0.000 
#    0.000    0.000    0.000    0.000    0.000    0.000 
#
# Total GULP energy -67088.003278 kJ/mol
# GULP energy per Si atom -5590.666940 kJ/mol
# Density = 2.321490 g / cm^3
# Si number density = 23.267855 Si / 1000 Ang^3
#
#
#
# Elastic Constant Matrix: (Units=GPa)
#
#
# Indices 1 2 3 4 5 6 
#
# 1 133.7707 63.4045 65.3665 -6.8493 -11.6091 -13.8838
# 2 63.4045 130.7253 55.4913 -25.0634 6.1328 -10.7735
# 3 65.3665 55.4913 148.8267 -31.9231 19.7406 -10.2109
# 4 -6.8493 -25.0634 -31.9231 41.6465 -7.3132 10.3884
# 5 -11.6091 6.1328 19.7406 -7.3132 57.1828 1.4708
# 6 -13.8838 -10.7735 -10.2109 10.3884 1.4708 31.8374
#
#
#
# Elastic Compliance Matrix: (Units=1/GPa)
#
#
# Indices 1 2 3 4 5 6 
#
# 1 0.012799 -0.004854 -0.005179 -0.004978 0.004175 0.003709
# 2 -0.004854 0.011412 -0.000845 0.005249 -0.001242 -0.000181
# 3 -0.005179 -0.000845 0.011222 0.006794 -0.003941 -0.000980
# 4 -0.004978 0.005249 0.006794 0.034008 0.000671 -0.009343
# 5 0.004175 -0.001242 -0.003941 0.000671 0.019940 -0.001003
# 6 0.003709 -0.000181 -0.000980 -0.009343 -0.001003 0.035747
#
#
# Mechanical properties :
#
#
# Convention : Reuss Voigt Hill
#
# Bulk Modulus (GPa) = 73.11283 86.87192 79.99237
# Shear Modulus (GPa) = 33.01570 41.40403 37.20987
#
# Velocity S-wave (km/s) = 3.77097 4.22293 4.00333
# Velocity P-wave (km/s) = 7.10287 7.82267 7.47144
#
# Compressibility (1/GPa) = 0.01367749
#
# Stress axis : x y z
#
# Youngs Moduli (GPa) = 78.12980 87.62390 89.11428
#
# Poissons Ratio (x) = 0.42534 0.46150
# Poissons Ratio (y) = 0.37926 0.07530
# Poissons Ratio (z) = 0.40461 0.07404
#
# Static dielectric constant tensor:
#      x y z
#    x 2.042820 -0.061110 0.024880 
#    y -0.061110 1.934230 0.037330 
#    z 0.024880 0.037330 1.938100 
# 
# From -- ./inp_files/133738.got.cif
#   From: 2010.05.17/outbox.cif.g08.bks.cpg/sg2_67_cif.got.tgz:133738.got - 2010.06.03 11:33:40.
