data_PCOD9017686
_publ_section_title
;
Structure prediction by ZEFSAII (Michael W. Deem and Ramdas Pophale) SiO2 
 PCOD9017686
Probable space group: P -1
;
_chemical_formula_sum "Si O2"
_cell_formula_units_Z 16
_cell_length_a 13.165063
_cell_length_b 16.991268
_cell_length_c 7.903930
_cell_angle_alpha 79.275772
_cell_angle_beta 86.198478
_cell_angle_gamma 26.812722
_cell_volume 763.475093
_symmetry_space_group_name_H-M "P -1"
_symmetry_group_IT_number 2
_symmetry_cell_setting 'triclinic'
loop_
_space_group_symop_operation_xyz
x,y,z
-x,-y,-z
loop_
_atom_site_type_symbol
_atom_site_label
_atom_site_fract_x
_atom_site_fract_y
_atom_site_fract_z
Si Si1 0.375620 0.510311 0.432321
Si Si2 0.839046 0.782498 0.878875
Si Si3 0.204138 0.916584 0.961526
Si Si4 0.103976 0.159147 0.831112
Si Si5 0.466013 0.852122 0.367160
Si Si6 0.233214 0.876998 0.579832
Si Si7 0.526845 0.902058 0.651952
Si Si8 0.319476 0.426844 0.773054
O O1 0.500000 0.500000 0.500000
O O2 0.561946 0.331554 0.372387
O O3 0.307072 0.500574 0.596840
O O4 0.146148 0.683734 0.279823
O O5 0.696535 0.804802 0.826348
O O6 0.086834 0.598464 0.836481
O O7 0.681732 0.967977 0.754065
O O8 0.881701 0.774509 0.072799
O O9 0.211019 0.919116 0.757800
O O10 0.165660 0.035022 0.977932
O O11 0.451486 0.715774 0.086369
O O12 0.000000 0.000000 0.000000
O O13 0.286417 0.046528 0.706390
O O14 0.293335 0.905358 0.432273
O O15 0.598600 0.785352 0.551846
O O16 0.632301 0.693007 0.275069
O O17 0.000000 0.000000 0.500000
O O18 0.500000 0.000000 0.500000
#
# Coordination Sequence:
#
# PCOD9017686 Si02
#       8
#     2   2   2   2   2   2   2   2
#     4  11  24  40  64 100 129 179 230 267 333 409
#     4  11  24  42  70  98 133 176 228 278 342 390
#     4  12  24  42  65 100 137 176 219 275 341 398
#     4  12  23  44  70  95 143 173 222 284 333 401
#     4  10  21  43  65  98 136 177 217 283 332 399
#     4  11  23  39  65  93 137 178 222 271 339 397
#     4  10  22  42  72  97 129 180 227 279 340 391
#     4  11  24  42  66  98 138 173 226 277 333 401
#
# _framework density 20.956807999999999
#
# number of rings (size 3 to 8) (size 9 to 14) (size 15 to 20)
#    0.000    1.000    2.500    5.625    1.750    0.500 
#    0.000    4.375    0.000    0.000    0.000    0.000 
#    0.000    0.000    0.000    0.000    0.000    0.000 
#
# Total GULP energy -89380.627740 kJ/mol
# GULP energy per Si atom -5586.289234 kJ/mol
# Density = 2.090911 g / cm^3
# Si number density = 20.956808 Si / 1000 Ang^3
#
#
#
# Elastic Constant Matrix: (Units=GPa)
#
#
# Indices 1 2 3 4 5 6 
#
# 1 79.2233 19.2018 5.3997 3.9187 18.6471 -0.0458
# 2 19.2018 96.4028 21.4076 11.8870 5.0707 -3.3401
# 3 5.3997 21.4076 63.1084 7.3994 21.0745 7.0212
# 4 3.9187 11.8870 7.3994 37.5418 5.3032 5.6446
# 5 18.6471 5.0707 21.0745 5.3032 43.2574 5.4529
# 6 -0.0458 -3.3401 7.0212 5.6446 5.4529 21.5125
#
#
#
# Elastic Compliance Matrix: (Units=1/GPa)
#
#
# Indices 1 2 3 4 5 6 
#
# 1 0.014902 -0.003012 0.002068 -0.000108 -0.007157 0.000732
# 2 -0.003012 0.012480 -0.004676 -0.003590 0.002065 0.003876
# 3 0.002068 -0.004676 0.021221 -0.000770 -0.009968 -0.004919
# 4 -0.000108 -0.003590 -0.000770 0.029326 -0.001801 -0.007544
# 5 -0.007157 0.002065 -0.009968 -0.001801 0.031537 -0.003963
# 6 0.000732 0.003876 -0.004919 -0.007544 -0.003963 0.051677
#
#
# Mechanical properties :
#
#
# Convention : Reuss Voigt Hill
#
# Bulk Modulus (GPa) = 26.76403 36.75032 31.75717
# Shear Modulus (GPa) = 27.05088 33.31070 30.18079
#
# Velocity S-wave (km/s) = 3.59666 3.99117 3.79904
# Velocity P-wave (km/s) = 5.48149 6.23005 5.86772
#
# Compressibility (1/GPa) = 0.03736359
#
# Stress axis : x y z
#
# Youngs Moduli (GPa) = 67.10444 80.12982 47.12314
#
# Poissons Ratio (x) = 0.24138 -0.09746
# Poissons Ratio (y) = 0.20214 0.22032
# Poissons Ratio (z) = -0.13879 0.37465
#
# Static dielectric constant tensor:
#      x y z
#    x 1.769700 0.044480 0.053290 
#    y 0.044480 1.882480 -0.097720 
#    z 0.053290 -0.097720 1.870040 
# 
# From -- ./inp_files/272899.got.cif
#   From: 2010.05.17/outbox.cif.g08.bks.cpg/sg2_137_cif.got.tgz:272899.got - 2010.06.03 11:33:40.
