data_PCOD9017624
_publ_section_title
;
Structure prediction by ZEFSAII (Michael W. Deem and Ramdas Pophale) SiO2 
 PCOD9017624
Probable space group: P -1
;
_chemical_formula_sum "Si O2"
_cell_formula_units_Z 16
_cell_length_a 18.860775
_cell_length_b 17.162853
_cell_length_c 11.866361
_cell_angle_alpha 159.413370
_cell_angle_beta 40.511532
_cell_angle_gamma 145.570600
_cell_volume 762.282842
_symmetry_space_group_name_H-M "P -1"
_symmetry_group_IT_number 2
_symmetry_cell_setting 'triclinic'
loop_
_space_group_symop_operation_xyz
x,y,z
-x,-y,-z
loop_
_atom_site_type_symbol
_atom_site_label
_atom_site_fract_x
_atom_site_fract_y
_atom_site_fract_z
Si Si1 0.889623 0.017566 0.297759
Si Si2 0.442008 0.993421 0.266553
Si Si3 0.441967 0.283295 0.368947
Si Si4 0.221286 0.902168 0.241112
Si Si5 0.310854 0.928938 0.548369
Si Si6 0.843302 0.506537 0.422144
Si Si7 0.135937 0.537033 0.415854
Si Si8 0.408754 0.469518 0.249861
O O1 0.870087 0.079720 0.533861
O O2 0.788081 0.035707 0.363955
O O3 0.870186 0.735401 0.940969
O O4 0.026281 0.229222 0.378367
O O5 0.328238 0.897161 0.184354
O O6 0.390166 0.864562 0.275392
O O7 0.503078 0.296387 0.621895
O O8 0.542583 0.942122 0.012451
O O9 0.500000 0.500000 0.500000
O O10 0.528838 0.412424 0.546527
O O11 0.299730 0.154307 0.410662
O O12 0.160465 0.663511 0.908743
O O13 0.235619 0.719123 0.449615
O O14 0.396838 0.200752 0.871753
O O15 0.830656 0.363048 0.361166
O O16 0.729477 0.564486 0.630254
O O17 0.000000 0.500000 0.500000
#
# Coordination Sequence:
#
# PCOD9017624 Si02
#       8
#     2   2   2   2   2   2   2   2
#     4  11  24  43  66  94 130 168 210 269 321 366
#     4  10  21  43  65  91 128 168 210 260 322 376
#     4  11  23  40  64  95 131 165 209 265 319 378
#     4  10  22  42  67  90 123 170 214 257 318 383
#     4  11  24  41  66  96 130 167 212 267 311 378
#     4  12  21  42  69  91 127 169 217 257 318 382
#     4  12  25  43  64  95 132 169 215 258 319 380
#     4  11  21  41  66  93 124 173 214 253 322 382
#
# _framework density 20.989585000000002
#
# number of rings (size 3 to 8) (size 9 to 14) (size 15 to 20)
#    0.000    1.000    5.000    2.625    3.500    0.000 
#    0.000    1.875    0.000    0.000    0.000    0.000 
#    0.000    0.000    0.000    0.000    0.000    0.000 
#
# Total GULP energy -89421.011001 kJ/mol
# GULP energy per Si atom -5588.813188 kJ/mol
# Density = 2.094181 g / cm^3
# Si number density = 20.989585 Si / 1000 Ang^3
#
#
#
# Elastic Constant Matrix: (Units=GPa)
#
#
# Indices 1 2 3 4 5 6 
#
# 1 42.0884 28.0375 25.9064 -1.8554 8.7683 -13.8009
# 2 28.0375 130.0593 28.8873 4.2806 13.9833 -43.0047
# 3 25.9064 28.8873 88.6793 0.6870 27.8186 -22.4127
# 4 -1.8554 4.2806 0.6870 36.8633 -5.7415 0.9631
# 5 8.7683 13.9833 27.8186 -5.7415 25.1679 3.3036
# 6 -13.8009 -43.0047 -22.4127 0.9631 3.3036 37.0208
#
#
#
# Elastic Compliance Matrix: (Units=1/GPa)
#
#
# Indices 1 2 3 4 5 6 
#
# 1 0.032202 -0.004586 -0.007156 0.002135 -0.000582 0.002342
# 2 -0.004586 0.019428 0.011420 -0.007792 -0.027592 0.030438
# 3 -0.007156 0.011420 0.034060 -0.010839 -0.048676 0.035844
# 4 0.002135 -0.007792 -0.010839 0.032766 0.025395 -0.017937
# 5 -0.000582 -0.027592 -0.048676 0.025395 0.124511 -0.073509
# 6 0.002342 0.030438 0.035844 -0.017937 -0.073509 0.091969
#
#
# Mechanical properties :
#
#
# Convention : Reuss Voigt Hill
#
# Bulk Modulus (GPa) = 11.75830 47.38769 29.57300
# Shear Modulus (GPa) = 13.73897 31.67678 22.70787
#
# Velocity S-wave (km/s) = 2.56121 3.88901 3.29274
# Velocity P-wave (km/s) = 3.78953 6.54153 5.34566
#
# Compressibility (1/GPa) = 0.08504627
#
# Stress axis : x y z
#
# Youngs Moduli (GPa) = 31.05376 51.47114 29.36016
#
# Poissons Ratio (x) = 0.23605 0.21009
# Poissons Ratio (y) = 0.14241 -0.33528
# Poissons Ratio (z) = 0.22221 -0.58778
#
# Static dielectric constant tensor:
#      x y z
#    x 1.770210 -0.039050 -0.026170 
#    y -0.039050 1.776700 0.010780 
#    z -0.026170 0.010780 1.787900 
# 
# From -- ./inp_files/258704.got.cif
#   From: 2010.05.17/outbox.cif.g08.bks.cpg/sg2_130_cif.got.tgz:258704.got - 2010.06.03 11:33:40.
