data_PCOD9017458
_publ_section_title
;
Structure prediction by ZEFSAII (Michael W. Deem and Ramdas Pophale) SiO2 
 PCOD9017458
Probable space group: P -1
;
_chemical_formula_sum "Si O2"
_cell_formula_units_Z 12
_cell_length_a 14.117032
_cell_length_b 13.325449
_cell_length_c 21.896721
_cell_angle_alpha 151.771878
_cell_angle_beta 18.168551
_cell_angle_gamma 141.818382
_cell_volume 569.884634
_symmetry_space_group_name_H-M "P -1"
_symmetry_group_IT_number 2
_symmetry_cell_setting 'triclinic'
loop_
_space_group_symop_operation_xyz
x,y,z
-x,-y,-z
loop_
_atom_site_type_symbol
_atom_site_label
_atom_site_fract_x
_atom_site_fract_y
_atom_site_fract_z
Si Si1 0.211069 0.304201 0.038017
Si Si2 0.757635 0.938642 0.452063
Si Si3 0.285706 0.758929 0.198127
Si Si4 0.505822 0.582538 0.471542
Si Si5 0.733196 0.210446 0.029554
Si Si6 0.440282 0.829114 0.011712
O O1 0.157333 0.564325 0.195575
O O2 0.866421 0.280268 0.243549
O O3 0.430148 0.148723 0.767387
O O4 0.435174 0.234592 0.923044
O O5 0.063500 0.995937 0.322561
O O6 0.708894 0.745072 0.420781
O O7 0.901404 0.839975 0.245328
O O8 0.439260 0.699927 0.005101
O O9 0.000000 0.000000 0.500000
O O10 0.500000 0.500000 0.500000
O O11 0.635703 0.373463 0.233601
O O12 0.518334 0.303742 0.149188
O O13 0.665779 0.978827 0.959175
#
# Coordination Sequence:
#
# PCOD9017458 Si02
#       6
#     2   2   2   2   2   2
#     4  11  25  38  67 104 131 168 230 270 324 403
#     4  10  21  43  63  91 139 168 215 276 324 388
#     4  11  20  39  69 100 134 169 213 284 337 377
#     4  12  25  41  67  96 135 183 218 268 336 391
#     4   9  21  41  70  95 129 179 221 267 336 390
#     4   9  19  38  73  89 127 173 216 268 334 377
#
# _framework density 21.056895000000001
#
# number of rings (size 3 to 8) (size 9 to 14) (size 15 to 20)
#    1.000    0.667    1.667    3.000    4.667    0.000 
#    0.000    4.167    0.000    0.000    0.000    0.000 
#    0.000    0.000    0.000    0.000    0.000    0.000 
#
# Total GULP energy -66915.406716 kJ/mol
# GULP energy per Si atom -5576.283893 kJ/mol
# Density = 2.100897 g / cm^3
# Si number density = 21.056895 Si / 1000 Ang^3
#
#
#
# Elastic Constant Matrix: (Units=GPa)
#
#
# Indices 1 2 3 4 5 6 
#
# 1 79.6746 26.6116 38.3116 0.9414 22.8488 -15.5229
# 2 26.6116 86.6916 29.8374 -11.3001 1.9854 -2.3070
# 3 38.3116 29.8374 109.0700 -5.3189 20.2183 -0.5593
# 4 0.9414 -11.3001 -5.3189 33.3064 1.1982 0.1822
# 5 22.8488 1.9854 20.2183 1.1982 38.9896 -3.5347
# 6 -15.5229 -2.3070 -0.5593 0.1822 -3.5347 23.2388
#
#
#
# Elastic Compliance Matrix: (Units=1/GPa)
#
#
# Indices 1 2 3 4 5 6 
#
# 1 0.021284 -0.004763 -0.004644 -0.002717 -0.008619 0.012343
# 2 -0.004763 0.014380 -0.002635 0.004486 0.003164 -0.001372
# 3 -0.004644 -0.002635 0.012290 0.001360 -0.003891 -0.003671
# 4 -0.002717 0.004486 0.001360 0.031866 -0.000471 -0.001658
# 5 -0.008619 0.003164 -0.003891 -0.000471 0.032517 -0.000588
# 6 0.012343 -0.001372 -0.003671 -0.001658 -0.000588 0.050975
#
#
# Mechanical properties :
#
#
# Convention : Reuss Voigt Hill
#
# Bulk Modulus (GPa) = 41.89804 51.66192 46.77998
# Shear Modulus (GPa) = 25.59445 31.15198 28.37322
#
# Velocity S-wave (km/s) = 3.49017 3.85050 3.67475
# Velocity P-wave (km/s) = 6.01519 6.66004 6.34581
#
# Compressibility (1/GPa) = 0.02386747
#
# Stress axis : x y z
#
# Youngs Moduli (GPa) = 46.98370 69.53999 81.36937
#
# Poissons Ratio (x) = 0.33124 0.37792
# Poissons Ratio (y) = 0.22380 0.21444
# Poissons Ratio (z) = 0.21822 0.18327
#
# Static dielectric constant tensor:
#      x y z
#    x 1.798940 -0.000460 0.034750 
#    y -0.000460 1.760180 -0.020600 
#    z 0.034750 -0.020600 1.800110 
# 
# From -- ./inp_files/598006.got.cif
#   From: 2010.05.17/outbox.cif.g08.bks.cpg/sg2_300_cif.got.tgz:598006.got - 2010.06.03 11:33:40.
