data_PCOD9017578
_publ_section_title
;
Structure prediction by ZEFSAII (Michael W. Deem and Ramdas Pophale) SiO2 
 PCOD9017578
Probable space group: P -1
;
_chemical_formula_sum "Si O2"
_cell_formula_units_Z 14
_cell_length_a 16.709228
_cell_length_b 5.461110
_cell_length_c 12.804062
_cell_angle_alpha 73.546937
_cell_angle_beta 129.262948
_cell_angle_gamma 134.247459
_cell_volume 621.029661
_symmetry_space_group_name_H-M "P -1"
_symmetry_group_IT_number 2
_symmetry_cell_setting 'triclinic'
loop_
_space_group_symop_operation_xyz
x,y,z
-x,-y,-z
loop_
_atom_site_type_symbol
_atom_site_label
_atom_site_fract_x
_atom_site_fract_y
_atom_site_fract_z
Si Si1 0.919129 0.991218 0.840741
Si Si2 0.676762 0.813671 0.114358
Si Si3 0.617321 0.004091 0.562960
Si Si4 0.938789 0.609420 0.737787
Si Si5 0.066274 0.830583 0.591352
Si Si6 0.608555 0.512393 0.726710
Si Si7 0.364615 0.697143 0.001693
O O1 0.973812 0.924739 0.793897
O O2 0.746784 0.648211 0.758575
O O3 0.947608 0.343274 0.828747
O O4 0.000000 0.000000 0.000000
O O5 0.758306 0.889978 0.281963
O O6 0.500000 0.500000 0.000000
O O7 0.719725 0.668783 0.085361
O O8 0.713655 0.166190 0.069130
O O9 0.641243 0.870213 0.701907
O O10 0.541102 0.751565 0.428452
O O11 0.500000 0.000000 0.500000
O O12 0.769517 0.361424 0.606419
O O13 0.016016 0.692275 0.683534
O O14 0.000000 0.500000 0.500000
O O15 0.000000 0.000000 0.500000
O O16 0.597652 0.356671 0.847804
O O17 0.500000 0.000000 0.000000
#
# Coordination Sequence:
#
# PCOD9017578 Si02
#       7
#     2   2   2   2   2   2   2
#     4  11  24  41  65  97 132 174 223 280 346 399
#     4  10  24  44  69  97 140 177 240 284 343 419
#     4  10  21  43  64  97 138 175 236 280 344 410
#     4  11  25  43  67  99 133 175 230 279 338 416
#     4  12  27  48  73 101 145 193 233 289 359 423
#     4  10  23  38  68  98 133 182 225 287 343 411
#     4  10  23  42  65 104 138 175 228 287 352 411
#
# _framework density 22.543205
#
# number of rings (size 3 to 8) (size 9 to 14) (size 15 to 20)
#    0.000    1.429    1.429    2.143    6.000    4.571 
#    2.571    0.000    0.000    0.000    0.000    0.000 
#    0.000    0.000    0.000    0.000    0.000    0.000 
#
# Total GULP energy -77956.066814 kJ/mol
# GULP energy per Si atom -5568.290487 kJ/mol
# Density = 2.249190 g / cm^3
# Si number density = 22.543205 Si / 1000 Ang^3
#
#
#
# Elastic Constant Matrix: (Units=GPa)
#
#
# Indices 1 2 3 4 5 6 
#
# 1 108.2782 39.3576 26.6892 -1.1602 6.6915 -18.4382
# 2 39.3576 75.8595 40.2083 -19.0268 4.3366 -38.3561
# 3 26.6892 40.2083 120.9206 -13.0857 16.4332 -19.2903
# 4 -1.1602 -19.0268 -13.0857 36.9831 2.7146 -3.3145
# 5 6.6915 4.3366 16.4332 2.7146 38.8707 3.3422
# 6 -18.4382 -38.3561 -19.2903 -3.3145 3.3422 54.1217
#
#
#
# Elastic Compliance Matrix: (Units=1/GPa)
#
#
# Indices 1 2 3 4 5 6 
#
# 1 0.011880 -0.007709 -0.000734 -0.003991 -0.000433 -0.001896
# 2 -0.007709 0.035864 -0.003917 0.019187 -0.004322 0.022837
# 3 -0.000734 -0.003917 0.010736 0.002178 -0.004230 0.001195
# 4 -0.003991 0.019187 0.002178 0.039451 -0.006491 0.015831
# 5 -0.000433 -0.004322 -0.004230 -0.006491 0.029119 -0.006914
# 6 -0.001896 0.022837 0.001195 0.015831 -0.006914 0.035838
#
#
# Mechanical properties :
#
#
# Convention : Reuss Voigt Hill
#
# Bulk Modulus (GPa) = 29.62207 57.50761 43.56484
# Shear Modulus (GPa) = 25.14302 39.24863 32.19582
#
# Velocity S-wave (km/s) = 3.34327 4.17710 3.78323
# Velocity P-wave (km/s) = 5.29830 6.98782 6.20087
#
# Compressibility (1/GPa) = 0.03375861
#
# Stress axis : x y z
#
# Youngs Moduli (GPa) = 84.17633 27.88273 93.14777
#
# Poissons Ratio (x) = 0.21496 0.06838
# Poissons Ratio (y) = 0.64894 0.36488
# Poissons Ratio (z) = 0.06180 0.10922
#
# Static dielectric constant tensor:
#      x y z
#    x 1.937630 0.010240 0.011090 
#    y 0.010240 2.115850 0.043800 
#    z 0.011090 0.043800 1.850920 
# 
# From -- ./inp_files/74922.got.cif
#   From: 2010.05.17/outbox.cif.g08.bks.cpg/sg2_38_cif.got.tgz:74922.got - 2010.06.03 11:33:40.
