data_PCOD9017190
_publ_section_title
;
Structure prediction by ZEFSAII (Michael W. Deem and Ramdas Pophale) SiO2 
 PCOD9017190
Probable space group: P -1
;
_chemical_formula_sum "Si O2"
_cell_formula_units_Z 16
_cell_length_a 9.241555
_cell_length_b 24.649524
_cell_length_c 8.914405
_cell_angle_alpha 128.536058
_cell_angle_beta 103.093747
_cell_angle_gamma 36.731261
_cell_volume 771.800258
_symmetry_space_group_name_H-M "P -1"
_symmetry_group_IT_number 2
_symmetry_cell_setting 'triclinic'
loop_
_space_group_symop_operation_xyz
x,y,z
-x,-y,-z
loop_
_atom_site_type_symbol
_atom_site_label
_atom_site_fract_x
_atom_site_fract_y
_atom_site_fract_z
Si Si1 0.931108 0.632114 0.560166
Si Si2 0.204504 0.091256 0.009215
Si Si3 0.259310 0.910162 0.789374
Si Si4 0.129522 0.600586 0.885829
Si Si5 0.136713 0.421216 0.055057
Si Si6 0.805320 0.139743 0.619026
Si Si7 0.176580 0.129927 0.721395
Si Si8 0.294985 0.605747 0.490681
O O1 0.577183 0.777506 0.715735
O O2 0.023414 0.615782 0.722231
O O3 0.056075 0.508689 0.317580
O O4 0.065335 0.634972 0.481202
O O5 0.903728 0.246338 0.271600
O O6 0.215886 0.111668 0.877293
O O7 0.500000 0.000000 0.000000
O O8 0.207467 0.007696 0.879182
O O9 0.260669 0.856678 0.559732
O O10 0.000000 0.000000 0.000000
O O11 0.482175 0.470191 0.723735
O O12 0.014272 0.590299 0.956376
O O13 0.989007 0.731675 0.115408
O O14 0.492848 0.272696 0.862588
O O15 0.000000 0.500000 0.000000
O O16 0.984643 0.139288 0.655945
O O17 0.000000 0.000000 0.500000
O O18 0.500000 0.000000 0.500000
O O19 0.500000 0.500000 0.500000
#
# Coordination Sequence:
#
# PCOD9017190 Si02
#       8
#     2   2   2   2   2   2   2   2
#     4  11  23  46  72 103 142 184 236 296 347 423
#     4  12  24  45  73 104 142 183 231 299 347 412
#     4  12  28  44  70 107 145 187 243 289 351 424
#     4  11  25  45  75 105 134 191 239 288 352 434
#     4  12  27  47  70 105 148 181 232 292 364 417
#     4  12  27  47  73 103 148 191 229 297 362 421
#     4  12  26  46  73 105 140 186 239 288 359 425
#     4  10  21  42  72 102 135 176 238 283 344 407
#
# _framework density 20.730753
#
# number of rings (size 3 to 8) (size 9 to 14) (size 15 to 20)
#    0.000    0.500    6.250    1.875    8.750    0.000 
#    0.000    1.250    0.000    0.000    0.000    0.000 
#    0.000    0.000    0.000    0.000    0.000    0.000 
#
# Total GULP energy -89523.229930 kJ/mol
# GULP energy per Si atom -5595.201871 kJ/mol
# Density = 2.068357 g / cm^3
# Si number density = 20.730753 Si / 1000 Ang^3
#
#
#
# Elastic Constant Matrix: (Units=GPa)
#
#
# Indices 1 2 3 4 5 6 
#
# 1 179.9962 33.5640 73.1634 11.6893 -15.0645 7.9377
# 2 33.5640 52.6761 20.2019 17.1107 -4.8071 -1.2213
# 3 73.1634 20.2019 143.5214 43.3653 -14.4710 3.6749
# 4 11.6893 17.1107 43.3653 33.8846 -8.1808 -3.3980
# 5 -15.0645 -4.8071 -14.4710 -8.1808 53.2471 5.3805
# 6 7.9377 -1.2213 3.6749 -3.3980 5.3805 33.3042
#
#
#
# Elastic Compliance Matrix: (Units=1/GPa)
#
#
# Indices 1 2 3 4 5 6 
#
# 1 0.008587 -0.005572 -0.005606 0.007306 0.001642 -0.001152
# 2 -0.005572 0.026355 0.004140 -0.016826 -0.000680 0.000231
# 3 -0.005606 0.004140 0.015359 -0.020013 0.000116 -0.002268
# 4 0.007306 -0.016826 -0.020013 0.062667 0.004174 0.005569
# 5 0.001642 -0.000680 0.000116 0.004174 0.020186 -0.003264
# 6 -0.001152 0.000231 -0.002268 0.005569 -0.003264 0.031655
#
#
# Mechanical properties :
#
#
# Convention : Reuss Voigt Hill
#
# Bulk Modulus (GPa) = 27.60390 70.00582 48.80486
# Shear Modulus (GPa) = 26.18359 40.70482 33.44421
#
# Velocity S-wave (km/s) = 3.55777 4.43595 4.02091
# Velocity P-wave (km/s) = 5.49739 7.75108 6.71939
#
# Compressibility (1/GPa) = 0.03622676
#
# Stress axis : x y z
#
# Youngs Moduli (GPa) = 116.45630 37.94315 65.10796
#
# Poissons Ratio (x) = 0.21141 0.36497
# Poissons Ratio (y) = 0.64886 -0.26955
# Poissons Ratio (z) = 0.65281 -0.15709
#
# Static dielectric constant tensor:
#      x y z
#    x 1.578960 0.048610 0.087720 
#    y 0.048610 1.720910 -0.017950 
#    z 0.087720 -0.017950 1.721130 
# 
# From -- ./inp_files/226512.got.cif
#   From: 2010.05.17/outbox.cif.g08.bks.cpg/sg2_114_cif.got.tgz:226512.got - 2010.06.03 11:33:40.
