data_PCOD9017172
_publ_section_title
;
Structure prediction by ZEFSAII (Michael W. Deem and Ramdas Pophale) SiO2 
 PCOD9017172
Probable space group: P -1
;
_chemical_formula_sum "Si O2"
_cell_formula_units_Z 12
_cell_length_a 10.922931
_cell_length_b 7.802549
_cell_length_c 14.132559
_cell_angle_alpha 73.640470
_cell_angle_beta 33.866091
_cell_angle_gamma 59.080487
_cell_volume 548.689924
_symmetry_space_group_name_H-M "P -1"
_symmetry_group_IT_number 2
_symmetry_cell_setting 'triclinic'
loop_
_space_group_symop_operation_xyz
x,y,z
-x,-y,-z
loop_
_atom_site_type_symbol
_atom_site_label
_atom_site_fract_x
_atom_site_fract_y
_atom_site_fract_z
Si Si1 0.828451 0.253644 0.800623
Si Si2 0.266426 0.936622 0.288057
Si Si3 0.765891 0.180545 0.062797
Si Si4 0.875554 0.627428 0.768995
Si Si5 0.211568 0.330854 0.464811
Si Si6 0.787949 0.583023 0.042647
O O1 0.748605 0.853900 0.769586
O O2 0.113959 0.180578 0.587783
O O3 0.823347 0.152545 0.918192
O O4 0.257490 0.503594 0.159475
O O5 0.517850 0.788861 0.211060
O O6 0.297881 0.799808 0.195435
O O7 0.000000 0.000000 0.500000
O O8 0.492656 0.211862 0.260636
O O9 0.742508 0.396931 0.073849
O O10 0.000000 0.000000 0.000000
O O11 0.162205 0.480552 0.563557
O O12 0.878820 0.635666 0.878044
O O13 0.000000 0.500000 0.500000
O O14 0.000000 0.500000 0.000000
#
# Coordination Sequence:
#
# PCOD9017172 Si02
#       6
#     2   2   2   2   2   2
#     4   9  24  43  71 104 135 174 239 284 333 410
#     4  12  24  44  73 104 131 185 234 279 347 409
#     4  11  25  44  70 101 139 187 225 281 356 406
#     4   9  23  44  68 102 137 175 229 289 335 401
#     4  10  21  42  71  99 135 172 233 288 331 407
#     4  11  26  46  64 103 145 177 228 289 343 413
#
# _framework density 21.870276
#
# number of rings (size 3 to 8) (size 9 to 14) (size 15 to 20)
#    1.000    0.667    0.000    3.500    4.667    5.333 
#    3.000    1.667    0.000    0.000    0.000    0.000 
#    0.000    0.000    0.000    0.000    0.000    0.000 
#
# Total GULP energy -67046.338700 kJ/mol
# GULP energy per Si atom -5587.194892 kJ/mol
# Density = 2.182050 g / cm^3
# Si number density = 21.870276 Si / 1000 Ang^3
#
#
#
# Elastic Constant Matrix: (Units=GPa)
#
#
# Indices 1 2 3 4 5 6 
#
# 1 114.1920 47.4680 62.8368 10.6763 0.3883 -15.3611
# 2 47.4680 128.9388 55.1494 6.8957 -5.1279 -17.9302
# 3 62.8368 55.1494 183.7318 5.1940 4.3956 -35.5402
# 4 10.6763 6.8957 5.1940 27.8352 -0.0804 -3.0606
# 5 0.3883 -5.1279 4.3956 -0.0804 25.9642 3.7946
# 6 -15.3611 -17.9302 -35.5402 -3.0606 3.7946 45.3156
#
#
#
# Elastic Compliance Matrix: (Units=1/GPa)
#
#
# Indices 1 2 3 4 5 6 
#
# 1 0.012003 -0.002896 -0.003076 -0.003279 -0.000287 0.000313
# 2 -0.002896 0.009882 -0.001745 -0.000860 0.002094 0.001326
# 3 -0.003076 -0.001745 0.007978 0.000640 -0.002343 0.004763
# 4 -0.003279 -0.000860 0.000640 0.037453 -0.000348 0.001609
# 5 -0.000287 0.002094 -0.002343 -0.000348 0.039982 -0.004478
# 6 0.000313 0.001326 0.004763 0.001609 -0.004478 0.026918
#
#
# Mechanical properties :
#
#
# Convention : Reuss Voigt Hill
#
# Bulk Modulus (GPa) = 69.30208 84.19679 76.74943
# Shear Modulus (GPa) = 32.37115 37.25023 34.81069
#
# Velocity S-wave (km/s) = 3.85144 4.13150 3.99393
# Velocity P-wave (km/s) = 7.17877 7.83205 7.51251
#
# Compressibility (1/GPa) = 0.01442958
#
# Stress axis : x y z
#
# Youngs Moduli (GPa) = 83.31187 101.19667 125.34885
#
# Poissons Ratio (x) = 0.29304 0.38554
# Poissons Ratio (y) = 0.24125 0.21873
# Poissons Ratio (z) = 0.25624 0.17659
#
# Static dielectric constant tensor:
#      x y z
#    x 1.820600 0.047530 0.002340 
#    y 0.047530 1.797620 0.002150 
#    z 0.002340 0.002150 1.906660 
# 
# From -- ./inp_files/511647.got.cif
#   From: 2010.05.17/outbox.cif.g08.bks.cpg/sg2_256_cif.got.tgz:511647.got - 2010.06.03 11:33:40.
