data_PCOD9017830
_publ_section_title
;
Structure prediction by ZEFSAII (Michael W. Deem and Ramdas Pophale) SiO2 
 PCOD9017830
Probable space group: P -1
;
_chemical_formula_sum "Si O2"
_cell_formula_units_Z 14
_cell_length_a 11.233470
_cell_length_b 10.419876
_cell_length_c 11.160666
_cell_angle_alpha 102.966245
_cell_angle_beta 40.909659
_cell_angle_gamma 73.759853
_cell_volume 592.132807
_symmetry_space_group_name_H-M "P -1"
_symmetry_group_IT_number 2
_symmetry_cell_setting 'triclinic'
loop_
_space_group_symop_operation_xyz
x,y,z
-x,-y,-z
loop_
_atom_site_type_symbol
_atom_site_label
_atom_site_fract_x
_atom_site_fract_y
_atom_site_fract_z
Si Si1 0.079799 0.336026 0.237412
Si Si2 0.633994 0.156888 0.432695
Si Si3 0.715962 0.451780 0.134904
Si Si4 0.019160 0.167717 0.046645
Si Si5 0.004085 0.656192 0.338543
Si Si6 0.745771 0.339310 0.653272
Si Si7 0.649998 0.085960 0.680376
O O1 0.025373 0.297843 0.142890
O O2 0.928033 0.549735 0.416458
O O3 0.996942 0.270551 0.382670
O O4 0.379035 0.216380 0.980136
O O5 0.391540 0.376840 0.663257
O O6 0.879186 0.129486 0.225763
O O7 0.622486 0.097989 0.559160
O O8 0.699453 0.020737 0.250086
O O9 0.844966 0.278402 0.084736
O O10 0.476515 0.528343 0.250266
O O11 0.917189 0.397200 0.871497
O O12 0.251690 0.575803 0.210167
O O13 0.813620 0.874828 0.543156
O O14 0.761781 0.175778 0.634714
#
# Coordination Sequence:
#
# PCOD9017830 Si02
#       7
#     2   2   2   2   2   2   2
#     4  12  26  45  71 106 142 178 234 289 345 410
#     4  10  21  43  66  96 140 178 227 277 337 416
#     4  11  22  43  72 101 134 185 226 280 349 405
#     4  11  23  42  72 102 139 180 229 284 346 416
#     4  12  25  47  71 104 141 184 233 286 348 403
#     4  11  25  50  71  99 145 183 234 288 335 421
#     4  11  24  48  68 104 139 185 232 280 350 409
#
# _framework density 23.643343000000002
#
# number of rings (size 3 to 8) (size 9 to 14) (size 15 to 20)
#    0.000    0.857    7.143    1.714    0.000    2.857 
#    5.143    0.000    0.000    0.000    0.000    0.000 
#    0.000    0.000    0.000    0.000    0.000    0.000 
#
# Total GULP energy -78224.039102 kJ/mol
# GULP energy per Si atom -5587.431364 kJ/mol
# Density = 2.358953 g / cm^3
# Si number density = 23.643343 Si / 1000 Ang^3
#
#
#
# Elastic Constant Matrix: (Units=GPa)
#
#
# Indices 1 2 3 4 5 6 
#
# 1 48.5795 47.4427 16.9349 4.4476 7.1031 22.7681
# 2 47.4427 141.1405 60.3395 11.0729 -12.2072 20.3743
# 3 16.9349 60.3395 95.9272 -1.3009 6.7901 -1.6163
# 4 4.4476 11.0729 -1.3009 45.7621 7.9048 4.3074
# 5 7.1031 -12.2072 6.7901 7.9048 24.5521 2.2149
# 6 22.7681 20.3743 -1.6163 4.3074 2.2149 35.2808
#
#
#
# Elastic Compliance Matrix: (Units=1/GPa)
#
#
# Indices 1 2 3 4 5 6 
#
# 1 0.049225 -0.017839 0.003978 0.005755 -0.024218 -0.020465
# 2 -0.017839 0.020448 -0.011303 -0.007014 0.020826 -0.001265
# 3 0.003978 -0.011303 0.017953 0.004753 -0.013723 0.005064
# 4 0.005755 -0.007014 0.004753 0.025809 -0.014625 -0.001679
# 5 -0.024218 0.020826 -0.013723 -0.014625 0.066542 0.000581
# 6 -0.020465 -0.001265 0.005064 -0.001679 0.000581 0.042682
#
#
# Mechanical properties :
#
#
# Convention : Reuss Voigt Hill
#
# Bulk Modulus (GPa) = 26.81083 59.45347 43.13215
# Shear Modulus (GPa) = 17.51799 31.84769 24.68284
#
# Velocity S-wave (km/s) = 2.72495 3.67414 3.23455
# Velocity P-wave (km/s) = 4.61138 6.57264 5.67734
#
# Compressibility (1/GPa) = 0.03729836
#
# Stress axis : x y z
#
# Youngs Moduli (GPa) = 20.31473 48.90469 55.70013
#
# Poissons Ratio (x) = 0.87242 -0.22159
# Poissons Ratio (y) = 0.36240 0.62959
# Poissons Ratio (z) = -0.08082 0.55278
#
# Static dielectric constant tensor:
#      x y z
#    x 1.917290 0.023660 0.007910 
#    y 0.023660 1.877910 0.014130 
#    z 0.007910 0.014130 1.957780 
# 
# From -- ./inp_files/428513.got.cif
#   From: 2010.05.17/outbox.cif.g08.bks.cpg/sg2_215_cif.got.tgz:428513.got - 2010.06.03 11:33:40.
