data_PCOD9017863
_publ_section_title
;
Structure prediction by ZEFSAII (Michael W. Deem and Ramdas Pophale) SiO2 
 PCOD9017863
Probable space group: P -1
;
_chemical_formula_sum "Si O2"
_cell_formula_units_Z 16
_cell_length_a 6.269627
_cell_length_b 16.428534
_cell_length_c 13.810283
_cell_angle_alpha 42.284564
_cell_angle_beta 49.634876
_cell_angle_gamma 69.080476
_cell_volume 708.231026
_symmetry_space_group_name_H-M "P -1"
_symmetry_group_IT_number 2
_symmetry_cell_setting 'triclinic'
loop_
_space_group_symop_operation_xyz
x,y,z
-x,-y,-z
loop_
_atom_site_type_symbol
_atom_site_label
_atom_site_fract_x
_atom_site_fract_y
_atom_site_fract_z
Si Si1 0.767609 0.270948 0.526804
Si Si2 0.284307 0.602135 0.856891
Si Si3 0.562669 0.511113 0.358914
Si Si4 0.115289 0.673969 0.043427
Si Si5 0.343665 0.020204 0.921623
Si Si6 0.554036 0.903332 0.779433
Si Si7 0.891645 0.169764 0.386400
Si Si8 0.825099 0.539706 0.648719
O O1 0.698865 0.395167 0.392706
O O2 0.942761 0.213731 0.444980
O O3 0.941416 0.330901 0.517251
O O4 0.487729 0.165206 0.728040
O O5 0.259640 0.733519 0.704631
O O6 0.555992 0.560805 0.772042
O O7 0.280516 0.622006 0.955185
O O8 0.000000 0.500000 0.000000
O O9 0.500000 0.500000 0.500000
O O10 0.273727 0.486633 0.406957
O O11 0.775989 0.639553 0.149712
O O12 0.110043 0.584019 0.215893
O O13 0.270019 0.814710 0.895348
O O14 0.479121 0.937688 0.879178
O O15 0.500000 0.000000 0.000000
O O16 0.000000 0.000000 0.000000
O O17 0.814426 0.834746 0.750195
O O18 0.677020 0.033573 0.573141
#
# Coordination Sequence:
#
# PCOD9017863 Si02
#       8
#     2   2   2   2   2   2   2   2
#     4  10  23  44  69  96 136 184 238 293 367 430
#     4  12  20  37  70 101 141 185 231 299 367 439
#     4  11  25  41  65  96 132 182 235 294 354 426
#     4  11  24  39  63 103 133 182 229 297 362 433
#     4  11  28  48  75 106 143 196 249 304 361 441
#     4  10  24  43  68 103 145 183 241 295 364 435
#     4  10  21  43  67 101 140 181 234 293 365 436
#     4  11  22  41  67  96 139 178 233 294 368 430
#
# _framework density 22.591497
#
# number of rings (size 3 to 8) (size 9 to 14) (size 15 to 20)
#    0.000    1.250    2.500    2.625    3.500    4.500 
#    0.000    0.000    0.000    0.000    0.000    0.000 
#    0.000    0.000    0.000    0.000    0.000    0.000 
#
# Total GULP energy -89271.129499 kJ/mol
# GULP energy per Si atom -5579.445594 kJ/mol
# Density = 2.254008 g / cm^3
# Si number density = 22.591497 Si / 1000 Ang^3
#
#
#
# Elastic Constant Matrix: (Units=GPa)
#
#
# Indices 1 2 3 4 5 6 
#
# 1 105.0843 38.3069 47.8897 0.8701 -17.4479 27.0418
# 2 38.3069 90.7602 36.3471 5.7660 -16.9506 15.5447
# 3 47.8897 36.3471 94.9788 -5.4413 -33.0676 19.6528
# 4 0.8701 5.7660 -5.4413 41.3888 6.6224 -5.3614
# 5 -17.4479 -16.9506 -33.0676 6.6224 47.4487 -2.4040
# 6 27.0418 15.5447 19.6528 -5.3614 -2.4040 42.9048
#
#
#
# Elastic Compliance Matrix: (Units=1/GPa)
#
#
# Indices 1 2 3 4 5 6 
#
# 1 0.014423 -0.002925 -0.004679 -0.001433 0.000893 -0.006016
# 2 -0.002925 0.014450 -0.002937 -0.003009 0.002343 -0.002291
# 3 -0.004679 -0.002937 0.018151 0.000889 0.009570 -0.003653
# 4 -0.001433 -0.003009 0.000889 0.026023 -0.004382 0.004593
# 5 0.000893 0.002343 0.009570 -0.004382 0.029284 -0.004702
# 6 -0.006016 -0.002291 -0.003653 0.004593 -0.004702 0.029913
#
#
# Mechanical properties :
#
#
# Convention : Reuss Voigt Hill
#
# Bulk Modulus (GPa) = 38.54987 59.54563 49.04775
# Shear Modulus (GPa) = 30.86862 37.56709 34.21786
#
# Velocity S-wave (km/s) = 3.70047 4.08227 3.89605
# Velocity P-wave (km/s) = 5.94634 6.97386 6.48049
#
# Compressibility (1/GPa) = 0.02594043
#
# Stress axis : x y z
#
# Youngs Moduli (GPa) = 69.33153 69.20243 55.09320
#
# Poissons Ratio (x) = 0.20245 0.25780
# Poissons Ratio (y) = 0.20283 0.16183
# Poissons Ratio (z) = 0.32442 0.20328
#
# Static dielectric constant tensor:
#      x y z
#    x 1.979140 -0.009300 -0.042900 
#    y -0.009300 1.846750 0.039580 
#    z -0.042900 0.039580 1.828670 
# 
# From -- ./inp_files/364509.got.cif
#   From: 2010.05.17/outbox.cif.g08.bks.cpg/sg2_183_cif.got.tgz:364509.got - 2010.06.03 11:33:40.
