data_PCOD9017026
_publ_section_title
;
Structure prediction by ZEFSAII (Michael W. Deem and Ramdas Pophale) SiO2 
 PCOD9017026
Probable space group: P -1
;
_chemical_formula_sum "Si O2"
_cell_formula_units_Z 16
_cell_length_a 19.875261
_cell_length_b 7.790297
_cell_length_c 5.991653
_cell_angle_alpha 87.198996
_cell_angle_beta 117.449022
_cell_angle_gamma 124.928661
_cell_volume 644.812209
_symmetry_space_group_name_H-M "P -1"
_symmetry_group_IT_number 2
_symmetry_cell_setting 'triclinic'
loop_
_space_group_symop_operation_xyz
x,y,z
-x,-y,-z
loop_
_atom_site_type_symbol
_atom_site_label
_atom_site_fract_x
_atom_site_fract_y
_atom_site_fract_z
Si Si1 0.572441 0.246512 0.003939
Si Si2 0.248578 0.049798 0.762911
Si Si3 0.047072 0.163382 0.349612
Si Si4 0.766304 0.501231 0.558508
Si Si5 0.259754 0.871162 0.193796
Si Si6 0.415596 0.276432 0.638967
Si Si7 0.324492 0.431993 0.209338
Si Si8 0.110902 0.925034 0.183134
O O1 0.661275 0.364039 0.299389
O O2 0.512907 0.342386 0.892146
O O3 0.624096 0.328459 0.833781
O O4 0.500000 0.000000 0.000000
O O5 0.335643 0.179869 0.713997
O O6 0.147338 0.908887 0.486346
O O7 0.273170 0.247838 0.947598
O O8 0.256915 0.887118 0.925097
O O9 0.154874 0.390401 0.525723
O O10 0.079304 0.066880 0.222586
O O11 0.000000 0.000000 0.500000
O O12 0.977668 0.206871 0.125113
O O13 0.780617 0.351682 0.735722
O O14 0.755679 0.634390 0.724756
O O15 0.193325 0.937777 0.170840
O O16 0.369421 0.061240 0.427375
O O17 0.405617 0.431065 0.460070
#
# Coordination Sequence:
#
# PCOD9017026 Si02
#       8
#     2   2   2   2   2   2   2   2
#     4  12  26  44  68 104 143 185 233 286 347 412
#     4  10  21  42  70  96 135 187 231 281 340 411
#     4  11  24  45  72 103 137 176 229 290 347 412
#     4  12  27  44  68 104 140 179 232 289 350 414
#     4  10  22  42  67  99 142 180 223 286 351 405
#     4  10  22  44  67 100 137 186 237 280 340 417
#     4  11  25  42  69  99 140 185 233 288 343 403
#     4  10  22  42  69  99 131 176 228 274 340 419
#
# _framework density 24.813424999999999
#
# number of rings (size 3 to 8) (size 9 to 14) (size 15 to 20)
#    0.000    1.250    1.250    4.875    1.750   10.000 
#    0.000    1.250    0.000    0.000    0.000    0.000 
#    0.000    0.000    0.000    0.000    0.000    0.000 
#
# Total GULP energy -89086.776914 kJ/mol
# GULP energy per Si atom -5567.923557 kJ/mol
# Density = 2.475695 g / cm^3
# Si number density = 24.813425 Si / 1000 Ang^3
#
#
#
# Elastic Constant Matrix: (Units=GPa)
#
#
# Indices 1 2 3 4 5 6 
#
# 1 80.8301 44.3394 49.7789 -7.3247 13.1946 19.6360
# 2 44.3394 91.2291 60.0952 -37.4512 12.7762 19.2228
# 3 49.7789 60.0952 155.7808 -19.5453 29.3525 19.5564
# 4 -7.3247 -37.4512 -19.5453 41.1427 -1.9372 0.2643
# 5 13.1946 12.7762 29.3525 -1.9372 32.0024 -8.6843
# 6 19.6360 19.2228 19.5564 0.2643 -8.6843 36.6356
#
#
#
# Elastic Compliance Matrix: (Units=1/GPa)
#
#
# Indices 1 2 3 4 5 6 
#
# 1 0.020294 -0.008710 -0.002061 -0.005492 -0.005059 -0.006366
# 2 -0.008710 0.031138 -0.003128 0.025021 -0.007715 -0.012009
# 3 -0.002061 -0.003128 0.010873 0.001551 -0.009205 -0.005251
# 4 -0.005492 0.025021 0.001551 0.046456 -0.010062 -0.013733
# 5 -0.005059 -0.007715 -0.009205 -0.010062 0.050696 0.023763
# 6 -0.006366 -0.012009 -0.005251 -0.013733 0.023763 0.045544
#
#
# Mechanical properties :
#
#
# Convention : Reuss Voigt Hill
#
# Bulk Modulus (GPa) = 28.98082 70.69633 49.83858
# Shear Modulus (GPa) = 20.46653 33.53124 26.99889
#
# Velocity S-wave (km/s) = 2.87508 3.68004 3.30218
# Velocity P-wave (km/s) = 4.76721 6.82715 5.88796
#
# Compressibility (1/GPa) = 0.03450558
#
# Stress axis : x y z
#
# Youngs Moduli (GPa) = 49.27646 32.11519 91.97145
#
# Poissons Ratio (x) = 0.27973 0.18958
# Poissons Ratio (y) = 0.42920 0.28769
# Poissons Ratio (z) = 0.10157 0.10046
#
# Static dielectric constant tensor:
#      x y z
#    x 2.015790 -0.009310 -0.026180 
#    y -0.009310 2.243000 0.107430 
#    z -0.026180 0.107430 2.080140 
# 
# From -- ./inp_files/116973.got.cif
#   From: 2010.05.17/outbox.cif.g08.bks.cpg/sg2_59_cif.got.tgz:116973.got - 2010.06.03 11:33:40.
