data_PCOD9017127
_publ_section_title
;
Structure prediction by ZEFSAII (Michael W. Deem and Ramdas Pophale) SiO2 
 PCOD9017127
Probable space group: P -1
;
_chemical_formula_sum "Si O2"
_cell_formula_units_Z 16
_cell_length_a 7.097846
_cell_length_b 22.947569
_cell_length_c 14.777745
_cell_angle_alpha 159.269416
_cell_angle_beta 60.930763
_cell_angle_gamma 108.398642
_cell_volume 665.556140
_symmetry_space_group_name_H-M "P -1"
_symmetry_group_IT_number 2
_symmetry_cell_setting 'triclinic'
loop_
_space_group_symop_operation_xyz
x,y,z
-x,-y,-z
loop_
_atom_site_type_symbol
_atom_site_label
_atom_site_fract_x
_atom_site_fract_y
_atom_site_fract_z
Si Si1 0.570337 0.332400 0.479783
Si Si2 0.673000 0.080446 0.461541
Si Si3 0.348394 0.620986 0.792207
Si Si4 0.137638 0.247863 0.840517
Si Si5 0.123782 0.300480 0.627666
Si Si6 0.874058 0.985512 0.643260
Si Si7 0.611161 0.524918 0.918762
Si Si8 0.985840 0.035308 0.162781
O O1 0.473713 0.503687 0.682257
O O2 0.351100 0.298977 0.520485
O O3 0.678008 0.380533 0.614388
O O4 0.777174 0.144075 0.117409
O O5 0.414364 0.092494 0.565113
O O6 0.752813 0.042732 0.282433
O O7 0.914768 0.972287 0.303739
O O8 0.613303 0.292346 0.803760
O O9 0.500000 0.500000 0.500000
O O10 0.327353 0.823274 0.070734
O O11 0.075220 0.642813 0.882478
O O12 0.020711 0.153055 0.666055
O O13 0.192768 0.401875 0.003086
O O14 0.195108 0.136259 0.447571
O O15 0.000000 0.500000 0.000000
O O16 0.998434 0.220472 0.465308
O O17 0.500000 0.500000 0.000000
O O18 0.000000 0.000000 0.000000
#
# Coordination Sequence:
#
# PCOD9017127 Si02
#       8
#     2   2   2   2   2   2   2   2
#     4  12  25  45  73 111 154 196 255 316 389 461
#     4   9  22  43  66 103 140 189 256 299 369 458
#     4  12  27  49  71 105 152 200 254 315 386 464
#     4  10  24  43  74 103 140 200 254 307 378 442
#     4  11  24  45  78 110 143 203 260 312 389 461
#     4  11  23  47  76 104 147 198 254 315 376 461
#     4  10  21  42  71 110 148 188 249 315 373 459
#     4  11  24  42  69 110 159 192 243 325 391 451
#
# _framework density 24.040044000000002
#
# number of rings (size 3 to 8) (size 9 to 14) (size 15 to 20)
#    0.750    0.500    0.000    6.750    1.750    4.500 
#    4.500    0.625    0.000    0.000    0.000    0.000 
#    0.000    0.000    0.000    0.000    0.000    0.000 
#
# Total GULP energy -89167.390356 kJ/mol
# GULP energy per Si atom -5572.961897 kJ/mol
# Density = 2.398533 g / cm^3
# Si number density = 24.040044 Si / 1000 Ang^3
#
#
#
# Elastic Constant Matrix: (Units=GPa)
#
#
# Indices 1 2 3 4 5 6 
#
# 1 96.4939 54.1037 51.2969 -16.0353 3.9891 -4.4209
# 2 54.1037 151.5537 65.4144 3.6615 -6.1982 -4.0838
# 3 51.2969 65.4144 170.2378 -3.7144 -15.2507 3.5405
# 4 -16.0353 3.6615 -3.7144 49.9918 3.7955 -16.8431
# 5 3.9891 -6.1982 -15.2507 3.7955 42.9972 -0.3195
# 6 -4.4209 -4.0838 3.5405 -16.8431 -0.3195 29.5762
#
#
#
# Elastic Compliance Matrix: (Units=1/GPa)
#
#
# Indices 1 2 3 4 5 6 
#
# 1 0.016656 -0.004572 -0.003600 0.008019 -0.004138 0.006811
# 2 -0.004572 0.009235 -0.002104 -0.002604 0.001234 -0.000626
# 3 -0.003600 -0.002104 0.008058 -0.001513 0.003003 -0.002623
# 4 0.008019 -0.002604 -0.001513 0.028822 -0.004071 0.017390
# 5 -0.004138 0.001234 0.003003 -0.004071 0.025222 -0.002854
# 6 0.006811 -0.000626 -0.002623 0.017390 -0.002854 0.044929
#
#
# Mechanical properties :
#
#
# Convention : Reuss Voigt Hill
#
# Bulk Modulus (GPa) = 74.63939 84.43506 79.53723
# Shear Modulus (GPa) = 31.65766 41.01106 36.33436
#
# Velocity S-wave (km/s) = 3.63281 4.13479 3.89190
# Velocity P-wave (km/s) = 6.97938 7.61540 7.30431
#
# Compressibility (1/GPa) = 0.01339775
#
# Stress axis : x y z
#
# Youngs Moduli (GPa) = 60.03811 108.28093 124.10239
#
# Poissons Ratio (x) = 0.49505 0.44671
# Poissons Ratio (y) = 0.27449 0.26114
# Poissons Ratio (z) = 0.21611 0.22785
#
# Static dielectric constant tensor:
#      x y z
#    x 2.050800 -0.153410 -0.023950 
#    y -0.153410 2.177750 0.022110 
#    z -0.023950 0.022110 1.882270 
# 
# From -- ./inp_files/508930.got.cif
#   From: 2010.05.17/outbox.cif.g08.bks.cpg/sg2_255_cif.got.tgz:508930.got - 2010.06.03 11:33:40.
