data_PCOD9017088
_publ_section_title
;
Structure prediction by ZEFSAII (Michael W. Deem and Ramdas Pophale) SiO2 
 PCOD9017088
Probable space group: P -1
;
_chemical_formula_sum "Si O2"
_cell_formula_units_Z 16
_cell_length_a 9.848775
_cell_length_b 10.751376
_cell_length_c 11.943048
_cell_angle_alpha 87.823165
_cell_angle_beta 47.723230
_cell_angle_gamma 58.642437
_cell_volume 694.756466
_symmetry_space_group_name_H-M "P -1"
_symmetry_group_IT_number 2
_symmetry_cell_setting 'triclinic'
loop_
_space_group_symop_operation_xyz
x,y,z
-x,-y,-z
loop_
_atom_site_type_symbol
_atom_site_label
_atom_site_fract_x
_atom_site_fract_y
_atom_site_fract_z
Si Si1 0.903705 0.084169 0.404985
Si Si2 0.594272 0.565516 0.863386
Si Si3 0.037576 0.776503 0.422255
Si Si4 0.353224 0.242459 0.773227
Si Si5 0.232283 0.654351 0.694235
Si Si6 0.263165 0.814073 0.855350
Si Si7 0.526829 0.922710 0.610142
Si Si8 0.920440 0.552650 0.863514
O O1 0.624373 0.169847 0.591826
O O2 0.878632 0.170624 0.303505
O O3 0.001167 0.137537 0.441252
O O4 0.064322 0.885943 0.323361
O O5 0.390727 0.739258 0.907473
O O6 0.781321 0.562419 0.833593
O O7 0.741503 0.420157 0.692543
O O8 0.500000 0.500000 0.000000
O O9 0.805139 0.808720 0.501661
O O10 0.146957 0.366605 0.790353
O O11 0.375041 0.083796 0.771018
O O12 0.267853 0.343649 0.932089
O O13 0.500000 0.500000 0.500000
O O14 0.249105 0.682494 0.813897
O O15 0.049311 0.626070 0.770131
O O16 0.432513 0.826472 0.682505
O O17 0.000000 0.000000 0.000000
O O18 0.500000 0.000000 0.500000
#
# Coordination Sequence:
#
# PCOD9017088 Si02
#       8
#     2   2   2   2   2   2   2   2
#     4  10  21  42  71 101 141 187 238 296 366 427
#     4  12  29  46  74 107 148 190 242 303 368 423
#     4  10  23  42  71 102 140 184 244 301 355 428
#     4  10  21  43  68 101 140 194 238 285 361 443
#     4  12  25  43  72 106 143 188 239 296 358 433
#     4  12  30  50  73 108 149 191 244 302 364 442
#     4  11  24  44  74 102 141 192 243 299 364 430
#     4  11  25  41  72 100 148 189 238 292 363 432
#
# _framework density 23.029651999999999
#
# number of rings (size 3 to 8) (size 9 to 14) (size 15 to 20)
#    0.000    1.000    1.250    4.500   12.250    0.500 
#    0.000    1.250    0.000    0.000    0.000    0.000 
#    0.000    0.000    0.000    0.000    0.000    0.000 
#
# Total GULP energy -89523.799494 kJ/mol
# GULP energy per Si atom -5595.237468 kJ/mol
# Density = 2.297724 g / cm^3
# Si number density = 23.029652 Si / 1000 Ang^3
#
#
#
# Elastic Constant Matrix: (Units=GPa)
#
#
# Indices 1 2 3 4 5 6 
#
# 1 159.4396 41.0488 31.8225 1.3473 -14.5285 -0.5191
# 2 41.0488 105.3565 19.1459 10.3178 -6.3837 -15.3665
# 3 31.8225 19.1459 53.2602 4.3082 -6.9246 -1.4209
# 4 1.3473 10.3178 4.3082 41.2519 9.3325 -4.9675
# 5 -14.5285 -6.3837 -6.9246 9.3325 26.6460 -1.8407
# 6 -0.5191 -15.3665 -1.4209 -4.9675 -1.8407 44.3280
#
#
#
# Elastic Compliance Matrix: (Units=1/GPa)
#
#
# Indices 1 2 3 4 5 6 
#
# 1 0.007822 -0.002351 -0.003489 -0.000012 0.002749 -0.000722
# 2 -0.002351 0.011752 -0.002225 -0.002663 0.002148 0.003766
# 3 -0.003489 -0.002225 0.022432 -0.002674 0.004316 -0.000213
# 4 -0.000012 -0.002663 -0.002674 0.027872 -0.010987 0.001658
# 5 0.002749 0.002148 0.004316 -0.010987 0.044619 0.001537
# 6 -0.000722 0.003766 -0.000213 0.001658 0.001537 0.024099
#
#
# Mechanical properties :
#
#
# Convention : Reuss Voigt Hill
#
# Bulk Modulus (GPa) = 38.64593 55.78787 47.21690
# Shear Modulus (GPa) = 30.60886 37.51444 34.06165
#
# Velocity S-wave (km/s) = 3.64965 4.04042 3.84999
# Velocity P-wave (km/s) = 5.88024 6.78554 6.34905
#
# Compressibility (1/GPa) = 0.02587595
#
# Stress axis : x y z
#
# Youngs Moduli (GPa) = 127.84532 85.09115 44.57904
#
# Poissons Ratio (x) = 0.20006 0.15555
# Poissons Ratio (y) = 0.30058 0.09918
# Poissons Ratio (z) = 0.44609 0.18930
#
# Static dielectric constant tensor:
#      x y z
#    x 1.889330 0.017790 0.041840 
#    y 0.017790 1.879540 -0.002410 
#    z 0.041840 -0.002410 1.906870 
# 
# From -- ./inp_files/392552.got.cif
#   From: 2010.05.17/outbox.cif.g08.bks.cpg/sg2_197_cif.got.tgz:392552.got - 2010.06.03 11:33:40.
