data_PCOD9017562
_publ_section_title
;
Structure prediction by ZEFSAII (Michael W. Deem and Ramdas Pophale) SiO2 
 PCOD9017562
Probable space group: P -1
;
_chemical_formula_sum "Si O2"
_cell_formula_units_Z 14
_cell_length_a 16.175936
_cell_length_b 13.982311
_cell_length_c 8.337790
_cell_angle_alpha 71.226182
_cell_angle_beta 61.182553
_cell_angle_gamma 23.792929
_cell_volume 627.522081
_symmetry_space_group_name_H-M "P -1"
_symmetry_group_IT_number 2
_symmetry_cell_setting 'triclinic'
loop_
_space_group_symop_operation_xyz
x,y,z
-x,-y,-z
loop_
_atom_site_type_symbol
_atom_site_label
_atom_site_fract_x
_atom_site_fract_y
_atom_site_fract_z
Si Si1 0.411113 0.494504 0.224133
Si Si2 0.743046 0.025097 0.738967
Si Si3 0.418745 0.194691 0.134972
Si Si4 0.399921 0.524337 0.714750
Si Si5 0.242760 0.322968 0.886111
Si Si6 0.871391 0.056874 0.845810
Si Si7 0.788880 0.515725 0.494850
O O1 0.509438 0.501032 0.205790
O O2 0.177319 0.774701 0.214038
O O3 0.335076 0.472186 0.404758
O O4 0.642909 0.235381 0.050336
O O5 0.526263 0.293028 0.711140
O O6 0.882389 0.982642 0.711153
O O7 0.630909 0.061210 0.956365
O O8 0.930781 0.778915 0.594963
O O9 0.301009 0.345048 0.330799
O O10 0.535273 0.970808 0.170446
O O11 0.256963 0.352936 0.039210
O O12 0.500000 0.500000 0.500000
O O13 0.120904 0.793249 0.835403
O O14 0.253192 0.385138 0.686999
O O15 0.000000 0.500000 0.000000
#
# Coordination Sequence:
#
# PCOD9017562 Si02
#       7
#     2   2   2   2   2   2   2
#     4  10  22  40  65 102 138 191 242 283 346 419
#     4  11  24  43  68 103 142 185 241 292 341 426
#     4  11  26  50  72 107 141 179 237 298 359 432
#     4  11  23  38  62  98 143 193 238 284 347 411
#     4  11  26  51  77 103 143 179 231 305 365 427
#     4  10  21  43  64  95 150 189 233 296 339 404
#     4  12  24  48  77 104 144 190 236 293 361 424
#
# _framework density 22.309971999999998
#
# number of rings (size 3 to 8) (size 9 to 14) (size 15 to 20)
#    0.000    1.143    2.857    2.571    4.000    2.857 
#    5.143    0.000    0.000    0.000    0.000    0.000 
#    0.000    0.000    0.000    0.000    0.000    0.000 
#
# Total GULP energy -78071.995223 kJ/mol
# GULP energy per Si atom -5576.571087 kJ/mol
# Density = 2.225919 g / cm^3
# Si number density = 22.309972 Si / 1000 Ang^3
#
#
#
# Elastic Constant Matrix: (Units=GPa)
#
#
# Indices 1 2 3 4 5 6 
#
# 1 74.3593 36.9070 38.7148 -1.6284 1.1786 -8.4250
# 2 36.9070 156.8167 79.9750 -1.4169 -4.7113 6.0387
# 3 38.7148 79.9750 161.7430 -1.5444 -2.8521 11.4893
# 4 -1.6284 -1.4169 -1.5444 41.7362 16.2302 -3.4264
# 5 1.1786 -4.7113 -2.8521 16.2302 37.3263 -5.2382
# 6 -8.4250 6.0387 11.4893 -3.4264 -5.2382 29.3132
#
#
#
# Elastic Compliance Matrix: (Units=1/GPa)
#
#
# Indices 1 2 3 4 5 6 
#
# 1 0.017309 -0.002657 -0.003316 0.001314 -0.000747 0.006842
# 2 -0.002657 0.008957 -0.003707 -0.000394 0.000958 -0.001031
# 3 -0.003316 -0.003707 0.009075 -0.000183 -0.000122 -0.003789
# 4 0.001314 -0.000394 -0.000183 0.028979 -0.012469 0.001690
# 5 -0.000747 0.000958 -0.000122 -0.012469 0.032917 0.004061
# 6 0.006842 -0.001031 -0.003789 0.001690 0.004061 0.038702
#
#
# Mechanical properties :
#
#
# Convention : Reuss Voigt Hill
#
# Bulk Modulus (GPa) = 62.57046 78.23471 70.40259
# Shear Modulus (GPa) = 31.12831 37.49660 34.31246
#
# Velocity S-wave (km/s) = 3.73938 4.10409 3.92597
# Velocity P-wave (km/s) = 6.83745 7.58956 7.22330
#
# Compressibility (1/GPa) = 0.01598198
#
# Stress axis : x y z
#
# Youngs Moduli (GPa) = 57.77294 111.63870 110.19779
#
# Poissons Ratio (x) = 0.29657 0.36544
# Poissons Ratio (y) = 0.15347 0.40849
# Poissons Ratio (z) = 0.19159 0.41383
#
# Static dielectric constant tensor:
#      x y z
#    x 2.799660 -0.067090 1.140060 
#    y -0.067090 1.905830 -0.077900 
#    z 1.140060 -0.077900 3.101650 
# 
# From -- ./inp_files/334807.got.cif
#   From: 2010.05.17/outbox.cif.g08.bks.cpg/sg2_168_cif.got.tgz:334807.got - 2010.06.03 11:33:40.
