data_PCOD9017983
_publ_section_title
;
Structure prediction by ZEFSAII (Michael W. Deem and Ramdas Pophale) SiO2 
 PCOD9017983
Probable space group: P -1
;
_chemical_formula_sum "Si O2"
_cell_formula_units_Z 14
_cell_length_a 9.075324
_cell_length_b 11.560379
_cell_length_c 5.895867
_cell_angle_alpha 105.811149
_cell_angle_beta 100.024556
_cell_angle_gamma 73.490635
_cell_volume 567.480572
_symmetry_space_group_name_H-M "P -1"
_symmetry_group_IT_number 2
_symmetry_cell_setting 'triclinic'
loop_
_space_group_symop_operation_xyz
x,y,z
-x,-y,-z
loop_
_atom_site_type_symbol
_atom_site_label
_atom_site_fract_x
_atom_site_fract_y
_atom_site_fract_z
Si Si1 0.133926 0.317604 0.955588
Si Si2 0.374289 0.059497 0.308587
Si Si3 0.403536 0.633605 0.123239
Si Si4 0.887674 0.316383 0.243539
Si Si5 0.023904 0.059270 0.291715
Si Si6 0.448955 0.174652 0.985040
Si Si7 0.182468 0.559348 0.303905
O O1 0.204232 0.434455 0.097188
O O2 0.049706 0.297749 0.153491
O O3 0.269709 0.198628 0.867354
O O4 0.989443 0.360623 0.772030
O O5 0.199837 0.072522 0.341519
O O6 0.500000 0.000000 0.500000
O O7 0.413840 0.948111 0.075555
O O8 0.416300 0.175419 0.249847
O O9 0.241827 0.676578 0.971974
O O10 0.500000 0.500000 0.000000
O O11 0.496229 0.728995 0.111504
O O12 0.331826 0.615353 0.339304
O O13 0.838230 0.444678 0.435633
O O14 0.903782 0.193936 0.330281
O O15 0.000000 0.000000 0.500000
O O16 0.000000 0.000000 0.000000
#
# Coordination Sequence:
#
# PCOD9017983 Si02
#       7
#     2   2   2   2   2   2   2
#     4  10  21  43  67  96 138 182 238 296 365 447
#     4  11  28  46  71 106 142 197 253 317 379 448
#     4  11  24  44  67 101 142 188 232 309 370 455
#     4  11  25  42  71  99 142 189 245 296 376 445
#     4  12  30  50  80 112 153 202 259 317 378 454
#     4  11  24  45  69  94 148 182 248 301 387 435
#     4  10  23  41  67 101 135 182 234 298 364 453
#
# _framework density 24.670448
#
# number of rings (size 3 to 8) (size 9 to 14) (size 15 to 20)
#    0.000    1.143    2.857    1.286   14.000    0.571 
#    2.571    0.000    0.000    0.000    0.000    0.000 
#    0.000    0.000    0.000    0.000    0.000    0.000 
#
# Total GULP energy -77972.462297 kJ/mol
# GULP energy per Si atom -5569.461593 kJ/mol
# Density = 2.461430 g / cm^3
# Si number density = 24.670448 Si / 1000 Ang^3
#
#
#
# Elastic Constant Matrix: (Units=GPa)
#
#
# Indices 1 2 3 4 5 6 
#
# 1 149.6839 11.5511 20.2951 -6.0389 -28.7924 -1.6054
# 2 11.5511 65.7753 -6.2417 -10.3134 -11.7693 -3.0145
# 3 20.2951 -6.2417 71.7528 1.6430 -6.3952 19.1494
# 4 -6.0389 -10.3134 1.6430 34.4962 -3.0759 -7.9640
# 5 -28.7924 -11.7693 -6.3952 -3.0759 25.0263 -6.1133
# 6 -1.6054 -3.0145 19.1494 -7.9640 -6.1133 43.5090
#
#
#
# Elastic Compliance Matrix: (Units=1/GPa)
#
#
# Indices 1 2 3 4 5 6 
#
# 1 0.009547 0.001121 -0.002698 0.004186 0.012342 0.004118
# 2 0.001121 0.018719 0.001171 0.007752 0.012315 0.003972
# 3 -0.002698 0.001171 0.016977 -0.002846 -0.000540 -0.008087
# 4 0.004186 0.007752 -0.002846 0.035934 0.014738 0.010592
# 5 0.012342 0.012315 -0.000540 0.014738 0.064885 0.013361
# 6 0.004118 0.003972 -0.008087 0.010592 0.013361 0.030786
#
#
# Mechanical properties :
#
#
# Convention : Reuss Voigt Hill
#
# Bulk Modulus (GPa) = 22.50647 37.60235 30.05441
# Shear Modulus (GPa) = 25.97806 38.04680 32.01243
#
# Velocity S-wave (km/s) = 3.24852 3.93135 3.60613
# Velocity P-wave (km/s) = 4.81801 5.99018 5.43578
#
# Compressibility (1/GPa) = 0.04443167
#
# Stress axis : x y z
#
# Youngs Moduli (GPa) = 104.74440 53.42291 58.90325
#
# Poissons Ratio (x) = -0.05988 0.15890
# Poissons Ratio (y) = -0.11740 -0.06900
# Poissons Ratio (z) = 0.28256 -0.06258
#
# Static dielectric constant tensor:
#      x y z
#    x 2.107380 0.227900 -0.118100 
#    y 0.227900 2.208250 -0.024020 
#    z -0.118100 -0.024020 2.134750 
# 
# From -- ./inp_files/28414.got.cif
#   From: 2010.05.17/outbox.cif.g08.bks.cpg/sg2_15_cif.got.tgz:28414.got - 2010.06.03 11:33:40.
