data_PCOD9017446
_publ_section_title
;
Structure prediction by ZEFSAII (Michael W. Deem and Ramdas Pophale) SiO2 
 PCOD9017446
Probable space group: P -1
;
_chemical_formula_sum "Si O2"
_cell_formula_units_Z 16
_cell_length_a 13.994552
_cell_length_b 9.068119
_cell_length_c 26.327578
_cell_angle_alpha 37.182625
_cell_angle_beta 22.875378
_cell_angle_gamma 48.342273
_cell_volume 749.919441
_symmetry_space_group_name_H-M "P -1"
_symmetry_group_IT_number 2
_symmetry_cell_setting 'triclinic'
loop_
_space_group_symop_operation_xyz
x,y,z
-x,-y,-z
loop_
_atom_site_type_symbol
_atom_site_label
_atom_site_fract_x
_atom_site_fract_y
_atom_site_fract_z
Si Si1 0.205347 0.989313 0.445697
Si Si2 0.077093 0.173611 0.853639
Si Si3 0.004834 0.626533 0.517112
Si Si4 0.319026 0.622970 0.948137
Si Si5 0.654618 0.269967 0.873153
Si Si6 0.931837 0.569219 0.069929
Si Si7 0.492960 0.562640 0.348715
Si Si8 0.160976 0.400357 0.644607
O O1 0.192841 0.703141 0.543547
O O2 0.477167 0.154907 0.244615
O O3 0.000000 0.000000 0.500000
O O4 0.105441 0.133033 0.500121
O O5 0.278585 0.250491 0.780535
O O6 0.211806 0.320398 0.697504
O O7 0.832661 0.267258 0.965016
O O8 0.999259 0.876579 0.958775
O O9 0.286976 0.680825 0.389962
O O10 0.000000 0.500000 0.500000
O O11 0.813477 0.439677 0.702257
O O12 0.473742 0.427586 0.942086
O O13 0.105376 0.482811 0.050083
O O14 0.867107 0.253214 0.814507
O O15 0.500000 0.000000 0.000000
O O16 0.637300 0.459996 0.261793
O O17 0.000000 0.500000 0.000000
O O18 0.336434 0.362273 0.522296
#
# Coordination Sequence:
#
# PCOD9017446 Si02
#       8
#     2   2   2   2   2   2   2   2
#     4  11  19  40  66  91 123 162 213 262 304 378
#     4  11  24  39  65  94 127 168 211 264 311 380
#     4  10  23  38  66  94 120 165 209 260 314 369
#     4  10  22  42  64  92 128 167 214 256 314 373
#     4  10  23  40  62  92 135 161 200 269 319 368
#     4  11  25  39  65  91 125 171 212 261 310 380
#     4  10  21  43  63  89 126 163 212 255 309 374
#     4  11  22  39  67  93 123 168 208 261 319 369
#
# _framework density 21.335625
#
# number of rings (size 3 to 8) (size 9 to 14) (size 15 to 20)
#    0.000    1.500    3.750    3.375    5.250    1.500 
#    0.000    0.625    2.750    0.000    0.000    0.000 
#    0.000    0.000    0.000    0.000    0.000    0.000 
#
# Total GULP energy -89347.050830 kJ/mol
# GULP energy per Si atom -5584.190677 kJ/mol
# Density = 2.128706 g / cm^3
# Si number density = 21.335625 Si / 1000 Ang^3
#
#
#
# Elastic Constant Matrix: (Units=GPa)
#
#
# Indices 1 2 3 4 5 6 
#
# 1 75.2893 36.5340 27.4503 14.0217 15.2064 16.1131
# 2 36.5340 87.8117 48.8075 25.6587 -4.0259 22.9199
# 3 27.4503 48.8075 96.7613 27.0028 -7.0855 0.4189
# 4 14.0217 25.6587 27.0028 45.5188 3.8824 6.7760
# 5 15.2064 -4.0259 -7.0855 3.8824 33.8771 3.1076
# 6 16.1131 22.9199 0.4189 6.7760 3.1076 30.8596
#
#
#
# Elastic Compliance Matrix: (Units=1/GPa)
#
#
# Indices 1 2 3 4 5 6 
#
# 1 0.020594 -0.005591 -0.004009 0.000917 -0.010329 -0.005707
# 2 -0.005591 0.023916 -0.008625 -0.004995 0.005421 -0.014176
# 3 -0.004009 -0.008625 0.017842 -0.006227 0.004377 0.009184
# 4 0.000917 -0.004995 -0.006227 0.029031 -0.005404 -0.002515
# 5 -0.010329 0.005421 0.004377 -0.005404 0.036442 -0.001176
# 6 -0.005707 -0.014176 0.009184 -0.002515 -0.001176 0.046459
#
#
# Mechanical properties :
#
#
# Convention : Reuss Voigt Hill
#
# Bulk Modulus (GPa) = 38.61111 53.93844 46.27478
# Shear Modulus (GPa) = 22.79261 31.85581 27.32421
#
# Velocity S-wave (km/s) = 3.27201 3.86823 3.58255
# Velocity P-wave (km/s) = 5.69307 6.72954 6.23289
#
# Compressibility (1/GPa) = 0.02589928
#
# Stress axis : x y z
#
# Youngs Moduli (GPa) = 48.55826 41.81224 56.04904
#
# Poissons Ratio (x) = 0.23379 0.22473
# Poissons Ratio (y) = 0.27151 0.48344
# Poissons Ratio (z) = 0.19469 0.36065
#
# Static dielectric constant tensor:
#      x y z
#    x 1.773350 0.005910 -0.032170 
#    y 0.005910 1.828850 0.020600 
#    z -0.032170 0.020600 1.834040 
# 
# From -- ./inp_files/619238.got.cif
#   From: 2010.05.17/outbox.cif.g08.bks.cpg/sg2_310_cif.got.tgz:619238.got - 2010.06.03 11:33:40.
