data_PCOD9017138
_publ_section_title
;
Structure prediction by ZEFSAII (Michael W. Deem and Ramdas Pophale) SiO2 
 PCOD9017138
Probable space group: P -1
;
_chemical_formula_sum "Si O2"
_cell_formula_units_Z 16
_cell_length_a 12.272870
_cell_length_b 7.528696
_cell_length_c 21.312131
_cell_angle_alpha 72.797816
_cell_angle_beta 35.466608
_cell_angle_gamma 44.569282
_cell_volume 573.700676
_symmetry_space_group_name_H-M "P -1"
_symmetry_group_IT_number 2
_symmetry_cell_setting 'triclinic'
loop_
_space_group_symop_operation_xyz
x,y,z
-x,-y,-z
loop_
_atom_site_type_symbol
_atom_site_label
_atom_site_fract_x
_atom_site_fract_y
_atom_site_fract_z
Si Si1 0.693722 0.247993 0.539381
Si Si2 0.681169 0.035695 0.775503
Si Si3 0.248248 0.298741 0.656029
Si Si4 0.252285 0.474067 0.054957
Si Si5 0.413458 0.731715 0.949530
Si Si6 0.208579 0.950424 0.640920
Si Si7 0.573297 0.861441 0.748051
Si Si8 0.178043 0.553455 0.440333
O O1 0.349800 0.631095 0.626938
O O2 0.676555 0.395547 0.594584
O O3 0.047899 0.026521 0.360376
O O4 0.815173 0.945090 0.538458
O O5 0.481007 0.137384 0.795651
O O6 0.950598 0.646663 0.714846
O O7 0.419225 0.295567 0.928094
O O8 0.589759 0.143983 0.505870
O O9 0.051182 0.424265 0.800312
O O10 0.314478 0.033669 0.628075
O O11 0.514661 0.238841 0.018462
O O12 0.148668 0.780626 0.073792
O O13 0.393537 0.883882 0.883866
O O14 0.788929 0.313858 0.800613
O O15 0.551641 0.762509 0.703892
O O16 0.002101 0.547114 0.569437
#
# Coordination Sequence:
#
# PCOD9017138 Si02
#       8
#     2   2   2   2   2   2   2   2
#     4   9  18  33  53  77 107 135 181 230 266 317
#     4  10  17  30  52  75 109 137 176 218 261 324
#     4   9  17  29  50  79 109 141 172 204 264 336
#     4  10  19  31  50  82 115 143 176 207 266 339
#     4  10  20  33  53  84 118 134 171 224 275 324
#     4   9  17  32  54  79 115 139 164 223 284 319
#     4  10  18  32  51  76 108 136 178 232 261 306
#     4   9  19  32  50  77 105 138 187 224 270 297
#
# _framework density 27.889109999999999
#
# number of rings (size 3 to 8) (size 9 to 14) (size 15 to 20)
#    0.000    2.500    2.500    1.125    1.750    0.000 
#    0.000    5.625    0.000    0.000    0.000   82.250 
#    0.000    0.000    0.000    0.000    0.000    0.000 
#
# Total GULP energy -89253.638759 kJ/mol
# GULP energy per Si atom -5578.352422 kJ/mol
# Density = 2.782563 g / cm^3
# Si number density = 27.889110 Si / 1000 Ang^3
#
#
#
# Elastic Constant Matrix: (Units=GPa)
#
#
# Indices 1 2 3 4 5 6 
#
# 1 63.2952 11.2927 30.3063 6.7158 15.4966 4.6084
# 2 11.2927 91.1497 12.5734 -1.5931 -7.8009 16.3496
# 3 30.3063 12.5734 148.9527 -29.8508 24.0564 7.4846
# 4 6.7158 -1.5931 -29.8508 47.8185 9.4405 -0.2883
# 5 15.4966 -7.8009 24.0564 9.4405 61.4735 -3.3099
# 6 4.6084 16.3496 7.4846 -0.2883 -3.3099 37.4289
#
#
#
# Elastic Compliance Matrix: (Units=1/GPa)
#
#
# Indices 1 2 3 4 5 6 
#
# 1 0.019478 -0.001973 -0.004289 -0.004937 -0.002776 -0.000962
# 2 -0.001973 0.012370 -0.000805 -0.000269 0.002164 -0.004810
# 3 -0.004289 -0.000805 0.009910 0.007571 -0.004138 -0.001410
# 4 -0.004937 -0.000269 0.007571 0.027508 -0.006036 -0.001110
# 5 -0.002776 0.002164 -0.004138 -0.006036 0.019892 0.001936
# 6 -0.000962 -0.004810 -0.001410 -0.001110 0.001936 0.029382
#
#
# Mechanical properties :
#
#
# Convention : Reuss Voigt Hill
#
# Bulk Modulus (GPa) = 36.19897 45.74913 40.97405
# Shear Modulus (GPa) = 35.24079 45.95918 40.59998
#
# Velocity S-wave (km/s) = 3.55858 4.06387 3.81959
# Velocity P-wave (km/s) = 5.46740 6.20158 5.84602
#
# Compressibility (1/GPa) = 0.02762509
#
# Stress axis : x y z
#
# Youngs Moduli (GPa) = 51.33965 80.84278 100.90399
#
# Poissons Ratio (x) = 0.15948 0.43280
# Poissons Ratio (y) = 0.10128 0.08119
# Poissons Ratio (z) = 0.22021 0.06504
#
# Static dielectric constant tensor:
#      x y z
#    x 2.523320 -0.042820 0.115830 
#    y -0.042820 2.198590 -0.037960 
#    z 0.115830 -0.037960 2.233200 
# 
# From -- ./inp_files/596965.got.cif
#   From: 2010.05.17/outbox.cif.g08.bks.cpg/sg2_299_cif.got.tgz:596965.got - 2010.06.03 11:33:40.
