data_PCOD9017642
_publ_section_title
;
Structure prediction by ZEFSAII (Michael W. Deem and Ramdas Pophale) SiO2 
 PCOD9017642
Probable space group: P -1
;
_chemical_formula_sum "Si O2"
_cell_formula_units_Z 14
_cell_length_a 12.377664
_cell_length_b 10.784136
_cell_length_c 10.139066
_cell_angle_alpha 100.940305
_cell_angle_beta 36.261657
_cell_angle_gamma 76.760488
_cell_volume 591.906894
_symmetry_space_group_name_H-M "P -1"
_symmetry_group_IT_number 2
_symmetry_cell_setting 'triclinic'
loop_
_space_group_symop_operation_xyz
x,y,z
-x,-y,-z
loop_
_atom_site_type_symbol
_atom_site_label
_atom_site_fract_x
_atom_site_fract_y
_atom_site_fract_z
Si Si1 0.329472 0.206449 0.312871
Si Si2 0.327870 0.120135 0.574901
Si Si3 0.137347 0.425930 0.167465
Si Si4 0.952591 0.318948 0.502540
Si Si5 0.389819 0.358279 0.658198
Si Si6 0.815042 0.266822 0.061172
Si Si7 0.240183 0.811693 0.197039
O O1 0.423251 0.088917 0.324129
O O2 0.186501 0.189231 0.341230
O O3 0.105199 0.399291 0.618806
O O4 0.532000 0.200356 0.045772
O O5 0.260540 0.295192 0.712570
O O6 0.500000 0.000000 0.500000
O O7 0.094628 0.137439 0.798680
O O8 0.060379 0.319275 0.259598
O O9 0.172096 0.498462 0.276329
O O10 0.366903 0.338800 0.831624
O O11 0.769482 0.288630 0.698059
O O12 0.649259 0.252490 0.311175
O O13 0.271699 0.549414 0.794699
O O14 0.780918 0.248812 0.936788
O O15 0.000000 0.000000 0.500000
#
# Coordination Sequence:
#
# PCOD9017642 Si02
#       7
#     2   2   2   2   2   2   2
#     4  10  21  43  65  93 135 177 228 275 339 397
#     4  12  25  42  68 100 143 181 221 274 344 413
#     4   9  19  41  70  97 129 170 223 290 336 384
#     4   9  20  43  63  95 132 162 233 278 326 396
#     4  11  22  42  75 100 132 174 228 281 345 390
#     4  11  23  44  70 101 133 177 235 281 329 409
#     4  12  24  41  68  95 135 185 222 273 343 400
#
# _framework density 23.652366000000001
#
# number of rings (size 3 to 8) (size 9 to 14) (size 15 to 20)
#    0.857    0.571    5.714    0.429    0.000    2.857 
#    2.571    0.000    0.000    0.000    0.000    0.000 
#    0.000    0.000    0.000    0.000    0.000    0.000 
#
# Total GULP energy -78120.283125 kJ/mol
# GULP energy per Si atom -5580.020223 kJ/mol
# Density = 2.359853 g / cm^3
# Si number density = 23.652366 Si / 1000 Ang^3
#
#
#
# Elastic Constant Matrix: (Units=GPa)
#
#
# Indices 1 2 3 4 5 6 
#
# 1 41.6071 23.1204 11.2471 0.8197 -13.4904 -11.6113
# 2 23.1204 90.4231 56.5604 -32.1445 0.5311 -16.3229
# 3 11.2471 56.5604 110.6595 -44.2965 -7.2343 0.1181
# 4 0.8197 -32.1445 -44.2965 55.3425 4.3162 7.2128
# 5 -13.4904 0.5311 -7.2343 4.3162 32.4411 -3.5060
# 6 -11.6113 -16.3229 0.1181 7.2128 -3.5060 39.5171
#
#
#
# Elastic Compliance Matrix: (Units=1/GPa)
#
#
# Indices 1 2 3 4 5 6 
#
# 1 0.040466 -0.011632 -0.001516 -0.011503 0.019389 0.010910
# 2 -0.011632 0.022125 -0.007905 0.006775 -0.007448 0.003847
# 3 -0.001516 -0.007905 0.017277 0.009854 0.001454 -0.005432
# 4 -0.011503 0.006775 0.009854 0.031579 -0.007661 -0.007054
# 5 0.019389 -0.007448 0.001454 -0.007661 0.041182 0.007668
# 6 0.010910 0.003847 -0.005432 -0.007054 0.007668 0.032084
#
#
# Mechanical properties :
#
#
# Convention : Reuss Voigt Hill
#
# Bulk Modulus (GPa) = 26.48282 47.17169 36.82726
# Shear Modulus (GPa) = 20.88501 35.57758 28.23130
#
# Velocity S-wave (km/s) = 2.97475 3.88259 3.45859
# Velocity P-wave (km/s) = 4.79790 6.33138 5.61722
#
# Compressibility (1/GPa) = 0.03776033
#
# Stress axis : x y z
#
# Youngs Moduli (GPa) = 24.71222 45.19810 57.88186
#
# Poissons Ratio (x) = 0.52575 0.08776
# Poissons Ratio (y) = 0.28746 0.45757
# Poissons Ratio (z) = 0.03747 0.35730
#
# Static dielectric constant tensor:
#      x y z
#    x 1.934900 -0.025340 0.039990 
#    y -0.025340 1.994880 0.050290 
#    z 0.039990 0.050290 1.944810 
# 
# From -- ./inp_files/449038.got.cif
#   From: 2010.05.17/outbox.cif.g08.bks.cpg/sg2_225_cif.got.tgz:449038.got - 2010.06.03 11:33:40.
