data_PCOD9017295
_publ_section_title
;
Structure prediction by ZEFSAII (Michael W. Deem and Ramdas Pophale) SiO2 
 PCOD9017295
Probable space group: P -1
;
_chemical_formula_sum "Si O2"
_cell_formula_units_Z 14
_cell_length_a 9.316861
_cell_length_b 9.644506
_cell_length_c 12.391981
_cell_angle_alpha 143.911315
_cell_angle_beta 98.005420
_cell_angle_gamma 87.819302
_cell_volume 644.182728
_symmetry_space_group_name_H-M "P -1"
_symmetry_group_IT_number 2
_symmetry_cell_setting 'triclinic'
loop_
_space_group_symop_operation_xyz
x,y,z
-x,-y,-z
loop_
_atom_site_type_symbol
_atom_site_label
_atom_site_fract_x
_atom_site_fract_y
_atom_site_fract_z
Si Si1 0.369534 0.534264 0.310749
Si Si2 0.827244 0.271934 0.994490
Si Si3 0.916771 0.775656 0.614950
Si Si4 0.747199 0.099015 0.308645
Si Si5 0.682859 0.365887 0.253207
Si Si6 0.654431 0.542464 0.982299
Si Si7 0.925050 0.730248 0.829179
O O1 0.330277 0.747965 0.515925
O O2 0.525300 0.452032 0.299075
O O3 0.242110 0.319641 0.187917
O O4 0.360251 0.586330 0.215866
O O5 0.711508 0.251650 0.068700
O O6 0.773749 0.440550 0.005149
O O7 0.979930 0.372571 0.132466
O O8 0.847094 0.016990 0.786103
O O9 0.803547 0.597331 0.423829
O O10 0.933703 0.654805 0.658591
O O11 0.076734 0.852430 0.631141
O O12 0.707798 0.191956 0.244749
O O13 0.696112 0.821789 0.142120
O O14 0.500000 0.500000 0.000000
O O15 0.000000 0.000000 0.000000
#
# Coordination Sequence:
#
# PCOD9017295 Si02
#       7
#     2   2   2   2   2   2   2
#     4  12  27  45  74 108 146 187 244 293 362 428
#     4  11  25  47  75 100 146 196 236 289 366 422
#     4  11  24  45  76 112 145 180 238 309 359 423
#     4  12  27  45  78 108 144 190 245 296 364 426
#     4  12  25  44  78 111 141 185 242 304 365 416
#     4  12  29  50  69 105 152 196 237 297 358 433
#     4  10  21  42  73 105 140 179 233 298 350 418
#
# _framework density 21.732963000000002
#
# number of rings (size 3 to 8) (size 9 to 14) (size 15 to 20)
#    0.000    0.571    4.286    3.429    4.000    5.714 
#    0.000    2.143    0.000    0.000    0.000    0.000 
#    0.000    0.000    0.000    0.000    0.000    0.000 
#
# Total GULP energy -78364.190477 kJ/mol
# GULP energy per Si atom -5597.442177 kJ/mol
# Density = 2.168350 g / cm^3
# Si number density = 21.732963 Si / 1000 Ang^3
#
#
#
# Elastic Constant Matrix: (Units=GPa)
#
#
# Indices 1 2 3 4 5 6 
#
# 1 160.5832 52.2026 35.9592 9.1771 -11.3774 -12.4981
# 2 52.2026 123.6611 61.5190 4.5367 -6.6739 -14.8590
# 3 35.9592 61.5190 117.3909 9.3390 -31.0985 -6.8724
# 4 9.1771 4.5367 9.3390 29.6865 4.2346 -2.9433
# 5 -11.3774 -6.6739 -31.0985 4.2346 39.4786 -3.1816
# 6 -12.4981 -14.8590 -6.8724 -2.9433 -3.1816 39.4003
#
#
#
# Elastic Compliance Matrix: (Units=1/GPa)
#
#
# Indices 1 2 3 4 5 6 
#
# 1 0.007509 -0.002790 -0.000084 -0.002016 0.001949 0.001322
# 2 -0.002790 0.012704 -0.006892 0.001922 -0.004088 0.002517
# 3 -0.000084 -0.006892 0.015784 -0.005515 0.011890 0.000676
# 4 -0.002016 0.001922 -0.005515 0.037079 -0.008481 0.001208
# 5 0.001949 -0.004088 0.011890 -0.008481 0.035751 0.003404
# 6 0.001322 0.002517 0.000676 0.001208 0.003404 0.027232
#
#
# Mechanical properties :
#
#
# Convention : Reuss Voigt Hill
#
# Bulk Modulus (GPa) = 60.73096 77.88852 69.30974
# Shear Modulus (GPa) = 31.04032 38.51005 34.77519
#
# Velocity S-wave (km/s) = 3.78333 4.21404 4.00448
# Velocity P-wave (km/s) = 6.86219 7.71973 7.30355
#
# Compressibility (1/GPa) = 0.01646607
#
# Stress axis : x y z
#
# Youngs Moduli (GPa) = 133.16780 78.71364 63.35483
#
# Poissons Ratio (x) = 0.21963 0.00532
# Poissons Ratio (y) = 0.37157 0.43662
# Poissons Ratio (z) = 0.01118 0.54246
#
# Static dielectric constant tensor:
#      x y z
#    x 1.803820 -0.009390 -0.019770 
#    y -0.009390 1.771330 -0.002760 
#    z -0.019770 -0.002760 1.847810 
# 
# From -- ./inp_files/383693.got.cif
#   From: 2010.05.17/outbox.cif.g08.bks.cpg/sg2_192_cif.got.tgz:383693.got - 2010.06.03 11:33:40.
