data_PCOD9017269
_publ_section_title
;
Structure prediction by ZEFSAII (Michael W. Deem and Ramdas Pophale) SiO2 
 PCOD9017269
Probable space group: P -1
;
_chemical_formula_sum "Si O2"
_cell_formula_units_Z 12
_cell_length_a 9.847487
_cell_length_b 10.312226
_cell_length_c 12.694971
_cell_angle_alpha 33.221144
_cell_angle_beta 139.399380
_cell_angle_gamma 137.980444
_cell_volume 438.157424
_symmetry_space_group_name_H-M "P -1"
_symmetry_group_IT_number 2
_symmetry_cell_setting 'triclinic'
loop_
_space_group_symop_operation_xyz
x,y,z
-x,-y,-z
loop_
_atom_site_type_symbol
_atom_site_label
_atom_site_fract_x
_atom_site_fract_y
_atom_site_fract_z
Si Si1 0.099495 0.576481 0.674874
Si Si2 0.979045 0.879945 0.217267
Si Si3 0.436560 0.346377 0.456895
Si Si4 0.438818 0.078544 0.295600
Si Si5 0.504824 0.818983 0.031866
Si Si6 0.024764 0.663644 0.797431
O O1 0.036770 0.347264 0.715538
O O2 0.987499 0.526586 0.756303
O O3 0.024780 0.789371 0.422726
O O4 0.362115 0.677010 0.775370
O O5 0.741585 0.915065 0.052995
O O6 0.193645 0.091821 0.159384
O O7 0.500000 0.500000 0.500000
O O8 0.549620 0.143441 0.624684
O O9 0.486179 0.550988 0.253394
O O10 0.173269 0.219812 0.389929
O O11 0.500000 0.000000 0.500000
O O12 0.281077 0.808067 0.848916
O O13 0.500000 0.000000 0.000000
O O14 0.000000 0.500000 0.000000
#
# Coordination Sequence:
#
# PCOD9017269 Si02
#       6
#     2   2   2   2   2   2
#     4  10  21  42  73 100 130 179 237 284 344 397
#     4  10  21  43  67 103 134 176 230 291 334 412
#     4  11  23  43  69  97 131 176 238 289 332 405
#     4  10  22  38  70 102 128 170 238 288 335 394
#     4  11  25  41  63  96 144 182 217 277 356 415
#     4  10  24  42  63  97 138 179 220 277 348 410
#
# _framework density 27.387419000000001
#
# number of rings (size 3 to 8) (size 9 to 14) (size 15 to 20)
#    0.000    1.667    0.000    5.000    7.000    1.333 
#    3.000    0.833    0.000    0.000    0.000    0.000 
#    0.000    0.000    0.000    0.000    0.000    0.000 
#
# Total GULP energy -67255.973500 kJ/mol
# GULP energy per Si atom -5604.664458 kJ/mol
# Density = 2.732508 g / cm^3
# Si number density = 27.387419 Si / 1000 Ang^3
#
#
#
# Elastic Constant Matrix: (Units=GPa)
#
#
# Indices 1 2 3 4 5 6 
#
# 1 213.2806 56.5238 72.0450 29.0679 16.1963 19.9770
# 2 56.5238 110.8866 26.2929 30.7416 6.2687 8.0921
# 3 72.0450 26.2929 159.0269 17.9577 7.3774 9.2409
# 4 29.0679 30.7416 17.9577 34.9215 11.7793 -0.0231
# 5 16.1963 6.2687 7.3774 11.7793 63.7579 26.2983
# 6 19.9770 8.0921 9.2409 -0.0231 26.2983 70.0412
#
#
#
# Elastic Compliance Matrix: (Units=1/GPa)
#
#
# Indices 1 2 3 4 5 6 
#
# 1 0.006425 -0.001985 -0.002232 -0.002373 -0.000237 -0.001220
# 2 -0.001985 0.012913 -0.000064 -0.010291 0.001802 -0.001597
# 3 -0.002232 -0.000064 0.007557 -0.002062 0.000267 -0.000454
# 4 -0.002373 -0.010291 -0.002062 0.043560 -0.008380 0.005299
# 5 -0.000237 0.001802 0.000267 -0.008380 0.020303 -0.007802
# 6 -0.001220 -0.001597 -0.000454 0.005299 -0.007802 0.017801
#
#
# Mechanical properties :
#
#
# Convention : Reuss Voigt Hill
#
# Bulk Modulus (GPa) = 54.55341 88.10196 71.32768
# Shear Modulus (GPa) = 40.57361 55.63293 48.10327
#
# Velocity S-wave (km/s) = 3.85316 4.51192 4.19549
# Velocity P-wave (km/s) = 6.30541 7.70596 7.04060
#
# Compressibility (1/GPa) = 0.01833066
#
# Stress axis : x y z
#
# Youngs Moduli (GPa) = 155.65134 77.44081 132.32667
#
# Poissons Ratio (x) = 0.15374 0.29542
# Poissons Ratio (y) = 0.30900 0.00851
# Poissons Ratio (z) = 0.34749 0.00498
#
# Static dielectric constant tensor:
#      x y z
#    x 2.125340 0.070590 -0.051670 
#    y 0.070590 2.143630 0.039780 
#    z -0.051670 0.039780 2.150800 
# 
# From -- ./inp_files/237345.got.cif
#   From: 2010.05.17/outbox.cif.g08.bks.cpg/sg2_119_cif.got.tgz:237345.got - 2010.06.03 11:33:40.
