data_PCOD9017097
_publ_section_title
;
Structure prediction by ZEFSAII (Michael W. Deem and Ramdas Pophale) SiO2 
 PCOD9017097
Probable space group: P -1
;
_chemical_formula_sum "Si O2"
_cell_formula_units_Z 16
_cell_length_a 11.425285
_cell_length_b 20.020754
_cell_length_c 9.355117
_cell_angle_alpha 112.134483
_cell_angle_beta 112.405518
_cell_angle_gamma 20.319007
_cell_volume 685.735523
_symmetry_space_group_name_H-M "P -1"
_symmetry_group_IT_number 2
_symmetry_cell_setting 'triclinic'
loop_
_space_group_symop_operation_xyz
x,y,z
-x,-y,-z
loop_
_atom_site_type_symbol
_atom_site_label
_atom_site_fract_x
_atom_site_fract_y
_atom_site_fract_z
Si Si1 0.685335 0.923193 0.375444
Si Si2 0.725583 0.744081 0.734259
Si Si3 0.623878 0.372648 0.639452
Si Si4 0.479176 0.944037 0.051085
Si Si5 0.502241 0.636210 0.148715
Si Si6 0.172904 0.737941 0.819154
Si Si7 0.366585 0.791860 0.579586
Si Si8 0.039957 0.007402 0.183822
O O1 0.700114 0.845409 0.214451
O O2 0.055701 0.763800 0.404286
O O3 0.500000 0.000000 0.500000
O O4 0.450566 0.105804 0.332296
O O5 0.631374 0.714759 0.608553
O O6 0.113869 0.560781 0.783025
O O7 0.581441 0.826814 0.896760
O O8 0.694822 0.311162 0.787920
O O9 0.339766 0.583770 0.690639
O O10 0.520948 0.349492 0.509450
O O11 0.104895 0.138474 0.095962
O O12 0.500000 0.000000 0.000000
O O13 0.352033 0.796261 0.216523
O O14 0.451632 0.631590 0.961845
O O15 0.968932 0.901897 0.757252
O O16 0.000000 0.000000 0.500000
O O17 0.274906 0.844992 0.745838
O O18 0.000000 0.000000 0.000000
#
# Coordination Sequence:
#
# PCOD9017097 Si02
#       8
#     2   2   2   2   2   2   2   2
#     4  11  24  43  68 111 149 182 234 314 370 414
#     4  11  23  45  74 106 141 194 255 290 354 446
#     4  12  24  44  73 101 149 191 239 288 369 439
#     4  10  21  42  71 102 143 185 242 300 352 430
#     4  11  22  45  76 107 140 193 249 298 359 443
#     4  11  24  43  75 109 141 187 249 303 368 423
#     4  12  24  46  71  99 146 199 237 296 365 442
#     4  10  23  46  70 101 140 189 238 300 364 423
#
# _framework density 23.332609999999999
#
# number of rings (size 3 to 8) (size 9 to 14) (size 15 to 20)
#    0.000    1.000    2.500    5.625    1.750    1.000 
#    2.250    6.875    0.000    0.000    0.000    0.000 
#    0.000    0.000    0.000    0.000    0.000    0.000 
#
# Total GULP energy -89389.941261 kJ/mol
# GULP energy per Si atom -5586.871329 kJ/mol
# Density = 2.327950 g / cm^3
# Si number density = 23.332610 Si / 1000 Ang^3
#
#
#
# Elastic Constant Matrix: (Units=GPa)
#
#
# Indices 1 2 3 4 5 6 
#
# 1 152.3003 71.2648 57.0968 13.4117 2.3126 0.8605
# 2 71.2648 113.4460 38.9571 23.2213 -4.7382 9.3968
# 3 57.0968 38.9571 124.9568 21.1794 -0.2480 1.2319
# 4 13.4117 23.2213 21.1794 31.3518 0.4790 5.3240
# 5 2.3126 -4.7382 -0.2480 0.4790 47.7639 4.8400
# 6 0.8605 9.3968 1.2319 5.3240 4.8400 45.5979
#
#
#
# Elastic Compliance Matrix: (Units=1/GPa)
#
#
# Indices 1 2 3 4 5 6 
#
# 1 0.010416 -0.005975 -0.003250 0.002011 -0.001237 0.001019
# 2 -0.005975 0.014551 -0.000503 -0.007538 0.002029 -0.002208
# 3 -0.003250 -0.000503 0.010566 -0.005462 0.000166 0.000500
# 4 0.002011 -0.007538 -0.005462 0.040834 -0.000979 -0.003001
# 5 -0.001237 0.002029 0.000166 -0.000979 0.021468 -0.002564
# 6 0.001019 -0.002208 0.000500 -0.003001 -0.002564 0.022976
#
#
# Mechanical properties :
#
#
# Convention : Reuss Voigt Hill
#
# Bulk Modulus (GPa) = 62.19894 80.59338 71.39616
# Shear Modulus (GPa) = 34.33460 39.83502 37.08481
#
# Velocity S-wave (km/s) = 3.84021 4.13639 3.99105
# Velocity P-wave (km/s) = 6.81017 7.57820 7.20442
#
# Compressibility (1/GPa) = 0.01607744
#
# Stress axis : x y z
#
# Youngs Moduli (GPa) = 96.00478 68.72170 94.64446
#
# Poissons Ratio (x) = 0.41061 0.30760
# Poissons Ratio (y) = 0.57362 0.04761
# Poissons Ratio (z) = 0.31202 0.03457
#
# Static dielectric constant tensor:
#      x y z
#    x 1.938760 0.030310 0.037250 
#    y 0.030310 1.890270 -0.019420 
#    z 0.037250 -0.019420 1.994620 
# 
# From -- ./inp_files/283139.got.cif
#   From: 2010.05.17/outbox.cif.g08.bks.cpg/sg2_142_cif.got.tgz:283139.got - 2010.06.03 11:33:40.
