data_PCOD9017701
_publ_section_title
;
Structure prediction by ZEFSAII (Michael W. Deem and Ramdas Pophale) SiO2 
 PCOD9017701
Probable space group: P -1
;
_chemical_formula_sum "Si O2"
_cell_formula_units_Z 13
_cell_length_a 8.678841
_cell_length_b 12.997664
_cell_length_c 13.106137
_cell_angle_alpha 34.653916
_cell_angle_beta 56.664341
_cell_angle_gamma 40.553934
_cell_volume 535.060555
_symmetry_space_group_name_H-M "P -1"
_symmetry_group_IT_number 2
_symmetry_cell_setting 'triclinic'
loop_
_space_group_symop_operation_xyz
x,y,z
-x,-y,-z
loop_
_atom_site_type_symbol
_atom_site_label
_atom_site_fract_x
_atom_site_fract_y
_atom_site_fract_z
Si Si1 0.519048 0.845529 0.026359
Si Si2 0.124361 0.121714 0.234550
Si Si3 0.234938 0.625924 0.031967
Si Si4 0.154566 0.209038 0.716235
Si Si5 0.820438 0.311827 0.398548
Si Si6 0.000000 0.000000 0.000000
Si Si7 0.119339 0.338958 0.422157
O O1 0.618439 0.595249 0.234969
O O2 0.691509 0.831206 0.891503
O O3 0.500000 0.000000 0.000000
O O4 0.267259 0.992764 0.934928
O O5 0.960649 0.237489 0.300270
O O6 0.257312 0.843513 0.423717
O O7 0.952754 0.236304 0.104969
O O8 0.225873 0.426840 0.241006
O O9 0.155387 0.810036 0.999446
O O10 0.500000 0.500000 0.000000
O O11 0.281722 0.168871 0.596687
O O12 0.093637 0.422187 0.630932
O O13 0.923469 0.231784 0.764083
O O14 0.011703 0.250541 0.465142
#
# Coordination Sequence:
#
# PCOD9017701 Si02
#       7
#     2   2   2   2   2   1   2
#     4  12  23  44  70 101 133 181 230 282 353 413
#     4  11  26  45  65 101 138 179 233 285 343 421
#     4  11  24  43  70 102 139 186 236 285 354 417
#     4  10  22  40  69 101 136 180 231 284 354 412
#     4  11  24  45  70  92 142 180 221 294 345 403
#     4  10  22  44  64  98 142 172 228 292 336 414
#     4  10  21  43  65  99 140 180 226 293 342 416
#
# _framework density 24.296316000000001
#
# number of rings (size 3 to 8) (size 9 to 14) (size 15 to 20)
#    0.000    1.231    3.077    2.308    2.154    3.077 
#    5.538    2.308    0.000    0.000    0.000    0.000 
#    0.000    0.000    0.000    0.000    0.000    0.000 
#
# Total GULP energy -72541.114454 kJ/mol
# GULP energy per Si atom -5580.085727 kJ/mol
# Density = 2.424102 g / cm^3
# Si number density = 24.296316 Si / 1000 Ang^3
#
#
#
# Elastic Constant Matrix: (Units=GPa)
#
#
# Indices 1 2 3 4 5 6 
#
# 1 80.3239 30.3816 27.2017 2.0484 5.5492 0.9750
# 2 30.3816 85.0729 25.5198 8.9886 8.6548 -0.5189
# 3 27.2017 25.5198 154.6299 6.5205 0.0041 -7.7897
# 4 2.0484 8.9886 6.5205 42.4595 8.8791 -0.9602
# 5 5.5492 8.6548 0.0041 8.8791 35.2036 2.2600
# 6 0.9750 -0.5189 -7.7897 -0.9602 2.2600 36.8543
#
#
#
# Elastic Compliance Matrix: (Units=1/GPa)
#
#
# Indices 1 2 3 4 5 6 
#
# 1 0.014971 -0.004723 -0.001928 0.000841 -0.001362 -0.000765
# 2 -0.004723 0.014326 -0.001439 -0.002111 -0.002252 0.000106
# 3 -0.001928 -0.001439 0.007153 -0.000829 0.000771 0.001474
# 4 0.000841 -0.002111 -0.000829 0.025372 -0.006065 0.000806
# 5 -0.001362 -0.002252 0.000771 -0.006065 0.030825 -0.001881
# 6 -0.000765 0.000106 0.001474 0.000806 -0.001881 0.027603
#
#
# Mechanical properties :
#
#
# Convention : Reuss Voigt Hill
#
# Bulk Modulus (GPa) = 49.33621 54.02589 51.68105
# Shear Modulus (GPa) = 34.91953 38.69839 36.80896
#
# Velocity S-wave (km/s) = 3.79520 3.99528 3.89652
# Velocity P-wave (km/s) = 6.28927 6.60057 6.44680
#
# Compressibility (1/GPa) = 0.02026909
#
# Stress axis : x y z
#
# Youngs Moduli (GPa) = 66.79623 69.80433 139.80346
#
# Poissons Ratio (x) = 0.32969 0.26955
# Poissons Ratio (y) = 0.31549 0.20118
# Poissons Ratio (z) = 0.12879 0.10045
#
# Static dielectric constant tensor:
#      x y z
#    x 2.279800 -0.131380 -0.058770 
#    y -0.131380 1.980680 -0.032560 
#    z -0.058770 -0.032560 2.135440 
# 
# From -- ./inp_files/158403.got.cif
#   From: 2010.05.17/outbox.cif.g08.bks.cpg/sg2_80_cif.got.tgz:158403.got - 2010.06.03 11:33:40.
