data_PCOD9017299
_publ_section_title
;
Structure prediction by ZEFSAII (Michael W. Deem and Ramdas Pophale) SiO2 
 PCOD9017299
Probable space group: P -1
;
_chemical_formula_sum "Si O2"
_cell_formula_units_Z 14
_cell_length_a 13.986916
_cell_length_b 9.603436
_cell_length_c 7.869328
_cell_angle_alpha 81.595838
_cell_angle_beta 110.929233
_cell_angle_gamma 144.812136
_cell_volume 547.666713
_symmetry_space_group_name_H-M "P -1"
_symmetry_group_IT_number 2
_symmetry_cell_setting 'triclinic'
loop_
_space_group_symop_operation_xyz
x,y,z
-x,-y,-z
loop_
_atom_site_type_symbol
_atom_site_label
_atom_site_fract_x
_atom_site_fract_y
_atom_site_fract_z
Si Si1 0.975701 0.538623 0.713350
Si Si2 0.884964 0.733670 0.526461
Si Si3 0.277659 0.718639 0.066070
Si Si4 0.508471 0.229595 0.219436
Si Si5 0.262785 0.984094 0.442488
Si Si6 0.829282 0.836625 0.802251
Si Si7 0.476886 0.658440 0.143319
O O1 0.996609 0.716600 0.617011
O O2 0.160023 0.670561 0.862154
O O3 0.854721 0.291463 0.573011
O O4 0.853484 0.427746 0.825841
O O5 0.716057 0.506697 0.338264
O O6 0.810704 0.698116 0.669131
O O7 0.000000 0.000000 0.500000
O O8 0.336995 0.631814 0.064693
O O9 0.459701 0.014026 0.173764
O O10 0.402512 0.124738 0.347990
O O11 0.444391 0.247638 0.012959
O O12 0.147108 0.986099 0.304085
O O13 0.375979 0.150607 0.650979
O O14 0.643919 0.612951 0.832746
O O15 0.000000 0.000000 0.000000
#
# Coordination Sequence:
#
# PCOD9017299 Si02
#       7
#     2   2   2   2   2   2   2
#     4  10  22  44  74 101 142 192 237 295 359 421
#     4  12  26  47  70 106 147 187 241 295 358 428
#     4  10  21  42  73 107 139 187 243 294 357 424
#     4  11  25  44  71 105 141 186 242 288 356 421
#     4  11  25  47  74 105 143 189 240 292 360 425
#     4  12  26  46  70 102 148 190 233 297 364 422
#     4  12  23  44  72 104 147 184 240 296 356 425
#
# _framework density 25.562992999999999
#
# number of rings (size 3 to 8) (size 9 to 14) (size 15 to 20)
#    0.000    0.857    2.857    3.429    4.000    4.000 
#    0.000    2.143    0.000    0.000    0.000    0.000 
#    0.000    0.000    0.000    0.000    0.000    0.000 
#
# Total GULP energy -78534.012985 kJ/mol
# GULP energy per Si atom -5609.572356 kJ/mol
# Density = 2.550481 g / cm^3
# Si number density = 25.562993 Si / 1000 Ang^3
#
#
#
# Elastic Constant Matrix: (Units=GPa)
#
#
# Indices 1 2 3 4 5 6 
#
# 1 95.4520 39.3272 36.3067 -0.1293 0.2571 -16.3466
# 2 39.3272 190.5251 68.0137 -1.0852 12.5918 -13.1593
# 3 36.3067 68.0137 176.6356 8.7091 4.9879 -4.2605
# 4 -0.1293 -1.0852 8.7091 48.5269 0.5430 0.4021
# 5 0.2571 12.5918 4.9879 0.5430 44.5890 -12.6762
# 6 -16.3466 -13.1593 -4.2605 0.4021 -12.6762 43.8280
#
#
#
# Elastic Compliance Matrix: (Units=1/GPa)
#
#
# Indices 1 2 3 4 5 6 
#
# 1 0.012699 -0.001756 -0.001892 0.000274 0.001934 0.004582
# 2 -0.001756 0.006509 -0.002116 0.000531 -0.001404 0.000683
# 3 -0.001892 -0.002116 0.006920 -0.001284 -0.000367 -0.000762
# 4 0.000274 0.000531 -0.001284 0.020855 -0.000302 -0.000142
# 5 0.001934 -0.001404 -0.000367 -0.000302 0.024987 0.007494
# 6 0.004582 0.000683 -0.000762 -0.000142 0.007494 0.026825
#
#
# Mechanical properties :
#
#
# Convention : Reuss Voigt Hill
#
# Bulk Modulus (GPa) = 68.48192 83.32310 75.90251
# Shear Modulus (GPa) = 43.40670 48.65314 46.02992
#
# Velocity S-wave (km/s) = 4.12519 4.36738 4.24801
# Velocity P-wave (km/s) = 7.03826 7.62220 7.33604
#
# Compressibility (1/GPa) = 0.01460240
#
# Stress axis : x y z
#
# Youngs Moduli (GPa) = 78.74437 153.62784 144.50646
#
# Poissons Ratio (x) = 0.26973 0.27339
# Poissons Ratio (y) = 0.13825 0.30571
# Poissons Ratio (z) = 0.14897 0.32501
#
# Static dielectric constant tensor:
#      x y z
#    x 2.063920 0.081800 -0.053850 
#    y 0.081800 2.025740 -0.078590 
#    z -0.053850 -0.078590 1.969700 
# 
# From -- ./inp_files/298359.got.cif
#   From: 2010.05.17/outbox.cif.g08.bks.cpg/sg2_150_cif.got.tgz:298359.got - 2010.06.03 11:33:40.
