data_PCOD9017682
_publ_section_title
;
Structure prediction by ZEFSAII (Michael W. Deem and Ramdas Pophale) SiO2 
 PCOD9017682
Probable space group: P -1
;
_chemical_formula_sum "Si O2"
_cell_formula_units_Z 12
_cell_length_a 8.023462
_cell_length_b 9.373285
_cell_length_c 17.956305
_cell_angle_alpha 34.448066
_cell_angle_beta 50.208354
_cell_angle_gamma 62.739507
_cell_volume 579.345026
_symmetry_space_group_name_H-M "P -1"
_symmetry_group_IT_number 2
_symmetry_cell_setting 'triclinic'
loop_
_space_group_symop_operation_xyz
x,y,z
-x,-y,-z
loop_
_atom_site_type_symbol
_atom_site_label
_atom_site_fract_x
_atom_site_fract_y
_atom_site_fract_z
Si Si1 0.758578 0.533805 0.077513
Si Si2 0.553476 0.974380 0.409536
Si Si3 0.663162 0.288586 0.546803
Si Si4 0.151066 0.072471 0.996866
Si Si5 0.038428 0.266069 0.666584
Si Si6 0.388320 0.002738 0.165921
O O1 0.781582 0.648629 0.105494
O O2 0.684145 0.733956 0.953881
O O3 0.609665 0.260195 0.238486
O O4 0.000000 0.500000 0.000000
O O5 0.354007 0.825582 0.481613
O O6 0.766078 0.832305 0.393971
O O7 0.500000 0.000000 0.500000
O O8 0.500000 0.500000 0.500000
O O9 0.585938 0.066477 0.725036
O O10 0.887438 0.454079 0.440668
O O11 0.385361 0.999126 0.940844
O O12 0.015488 0.918180 0.168145
O O13 0.000000 0.000000 0.000000
O O14 0.807001 0.219812 0.710031
#
# Coordination Sequence:
#
# PCOD9017682 Si02
#       6
#     2   2   2   2   2   2
#     4  11  23  44  67  95 141 173 219 282 333 385
#     4  11  24  42  66  97 138 181 212 272 341 386
#     4  10  23  42  66  94 131 177 224 270 322 397
#     4  11  23  41  70  98 128 176 228 271 331 399
#     4  10  21  43  65  98 130 175 224 270 326 395
#     4  11  23  43  73  97 129 179 229 273 332 396
#
# _framework density 20.713045000000001
#
# number of rings (size 3 to 8) (size 9 to 14) (size 15 to 20)
#    0.000    1.333    3.333    4.500    7.000    0.667 
#    3.000    0.833    0.000    0.000    0.000    0.000 
#    0.000    0.000    0.000    0.000    0.000    0.000 
#
# Total GULP energy -66932.701754 kJ/mol
# GULP energy per Si atom -5577.725146 kJ/mol
# Density = 2.066590 g / cm^3
# Si number density = 20.713045 Si / 1000 Ang^3
#
#
#
# Elastic Constant Matrix: (Units=GPa)
#
#
# Indices 1 2 3 4 5 6 
#
# 1 113.2027 54.9908 34.3955 9.3152 7.0289 6.7830
# 2 54.9908 112.3664 44.9491 3.0129 3.3968 12.1930
# 3 34.3955 44.9491 82.7913 1.0579 -5.9416 7.7024
# 4 9.3152 3.0129 1.0579 48.3835 1.2669 -2.7117
# 5 7.0289 3.3968 -5.9416 1.2669 29.2949 11.8601
# 6 6.7830 12.1930 7.7024 -2.7117 11.8601 37.7790
#
#
#
# Elastic Compliance Matrix: (Units=1/GPa)
#
#
# Indices 1 2 3 4 5 6 
#
# 1 0.012348 -0.004877 -0.002760 -0.001885 -0.003194 0.000787
# 2 -0.004877 0.013629 -0.005201 0.000090 -0.000543 -0.002286
# 3 -0.002760 -0.005201 0.016758 0.000161 0.005906 -0.003085
# 4 -0.001885 0.000090 0.000161 0.021181 -0.001339 0.002217
# 5 -0.003194 -0.000543 0.005906 -0.001339 0.041750 -0.013658
# 6 0.000787 -0.002286 -0.003085 0.002217 -0.013658 0.032142
#
#
# Mechanical properties :
#
#
# Convention : Reuss Voigt Hill
#
# Bulk Modulus (GPa) = 58.62340 64.11456 61.36898
# Shear Modulus (GPa) = 29.55606 34.69315 32.12460
#
# Velocity S-wave (km/s) = 3.78157 4.09705 3.94246
# Velocity P-wave (km/s) = 6.88703 7.30766 7.10046
#
# Compressibility (1/GPa) = 0.01705804
#
# Stress axis : x y z
#
# Youngs Moduli (GPa) = 80.98572 73.37530 59.67387
#
# Poissons Ratio (x) = 0.35785 0.16473
# Poissons Ratio (y) = 0.39496 0.31034
# Poissons Ratio (z) = 0.22356 0.38160
#
# Static dielectric constant tensor:
#      x y z
#    x 1.860570 0.031600 0.001050 
#    y 0.031600 1.714500 -0.038530 
#    z 0.001050 -0.038530 1.765260 
# 
# From -- ./inp_files/150437.got.cif
#   From: 2010.05.17/outbox.cif.g08.bks.cpg/sg2_76_cif.got.tgz:150437.got - 2010.06.03 11:33:40.
