data_PCOD9017776
_publ_section_title
;
Structure prediction by ZEFSAII (Michael W. Deem and Ramdas Pophale) SiO2 
 PCOD9017776
Probable space group: P -1
;
_chemical_formula_sum "Si O2"
_cell_formula_units_Z 14
_cell_length_a 10.309258
_cell_length_b 10.890388
_cell_length_c 6.851611
_cell_angle_alpha 77.915216
_cell_angle_beta 123.184675
_cell_angle_gamma 123.177744
_cell_volume 534.352691
_symmetry_space_group_name_H-M "P -1"
_symmetry_group_IT_number 2
_symmetry_cell_setting 'triclinic'
loop_
_space_group_symop_operation_xyz
x,y,z
-x,-y,-z
loop_
_atom_site_type_symbol
_atom_site_label
_atom_site_fract_x
_atom_site_fract_y
_atom_site_fract_z
Si Si1 0.190379 0.175034 0.380818
Si Si2 0.010653 0.863301 0.419060
Si Si3 0.809763 0.356020 0.972367
Si Si4 0.313968 0.952635 0.977894
Si Si5 0.853835 0.331255 0.460524
Si Si6 0.537796 0.761691 0.722760
Si Si7 0.645265 0.554660 0.778002
O O1 0.373875 0.194413 0.435351
O O2 0.174466 0.297309 0.207785
O O3 0.172599 0.208724 0.579788
O O4 0.046441 0.003332 0.281347
O O5 0.166386 0.932453 0.697191
O O6 0.047296 0.753748 0.367665
O O7 0.743359 0.192745 0.885169
O O8 0.808866 0.297947 0.207884
O O9 0.685374 0.426654 0.880644
O O10 0.000000 0.500000 0.000000
O O11 0.500000 0.000000 0.000000
O O12 0.366605 0.094291 0.111204
O O13 0.676795 0.303693 0.434130
O O14 0.000000 0.500000 0.500000
O O15 0.576656 0.630821 0.850685
O O16 0.500000 0.500000 0.500000
#
# Coordination Sequence:
#
# PCOD9017776 Si02
#       7
#     2   2   2   2   2   2   2
#     4   9  23  41  63  97 130 174 230 273 349 412
#     4  10  21  43  66  93 134 180 223 284 351 403
#     4  11  25  45  72  99 137 187 227 284 356 408
#     4  11  22  44  70  97 138 176 230 289 335 419
#     4  11  25  43  66 100 137 178 235 289 342 416
#     4  10  24  43  68 102 131 179 236 278 351 412
#     4  10  24  42  68 100 138 177 224 290 342 410
#
# _framework density 26.199926000000001
#
# number of rings (size 3 to 8) (size 9 to 14) (size 15 to 20)
#    0.857    0.857    2.857    1.714    6.000    2.857 
#    5.143    0.000    0.000    0.000    0.000    0.000 
#    0.000    0.000    0.000    0.000    0.000    0.000 
#
# Total GULP energy -78000.943367 kJ/mol
# GULP energy per Si atom -5571.495955 kJ/mol
# Density = 2.614029 g / cm^3
# Si number density = 26.199926 Si / 1000 Ang^3
#
#
#
# Elastic Constant Matrix: (Units=GPa)
#
#
# Indices 1 2 3 4 5 6 
#
# 1 195.6292 52.8056 10.1046 11.3328 -5.3174 7.4267
# 2 52.8056 173.1682 24.5646 2.2853 9.0272 -28.3525
# 3 10.1046 24.5646 55.6492 -4.7412 3.9324 -5.3895
# 4 11.3328 2.2853 -4.7412 22.8292 -0.2725 -1.6970
# 5 -5.3174 9.0272 3.9324 -0.2725 21.9032 -5.1981
# 6 7.4267 -28.3525 -5.3895 -1.6970 -5.1981 63.6290
#
#
#
# Elastic Compliance Matrix: (Units=1/GPa)
#
#
# Indices 1 2 3 4 5 6 
#
# 1 0.005993 -0.002049 -0.000737 -0.003017 0.002017 -0.001590
# 2 -0.002049 0.007378 -0.002416 -0.000019 -0.002362 0.003128
# 3 -0.000737 -0.002416 0.019812 0.004737 -0.002537 0.000607
# 4 -0.003017 -0.000019 0.004737 0.046425 -0.000537 0.001939
# 5 0.002017 -0.002362 -0.002537 -0.000537 0.048141 0.002416
# 6 -0.001590 0.003128 0.000607 0.001939 0.002416 0.017596
#
#
# Mechanical properties :
#
#
# Convention : Reuss Voigt Hill
#
# Bulk Modulus (GPa) = 43.90292 66.59959 55.25126
# Shear Modulus (GPa) = 30.61073 44.13707 37.37390
#
# Velocity S-wave (km/s) = 3.42182 4.10887 3.78099
# Velocity P-wave (km/s) = 5.69255 6.92715 6.33997
#
# Compressibility (1/GPa) = 0.02277753
#
# Stress axis : x y z
#
# Youngs Moduli (GPa) = 166.86909 135.54221 50.47463
#
# Poissons Ratio (x) = 0.27766 0.03722
# Poissons Ratio (y) = 0.34183 0.12197
# Poissons Ratio (z) = 0.12306 0.32753
#
# Static dielectric constant tensor:
#      x y z
#    x 2.194550 -0.018590 -0.030120 
#    y -0.018590 2.126540 0.030760 
#    z -0.030120 0.030760 2.086470 
# 
# From -- ./inp_files/257680.got.cif
#   From: 2010.05.17/outbox.cif.g08.bks.cpg/sg2_129_cif.got.tgz:257680.got - 2010.06.03 11:33:40.
