data_PCOD9017210
_publ_section_title
;
Structure prediction by ZEFSAII (Michael W. Deem and Ramdas Pophale) SiO2 
 PCOD9017210
Probable space group: P -1
;
_chemical_formula_sum "Si O2"
_cell_formula_units_Z 13
_cell_length_a 7.826671
_cell_length_b 14.196883
_cell_length_c 11.536553
_cell_angle_alpha 136.696580
_cell_angle_beta 145.885587
_cell_angle_gamma 50.603796
_cell_volume 491.363259
_symmetry_space_group_name_H-M "P -1"
_symmetry_group_IT_number 2
_symmetry_cell_setting 'triclinic'
loop_
_space_group_symop_operation_xyz
x,y,z
-x,-y,-z
loop_
_atom_site_type_symbol
_atom_site_label
_atom_site_fract_x
_atom_site_fract_y
_atom_site_fract_z
Si Si1 0.302082 0.408566 0.225462
Si Si2 0.228247 0.764068 0.986100
Si Si3 0.410930 0.237277 0.464785
Si Si4 0.341513 0.870838 0.888014
Si Si5 0.387904 0.505625 0.096093
Si Si6 0.207634 0.903324 0.612225
Si Si7 0.500000 0.000000 0.500000
O O1 0.500000 0.500000 0.500000
O O2 0.429878 0.248001 0.148844
O O3 0.344945 0.454349 0.157827
O O4 0.947001 0.437745 0.082982
O O5 0.258897 0.818569 0.919571
O O6 0.448848 0.624538 0.994329
O O7 0.872315 0.742788 0.763921
O O8 0.322497 0.876901 0.228956
O O9 0.402621 0.368740 0.659892
O O10 0.705127 0.228722 0.535658
O O11 0.438644 0.099705 0.434342
O O12 0.074394 0.888576 0.654407
O O13 0.499653 0.010698 0.123879
O O14 0.000000 0.000000 0.500000
#
# Coordination Sequence:
#
# PCOD9017210 Si02
#       7
#     2   2   2   2   2   2   1
#     4  10  21  42  72 106 143 182 234 306 364 428
#     4  11  26  48  72 104 148 195 243 300 363 431
#     4  12  26  46  72 105 147 195 241 304 359 439
#     4  10  23  42  68 103 136 185 239 295 356 427
#     4  10  24  45  72 107 141 188 247 294 364 433
#     4  11  24  41  69 102 141 184 240 296 359 427
#     4  12  28  44  70 100 154 194 246 288 358 428
#
# _framework density 26.457004000000001
#
# number of rings (size 3 to 8) (size 9 to 14) (size 15 to 20)
#    0.000    1.231    1.538    2.769    2.154    9.231 
#    0.000    0.000    0.000    0.000    0.000    0.000 
#    0.000    0.000    0.000    0.000    0.000    0.000 
#
# Total GULP energy -72652.224404 kJ/mol
# GULP energy per Si atom -5588.632646 kJ/mol
# Density = 2.639679 g / cm^3
# Si number density = 26.457004 Si / 1000 Ang^3
#
#
#
# Elastic Constant Matrix: (Units=GPa)
#
#
# Indices 1 2 3 4 5 6 
#
# 1 92.5262 16.1582 19.4052 -6.9046 -35.2006 -5.3897
# 2 16.1582 145.4383 64.5369 4.7205 -22.0544 -5.5974
# 3 19.4052 64.5369 176.9683 -5.8545 -29.0981 -28.1787
# 4 -6.9046 4.7205 -5.8545 55.1313 9.7125 -10.9545
# 5 -35.2006 -22.0544 -29.0981 9.7125 40.7805 1.2832
# 6 -5.3897 -5.5974 -28.1787 -10.9545 1.2832 42.6162
#
#
#
# Elastic Compliance Matrix: (Units=1/GPa)
#
#
# Indices 1 2 3 4 5 6 
#
# 1 0.016342 0.000083 0.000968 -0.000009 0.014772 0.002271
# 2 0.000083 0.008650 -0.002924 -0.001866 0.003150 -0.001361
# 3 0.000968 -0.002924 0.008296 0.001523 0.004639 0.005476
# 4 -0.000009 -0.001866 0.001523 0.020577 -0.005026 0.006202
# 5 0.014772 0.003150 0.004639 -0.005026 0.043396 0.002751
# 6 0.002271 -0.001361 0.005476 0.006202 0.002751 0.028706
#
#
# Mechanical properties :
#
#
# Convention : Reuss Voigt Hill
#
# Bulk Modulus (GPa) = 33.85164 68.34816 51.09990
# Shear Modulus (GPa) = 35.82701 48.69443 42.26072
#
# Velocity S-wave (km/s) = 3.68388 4.29477 4.00100
# Velocity P-wave (km/s) = 5.56034 7.10515 6.37968
#
# Compressibility (1/GPa) = 0.02954066
#
# Stress axis : x y z
#
# Youngs Moduli (GPa) = 61.19322 115.60674 120.54096
#
# Poissons Ratio (x) = -0.00954 -0.11670
# Poissons Ratio (y) = -0.00505 0.35248
# Poissons Ratio (z) = -0.05924 0.33805
#
# Static dielectric constant tensor:
#      x y z
#    x 0.758560 0.281810 -0.313480 
#    y 0.281810 2.102770 -0.010850 
#    z -0.313480 -0.010850 1.922320 
# 
# From -- ./inp_files/26334.got.cif
#   From: 2010.05.17/outbox.cif.g08.bks.cpg/sg2_14_cif.got.tgz:26334.got - 2010.06.03 11:33:40.
