data_PCOD9017456
_publ_section_title
;
Structure prediction by ZEFSAII (Michael W. Deem and Ramdas Pophale) SiO2 
 PCOD9017456
Probable space group: P -1
;
_chemical_formula_sum "Si O2"
_cell_formula_units_Z 16
_cell_length_a 14.344781
_cell_length_b 11.613829
_cell_length_c 9.252160
_cell_angle_alpha 138.833014
_cell_angle_beta 134.003230
_cell_angle_gamma 70.581906
_cell_volume 668.142674
_symmetry_space_group_name_H-M "P -1"
_symmetry_group_IT_number 2
_symmetry_cell_setting 'triclinic'
loop_
_space_group_symop_operation_xyz
x,y,z
-x,-y,-z
loop_
_atom_site_type_symbol
_atom_site_label
_atom_site_fract_x
_atom_site_fract_y
_atom_site_fract_z
Si Si1 0.325777 0.983879 0.618423
Si Si2 0.556515 0.381536 0.152979
Si Si3 0.315277 0.477439 0.872790
Si Si4 0.881751 0.554574 0.116449
Si Si5 0.159964 0.023031 0.226396
Si Si6 0.294970 0.702579 0.529160
Si Si7 0.832682 0.867793 0.184594
Si Si8 0.185781 0.885861 0.829108
O O1 0.191775 0.925105 0.310104
O O2 0.266642 0.060542 0.762055
O O3 0.380653 0.836689 0.615552
O O4 0.448783 0.159701 0.840520
O O5 0.653414 0.418106 0.149025
O O6 0.636870 0.424886 0.434376
O O7 0.461607 0.502237 0.133114
O O8 0.213968 0.523460 0.918265
O O9 0.241349 0.250572 0.546988
O O10 0.816464 0.678592 0.071113
O O11 0.033524 0.705730 0.474481
O O12 0.854796 0.393916 0.811788
O O13 0.214561 0.931020 0.069011
O O14 0.000000 0.000000 0.000000
O O15 0.278426 0.817843 0.759403
O O16 0.807389 0.911345 0.034195
O O17 0.000000 0.000000 0.500000
#
# Coordination Sequence:
#
# PCOD9017456 Si02
#       8
#     2   2   2   2   2   2   2   2
#     4  10  21  43  63  91 129 165 213 259 316 383
#     4  10  22  44  63  90 132 167 218 257 313 376
#     4  10  22  41  66  98 121 163 221 274 298 368
#     4  11  20  41  61  94 129 165 212 265 313 373
#     4  11  19  39  70  96 122 165 216 263 318 366
#     4  11  25  40  62  93 134 171 202 257 328 381
#     4   9  17  35  62  87 121 159 208 261 299 364
#     4  10  22  38  61  97 130 164 206 257 328 380
#
# _framework density 23.946981999999998
#
# number of rings (size 3 to 8) (size 9 to 14) (size 15 to 20)
#    0.000    1.750    3.750    1.500    1.750    1.500 
#    2.250   10.625    0.000    0.000    0.000    0.000 
#    0.000    0.000    0.000    0.000    0.000    0.000 
#
# Total GULP energy -89102.793690 kJ/mol
# GULP energy per Si atom -5568.924606 kJ/mol
# Density = 2.389248 g / cm^3
# Si number density = 23.946982 Si / 1000 Ang^3
#
#
#
# Elastic Constant Matrix: (Units=GPa)
#
#
# Indices 1 2 3 4 5 6 
#
# 1 66.8141 27.5237 21.9215 -1.2832 5.5856 18.7166
# 2 27.5237 122.4062 18.4598 -20.4581 10.2629 40.9418
# 3 21.9215 18.4598 68.8139 -21.7046 -2.7766 4.6302
# 4 -1.2832 -20.4581 -21.7046 30.3816 -1.0550 -6.0741
# 5 5.5856 10.2629 -2.7766 -1.0550 28.5047 3.7229
# 6 18.7166 40.9418 4.6302 -6.0741 3.7229 34.5401
#
#
#
# Elastic Compliance Matrix: (Units=1/GPa)
#
#
# Indices 1 2 3 4 5 6 
#
# 1 0.021154 -0.001214 -0.008427 -0.008052 -0.003530 -0.009929
# 2 -0.001214 0.015131 -0.000725 0.006370 -0.002989 -0.015738
# 3 -0.008427 -0.000725 0.022374 0.016250 0.004060 0.004846
# 4 -0.008052 0.006370 0.016250 0.049158 0.002291 0.003033
# 5 -0.003530 -0.002989 0.004060 0.002291 0.037159 0.001310
# 6 -0.009929 -0.015738 0.004846 0.003033 0.001310 0.052730
#
#
# Mechanical properties :
#
#
# Convention : Reuss Voigt Hill
#
# Bulk Modulus (GPa) = 26.36701 43.76046 35.06374
# Shear Modulus (GPa) = 21.63739 31.36056 26.49898
#
# Velocity S-wave (km/s) = 3.00918 3.62274 3.33012
# Velocity P-wave (km/s) = 4.80708 5.98436 5.42773
#
# Compressibility (1/GPa) = 0.03792618
#
# Stress axis : x y z
#
# Youngs Moduli (GPa) = 47.27219 66.08948 44.69454
#
# Poissons Ratio (x) = 0.08026 0.37665
# Poissons Ratio (y) = 0.05741 0.03239
# Poissons Ratio (z) = 0.39837 0.04790
#
# Static dielectric constant tensor:
#      x y z
#    x 1.904980 -0.076660 0.030470 
#    y -0.076660 2.251190 0.073310 
#    z 0.030470 0.073310 2.130250 
# 
# From -- ./inp_files/308636.got.cif
#   From: 2010.05.17/outbox.cif.g08.bks.cpg/sg2_155_cif.got.tgz:308636.got - 2010.06.03 11:33:40.
