data_PCOD9017815
_publ_section_title
;
Structure prediction by ZEFSAII (Michael W. Deem and Ramdas Pophale) SiO2 
 PCOD9017815
Probable space group: P -1
;
_chemical_formula_sum "Si O2"
_cell_formula_units_Z 16
_cell_length_a 9.150141
_cell_length_b 7.634974
_cell_length_c 25.461429
_cell_angle_alpha 54.794293
_cell_angle_beta 40.025675
_cell_angle_gamma 83.737877
_cell_volume 723.980140
_symmetry_space_group_name_H-M "P -1"
_symmetry_group_IT_number 2
_symmetry_cell_setting 'triclinic'
loop_
_space_group_symop_operation_xyz
x,y,z
-x,-y,-z
loop_
_atom_site_type_symbol
_atom_site_label
_atom_site_fract_x
_atom_site_fract_y
_atom_site_fract_z
Si Si1 0.301749 0.179745 0.815289
Si Si2 0.348780 0.353614 0.284416
Si Si3 0.164478 0.262755 0.115563
Si Si4 0.686616 0.344024 0.586428
Si Si5 0.732745 0.359297 0.260640
Si Si6 0.176676 0.385507 0.971249
Si Si7 0.745444 0.184543 0.480021
Si Si8 0.300479 0.402498 0.623723
O O1 0.539435 0.369089 0.762370
O O2 0.457598 0.144726 0.730457
O O3 0.188188 0.348161 0.799215
O O4 0.026484 0.884656 0.962292
O O5 0.493497 0.258359 0.297378
O O6 0.501956 0.416814 0.175626
O O7 0.003669 0.164922 0.409708
O O8 0.988111 0.364073 0.167744
O O9 0.500000 0.500000 0.000000
O O10 0.175899 0.281473 0.046432
O O11 0.964478 0.932935 0.242821
O O12 0.716830 0.259807 0.534705
O O13 0.541792 0.488247 0.587010
O O14 0.000000 0.500000 0.500000
O O15 0.561289 0.118292 0.392546
O O16 0.000000 0.500000 0.000000
O O17 0.812048 0.422029 0.381798
O O18 0.500000 0.500000 0.500000
#
# Coordination Sequence:
#
# PCOD9017815 Si02
#       8
#     2   2   2   2   2   2   2   2
#     4  10  22  38  66  96 132 169 221 281 343 388
#     4  10  23  38  68 104 130 179 224 282 340 407
#     4  12  25  46  70  99 138 187 228 281 347 408
#     4  11  19  39  68 100 127 178 222 280 340 407
#     4  10  21  43  66  95 142 168 226 288 338 393
#     4  12  23  45  68  93 132 181 229 277 338 412
#     4  11  21  42  70  96 137 181 222 282 344 405
#     4  10  22  42  70  95 138 177 226 281 339 398
#
# _framework density 22.100052000000002
#
# number of rings (size 3 to 8) (size 9 to 14) (size 15 to 20)
#    0.750    0.500    6.250    0.750    0.000    2.000 
#    2.250    1.875    0.000    0.000    0.000    0.000 
#    0.000    0.000    0.000    0.000    0.000    0.000 
#
# Total GULP energy -89098.196980 kJ/mol
# GULP energy per Si atom -5568.637311 kJ/mol
# Density = 2.204975 g / cm^3
# Si number density = 22.100052 Si / 1000 Ang^3
#
#
#
# Elastic Constant Matrix: (Units=GPa)
#
#
# Indices 1 2 3 4 5 6 
#
# 1 80.5022 25.6668 34.5967 -5.6217 -12.0424 -8.8506
# 2 25.6668 97.2133 49.8292 1.8962 0.3968 -12.4222
# 3 34.5967 49.8292 109.1934 16.8730 -0.8782 -16.5367
# 4 -5.6217 1.8962 16.8730 44.9298 -4.4738 1.8364
# 5 -12.0424 0.3968 -0.8782 -4.4738 38.0755 7.8424
# 6 -8.8506 -12.4222 -16.5367 1.8364 7.8424 32.7961
#
#
#
# Elastic Compliance Matrix: (Units=1/GPa)
#
#
# Indices 1 2 3 4 5 6 
#
# 1 0.016315 -0.001898 -0.005041 0.004602 0.005703 -0.000479
# 2 -0.001898 0.013917 -0.005597 0.001070 -0.001194 0.002163
# 3 -0.005041 -0.005597 0.015093 -0.006578 -0.003037 0.005224
# 4 0.004602 0.001070 -0.006578 0.025959 0.005244 -0.004378
# 5 0.005703 -0.001194 -0.003037 0.005244 0.030269 -0.007976
# 6 -0.000479 0.002163 0.005224 -0.004378 -0.007976 0.035968
#
#
# Mechanical properties :
#
#
# Convention : Reuss Voigt Hill
#
# Bulk Modulus (GPa) = 49.37508 56.34380 52.85944
# Shear Modulus (GPa) = 29.52567 34.94802 32.23685
#
# Velocity S-wave (km/s) = 3.65910 3.98094 3.82341
# Velocity P-wave (km/s) = 6.34367 6.83233 6.59253
#
# Compressibility (1/GPa) = 0.02025313
#
# Stress axis : x y z
#
# Youngs Moduli (GPa) = 61.29144 71.85474 66.25758
#
# Poissons Ratio (x) = 0.13638 0.33401
# Poissons Ratio (y) = 0.11633 0.37083
# Poissons Ratio (z) = 0.30897 0.40216
#
# Static dielectric constant tensor:
#      x y z
#    x 1.937890 -0.026250 -0.095860 
#    y -0.026250 1.938760 0.045270 
#    z -0.095860 0.045270 2.016340 
# 
# From -- ./inp_files/616642.got.cif
#   From: 2010.05.17/outbox.cif.g08.bks.cpg/sg2_309_cif.got.tgz:616642.got - 2010.06.03 11:33:40.
