data_PCOD9017633
_publ_section_title
;
Structure prediction by ZEFSAII (Michael W. Deem and Ramdas Pophale) SiO2 
 PCOD9017633
Probable space group: P -1
;
_chemical_formula_sum "Si O2"
_cell_formula_units_Z 16
_cell_length_a 23.657366
_cell_length_b 6.459144
_cell_length_c 17.925399
_cell_angle_alpha 70.909229
_cell_angle_beta 19.440596
_cell_angle_gamma 82.244336
_cell_volume 718.639127
_symmetry_space_group_name_H-M "P -1"
_symmetry_group_IT_number 2
_symmetry_cell_setting 'triclinic'
loop_
_space_group_symop_operation_xyz
x,y,z
-x,-y,-z
loop_
_atom_site_type_symbol
_atom_site_label
_atom_site_fract_x
_atom_site_fract_y
_atom_site_fract_z
Si Si1 0.209341 0.333136 0.769735
Si Si2 0.856713 0.540983 0.397420
Si Si3 0.231051 0.093931 0.613800
Si Si4 0.293782 0.953209 0.795050
Si Si5 0.536901 0.934551 0.271160
Si Si6 0.433272 0.136184 0.921973
Si Si7 0.841143 0.699171 0.709384
Si Si8 0.875195 0.434826 0.559149
O O1 0.231604 0.244636 0.669763
O O2 0.356127 0.642869 0.556017
O O3 0.275787 0.187762 0.760516
O O4 0.970214 0.200126 0.096012
O O5 0.805491 0.761964 0.424379
O O6 0.675520 0.282839 0.612294
O O7 0.856044 0.473571 0.492172
O O8 0.085039 0.681282 0.064106
O O9 0.430583 0.089429 0.367178
O O10 0.500000 0.000000 0.500000
O O11 0.309705 0.951445 0.864607
O O12 0.624408 0.909811 0.087605
O O13 0.369593 0.328554 0.009948
O O14 0.306784 0.858906 0.154341
O O15 0.859316 0.632578 0.609748
O O16 0.914816 0.542848 0.684216
O O17 0.000000 0.000000 0.500000
#
# Coordination Sequence:
#
# PCOD9017633 Si02
#       8
#     2   2   2   2   2   2   2   2
#     4  10  21  43  65  92 133 172 227 289 343 403
#     4  11  25  44  66 103 139 182 229 282 341 411
#     4  10  22  41  65  94 132 176 226 283 344 405
#     4  11  25  43  70 101 136 178 232 291 343 405
#     4  12  24  40  71  96 131 182 226 277 352 404
#     4  11  25  43  69 105 139 184 230 276 343 415
#     4   9  22  44  71  99 135 179 226 284 340 396
#     4  10  23  45  74  99 145 178 228 281 340 403
#
# _framework density 22.264303999999999
#
# number of rings (size 3 to 8) (size 9 to 14) (size 15 to 20)
#    0.000    1.500    2.500    1.125    7.000    2.500 
#    4.500    0.000    0.000    0.000    0.000    0.000 
#    0.000    0.000    0.000    0.000    0.000    0.000 
#
# Total GULP energy -89476.780106 kJ/mol
# GULP energy per Si atom -5592.298757 kJ/mol
# Density = 2.221363 g / cm^3
# Si number density = 22.264304 Si / 1000 Ang^3
#
#
#
# Elastic Constant Matrix: (Units=GPa)
#
#
# Indices 1 2 3 4 5 6 
#
# 1 108.2612 12.1109 18.8443 4.4534 11.1154 -10.2191
# 2 12.1109 55.7027 31.2154 -1.8351 0.7328 0.4994
# 3 18.8443 31.2154 125.4279 -12.5916 -15.6494 -3.1105
# 4 4.4534 -1.8351 -12.5916 41.5833 -0.0014 0.9204
# 5 11.1154 0.7328 -15.6494 -0.0014 36.4258 -5.9846
# 6 -10.2191 0.4994 -3.1105 0.9204 -5.9846 29.2631
#
#
#
# Elastic Compliance Matrix: (Units=1/GPa)
#
#
# Indices 1 2 3 4 5 6 
#
# 1 0.010383 -0.001302 -0.001773 -0.001769 -0.003442 0.002811
# 2 -0.001302 0.021396 -0.005578 -0.000562 -0.002751 -0.001958
# 3 -0.001773 -0.005578 0.010670 0.003139 0.005507 0.001638
# 4 -0.001769 -0.000562 0.003139 0.025179 0.001785 -0.000701
# 5 -0.003442 -0.002751 0.005507 0.001785 0.031893 0.005897
# 6 0.002811 -0.001958 0.001638 -0.000701 0.005897 0.036590
#
#
# Mechanical properties :
#
#
# Convention : Reuss Voigt Hill
#
# Bulk Modulus (GPa) = 39.77141 45.97033 42.87087
# Shear Modulus (GPa) = 30.90281 36.60252 33.75267
#
# Velocity S-wave (km/s) = 3.72963 4.05903 3.89781
# Velocity P-wave (km/s) = 6.03729 6.53146 6.28923
#
# Compressibility (1/GPa) = 0.02514369
#
# Stress axis : x y z
#
# Youngs Moduli (GPa) = 96.31378 46.73696 93.72130
#
# Poissons Ratio (x) = 0.06085 0.16619
# Poissons Ratio (y) = 0.12539 0.52273
# Poissons Ratio (z) = 0.17078 0.26068
#
# Static dielectric constant tensor:
#      x y z
#    x 1.783030 0.000530 -0.009020 
#    y 0.000530 1.806720 -0.014130 
#    z -0.009020 -0.014130 1.890670 
# 
# From -- ./inp_files/139531.got.cif
#   From: 2010.05.17/outbox.cif.g08.bks.cpg/sg2_70_cif.got.tgz:139531.got - 2010.06.03 11:33:40.
