data_PCOD9017659
_publ_section_title
;
Structure prediction by ZEFSAII (Michael W. Deem and Ramdas Pophale) SiO2 
 PCOD9017659
Probable space group: P -1
;
_chemical_formula_sum "Si O2"
_cell_formula_units_Z 16
_cell_length_a 19.425985
_cell_length_b 25.680994
_cell_length_c 15.235298
_cell_angle_alpha 161.119336
_cell_angle_beta 150.627187
_cell_angle_gamma 18.396505
_cell_volume 749.835917
_symmetry_space_group_name_H-M "P -1"
_symmetry_group_IT_number 2
_symmetry_cell_setting 'triclinic'
loop_
_space_group_symop_operation_xyz
x,y,z
-x,-y,-z
loop_
_atom_site_type_symbol
_atom_site_label
_atom_site_fract_x
_atom_site_fract_y
_atom_site_fract_z
Si Si1 0.690951 0.933087 0.327082
Si Si2 0.221083 0.199395 0.235788
Si Si3 0.815205 0.612560 0.222575
Si Si4 0.941770 0.422152 0.696296
Si Si5 0.761581 0.220925 0.827340
Si Si6 0.896613 0.107311 0.153088
Si Si7 0.968629 0.183809 0.821183
Si Si8 0.597079 0.097116 0.862328
O O1 0.807080 0.844966 0.411655
O O2 0.424279 0.144127 0.363318
O O3 0.761477 0.028711 0.505535
O O4 0.808160 0.671475 0.001209
O O5 0.305946 0.006230 0.098629
O O6 0.000000 0.500000 0.500000
O O7 0.173600 0.119668 0.975956
O O8 0.693965 0.855774 0.533955
O O9 0.026195 0.521540 0.272346
O O10 0.669964 0.681577 0.088272
O O11 0.829849 0.440643 0.022675
O O12 0.821212 0.360265 0.475026
O O13 0.856031 0.227507 0.857372
O O14 0.500000 0.500000 0.000000
O O15 0.921081 0.099598 0.897446
O O16 0.690579 0.171595 0.039500
O O17 0.000000 0.000000 0.000000
O O18 0.000000 0.000000 0.500000
#
# Coordination Sequence:
#
# PCOD9017659 Si02
#       8
#     2   2   2   2   2   2   2   2
#     4  10  23  42  68  95 128 180 223 277 344 407
#     4  12  23  45  71 100 133 183 238 281 343 426
#     4  11  23  40  69  94 135 177 225 281 339 408
#     4  10  21  43  65  95 135 170 222 282 343 403
#     4  11  25  43  68  97 137 180 227 281 348 414
#     4  11  23  40  68 101 134 170 229 291 338 406
#     4  12  27  45  65 100 145 181 225 287 352 411
#     4  11  23  40  67 101 127 174 236 281 334 403
#
# _framework density 21.338001999999999
#
# number of rings (size 3 to 8) (size 9 to 14) (size 15 to 20)
#    0.000    1.000    5.000    1.500    1.750    1.000 
#    0.000    2.500    0.000    0.000    0.000    0.000 
#    0.000    0.000    0.000    0.000    0.000    0.000 
#
# Total GULP energy -89220.742629 kJ/mol
# GULP energy per Si atom -5576.296414 kJ/mol
# Density = 2.128944 g / cm^3
# Si number density = 21.338002 Si / 1000 Ang^3
#
#
#
# Elastic Constant Matrix: (Units=GPa)
#
#
# Indices 1 2 3 4 5 6 
#
# 1 101.0577 10.9555 20.1535 3.0807 35.2645 10.2532
# 2 10.9555 66.7495 19.3519 -8.8179 6.6012 -0.9217
# 3 20.1535 19.3519 123.0242 -13.6173 29.4595 6.3264
# 4 3.0807 -8.8179 -13.6173 21.3941 -1.4157 -0.1092
# 5 35.2645 6.6012 29.4595 -1.4157 48.5550 -8.5985
# 6 10.2532 -0.9217 6.3264 -0.1092 -8.5985 22.8124
#
#
#
# Elastic Compliance Matrix: (Units=1/GPa)
#
#
# Indices 1 2 3 4 5 6 
#
# 1 0.016688 -0.002339 0.001646 -0.003406 -0.015354 -0.013855
# 2 -0.002339 0.016656 -0.002040 0.006007 0.001348 0.002827
# 3 0.001646 -0.002040 0.011292 0.005483 -0.008899 -0.007282
# 4 -0.003406 0.006007 0.005483 0.053199 -0.000031 0.000496
# 5 -0.015354 0.001348 -0.008899 -0.000031 0.041393 0.025025
# 6 -0.013855 0.002827 -0.007282 0.000496 0.025025 0.061632
#
#
# Mechanical properties :
#
#
# Convention : Reuss Voigt Hill
#
# Bulk Modulus (GPa) = 25.52953 43.52813 34.52883
# Shear Modulus (GPa) = 22.79122 34.57699 28.68411
#
# Velocity S-wave (km/s) = 3.27173 4.02984 3.67041
# Velocity P-wave (km/s) = 5.12471 6.48818 5.84633
#
# Compressibility (1/GPa) = 0.03917032
#
# Stress axis : x y z
#
# Youngs Moduli (GPa) = 59.92343 60.03833 88.55727
#
# Poissons Ratio (x) = 0.14044 -0.14579
# Poissons Ratio (y) = 0.14017 0.18066
# Poissons Ratio (z) = -0.09865 0.12248
#
# Static dielectric constant tensor:
#      x y z
#    x 2.048190 -0.269630 0.532800 
#    y -0.269630 2.533380 -1.065290 
#    z 0.532800 -1.065290 3.410470 
# 
# From -- ./inp_files/539309.got.cif
#   From: 2010.05.17/outbox.cif.g08.bks.cpg/sg2_270_cif.got.tgz:539309.got - 2010.06.03 11:33:40.
