data_PCOD9017958
_publ_section_title
;
Structure prediction by ZEFSAII (Michael W. Deem and Ramdas Pophale) SiO2 
 PCOD9017958
Probable space group: P -1
;
_chemical_formula_sum "Si O2"
_cell_formula_units_Z 14
_cell_length_a 14.184827
_cell_length_b 22.972335
_cell_length_c 5.088702
_cell_angle_alpha 69.486494
_cell_angle_beta 71.637483
_cell_angle_gamma 21.374994
_cell_volume 565.730904
_symmetry_space_group_name_H-M "P -1"
_symmetry_group_IT_number 2
_symmetry_cell_setting 'triclinic'
loop_
_space_group_symop_operation_xyz
x,y,z
-x,-y,-z
loop_
_atom_site_type_symbol
_atom_site_label
_atom_site_fract_x
_atom_site_fract_y
_atom_site_fract_z
Si Si1 0.308010 0.177532 0.144529
Si Si2 0.026859 0.895713 0.398221
Si Si3 0.183562 0.386496 0.770196
Si Si4 0.811157 0.314037 0.169200
Si Si5 0.840981 0.808839 0.273336
Si Si6 0.476481 0.610538 0.047433
Si Si7 0.405344 0.767308 0.602362
O O1 0.133991 0.258278 0.420391
O O2 0.597879 0.992425 0.269604
O O3 0.299480 0.251612 0.928351
O O4 0.224763 0.183941 0.960772
O O5 0.982362 0.851686 0.617716
O O6 0.214703 0.775452 0.176409
O O7 0.199846 0.841358 0.517695
O O8 0.758346 0.088558 0.309008
O O9 0.416217 0.300189 0.653640
O O10 0.000000 0.500000 0.500000
O O11 0.000000 0.500000 0.000000
O O12 0.682890 0.442978 0.250895
O O13 0.602966 0.383705 0.147244
O O14 0.927706 0.279601 0.865771
O O15 0.574959 0.621163 0.857849
#
# Coordination Sequence:
#
# PCOD9017958 Si02
#       7
#     2   2   2   2   2   2   2
#     4  10  23  43  64  97 128 172 235 263 339 387
#     4  10  21  43  67  96 129 174 223 280 341 407
#     4  12  28  46  67 101 139 185 229 281 336 412
#     4  10  22  37  62  97 128 162 217 267 345 397
#     4  10  22  42  69  94 131 174 215 290 322 406
#     4  10  22  39  62  97 127 164 215 271 343 405
#     4  10  24  42  65  96 131 174 229 276 338 406
#
# _framework density 24.746746000000002
#
# number of rings (size 3 to 8) (size 9 to 14) (size 15 to 20)
#    0.000    1.714    0.000    2.571    8.000    0.000 
#    5.143    0.000    0.000    0.000    0.000    0.000 
#    0.000    0.000    0.000    0.000    0.000    0.000 
#
# Total GULP energy -78217.212866 kJ/mol
# GULP energy per Si atom -5586.943776 kJ/mol
# Density = 2.469042 g / cm^3
# Si number density = 24.746746 Si / 1000 Ang^3
#
#
#
# Elastic Constant Matrix: (Units=GPa)
#
#
# Indices 1 2 3 4 5 6 
#
# 1 59.8057 54.3194 51.3381 -5.8920 -27.3096 19.2062
# 2 54.3194 118.2645 52.3400 6.5473 -30.9098 35.9681
# 3 51.3381 52.3400 170.7632 6.0772 -41.2539 13.0971
# 4 -5.8920 6.5473 6.0772 40.7080 5.1337 -12.4268
# 5 -27.3096 -30.9098 -41.2539 5.1337 56.1447 -6.5460
# 6 19.2062 35.9681 13.0971 -12.4268 -6.5460 34.9263
#
#
#
# Elastic Compliance Matrix: (Units=1/GPa)
#
#
# Indices 1 2 3 4 5 6 
#
# 1 0.037578 -0.013112 -0.006046 0.007356 0.005806 -0.001189
# 2 -0.013112 0.022029 0.000216 -0.011838 0.004791 -0.018871
# 3 -0.006046 0.000216 0.008643 -0.002804 0.003734 -0.000436
# 4 0.007356 -0.011838 -0.002804 0.034957 -0.005801 0.020548
# 5 0.005806 0.004791 0.003734 -0.005801 0.025758 -0.006763
# 6 -0.001189 -0.018871 -0.000436 0.020548 -0.006763 0.054926
#
#
# Mechanical properties :
#
#
# Convention : Reuss Voigt Hill
#
# Bulk Modulus (GPa) = 32.93251 73.86983 53.40117
# Shear Modulus (GPa) = 21.56116 39.07819 30.31967
#
# Velocity S-wave (km/s) = 2.95493 3.97813 3.50408
# Velocity P-wave (km/s) = 4.99789 7.14254 6.16420
#
# Compressibility (1/GPa) = 0.03036513
#
# Stress axis : x y z
#
# Youngs Moduli (GPa) = 26.61139 45.39409 115.69989
#
# Poissons Ratio (x) = 0.59521 0.69958
# Poissons Ratio (y) = 0.34893 -0.02499
# Poissons Ratio (z) = 0.16091 -0.00980
#
# Static dielectric constant tensor:
#      x y z
#    x 1.954590 0.006530 0.011500 
#    y 0.006530 2.083880 -0.069520 
#    z 0.011500 -0.069520 2.014010 
# 
# From -- ./inp_files/84484.got.cif
#   From: 2010.05.17/outbox.cif.g08.bks.cpg/sg2_43_cif.got.tgz:84484.got - 2010.06.03 11:33:40.
