data_PCOD9017770
_publ_section_title
;
Structure prediction by ZEFSAII (Michael W. Deem and Ramdas Pophale) SiO2 
 PCOD9017770
Probable space group: P -1
;
_chemical_formula_sum "Si O2"
_cell_formula_units_Z 16
_cell_length_a 11.941279
_cell_length_b 7.637279
_cell_length_c 13.170757
_cell_angle_alpha 58.050253
_cell_angle_beta 53.012302
_cell_angle_gamma 44.450309
_cell_volume 661.132851
_symmetry_space_group_name_H-M "P -1"
_symmetry_group_IT_number 2
_symmetry_cell_setting 'triclinic'
loop_
_space_group_symop_operation_xyz
x,y,z
-x,-y,-z
loop_
_atom_site_type_symbol
_atom_site_label
_atom_site_fract_x
_atom_site_fract_y
_atom_site_fract_z
Si Si1 0.406509 0.471680 0.153989
Si Si2 0.666213 0.115786 0.426327
Si Si3 0.377505 0.076013 0.691465
Si Si4 0.485714 0.647851 0.260334
Si Si5 0.873438 0.917925 0.569564
Si Si6 0.688090 0.819009 0.996160
Si Si7 0.095151 0.522252 0.203330
Si Si8 0.891787 0.720450 0.076453
O O1 0.411133 0.605509 0.211859
O O2 0.220663 0.555448 0.190868
O O3 0.513900 0.177314 0.222038
O O4 0.500000 0.500000 0.000000
O O5 0.512918 0.115239 0.559656
O O6 0.575567 0.407941 0.359434
O O7 0.825707 0.972301 0.459721
O O8 0.709386 0.971373 0.339838
O O9 0.229097 0.302478 0.771666
O O10 0.317442 0.890743 0.332069
O O11 0.647007 0.648072 0.135081
O O12 0.955591 0.627486 0.649251
O O13 0.000000 0.000000 0.500000
O O14 0.760225 0.927714 0.001700
O O15 0.804065 0.691869 0.874065
O O16 0.500000 0.000000 0.000000
O O17 0.992690 0.748382 0.103256
O O18 0.000000 0.500000 0.000000
#
# Coordination Sequence:
#
# PCOD9017770 Si02
#       8
#     2   2   2   2   2   2   2   2
#     4  11  22  41  71  97 123 168 228 274 323 385
#     4  10  23  42  66  92 128 177 226 266 320 380
#     4  10  21  43  66  93 128 176 220 269 321 395
#     4  11  24  39  69  99 123 170 233 273 311 389
#     4  12  26  41  62  97 138 173 214 269 327 393
#     4  11  20  40  68  93 125 170 219 274 323 382
#     4  11  23  42  62  97 133 172 209 270 342 382
#     4  10  24  38  65  96 130 170 210 265 338 390
#
# _framework density 24.200885
#
# number of rings (size 3 to 8) (size 9 to 14) (size 15 to 20)
#    0.000    1.250    3.750    1.875    3.500    1.000 
#    0.000    1.875    0.000    0.000    0.000    0.000 
#    0.000    0.000    0.000    0.000    0.000    0.000 
#
# Total GULP energy -89102.808866 kJ/mol
# GULP energy per Si atom -5568.925554 kJ/mol
# Density = 2.414580 g / cm^3
# Si number density = 24.200885 Si / 1000 Ang^3
#
#
#
# Elastic Constant Matrix: (Units=GPa)
#
#
# Indices 1 2 3 4 5 6 
#
# 1 168.6892 3.7678 25.7574 -20.2190 44.9737 -7.2017
# 2 3.7678 49.0211 32.8536 -4.1471 10.1124 4.4838
# 3 25.7574 32.8536 115.9848 -16.9718 10.9266 -0.3629
# 4 -20.2190 -4.1471 -16.9718 54.0260 -1.4315 6.6072
# 5 44.9737 10.1124 10.9266 -1.4315 49.5178 -11.9410
# 6 -7.2017 4.4838 -0.3629 6.6072 -11.9410 20.7968
#
#
#
# Elastic Compliance Matrix: (Units=1/GPa)
#
#
# Indices 1 2 3 4 5 6 
#
# 1 0.008701 0.002742 -0.001399 0.003253 -0.008973 -0.003788
# 2 0.002742 0.028326 -0.007506 0.001971 -0.009272 -0.011239
# 3 -0.001399 -0.007506 0.011353 0.002370 0.000588 0.000917
# 4 0.003253 0.001971 0.002370 0.021612 -0.005492 -0.009277
# 5 -0.008973 -0.009272 0.000588 -0.005492 0.034943 0.020711
# 6 -0.003788 -0.011239 0.000917 -0.009277 0.020711 0.064051
#
#
# Mechanical properties :
#
#
# Convention : Reuss Voigt Hill
#
# Bulk Modulus (GPa) = 27.73672 50.93919 39.33796
# Shear Modulus (GPa) = 25.86243 42.95588 34.40915
#
# Velocity S-wave (km/s) = 3.27258 4.21761 3.77479
# Velocity P-wave (km/s) = 5.07598 6.69416 5.94043
#
# Compressibility (1/GPa) = 0.03605329
#
# Stress axis : x y z
#
# Youngs Moduli (GPa) = 114.93056 35.30277 88.08298
#
# Poissons Ratio (x) = -0.09679 0.12327
# Poissons Ratio (y) = -0.31512 0.66113
# Poissons Ratio (z) = 0.16084 0.26498
#
# Static dielectric constant tensor:
#      x y z
#    x 2.098680 -0.201810 0.043820 
#    y -0.201810 2.236890 -0.067800 
#    z 0.043820 -0.067800 1.988540 
# 
# From -- ./inp_files/259869.got.cif
#   From: 2010.05.17/outbox.cif.g08.bks.cpg/sg2_130_cif.got.tgz:259869.got - 2010.06.03 11:33:40.
