data_PCOD9017022
_publ_section_title
;
Structure prediction by ZEFSAII (Michael W. Deem and Ramdas Pophale) SiO2 
 PCOD9017022
Probable space group: P -1
;
_chemical_formula_sum "Si O2"
_cell_formula_units_Z 14
_cell_length_a 15.964786
_cell_length_b 11.598671
_cell_length_c 21.916589
_cell_angle_alpha 35.690280
_cell_angle_beta 162.612820
_cell_angle_gamma 136.375975
_cell_volume 676.325708
_symmetry_space_group_name_H-M "P -1"
_symmetry_group_IT_number 2
_symmetry_cell_setting 'triclinic'
loop_
_space_group_symop_operation_xyz
x,y,z
-x,-y,-z
loop_
_atom_site_type_symbol
_atom_site_label
_atom_site_fract_x
_atom_site_fract_y
_atom_site_fract_z
Si Si1 0.265130 0.904086 0.917387
Si Si2 0.224547 0.622515 0.117493
Si Si3 0.233052 0.989845 0.577919
Si Si4 0.706831 0.689404 0.214010
Si Si5 0.183819 0.661993 0.778532
Si Si6 0.145038 0.670275 0.283075
Si Si7 0.165214 0.896207 0.074145
O O1 0.997782 0.975072 0.653232
O O2 0.251376 0.094677 0.871936
O O3 0.244797 0.726177 0.023367
O O4 0.561906 0.789302 0.134890
O O5 0.535648 0.475103 0.418077
O O6 0.126849 0.789864 0.030670
O O7 0.000000 0.500000 0.000000
O O8 0.527008 0.043407 0.738519
O O9 0.081604 0.160467 0.450576
O O10 0.257516 0.766567 0.722279
O O11 0.000000 0.500000 0.500000
O O12 0.463739 0.631054 0.030201
O O13 0.078674 0.456894 0.796344
O O14 0.138632 0.741833 0.177022
O O15 0.075430 0.885546 0.177525
#
# Coordination Sequence:
#
# PCOD9017022 Si02
#       7
#     2   2   2   2   2   2   2
#     4  10  24  41  63 100 134 171 224 271 331 402
#     4  12  26  44  69  96 134 180 218 276 343 395
#     4  10  21  42  70  96 134 174 224 274 328 399
#     4  10  23  41  64  97 138 174 211 274 339 387
#     4  10  22  40  70 100 128 175 224 272 329 399
#     4  11  26  44  71 101 129 177 232 277 329 403
#     4  11  25  46  69  98 133 175 232 275 333 406
#
# _framework density 20.700085000000001
#
# number of rings (size 3 to 8) (size 9 to 14) (size 15 to 20)
#    0.000    1.429    1.429    2.143   12.000    3.429 
#    0.000    0.000    0.000    0.000    0.000    0.000 
#    0.000    0.000    0.000    0.000    0.000    0.000 
#
# Total GULP energy -78135.173975 kJ/mol
# GULP energy per Si atom -5581.083855 kJ/mol
# Density = 2.065297 g / cm^3
# Si number density = 20.700085 Si / 1000 Ang^3
#
#
#
# Elastic Constant Matrix: (Units=GPa)
#
#
# Indices 1 2 3 4 5 6 
#
# 1 31.5226 -82.4213 -84.1720 -81.1134 7.4179 -55.5206
# 2 -82.4213 -227.3918 -353.2499 -237.5810 6.8491 -167.9907
# 3 -84.1720 -353.2499 -406.7573 -291.5592 21.8432 -202.2460
# 4 -81.1134 -237.5810 -291.5592 -136.4588 20.3207 -135.8889
# 5 7.4179 6.8491 21.8432 20.3207 20.5655 6.7747
# 6 -55.5206 -167.9907 -202.2460 -135.8889 6.7747 -64.1614
#
#
#
# Elastic Compliance Matrix: (Units=1/GPa)
#
#
# Indices 1 2 3 4 5 6 
#
# 1 0.025565 0.000533 -0.014297 0.006465 -0.003082 0.007530
# 2 0.000533 0.014771 -0.009464 -0.003456 0.008706 -0.001065
# 3 -0.014297 -0.009464 0.023123 -0.010000 -0.001521 -0.014717
# 4 0.006465 -0.003456 -0.010000 0.017055 -0.006798 -0.001863
# 5 -0.003082 0.008706 -0.001521 -0.006798 0.053613 0.004727
# 6 0.007530 -0.001065 -0.014717 -0.001863 0.004727 0.031521
#
#
# Mechanical properties :
#
#
# Convention : Reuss Voigt Hill
#
# Bulk Modulus (GPa) = 58.81316 -182.47920 -61.83302
# Shear Modulus (GPa) = 22.95988 -41.52984 -9.28498
#
# Velocity S-wave (km/s) = 3.33403 -4.48399 -2.12019
# Velocity P-wave (km/s) = 6.57987 10.73096 5.99411
#
# Compressibility (1/GPa) = 0.01700300
#
# Stress axis : x y z
#
# Youngs Moduli (GPa) = 39.11557 67.70180 43.24718
#
# Poissons Ratio (x) = -0.03609 0.61832
# Poissons Ratio (y) = -0.02085 0.40928
# Poissons Ratio (z) = 0.55925 0.64072
#
# Static dielectric constant tensor:
#      x y z
#    x 1.758440 0.039150 0.005870 
#    y 0.039150 1.761590 -0.018340 
#    z 0.005870 -0.018340 1.706630 
# 
# From -- ./inp_files/296301.got.cif
#   From: 2010.05.17/outbox.cif.g08.bks.cpg/sg2_149_cif.got.tgz:296301.got - 2010.06.03 11:33:40.
