data_PCOD9017407
_publ_section_title
;
Structure prediction by ZEFSAII (Michael W. Deem and Ramdas Pophale) SiO2 
 PCOD9017407
Probable space group: P -1
;
_chemical_formula_sum "Si O2"
_cell_formula_units_Z 16
_cell_length_a 9.298334
_cell_length_b 8.898627
_cell_length_c 14.851730
_cell_angle_alpha 40.207543
_cell_angle_beta 112.290461
_cell_angle_gamma 103.646588
_cell_volume 731.047000
_symmetry_space_group_name_H-M "P -1"
_symmetry_group_IT_number 2
_symmetry_cell_setting 'triclinic'
loop_
_space_group_symop_operation_xyz
x,y,z
-x,-y,-z
loop_
_atom_site_type_symbol
_atom_site_label
_atom_site_fract_x
_atom_site_fract_y
_atom_site_fract_z
Si Si1 0.844741 0.163930 0.372763
Si Si2 0.886239 0.448181 0.913117
Si Si3 0.924264 0.678342 0.167421
Si Si4 0.318061 0.988141 0.939636
Si Si5 0.310436 0.077945 0.689812
Si Si6 0.868263 0.435922 0.568993
Si Si7 0.345214 0.167236 0.404622
Si Si8 0.542815 0.291556 0.538675
O O1 0.858873 0.427157 0.282385
O O2 0.778039 0.138137 0.268024
O O3 0.737730 0.022560 0.473477
O O4 0.000000 0.000000 0.500000
O O5 0.780097 0.689387 0.753377
O O6 0.993873 0.352749 0.896658
O O7 0.760209 0.255824 0.982033
O O8 0.000000 0.500000 0.000000
O O9 0.053187 0.702544 0.264603
O O10 0.785753 0.873628 0.070606
O O11 0.308620 0.100515 0.785927
O O12 0.500000 0.000000 0.000000
O O13 0.207439 0.314121 0.526859
O O14 0.477275 0.078326 0.677578
O O15 0.726535 0.295760 0.560822
O O16 0.000000 0.500000 0.500000
O O17 0.427356 0.352198 0.400413
O O18 0.500000 0.000000 0.500000
O O19 0.500000 0.500000 0.500000
#
# Coordination Sequence:
#
# PCOD9017407 Si02
#       8
#     2   2   2   2   2   2   2   2
#     4  11  21  41  74 104 139 177 235 307 366 422
#     4  12  28  52  74 106 152 202 247 295 367 450
#     4  12  25  47  74 105 146 191 243 303 368 441
#     4  12  30  46  72 101 149 199 246 294 361 451
#     4  10  21  43  62 103 135 184 228 296 359 428
#     4  11  21  35  73 105 133 175 240 303 362 417
#     4  11  26  43  74 106 140 183 240 307 363 425
#     4   9  21  38  66  98 141 173 226 300 361 416
#
# _framework density 21.886417000000002
#
# number of rings (size 3 to 8) (size 9 to 14) (size 15 to 20)
#    0.000    1.000    3.750    2.625    8.750    1.000 
#    4.500    1.250    0.000    0.000    0.000    0.000 
#    0.000    0.000    0.000    0.000    0.000    0.000 
#
# Total GULP energy -89097.567145 kJ/mol
# GULP energy per Si atom -5568.597947 kJ/mol
# Density = 2.183660 g / cm^3
# Si number density = 21.886417 Si / 1000 Ang^3
#
#
#
# Elastic Constant Matrix: (Units=GPa)
#
#
# Indices 1 2 3 4 5 6 
#
# 1 176.5437 42.9620 38.9796 16.9115 1.0253 6.2881
# 2 42.9620 84.8689 44.6037 10.4403 7.8963 22.0231
# 3 38.9796 44.6037 62.4078 14.7011 11.6020 -1.9273
# 4 16.9115 10.4403 14.7011 41.2526 4.8579 -0.6938
# 5 1.0253 7.8963 11.6020 4.8579 25.4598 -4.3431
# 6 6.2881 22.0231 -1.9273 -0.6938 -4.3431 39.4086
#
#
#
# Elastic Compliance Matrix: (Units=1/GPa)
#
#
# Indices 1 2 3 4 5 6 
#
# 1 0.006923 -0.001983 -0.002910 -0.001529 0.001963 0.000050
# 2 -0.001983 0.026272 -0.017621 0.000510 -0.002784 -0.015525
# 3 -0.002910 -0.017621 0.033250 -0.005224 -0.006678 0.011110
# 4 -0.001529 0.000510 -0.005224 0.026937 -0.002880 -0.000140
# 5 0.001963 -0.002784 -0.006678 -0.002880 0.044642 0.005785
# 6 0.000050 -0.015525 0.011110 -0.000140 0.005785 0.035222
#
#
# Mechanical properties :
#
#
# Convention : Reuss Voigt Hill
#
# Bulk Modulus (GPa) = 46.68876 64.10124 55.39500
# Shear Modulus (GPa) = 22.18162 34.37587 28.27874
#
# Velocity S-wave (km/s) = 3.18699 3.96744 3.59843
# Velocity P-wave (km/s) = 5.90941 7.09501 6.52918
#
# Compressibility (1/GPa) = 0.02141843
#
# Stress axis : x y z
#
# Youngs Moduli (GPa) = 144.45509 38.06273 30.07508
#
# Poissons Ratio (x) = 0.07546 0.08751
# Poissons Ratio (y) = 0.28639 0.52995
# Poissons Ratio (z) = 0.42035 0.67070
#
# Static dielectric constant tensor:
#      x y z
#    x 1.841730 0.001290 -0.006000 
#    y 0.001290 2.061680 0.017330 
#    z -0.006000 0.017330 1.837840 
# 
# From -- ./inp_files/494325.got.cif
#   From: 2010.05.17/outbox.cif.g08.bks.cpg/sg2_248_cif.got.tgz:494325.got - 2010.06.03 11:33:40.
