data_PCOD9017708
_publ_section_title
;
Structure prediction by ZEFSAII (Michael W. Deem and Ramdas Pophale) SiO2 
 PCOD9017708
Probable space group: P -1
;
_chemical_formula_sum "Si O2"
_cell_formula_units_Z 16
_cell_length_a 9.726357
_cell_length_b 9.822353
_cell_length_c 15.767594
_cell_angle_alpha 143.869389
_cell_angle_beta 70.972836
_cell_angle_gamma 121.792632
_cell_volume 739.902404
_symmetry_space_group_name_H-M "P -1"
_symmetry_group_IT_number 2
_symmetry_cell_setting 'triclinic'
loop_
_space_group_symop_operation_xyz
x,y,z
-x,-y,-z
loop_
_atom_site_type_symbol
_atom_site_label
_atom_site_fract_x
_atom_site_fract_y
_atom_site_fract_z
Si Si1 0.043371 0.713305 0.919362
Si Si2 0.294070 0.612944 0.391586
Si Si3 0.666783 0.843149 0.364165
Si Si4 0.304517 0.362504 0.443367
Si Si5 0.867836 0.700257 0.378873
Si Si6 0.577569 0.456553 0.047567
Si Si7 0.222979 0.233980 0.067262
Si Si8 0.175715 0.777446 0.102348
O O1 0.050446 0.458161 0.760817
O O2 0.856952 0.669927 0.943253
O O3 0.162459 0.842715 0.040034
O O4 0.121410 0.924737 0.936192
O O5 0.481698 0.748599 0.386832
O O6 0.288144 0.509349 0.436159
O O7 0.201155 0.374097 0.225741
O O8 0.242659 0.841594 0.503004
O O9 0.729852 0.698496 0.343556
O O10 0.675460 0.731709 0.214462
O O11 0.500000 0.500000 0.500000
O O12 0.206604 0.388724 0.557517
O O13 0.222443 0.046265 0.280349
O O14 0.000000 0.000000 0.500000
O O15 0.411514 0.301773 0.057857
O O16 0.500000 0.500000 0.000000
O O17 0.682715 0.303025 0.947296
O O18 0.000000 0.500000 0.000000
#
# Coordination Sequence:
#
# PCOD9017708 Si02
#       8
#     2   2   2   2   2   2   2   2
#     4  11  23  44  70  98 139 185 239 297 364 426
#     4  10  21  43  66 100 139 188 236 307 356 434
#     4  10  22  40  68  96 141 182 241 290 375 426
#     4  12  27  44  73 111 148 192 253 301 361 448
#     4  12  25  44  68 104 143 195 237 300 375 435
#     4  11  25  41  69 101 137 186 242 291 358 440
#     4  10  23  43  69 100 135 187 239 298 364 426
#     4  12  26  46  74 106 146 187 241 307 363 433
#
# _framework density 21.624476000000001
#
# number of rings (size 3 to 8) (size 9 to 14) (size 15 to 20)
#    0.000    1.000    3.750    2.250    3.500    1.500 
#    0.000    2.500    0.000    0.000    0.000    0.000 
#    0.000    0.000    0.000    0.000    0.000    0.000 
#
# Total GULP energy -89219.335082 kJ/mol
# GULP energy per Si atom -5576.208443 kJ/mol
# Density = 2.157526 g / cm^3
# Si number density = 21.624476 Si / 1000 Ang^3
#
#
#
# Elastic Constant Matrix: (Units=GPa)
#
#
# Indices 1 2 3 4 5 6 
#
# 1 91.0243 7.1492 19.9375 6.6220 -2.3158 -20.6798
# 2 7.1492 71.2695 22.5997 1.4845 4.7176 -19.1030
# 3 19.9375 22.5997 79.2708 18.0158 7.9811 -11.7263
# 4 6.6220 1.4845 18.0158 41.3165 -10.1116 8.2156
# 5 -2.3158 4.7176 7.9811 -10.1116 32.9237 4.3843
# 6 -20.6798 -19.1030 -11.7263 8.2156 4.3843 38.0856
#
#
#
# Elastic Compliance Matrix: (Units=1/GPa)
#
#
# Indices 1 2 3 4 5 6 
#
# 1 0.013354 0.001580 -0.001704 -0.003367 -0.001022 0.008363
# 2 0.001580 0.017768 -0.003103 -0.002388 -0.003716 0.009758
# 3 -0.001704 -0.003103 0.018168 -0.010831 -0.008258 0.006399
# 4 -0.003367 -0.002388 -0.010831 0.036715 0.016156 -0.016141
# 5 -0.001022 -0.003716 -0.008258 0.016156 0.039528 -0.012997
# 6 0.008363 0.009758 0.006399 -0.016141 -0.012997 0.042640
#
#
# Mechanical properties :
#
#
# Convention : Reuss Voigt Hill
#
# Bulk Modulus (GPa) = 23.34455 37.88193 30.61324
# Shear Modulus (GPa) = 26.46835 35.25701 30.86268
#
# Velocity S-wave (km/s) = 3.50237 4.04223 3.78194
# Velocity P-wave (km/s) = 5.21290 6.27234 5.76700
#
# Compressibility (1/GPa) = 0.04283654
#
# Stress axis : x y z
#
# Youngs Moduli (GPa) = 74.88320 56.28195 55.04290
#
# Poissons Ratio (x) = -0.08893 0.09379
# Poissons Ratio (y) = -0.11832 0.17078
# Poissons Ratio (z) = 0.12760 0.17462
#
# Static dielectric constant tensor:
#      x y z
#    x 1.785010 0.040030 0.028470 
#    y 0.040030 1.845310 -0.014210 
#    z 0.028470 -0.014210 1.803600 
# 
# From -- ./inp_files/495827.got.cif
#   From: 2010.05.17/outbox.cif.g08.bks.cpg/sg2_248_cif.got.tgz:495827.got - 2010.06.03 11:33:40.
