data_PCOD9017352
_publ_section_title
;
Structure prediction by ZEFSAII (Michael W. Deem and Ramdas Pophale) SiO2 
 PCOD9017352
Probable space group: P -1
;
_chemical_formula_sum "Si O2"
_cell_formula_units_Z 14
_cell_length_a 19.856478
_cell_length_b 9.913456
_cell_length_c 8.826716
_cell_angle_alpha 89.900678
_cell_angle_beta 131.506894
_cell_angle_gamma 47.015326
_cell_volume 533.815611
_symmetry_space_group_name_H-M "P -1"
_symmetry_group_IT_number 2
_symmetry_cell_setting 'triclinic'
loop_
_space_group_symop_operation_xyz
x,y,z
-x,-y,-z
loop_
_atom_site_type_symbol
_atom_site_label
_atom_site_fract_x
_atom_site_fract_y
_atom_site_fract_z
Si Si1 0.285743 0.245170 0.830137
Si Si2 0.958587 0.038005 0.119398
Si Si3 0.824590 0.884166 0.281244
Si Si4 0.578146 0.698756 0.747612
Si Si5 0.368369 0.589357 0.925193
Si Si6 0.867213 0.588693 0.982386
Si Si7 0.073486 0.595026 0.236151
O O1 0.345418 0.007549 0.952426
O O2 0.344616 0.278774 0.037354
O O3 0.017232 0.596472 0.449388
O O4 0.288897 0.290635 0.661829
O O5 0.174776 0.780459 0.542010
O O6 0.931352 0.913570 0.079381
O O7 0.761125 0.382858 0.912401
O O8 0.000000 0.000000 0.000000
O O9 0.962215 0.702808 0.643057
O O10 0.516344 0.675274 0.789547
O O11 0.621019 0.972121 0.649915
O O12 0.276227 0.832802 0.895553
O O13 0.500000 0.500000 0.000000
O O14 0.962115 0.602935 0.075286
O O15 0.855923 0.494268 0.832833
#
# Coordination Sequence:
#
# PCOD9017352 Si02
#       7
#     2   2   2   2   2   2   2
#     4  10  21  42  74  96 141 190 238 287 358 426
#     4  12  26  48  71 104 149 194 238 306 366 431
#     4  10  22  46  69 102 144 190 234 294 360 426
#     4  12  26  48  76 108 146 191 248 300 361 430
#     4  12  27  46  75 109 144 189 243 301 363 435
#     4  10  25  43  74 103 147 188 240 297 358 431
#     4  10  22  44  68 100 148 194 232 291 369 428
#
# _framework density 26.226282999999999
#
# number of rings (size 3 to 8) (size 9 to 14) (size 15 to 20)
#    0.000    1.143    2.857    2.143    8.000    2.857 
#    7.714    0.000    0.000    0.000    0.000    0.000 
#    0.000    0.000    0.000    0.000    0.000    0.000 
#
# Total GULP energy -78244.534597 kJ/mol
# GULP energy per Si atom -5588.895328 kJ/mol
# Density = 2.616659 g / cm^3
# Si number density = 26.226283 Si / 1000 Ang^3
#
#
#
# Elastic Constant Matrix: (Units=GPa)
#
#
# Indices 1 2 3 4 5 6 
#
# 1 86.0495 13.6959 24.3417 8.0135 -25.4325 22.6997
# 2 13.6959 132.6063 55.6819 27.9621 -9.1154 8.5314
# 3 24.3417 55.6819 88.6979 16.0243 -20.0847 -3.7559
# 4 8.0135 27.9621 16.0243 42.3539 -7.6507 1.5403
# 5 -25.4325 -9.1154 -20.0847 -7.6507 27.6113 9.2291
# 6 22.6997 8.5314 -3.7559 1.5403 9.2291 51.9095
#
#
#
# Elastic Compliance Matrix: (Units=1/GPa)
#
#
# Indices 1 2 3 4 5 6 
#
# 1 0.023700 0.000999 -0.002044 0.000892 0.026045 -0.015333
# 2 0.000999 0.011536 -0.006871 -0.005275 -0.000890 -0.002515
# 3 -0.002044 -0.006871 0.018208 -0.000531 0.008318 0.001878
# 4 0.000892 -0.005275 -0.000531 0.028477 0.007145 -0.001677
# 5 0.026045 -0.000890 0.008318 0.007145 0.076093 -0.024382
# 6 -0.015333 -0.002515 0.001878 -0.001677 -0.024382 0.030903
#
#
# Mechanical properties :
#
#
# Convention : Reuss Voigt Hill
#
# Bulk Modulus (GPa) = 26.58764 54.97697 40.78230
# Shear Modulus (GPa) = 23.01102 38.61720 30.81411
#
# Velocity S-wave (km/s) = 2.96531 3.84143 3.43145
# Velocity P-wave (km/s) = 4.67802 6.37836 5.59318
#
# Compressibility (1/GPa) = 0.03761146
#
# Stress axis : x y z
#
# Youngs Moduli (GPa) = 42.19423 86.68387 54.92083
#
# Poissons Ratio (x) = -0.08663 0.11227
# Poissons Ratio (y) = -0.04217 0.37739
# Poissons Ratio (z) = 0.08626 0.59564
#
# Static dielectric constant tensor:
#      x y z
#    x 2.299820 -0.063530 -0.017150 
#    y -0.063530 2.075000 -0.031860 
#    z -0.017150 -0.031860 2.057300 
# 
# From -- ./inp_files/325048.got.cif
#   From: 2010.05.17/outbox.cif.g08.bks.cpg/sg2_163_cif.got.tgz:325048.got - 2010.06.03 11:33:40.
