data_PCOD9017224
_publ_section_title
;
Structure prediction by ZEFSAII (Michael W. Deem and Ramdas Pophale) SiO2 
 PCOD9017224
Probable space group: P -1
;
_chemical_formula_sum "Si O2"
_cell_formula_units_Z 12
_cell_length_a 5.448730
_cell_length_b 8.961260
_cell_length_c 13.474896
_cell_angle_alpha 136.998139
_cell_angle_beta 86.271573
_cell_angle_gamma 98.669708
_cell_volume 442.607382
_symmetry_space_group_name_H-M "P -1"
_symmetry_group_IT_number 2
_symmetry_cell_setting 'triclinic'
loop_
_space_group_symop_operation_xyz
x,y,z
-x,-y,-z
loop_
_atom_site_type_symbol
_atom_site_label
_atom_site_fract_x
_atom_site_fract_y
_atom_site_fract_z
Si Si1 0.697226 0.538150 0.922378
Si Si2 0.084709 0.659096 0.713943
Si Si3 0.072426 0.272148 0.810351
Si Si4 0.335871 0.730495 0.943199
Si Si5 0.380335 0.161797 0.290800
Si Si6 0.959572 0.856364 0.531500
O O1 0.621742 0.679320 0.902201
O O2 0.802966 0.311833 0.795255
O O3 0.500000 0.500000 0.000000
O O4 0.918196 0.683626 0.050286
O O5 0.183959 0.772901 0.871132
O O6 0.344779 0.702331 0.665911
O O7 0.007088 0.395337 0.603251
O O8 0.851028 0.740469 0.707115
O O9 0.238746 0.467828 0.841802
O O10 0.141815 0.031111 0.679121
O O11 0.373056 0.926090 0.118504
O O12 0.297321 0.150966 0.403057
O O13 0.000000 0.000000 0.500000
#
# Coordination Sequence:
#
# PCOD9017224 Si02
#       6
#     2   2   2   2   2   2
#     4   9  19  37  67 111 146 192 247 325 384 445
#     4  12  29  54  77 120 160 212 255 323 400 474
#     4  10  21  42  72 113 154 191 262 327 392 443
#     4  11  24  45  81 112 153 202 269 319 390 468
#     4  12  29  52  81 113 164 208 262 322 397 467
#     4  12  26  52  80 114 157 212 266 325 386 479
#
# _framework density 27.112062999999999
#
# number of rings (size 3 to 8) (size 9 to 14) (size 15 to 20)
#    0.000    1.000    1.667    5.000    7.000    0.000 
#    6.000    4.167    0.000    0.000    0.000    0.000 
#    0.000    0.000    0.000    0.000    0.000    0.000 
#
# Total GULP energy -66832.133292 kJ/mol
# GULP energy per Si atom -5569.344441 kJ/mol
# Density = 2.705035 g / cm^3
# Si number density = 27.112063 Si / 1000 Ang^3
#
#
#
# Elastic Constant Matrix: (Units=GPa)
#
#
# Indices 1 2 3 4 5 6 
#
# 1 116.4130 62.6681 2.7206 15.7706 -13.2319 -14.7754
# 2 62.6681 136.7108 45.4266 25.2170 -5.6688 10.0176
# 3 2.7206 45.4266 122.6483 27.4934 -5.3036 -7.8848
# 4 15.7706 25.2170 27.4934 48.1733 7.6583 3.2033
# 5 -13.2319 -5.6688 -5.3036 7.6583 24.2350 5.2298
# 6 -14.7754 10.0176 -7.8848 3.2033 5.2298 51.7951
#
#
#
# Elastic Compliance Matrix: (Units=1/GPa)
#
#
# Indices 1 2 3 4 5 6 
#
# 1 0.014706 -0.007334 0.004201 -0.004958 0.007548 0.005797
# 2 -0.007334 0.012805 -0.004662 -0.001214 -0.000535 -0.005149
# 3 0.004201 -0.004662 0.011752 -0.006701 0.005074 0.003791
# 4 -0.004958 -0.001214 -0.006701 0.029098 -0.013074 -0.002679
# 5 0.007548 -0.000535 0.005074 -0.013074 0.050779 -0.001289
# 6 0.005797 -0.005149 0.003791 -0.002679 -0.001289 0.022830
#
#
# Mechanical properties :
#
#
# Convention : Reuss Voigt Hill
#
# Bulk Modulus (GPa) = 42.24459 66.37804 54.31132
# Shear Modulus (GPa) = 30.22056 42.50447 36.36251
#
# Velocity S-wave (km/s) = 3.34226 3.96376 3.66620
# Velocity P-wave (km/s) = 5.52355 6.74422 6.16417
#
# Compressibility (1/GPa) = 0.02367167
#
# Stress axis : x y z
#
# Youngs Moduli (GPa) = 68.00153 78.09551 85.09073
#
# Poissons Ratio (x) = 0.57276 -0.35744
# Poissons Ratio (y) = 0.49873 0.39670
# Poissons Ratio (z) = -0.28566 0.36409
#
# Static dielectric constant tensor:
#      x y z
#    x 2.939920 0.134900 0.197470 
#    y 0.134900 2.352290 -0.040880 
#    z 0.197470 -0.040880 2.344850 
# 
# From -- ./inp_files/480910.got.cif
#   From: 2010.05.17/outbox.cif.g08.bks.cpg/sg2_241_cif.got.tgz:480910.got - 2010.06.03 11:33:40.
