data_PCOD9017520
_publ_section_title
;
Structure prediction by ZEFSAII (Michael W. Deem and Ramdas Pophale) SiO2 
 PCOD9017520
Probable space group: P -1
;
_chemical_formula_sum "Si O2"
_cell_formula_units_Z 13
_cell_length_a 21.861923
_cell_length_b 8.125758
_cell_length_c 13.142919
_cell_angle_alpha 64.289956
_cell_angle_beta 29.938930
_cell_angle_gamma 39.996164
_cell_volume 521.950536
_symmetry_space_group_name_H-M "P -1"
_symmetry_group_IT_number 2
_symmetry_cell_setting 'triclinic'
loop_
_space_group_symop_operation_xyz
x,y,z
-x,-y,-z
loop_
_atom_site_type_symbol
_atom_site_label
_atom_site_fract_x
_atom_site_fract_y
_atom_site_fract_z
Si Si1 0.274437 0.932648 0.236259
Si Si2 0.157419 0.733125 0.748216
Si Si3 0.487688 0.999268 0.802411
Si Si4 0.201144 0.342022 0.919375
Si Si5 0.313336 0.900586 0.428719
Si Si6 0.044417 0.142910 0.197037
Si Si7 0.000000 0.000000 0.500000
O O1 0.267737 0.965698 0.357245
O O2 0.500000 0.500000 0.000000
O O3 0.323228 0.064788 0.080797
O O4 0.042024 0.130597 0.471746
O O5 0.357355 0.632226 0.466241
O O6 0.992168 0.927900 0.832972
O O7 0.244172 0.421324 0.741841
O O8 0.000000 0.000000 0.000000
O O9 0.761666 0.557737 0.527112
O O10 0.500624 0.182451 0.783088
O O11 0.392433 0.131094 0.790035
O O12 0.175662 0.163155 0.976400
O O13 0.936823 0.728469 0.249023
O O14 0.137977 0.921568 0.222410
#
# Coordination Sequence:
#
# PCOD9017520 Si02
#       7
#     2   2   2   2   2   2   1
#     4  12  23  41  62  93 125 163 207 255 311 365
#     4  10  21  43  64  89 125 167 205 256 304 361
#     4  11  23  40  62  94 127 160 204 255 312 367
#     4  10  23  40  65  90 121 169 204 250 318 352
#     4  10  23  41  61  90 131 158 208 259 298 375
#     4  11  22  43  64  95 125 156 215 255 301 376
#     4  12  22  38  70  90 122 166 204 252 318 360
#
# _framework density 24.906576999999999
#
# number of rings (size 3 to 8) (size 9 to 14) (size 15 to 20)
#    0.000    1.231    4.615    0.923    0.000    3.077 
#    0.000    0.000    0.000    0.000    0.000    0.000 
#    0.000    0.000    0.000    0.000    0.000    0.000 
#
# Total GULP energy -72569.393033 kJ/mol
# GULP energy per Si atom -5582.261003 kJ/mol
# Density = 2.484989 g / cm^3
# Si number density = 24.906577 Si / 1000 Ang^3
#
#
#
# Elastic Constant Matrix: (Units=GPa)
#
#
# Indices 1 2 3 4 5 6 
#
# 1 142.6864 41.0854 58.5365 -49.9133 -28.8563 14.5589
# 2 41.0854 80.4967 64.9454 -33.4655 -2.2550 6.9947
# 3 58.5365 64.9454 88.8480 -53.2572 -15.8092 12.6299
# 4 -49.9133 -33.4655 -53.2572 68.0352 9.0044 0.1687
# 5 -28.8563 -2.2550 -15.8092 9.0044 45.3459 -16.5947
# 6 14.5589 6.9947 12.6299 0.1687 -16.5947 33.6696
#
#
#
# Elastic Compliance Matrix: (Units=1/GPa)
#
#
# Indices 1 2 3 4 5 6 
#
# 1 0.011268 -0.001750 -0.001927 0.005259 0.004846 -0.001424
# 2 -0.001750 0.033463 -0.028405 -0.006008 -0.007951 0.000572
# 3 -0.001927 -0.028405 0.048877 0.021966 0.007020 -0.008250
# 4 0.005259 -0.006008 0.021966 0.032695 0.000931 -0.008971
# 5 0.004846 -0.007951 0.007020 0.000931 0.031570 0.012478
# 6 -0.001424 0.000572 -0.008250 -0.008971 0.012478 0.039487
#
#
# Mechanical properties :
#
#
# Convention : Reuss Voigt Hill
#
# Bulk Modulus (GPa) = 33.96393 71.24064 52.60229
# Shear Modulus (GPa) = 18.42710 39.24107 28.83408
#
# Velocity S-wave (km/s) = 2.72297 3.97360 3.40617
# Velocity P-wave (km/s) = 4.85306 7.05109 6.05269
#
# Compressibility (1/GPa) = 0.02944300
#
# Stress axis : x y z
#
# Youngs Moduli (GPa) = 88.74597 29.88345 20.45970
#
# Poissons Ratio (x) = 0.05231 0.03943
# Poissons Ratio (y) = 0.15535 0.58116
# Poissons Ratio (z) = 0.17102 0.84884
#
# Static dielectric constant tensor:
#      x y z
#    x 1.893020 0.012740 -0.025140 
#    y 0.012740 2.087350 0.084930 
#    z -0.025140 0.084930 1.994840 
# 
# From -- ./inp_files/36641.got.cif
#   From: 2010.05.17/outbox.cif.g08.bks.cpg/sg2_19_cif.got.tgz:36641.got - 2010.06.03 11:33:40.
