data_PCOD9017326
_publ_section_title
;
Structure prediction by ZEFSAII (Michael W. Deem and Ramdas Pophale) SiO2 
 PCOD9017326
Probable space group: P -1
;
_chemical_formula_sum "Si O2"
_cell_formula_units_Z 16
_cell_length_a 13.997943
_cell_length_b 13.949907
_cell_length_c 8.256189
_cell_angle_alpha 85.291081
_cell_angle_beta 111.271623
_cell_angle_gamma 150.564744
_cell_volume 634.786901
_symmetry_space_group_name_H-M "P -1"
_symmetry_group_IT_number 2
_symmetry_cell_setting 'triclinic'
loop_
_space_group_symop_operation_xyz
x,y,z
-x,-y,-z
loop_
_atom_site_type_symbol
_atom_site_label
_atom_site_fract_x
_atom_site_fract_y
_atom_site_fract_z
Si Si1 0.650822 0.711220 0.151602
Si Si2 0.587657 0.454547 0.626528
Si Si3 0.221674 0.561882 0.396015
Si Si4 0.871935 0.888263 0.761137
Si Si5 0.381110 0.001617 0.611290
Si Si6 0.604739 0.893375 0.054488
Si Si7 0.191057 0.747162 0.011530
Si Si8 0.893994 0.502050 0.337691
O O1 0.544320 0.634172 0.275174
O O2 0.500000 0.500000 0.000000
O O3 0.636041 0.806522 0.054924
O O4 0.926803 0.912660 0.272934
O O5 0.739614 0.487484 0.706289
O O6 0.771749 0.697806 0.679920
O O7 0.375381 0.262259 0.389341
O O8 0.436968 0.814277 0.445016
O O9 0.230335 0.540870 0.589175
O O10 0.952747 0.372655 0.228330
O O11 0.000000 0.000000 0.000000
O O12 0.545653 0.064857 0.800841
O O13 0.322019 0.024381 0.721654
O O14 0.139274 0.763565 0.404550
O O15 0.319596 0.681096 0.898142
O O16 0.741730 0.078909 0.983882
O O17 0.000000 0.500000 0.000000
O O18 0.000000 0.500000 0.500000
#
# Coordination Sequence:
#
# PCOD9017326 Si02
#       8
#     2   2   2   2   2   2   2   2
#     4  12  26  48  74 108 149 196 249 305 375 438
#     4  11  25  48  71 105 143 189 241 309 367 431
#     4  11  24  43  70 103 140 186 240 290 364 434
#     4  11  25  45  76 102 142 187 244 304 370 432
#     4  11  23  47  68 101 144 192 236 296 368 433
#     4  12  24  45  73 102 149 193 241 305 363 432
#     4  10  21  42  74 100 140 191 238 295 361 434
#     4  12  26  44  69 106 145 190 243 299 365 437
#
# _framework density 25.205310000000001
#
# number of rings (size 3 to 8) (size 9 to 14) (size 15 to 20)
#    0.000    0.750    5.000    2.250    1.750    1.500 
#    4.500    0.000    0.000    0.000    0.000    0.000 
#    0.000    0.000    0.000    0.000    0.000    0.000 
#
# Total GULP energy -89086.549918 kJ/mol
# GULP energy per Si atom -5567.909370 kJ/mol
# Density = 2.514794 g / cm^3
# Si number density = 25.205310 Si / 1000 Ang^3
#
#
#
# Elastic Constant Matrix: (Units=GPa)
#
#
# Indices 1 2 3 4 5 6 
#
# 1 54.1784 16.8428 5.4134 1.6973 0.3992 -7.5682
# 2 16.8428 127.0514 28.7481 35.4580 2.6207 -7.1804
# 3 5.4134 28.7481 112.4065 32.0259 5.6863 1.7768
# 4 1.6973 35.4580 32.0259 44.6434 13.4151 -0.4731
# 5 0.3992 2.6207 5.6863 13.4151 22.3612 0.8053
# 6 -7.5682 -7.1804 1.7768 -0.4731 0.8053 41.5892
#
#
#
# Elastic Compliance Matrix: (Units=1/GPa)
#
#
# Indices 1 2 3 4 5 6 
#
# 1 0.019852 -0.002985 -0.000965 0.002811 -0.001561 0.003201
# 2 -0.002985 0.011049 -0.000088 -0.010013 0.004746 0.001162
# 3 -0.000965 -0.000088 0.011357 -0.008782 0.002438 -0.000823
# 4 0.002811 -0.010013 -0.008782 0.043355 -0.022656 0.000090
# 5 -0.001561 0.004746 0.002438 -0.022656 0.057198 -0.000934
# 6 0.003201 0.001162 -0.000823 0.000090 -0.000934 0.024882
#
#
# Mechanical properties :
#
#
# Convention : Reuss Voigt Hill
#
# Bulk Modulus (GPa) = 29.25495 43.96057 36.60776
# Shear Modulus (GPa) = 26.71477 37.89424 32.30451
#
# Velocity S-wave (km/s) = 3.25912 3.88161 3.58390
# Velocity P-wave (km/s) = 5.07881 6.12927 5.62860
#
# Compressibility (1/GPa) = 0.03418225
#
# Stress axis : x y z
#
# Youngs Moduli (GPa) = 50.37154 90.50964 88.05139
#
# Poissons Ratio (x) = 0.27016 0.08500
# Poissons Ratio (y) = 0.15035 0.00772
# Poissons Ratio (z) = 0.04863 0.00793
#
# Static dielectric constant tensor:
#      x y z
#    x 2.669440 -0.437310 0.054340 
#    y -0.437310 2.492630 -0.108510 
#    z 0.054340 -0.108510 2.021060 
# 
# From -- ./inp_files/315327.got.cif
#   From: 2010.05.17/outbox.cif.g08.bks.cpg/sg2_158_cif.got.tgz:315327.got - 2010.06.03 11:33:40.
