data_PCOD9017976
_publ_section_title
;
Structure prediction by ZEFSAII (Michael W. Deem and Ramdas Pophale) SiO2 
 PCOD9017976
Probable space group: P -1
;
_chemical_formula_sum "Si O2"
_cell_formula_units_Z 16
_cell_length_a 27.096323
_cell_length_b 8.756044
_cell_length_c 11.920789
_cell_angle_alpha 130.933724
_cell_angle_beta 19.920150
_cell_angle_gamma 130.807153
_cell_volume 720.208390
_symmetry_space_group_name_H-M "P -1"
_symmetry_group_IT_number 2
_symmetry_cell_setting 'triclinic'
loop_
_space_group_symop_operation_xyz
x,y,z
-x,-y,-z
loop_
_atom_site_type_symbol
_atom_site_label
_atom_site_fract_x
_atom_site_fract_y
_atom_site_fract_z
Si Si1 0.381030 0.107218 0.738093
Si Si2 0.499364 0.139015 0.279876
Si Si3 0.094522 0.833789 0.169923
Si Si4 0.605950 0.703895 0.835999
Si Si5 0.811916 0.657680 0.565410
Si Si6 0.734325 0.835851 0.395182
Si Si7 0.041858 0.468702 0.268755
Si Si8 0.231139 0.718284 0.382138
O O1 0.468480 0.234123 0.511693
O O2 0.500000 0.000000 0.500000
O O3 0.287859 0.227333 0.080239
O O4 0.257916 0.949711 0.858801
O O5 0.360391 0.123060 0.489124
O O6 0.626733 0.258519 0.988822
O O7 0.543757 0.913652 0.098542
O O8 0.112365 0.672633 0.152496
O O9 0.984948 0.727101 0.255757
O O10 0.000000 0.000000 0.500000
O O11 0.757870 0.703721 0.579368
O O12 0.635700 0.715106 0.645347
O O13 0.500000 0.500000 0.000000
O O14 0.766003 0.420165 0.580439
O O15 0.795452 0.055231 0.421511
O O16 0.856377 0.703806 0.037660
O O17 0.000000 0.500000 0.500000
O O18 0.897340 0.396846 0.472739
#
# Coordination Sequence:
#
# PCOD9017976 Si02
#       8
#     2   2   2   2   2   2   2   2
#     4  11  23  40  66 104 130 176 226 278 343 393
#     4  11  24  41  67  98 136 174 222 282 332 398
#     4   9  23  42  64  95 134 167 219 272 335 396
#     4  11  22  41  68  98 135 179 226 276 328 403
#     4  10  21  43  67  96 136 175 223 281 332 397
#     4  11  25  44  68  99 134 180 225 270 341 399
#     4  11  26  44  69  98 133 178 222 280 333 400
#     4  10  23  46  64  98 136 176 225 273 337 400
#
# _framework density 22.215793999999999
#
# number of rings (size 3 to 8) (size 9 to 14) (size 15 to 20)
#    0.000    1.500    1.250    3.375    8.750    2.500 
#    2.250    1.250    0.000    0.000    0.000    0.000 
#    0.000    0.000    0.000    0.000    0.000    0.000 
#
# Total GULP energy -89463.713983 kJ/mol
# GULP energy per Si atom -5591.482124 kJ/mol
# Density = 2.216523 g / cm^3
# Si number density = 22.215794 Si / 1000 Ang^3
#
#
#
# Elastic Constant Matrix: (Units=GPa)
#
#
# Indices 1 2 3 4 5 6 
#
# 1 109.6928 6.3449 11.0249 2.9277 -2.9353 -24.9003
# 2 6.3449 80.9867 23.4147 -1.5940 -8.8709 -22.7024
# 3 11.0249 23.4147 83.3046 6.5822 -6.9093 -7.0339
# 4 2.9277 -1.5940 6.5822 18.6706 2.9110 -3.3831
# 5 -2.9353 -8.8709 -6.9093 2.9110 33.2492 7.7052
# 6 -24.9003 -22.7024 -7.0339 -3.3831 7.7052 24.0104
#
#
#
# Elastic Compliance Matrix: (Units=1/GPa)
#
#
# Indices 1 2 3 4 5 6 
#
# 1 0.013093 0.004457 -0.001854 0.002723 -0.002555 0.018452
# 2 0.004457 0.020017 -0.004912 0.007228 -0.001382 0.023571
# 3 -0.001854 -0.004912 0.014013 -0.006316 0.002990 -0.004311
# 4 0.002723 0.007228 -0.006316 0.060858 -0.008933 0.019250
# 5 -0.002555 -0.001382 0.002990 -0.008933 0.034453 -0.015395
# 6 0.018452 0.023571 -0.004311 0.019250 -0.015395 0.089462
#
#
# Mechanical properties :
#
#
# Convention : Reuss Voigt Hill
#
# Bulk Modulus (GPa) = 23.52720 39.50593 31.51656
# Shear Modulus (GPa) = 19.94565 30.73270 25.33918
#
# Velocity S-wave (km/s) = 2.99960 3.72341 3.38093
# Velocity P-wave (km/s) = 4.75501 6.02548 5.42755
#
# Compressibility (1/GPa) = 0.04250400
#
# Stress axis : x y z
#
# Youngs Moduli (GPa) = 76.37955 49.95736 71.36196
#
# Poissons Ratio (x) = -0.22264 0.13234
# Poissons Ratio (y) = -0.34040 0.35050
# Poissons Ratio (z) = 0.14164 0.24537
#
# Static dielectric constant tensor:
#      x y z
#    x 1.789240 -0.014870 0.008520 
#    y -0.014870 1.916620 -0.004490 
#    z 0.008520 -0.004490 1.864180 
# 
# From -- ./inp_files/319396.got.cif
#   From: 2010.05.17/outbox.cif.g08.bks.cpg/sg2_160_cif.got.tgz:319396.got - 2010.06.03 11:33:40.
