data_PCOD9017965
_publ_section_title
;
Structure prediction by ZEFSAII (Michael W. Deem and Ramdas Pophale) SiO2 
 PCOD9017965
Probable space group: P -1
;
_chemical_formula_sum "Si O2"
_cell_formula_units_Z 14
_cell_length_a 8.455653
_cell_length_b 8.663899
_cell_length_c 18.743956
_cell_angle_alpha 137.463259
_cell_angle_beta 123.612200
_cell_angle_gamma 87.629777
_cell_volume 586.856348
_symmetry_space_group_name_H-M "P -1"
_symmetry_group_IT_number 2
_symmetry_cell_setting 'triclinic'
loop_
_space_group_symop_operation_xyz
x,y,z
-x,-y,-z
loop_
_atom_site_type_symbol
_atom_site_label
_atom_site_fract_x
_atom_site_fract_y
_atom_site_fract_z
Si Si1 0.274083 0.957446 0.528068
Si Si2 0.268389 0.138530 0.906250
Si Si3 0.289313 0.974755 0.374634
Si Si4 0.382302 0.813709 0.727381
Si Si5 0.233737 0.377594 0.420368
Si Si6 0.149384 0.564625 0.987757
Si Si7 0.694980 0.500209 0.249328
O O1 0.351685 0.060674 0.500999
O O2 0.984928 0.663740 0.362489
O O3 0.478356 0.921924 0.582107
O O4 0.310865 0.228159 0.666694
O O5 0.299115 0.995609 0.797568
O O6 0.270935 0.408545 0.978175
O O7 0.490565 0.259532 0.058730
O O8 0.996514 0.839443 0.765492
O O9 0.176757 0.124616 0.373576
O O10 0.063178 0.621227 0.189006
O O11 0.242735 0.604671 0.551634
O O12 0.364690 0.635099 0.731457
O O13 0.662024 0.086682 0.864421
O O14 0.500000 0.500000 0.500000
O O15 0.000000 0.500000 0.000000
#
# Coordination Sequence:
#
# PCOD9017965 Si02
#       7
#     2   2   2   2   2   2   2
#     4  10  22  42  71  95 141 176 229 276 353 405
#     4  11  25  45  70 100 142 181 224 285 352 405
#     4  10  21  43  67  96 130 189 222 275 342 412
#     4  12  24  45  71 106 136 179 238 283 343 409
#     4  11  25  45  67 101 137 180 230 286 341 411
#     4  11  24  46  69  99 140 185 229 279 348 414
#     4  11  24  44  70 107 135 179 229 291 338 406
#
# _framework density 23.855922
#
# number of rings (size 3 to 8) (size 9 to 14) (size 15 to 20)
#    0.000    1.143    1.429    4.714    2.000    1.143 
#    7.714    2.143    0.000    0.000    0.000    0.000 
#    0.000    0.000    0.000    0.000    0.000    0.000 
#
# Total GULP energy -78155.894479 kJ/mol
# GULP energy per Si atom -5582.563891 kJ/mol
# Density = 2.380163 g / cm^3
# Si number density = 23.855922 Si / 1000 Ang^3
#
#
#
# Elastic Constant Matrix: (Units=GPa)
#
#
# Indices 1 2 3 4 5 6 
#
# 1 85.5534 50.3767 55.4122 12.5383 14.0934 1.3795
# 2 50.3767 62.2349 19.4197 2.5034 -3.6282 -21.8694
# 3 55.4122 19.4197 171.1906 -2.9024 16.2441 -4.1392
# 4 12.5383 2.5034 -2.9024 25.5171 0.0456 -0.2129
# 5 14.0934 -3.6282 16.2441 0.0456 38.8733 5.9535
# 6 1.3795 -21.8694 -4.1392 -0.2129 5.9535 33.9670
#
#
#
# Elastic Compliance Matrix: (Units=1/GPa)
#
#
# Indices 1 2 3 4 5 6 
#
# 1 0.066395 -0.064337 -0.014039 -0.028236 -0.017603 -0.042922
# 2 -0.064337 0.084001 0.011350 0.025090 0.017956 0.055089
# 3 -0.014039 0.011350 0.009348 0.006921 0.000870 0.008908
# 4 -0.028236 0.025090 0.006921 0.051521 0.006985 0.017243
# 5 -0.017603 0.017956 0.000870 0.006985 0.032377 0.006751
# 6 -0.042922 0.055089 0.008908 0.017243 0.006751 0.066663
#
#
# Mechanical properties :
#
#
# Convention : Reuss Voigt Hill
#
# Bulk Modulus (GPa) = 38.92320 63.26621 51.09471
# Shear Modulus (GPa) = 11.03945 32.58953 21.81449
#
# Velocity S-wave (km/s) = 2.15351 3.70009 3.02723
# Velocity P-wave (km/s) = 4.74709 6.69566 5.80374
#
# Compressibility (1/GPa) = 0.02569162
#
# Stress axis : x y z
#
# Youngs Moduli (GPa) = 15.06130 11.90465 106.97036
#
# Poissons Ratio (x) = 0.76591 1.50178
# Poissons Ratio (y) = 0.96900 -1.21407
# Poissons Ratio (z) = 0.21145 -0.13511
#
# Static dielectric constant tensor:
#      x y z
#    x 1.988650 -0.048200 0.086020 
#    y -0.048200 2.018060 -0.031460 
#    z 0.086020 -0.031460 2.003160 
# 
# From -- ./inp_files/559885.got.cif
#   From: 2010.05.17/outbox.cif.g08.bks.cpg/sg2_280_cif.got.tgz:559885.got - 2010.06.03 11:33:40.
