data_PCOD9017622
_publ_section_title
;
Structure prediction by ZEFSAII (Michael W. Deem and Ramdas Pophale) SiO2 
 PCOD9017622
Probable space group: P -1
;
_chemical_formula_sum "Si O2"
_cell_formula_units_Z 14
_cell_length_a 26.649546
_cell_length_b 5.079902
_cell_length_c 10.097923
_cell_angle_alpha 104.116168
_cell_angle_beta 34.159232
_cell_angle_gamma 114.314319
_cell_volume 686.858769
_symmetry_space_group_name_H-M "P -1"
_symmetry_group_IT_number 2
_symmetry_cell_setting 'triclinic'
loop_
_space_group_symop_operation_xyz
x,y,z
-x,-y,-z
loop_
_atom_site_type_symbol
_atom_site_label
_atom_site_fract_x
_atom_site_fract_y
_atom_site_fract_z
Si Si1 0.594900 0.341551 0.689152
Si Si2 0.881987 0.916391 0.963347
Si Si3 0.381023 0.041564 0.173448
Si Si4 0.105783 0.508461 0.312223
Si Si5 0.171303 0.794109 0.486198
Si Si6 0.937009 0.787692 0.227513
Si Si7 0.772927 0.286736 0.171652
O O1 0.619328 0.684428 0.703325
O O2 0.666298 0.276383 0.423115
O O3 0.612474 0.205936 0.772752
O O4 0.480912 0.177291 0.889558
O O5 0.844272 0.618960 0.096318
O O6 0.802514 0.056638 0.158530
O O7 0.892547 0.801256 0.779460
O O8 0.985173 0.130111 0.813647
O O9 0.284269 0.906182 0.283531
O O10 0.135841 0.605871 0.406778
O O11 0.000000 0.500000 0.500000
O O12 0.190634 0.726677 0.058455
O O13 0.113034 0.566714 0.703369
O O14 0.144234 0.077076 0.561401
O O15 0.000000 0.000000 0.000000
#
# Coordination Sequence:
#
# PCOD9017622 Si02
#       7
#     2   2   2   2   2   2   2
#     4  10  21  43  65  91 118 157 205 250 321 359
#     4  10  22  38  60  84 122 165 203 241 291 363
#     4  10  23  40  66  90 121 157 199 261 307 368
#     4  10  22  40  59  88 123 169 205 242 294 359
#     4  12  25  39  62  86 127 157 208 248 306 352
#     4  12  26  39  56  90 124 165 197 254 298 368
#     4  10  22  36  65  86 117 160 208 250 289 367
#
# _framework density 20.382648
#
# number of rings (size 3 to 8) (size 9 to 14) (size 15 to 20)
#    0.857    0.571    1.429    3.857    8.000    1.143 
#    0.000    0.714    0.000    0.857    0.000    0.000 
#    0.000    0.000    0.000    0.000    0.000    0.000 
#
# Total GULP energy -78091.172762 kJ/mol
# GULP energy per Si atom -5577.940912 kJ/mol
# Density = 2.033626 g / cm^3
# Si number density = 20.382648 Si / 1000 Ang^3
#
#
#
# Elastic Constant Matrix: (Units=GPa)
#
#
# Indices 1 2 3 4 5 6 
#
# 1 55.0578 11.5314 32.5764 -8.5505 -12.3516 10.3064
# 2 11.5314 66.2347 16.4732 1.4870 -10.2417 -18.6671
# 3 32.5764 16.4732 138.2574 -2.5303 -19.3867 6.7111
# 4 -8.5505 1.4870 -2.5303 32.1343 -2.0955 -9.4524
# 5 -12.3516 -10.2417 -19.3867 -2.0955 33.7414 -1.8320
# 6 10.3064 -18.6671 6.7111 -9.4524 -1.8320 31.8408
#
#
#
# Elastic Compliance Matrix: (Units=1/GPa)
#
#
# Indices 1 2 3 4 5 6 
#
# 1 0.025094 -0.005104 -0.004091 0.004375 0.005088 -0.008661
# 2 -0.005104 0.021379 -0.001376 0.002409 0.004820 0.015468
# 3 -0.004091 -0.001376 0.008845 -0.000518 0.003063 -0.001324
# 4 0.004375 0.002409 -0.000518 0.035676 0.004847 0.010975
# 5 0.005088 0.004820 0.003063 0.004847 0.035241 0.004000
# 6 -0.008661 0.015468 -0.001324 0.010975 0.004000 0.047045
#
#
# Mechanical properties :
#
#
# Convention : Reuss Voigt Hill
#
# Bulk Modulus (GPa) = 29.25859 42.30132 35.77996
# Shear Modulus (GPa) = 24.29383 32.80789 28.55086
#
# Velocity S-wave (km/s) = 3.45612 4.01633 3.74671
# Velocity P-wave (km/s) = 5.50565 6.50435 6.02572
#
# Compressibility (1/GPa) = 0.03417799
#
# Stress axis : x y z
#
# Youngs Moduli (GPa) = 39.84964 46.77435 113.05926
#
# Poissons Ratio (x) = 0.23874 0.46249
# Poissons Ratio (y) = 0.20339 0.15552
# Poissons Ratio (z) = 0.16301 0.06434
#
# Static dielectric constant tensor:
#      x y z
#    x 1.746800 -0.031250 0.062380 
#    y -0.031250 1.739260 -0.000720 
#    z 0.062380 -0.000720 1.770480 
# 
# From -- ./inp_files/475920.got.cif
#   From: 2010.05.17/outbox.cif.g08.bks.cpg/sg2_238_cif.got.tgz:475920.got - 2010.06.03 11:33:40.
