data_PCOD9017148
_publ_section_title
;
Structure prediction by ZEFSAII (Michael W. Deem and Ramdas Pophale) SiO2 
 PCOD9017148
Probable space group: P -1
;
_chemical_formula_sum "Si O2"
_cell_formula_units_Z 14
_cell_length_a 8.044067
_cell_length_b 12.061328
_cell_length_c 12.459447
_cell_angle_alpha 69.859101
_cell_angle_beta 56.030644
_cell_angle_gamma 36.975065
_cell_volume 590.238580
_symmetry_space_group_name_H-M "P -1"
_symmetry_group_IT_number 2
_symmetry_cell_setting 'triclinic'
loop_
_space_group_symop_operation_xyz
x,y,z
-x,-y,-z
loop_
_atom_site_type_symbol
_atom_site_label
_atom_site_fract_x
_atom_site_fract_y
_atom_site_fract_z
Si Si1 0.829462 0.414345 0.143617
Si Si2 0.862819 0.645451 0.157013
Si Si3 0.516872 0.645861 0.637180
Si Si4 0.233276 0.656998 0.131976
Si Si5 0.027540 0.237146 0.530869
Si Si6 0.661294 0.207247 0.576224
Si Si7 0.655311 0.044988 0.290247
O O1 0.942204 0.473012 0.155305
O O2 0.766668 0.321714 0.259065
O O3 0.472715 0.595071 0.158853
O O4 0.062369 0.311818 0.989999
O O5 0.502382 0.797161 0.273788
O O6 0.041518 0.621275 0.201497
O O7 0.515061 0.706783 0.501379
O O8 0.433042 0.779189 0.714204
O O9 0.861000 0.424015 0.587208
O O10 0.500000 0.500000 0.000000
O O11 0.934094 0.886084 0.157111
O O12 0.308933 0.140940 0.378580
O O13 0.732903 0.305331 0.559656
O O14 0.186236 0.081644 0.615893
O O15 0.000000 0.000000 0.500000
#
# Coordination Sequence:
#
# PCOD9017148 Si02
#       7
#     2   2   2   2   2   2   2
#     4  10  22  44  68  97 135 183 227 282 343 406
#     4  10  22  41  71  94 134 187 225 272 353 409
#     4  12  24  41  69 104 142 177 232 290 344 406
#     4  10  21  42  71  95 133 188 227 276 345 413
#     4  11  23  41  64 100 144 181 219 288 351 406
#     4  12  23  41  67 101 137 176 233 287 339 413
#     4  11  23  41  67 103 137 179 228 283 354 413
#
# _framework density 23.719221000000001
#
# number of rings (size 3 to 8) (size 9 to 14) (size 15 to 20)
#    0.000    1.143    4.286    1.714    2.000    1.143 
#    0.000    3.571    0.000    0.000    0.000    0.000 
#    0.000    0.000    0.000    0.000    0.000    0.000 
#
# Total GULP energy -77990.525068 kJ/mol
# GULP energy per Si atom -5570.751791 kJ/mol
# Density = 2.366523 g / cm^3
# Si number density = 23.719221 Si / 1000 Ang^3
#
#
#
# Elastic Constant Matrix: (Units=GPa)
#
#
# Indices 1 2 3 4 5 6 
#
# 1 103.8889 22.5627 6.7677 15.4208 -6.6704 21.4662
# 2 22.5627 93.1816 31.4228 31.9776 6.4069 17.5129
# 3 6.7677 31.4228 131.5776 41.5677 -19.2605 3.2417
# 4 15.4208 31.9776 41.5677 38.5111 2.1834 3.2983
# 5 -6.6704 6.4069 -19.2605 2.1834 35.4592 5.0294
# 6 21.4662 17.5129 3.2417 3.2983 5.0294 29.9142
#
#
#
# Elastic Compliance Matrix: (Units=1/GPa)
#
#
# Indices 1 2 3 4 5 6 
#
# 1 0.012998 -0.000010 0.002915 -0.007841 0.005898 -0.009765
# 2 -0.000010 0.016923 0.000361 -0.013680 -0.000845 -0.008289
# 3 0.002915 0.000361 0.014314 -0.017165 0.009828 -0.003614
# 4 -0.007841 -0.013680 -0.017165 0.058794 -0.013549 0.011291
# 5 0.005898 -0.000845 0.009828 -0.013549 0.036987 -0.009527
# 6 -0.009765 -0.008289 -0.003614 0.011291 -0.009527 0.046037
#
#
# Mechanical properties :
#
#
# Convention : Reuss Voigt Hill
#
# Bulk Modulus (GPa) = 19.69749 50.01717 34.85733
# Shear Modulus (GPa) = 25.45252 38.63655 32.04453
#
# Velocity S-wave (km/s) = 3.27934 4.04036 3.67958
# Velocity P-wave (km/s) = 4.76038 6.54973 5.72539
#
# Compressibility (1/GPa) = 0.05076789
#
# Stress axis : x y z
#
# Youngs Moduli (GPa) = 76.93453 59.09151 69.85998
#
# Poissons Ratio (x) = 0.00058 -0.20362
# Poissons Ratio (y) = 0.00075 -0.02524
# Poissons Ratio (z) = -0.22424 -0.02135
#
# Static dielectric constant tensor:
#      x y z
#    x 2.232680 0.044070 0.101550 
#    y 0.044070 1.944880 0.014380 
#    z 0.101550 0.014380 2.078930 
# 
# From -- ./inp_files/500253.got.cif
#   From: 2010.05.17/outbox.cif.g08.bks.cpg/sg2_251_cif.got.tgz:500253.got - 2010.06.03 11:33:40.
