data_PCOD9017423
_publ_section_title
;
Structure prediction by ZEFSAII (Michael W. Deem and Ramdas Pophale) SiO2 
 PCOD9017423
Probable space group: P -1
;
_chemical_formula_sum "Si O2"
_cell_formula_units_Z 14
_cell_length_a 9.336476
_cell_length_b 8.758882
_cell_length_c 15.261313
_cell_angle_alpha 91.766953
_cell_angle_beta 122.133376
_cell_angle_gamma 47.585484
_cell_volume 664.306312
_symmetry_space_group_name_H-M "P -1"
_symmetry_group_IT_number 2
_symmetry_cell_setting 'triclinic'
loop_
_space_group_symop_operation_xyz
x,y,z
-x,-y,-z
loop_
_atom_site_type_symbol
_atom_site_label
_atom_site_fract_x
_atom_site_fract_y
_atom_site_fract_z
Si Si1 0.206114 0.857460 0.853268
Si Si2 0.400251 0.464391 0.544997
Si Si3 0.191491 0.077042 0.375467
Si Si4 0.778160 0.373478 0.788117
Si Si5 0.861568 0.760520 0.444160
Si Si6 0.192700 0.619634 0.998122
Si Si7 0.267908 0.236012 0.243282
O O1 0.183308 0.772363 0.933265
O O2 0.051474 0.863720 0.730937
O O3 0.515949 0.660696 0.927776
O O4 0.039953 0.127456 0.818768
O O5 0.500000 0.500000 0.500000
O O6 0.535581 0.436931 0.676385
O O7 0.081456 0.690378 0.454936
O O8 0.534818 0.206276 0.564103
O O9 0.171762 0.134270 0.470888
O O10 0.189533 0.223987 0.313046
O O11 0.723430 0.587835 0.752309
O O12 0.822525 0.325859 0.904852
O O13 0.000000 0.500000 0.500000
O O14 0.564021 0.964925 0.311623
O O15 0.953993 0.674827 0.893148
#
# Coordination Sequence:
#
# PCOD9017423 Si02
#       7
#     2   2   2   2   2   2   2
#     4   9  21  41  67  91 124 173 216 266 326 377
#     4  11  25  43  68  97 128 171 222 272 324 382
#     4  10  22  44  64  94 132 166 221 270 320 394
#     4  11  23  40  65  94 132 168 214 273 321 382
#     4  12  25  43  70  95 128 181 215 265 337 384
#     4  10  21  43  62  94 131 169 218 264 318 393
#     4  11  24  41  64  97 137 171 215 273 321 391
#
# _framework density 21.074615999999999
#
# number of rings (size 3 to 8) (size 9 to 14) (size 15 to 20)
#    0.000    1.429    1.429    3.000    2.000    5.143 
#    7.714    0.000    0.000    0.000    0.000    0.000 
#    0.000    0.000    0.000    0.000    0.000    0.000 
#
# Total GULP energy -78333.145489 kJ/mol
# GULP energy per Si atom -5595.224678 kJ/mol
# Density = 2.102665 g / cm^3
# Si number density = 21.074616 Si / 1000 Ang^3
#
#
#
# Elastic Constant Matrix: (Units=GPa)
#
#
# Indices 1 2 3 4 5 6 
#
# 1 53.4692 36.3361 31.5237 3.5678 19.6843 -17.7657
# 2 36.3361 111.2990 48.1597 -13.0154 27.8873 -0.2323
# 3 31.5237 48.1597 97.5859 -7.4801 24.6280 -18.6557
# 4 3.5678 -13.0154 -7.4801 40.6659 -17.1154 3.0776
# 5 19.6843 27.8873 24.6280 -17.1154 28.7745 -10.9298
# 6 -17.7657 -0.2323 -18.6557 3.0776 -10.9298 32.5416
#
#
#
# Elastic Compliance Matrix: (Units=1/GPa)
#
#
# Indices 1 2 3 4 5 6 
#
# 1 0.039633 -0.008868 -0.001374 -0.016799 -0.021590 0.015123
# 2 -0.008868 0.016303 -0.004988 0.002528 -0.007947 -0.010492
# 3 -0.001374 -0.004988 0.015848 -0.001746 -0.006434 0.006304
# 4 -0.016799 0.002528 -0.001746 0.041039 0.033947 -0.002634
# 5 -0.021590 -0.007947 -0.006434 0.033947 0.086889 0.010441
# 6 0.015123 -0.010492 0.006304 -0.002634 0.010441 0.046281
#
#
# Mechanical properties :
#
#
# Convention : Reuss Voigt Hill
#
# Bulk Modulus (GPa) = 24.19890 54.93256 39.56573
# Shear Modulus (GPa) = 17.22788 30.15203 23.68995
#
# Velocity S-wave (km/s) = 2.86225 3.78660 3.35640
# Velocity P-wave (km/s) = 4.73610 6.72608 5.81682
#
# Compressibility (1/GPa) = 0.04132419
#
# Stress axis : x y z
#
# Youngs Moduli (GPa) = 25.23159 61.33840 63.10016
#
# Poissons Ratio (x) = 0.54394 0.08672
# Poissons Ratio (y) = 0.22375 0.31472
# Poissons Ratio (z) = 0.03468 0.30593
#
# Static dielectric constant tensor:
#      x y z
#    x 1.781800 0.016380 0.003340 
#    y 0.016380 1.730260 -0.012950 
#    z 0.003340 -0.012950 1.768810 
# 
# From -- ./inp_files/26862.got.cif
#   From: 2010.05.17/outbox.cif.g08.bks.cpg/sg2_14_cif.got.tgz:26862.got - 2010.06.03 11:33:40.
