data_PCOD9017608
_publ_section_title
;
Structure prediction by ZEFSAII (Michael W. Deem and Ramdas Pophale) SiO2 
 PCOD9017608
Probable space group: P -1
;
_chemical_formula_sum "Si O2"
_cell_formula_units_Z 15
_cell_length_a 18.761146
_cell_length_b 9.043037
_cell_length_c 11.307450
_cell_angle_alpha 139.170660
_cell_angle_beta 28.358600
_cell_angle_gamma 141.738651
_cell_volume 550.015612
_symmetry_space_group_name_H-M "P -1"
_symmetry_group_IT_number 2
_symmetry_cell_setting 'triclinic'
loop_
_space_group_symop_operation_xyz
x,y,z
-x,-y,-z
loop_
_atom_site_type_symbol
_atom_site_label
_atom_site_fract_x
_atom_site_fract_y
_atom_site_fract_z
Si Si1 0.627288 0.185593 0.054565
Si Si2 0.221918 0.544998 0.594186
Si Si3 0.869736 0.167927 0.893949
Si Si4 0.490865 0.449475 0.683605
Si Si5 0.351265 0.938060 0.446851
Si Si6 0.000000 0.000000 0.000000
Si Si7 0.053743 0.438192 0.240907
Si Si8 0.169031 0.299657 0.199312
O O1 0.544925 0.378892 0.256801
O O2 0.459826 0.949021 0.177647
O O3 0.734977 0.152484 0.985969
O O4 0.789100 0.316901 0.816435
O O5 0.335013 0.442587 0.442919
O O6 0.321598 0.708665 0.438339
O O7 0.048793 0.337110 0.691128
O O8 0.178081 0.725119 0.853830
O O9 0.871062 0.911202 0.776467
O O10 0.459620 0.187306 0.510865
O O11 0.354775 0.391715 0.948951
O O12 0.182308 0.972279 0.696096
O O13 0.934927 0.706729 0.979265
O O14 0.905241 0.506291 0.534271
O O15 0.075927 0.216459 0.156107
#
# Coordination Sequence:
#
# PCOD9017608 Si02
#       8
#     2   2   2   2   2   1   2   2
#     4  11  23  38  62  94 129 167 213 264 327 374
#     4  11  23  36  61  98 130 169 223 262 319 371
#     4  11  22  38  61  93 132 169 215 272 311 387
#     4  11  21  39  62  94 129 173 212 268 320 390
#     4  12  22  37  63  96 128 168 209 276 314 383
#     4  12  22  38  66 100 126 154 218 268 318 366
#     4  10  23  41  66  96 126 172 212 265 321 396
#     4  10  21  43  65  88 132 176 214 252 334 390
#
# _framework density 27.271954000000001
#
# number of rings (size 3 to 8) (size 9 to 14) (size 15 to 20)
#    0.000    1.067    5.333    2.400    0.000    3.733 
#    0.000    1.333    0.000    8.000    0.000    0.000 
#    0.000    0.000    0.000    0.000    0.000    0.000 
#
# Total GULP energy -83628.599744 kJ/mol
# GULP energy per Si atom -5575.239983 kJ/mol
# Density = 2.720988 g / cm^3
# Si number density = 27.271954 Si / 1000 Ang^3
#
#
#
# Elastic Constant Matrix: (Units=GPa)
#
#
# Indices 1 2 3 4 5 6 
#
# 1 105.3179 45.7754 44.0327 9.6920 -40.9581 -8.7974
# 2 45.7754 152.7389 52.8318 4.1441 -4.5918 -31.9457
# 3 44.0327 52.8318 154.7448 10.6041 -24.8797 0.4518
# 4 9.6920 4.1441 10.6041 43.0630 7.3348 -4.1202
# 5 -40.9581 -4.5918 -24.8797 7.3348 61.0888 -1.0606
# 6 -8.7974 -31.9457 0.4518 -4.1202 -1.0606 44.6324
#
#
#
# Elastic Compliance Matrix: (Units=1/GPa)
#
#
# Indices 1 2 3 4 5 6 
#
# 1 0.016396 -0.003987 -0.001244 -0.004815 0.010768 0.000202
# 2 -0.003987 0.009961 -0.002929 0.001828 -0.003224 0.006465
# 3 -0.001244 -0.002929 0.008388 -0.002189 0.002581 -0.002567
# 4 -0.004815 0.001828 -0.002189 0.026125 -0.007074 0.002625
# 5 0.010768 -0.003224 0.002581 -0.007074 0.025243 -0.000265
# 6 0.000202 0.006465 -0.002567 0.002625 -0.000265 0.027335
#
#
# Mechanical properties :
#
#
# Convention : Reuss Voigt Hill
#
# Bulk Modulus (GPa) = 54.27023 77.56459 65.91741
# Shear Modulus (GPa) = 36.78971 47.76762 42.27866
#
# Velocity S-wave (km/s) = 3.67685 4.18967 3.94161
# Velocity P-wave (km/s) = 6.16186 7.20467 6.70357
#
# Compressibility (1/GPa) = 0.01842631
#
# Stress axis : x y z
#
# Youngs Moduli (GPa) = 60.99191 100.39380 119.21135
#
# Poissons Ratio (x) = 0.40027 0.14824
# Poissons Ratio (y) = 0.24317 0.34915
# Poissons Ratio (z) = 0.07584 0.29403
#
# Static dielectric constant tensor:
#      x y z
#    x 2.560930 0.194070 0.126180 
#    y 0.194070 2.350530 0.005180 
#    z 0.126180 0.005180 2.071730 
# 
# From -- ./inp_files/542598.got.cif
#   From: 2010.05.17/outbox.cif.g08.bks.cpg/sg2_272_cif.got.tgz:542598.got - 2010.06.03 11:33:40.
