data_PCOD9017891
_publ_section_title
;
Structure prediction by ZEFSAII (Michael W. Deem and Ramdas Pophale) SiO2 
 PCOD9017891
Probable space group: P -1
;
_chemical_formula_sum "Si O2"
_cell_formula_units_Z 10
_cell_length_a 11.474274
_cell_length_b 7.828592
_cell_length_c 6.968829
_cell_angle_alpha 64.396845
_cell_angle_beta 108.935814
_cell_angle_gamma 128.196861
_cell_volume 442.202988
_symmetry_space_group_name_H-M "P -1"
_symmetry_group_IT_number 2
_symmetry_cell_setting 'triclinic'
loop_
_space_group_symop_operation_xyz
x,y,z
-x,-y,-z
loop_
_atom_site_type_symbol
_atom_site_label
_atom_site_fract_x
_atom_site_fract_y
_atom_site_fract_z
Si Si1 0.345108 0.545371 0.942184
Si Si2 0.879502 0.327740 0.363113
Si Si3 0.579172 0.629634 0.285611
Si Si4 0.834994 0.978095 0.768466
Si Si5 0.905160 0.060086 0.196138
O O1 0.221856 0.596739 0.817527
O O2 0.408478 0.535903 0.775038
O O3 0.479561 0.699241 0.085369
O O4 0.267802 0.289741 0.111486
O O5 0.777884 0.095249 0.546741
O O6 0.951689 0.270673 0.255818
O O7 0.118038 0.901535 0.056888
O O8 0.500000 0.500000 0.500000
O O9 0.747098 0.846932 0.290398
O O10 0.000000 0.500000 0.500000
O O11 0.977987 0.010261 0.722961
#
# Coordination Sequence:
#
# PCOD9017891 Si02
#       5
#     2   2   2   2   2
#     4  10  24  42  64  97 125 163 216 257 316 383
#     4  12  24  38  64  98 130 168 211 259 317 375
#     4  10  21  43  67  88 128 171 206 262 320 372
#     4  10  22  43  65  92 130 163 209 269 312 370
#     4  10  22  41  65  94 126 168 215 259 316 376
#
# _framework density 22.614049999999999
#
# number of rings (size 3 to 8) (size 9 to 14) (size 15 to 20)
#    0.000    1.600    0.000    5.400    0.000    7.200 
#    0.000   14.000    0.000    0.000    0.000    0.000 
#    0.000    0.000    0.000    0.000    0.000    0.000 
#
# Total GULP energy -55918.620457 kJ/mol
# GULP energy per Si atom -5591.862046 kJ/mol
# Density = 2.256258 g / cm^3
# Si number density = 22.614050 Si / 1000 Ang^3
#
#
#
# Elastic Constant Matrix: (Units=GPa)
#
#
# Indices 1 2 3 4 5 6 
#
# 1 109.2023 60.4134 49.7547 6.9504 -23.2745 -2.0083
# 2 60.4134 96.9679 22.5691 13.5288 -13.8448 -7.1418
# 3 49.7547 22.5691 104.8513 -8.4843 -9.2925 -8.5870
# 4 6.9504 13.5288 -8.4843 25.2835 -0.2692 -9.4081
# 5 -23.2745 -13.8448 -9.2925 -0.2692 36.8994 2.2385
# 6 -2.0083 -7.1418 -8.5870 -9.4081 2.2385 39.6746
#
#
#
# Elastic Compliance Matrix: (Units=1/GPa)
#
#
# Indices 1 2 3 4 5 6 
#
# 1 0.018997 -0.008863 -0.007104 -0.004107 0.007053 -0.003543
# 2 -0.008863 0.016795 0.000257 -0.006024 0.000661 0.001165
# 3 -0.007104 0.000257 0.013797 0.008173 -0.001134 0.004675
# 4 -0.004107 -0.006024 0.008173 0.051391 -0.003197 0.012843
# 5 0.007053 0.000661 -0.001134 -0.003197 0.031629 -0.002312
# 6 -0.003543 0.001165 0.004675 0.012843 -0.002312 0.029423
#
#
# Mechanical properties :
#
#
# Convention : Reuss Voigt Hill
#
# Bulk Modulus (GPa) = 55.03948 64.05510 59.54729
# Shear Modulus (GPa) = 25.06159 32.25711 28.65935
#
# Velocity S-wave (km/s) = 3.33262 3.78089 3.56381
# Velocity P-wave (km/s) = 6.26099 6.88818 6.58206
#
# Compressibility (1/GPa) = 0.01816877
#
# Stress axis : x y z
#
# Youngs Moduli (GPa) = 52.64059 59.54029 72.48092
#
# Poissons Ratio (x) = 0.52770 0.51492
# Poissons Ratio (y) = 0.46655 -0.01863
# Poissons Ratio (z) = 0.37397 -0.01531
#
# Static dielectric constant tensor:
#      x y z
#    x 1.821680 0.020600 -0.000850 
#    y 0.020600 1.930180 -0.015090 
#    z -0.000850 -0.015090 1.869680 
# 
# From -- ./inp_files/129799.got.cif
#   From: 2010.05.17/outbox.cif.g08.bks.cpg/sg2_65_cif.got.tgz:129799.got - 2010.06.03 11:33:40.
