data_PCOD9017394
_publ_section_title
;
Structure prediction by ZEFSAII (Michael W. Deem and Ramdas Pophale) SiO2 
 PCOD9017394
Probable space group: P -1
;
_chemical_formula_sum "Si O2"
_cell_formula_units_Z 15
_cell_length_a 16.585222
_cell_length_b 4.911666
_cell_length_c 14.907238
_cell_angle_alpha 89.740888
_cell_angle_beta 29.291769
_cell_angle_gamma 86.295271
_cell_volume 589.542199
_symmetry_space_group_name_H-M "P -1"
_symmetry_group_IT_number 2
_symmetry_cell_setting 'triclinic'
loop_
_space_group_symop_operation_xyz
x,y,z
-x,-y,-z
loop_
_atom_site_type_symbol
_atom_site_label
_atom_site_fract_x
_atom_site_fract_y
_atom_site_fract_z
Si Si1 0.119461 0.726114 0.400521
Si Si2 0.282844 0.850535 0.714150
Si Si3 0.792456 0.228180 0.478647
Si Si4 0.000000 0.500000 0.000000
Si Si5 0.564925 0.953190 0.157142
Si Si6 0.715828 0.440852 0.935576
Si Si7 0.380922 0.314605 0.713942
Si Si8 0.028546 0.321725 0.764067
O O1 0.178370 0.725065 0.444755
O O2 0.256009 0.679445 0.190564
O O3 0.000000 0.500000 0.500000
O O4 0.000000 0.000000 0.500000
O O5 0.362365 0.639182 0.715673
O O6 0.433005 0.806558 0.496947
O O7 0.118956 0.728299 0.847353
O O8 0.257304 0.173627 0.765599
O O9 0.619956 0.104980 0.645045
O O10 0.814800 0.514111 0.409386
O O11 0.922517 0.997346 0.306161
O O12 0.976695 0.385011 0.916488
O O13 0.658183 0.813121 0.154083
O O14 0.640033 0.756236 0.004851
O O15 0.595443 0.260255 0.106825
O O16 0.885865 0.415619 0.828481
#
# Coordination Sequence:
#
# PCOD9017394 Si02
#       8
#     2   2   2   1   2   2   2   2
#     4  12  23  47  76 101 137 183 226 284 346 426
#     4  10  23  39  64  88 125 179 232 275 334 391
#     4  12  26  47  72 103 139 185 230 284 353 413
#     4  12  26  42  66 106 138 172 240 300 324 394
#     4  12  25  41  67 104 142 171 228 290 338 410
#     4  12  25  44  72 103 135 184 229 284 346 407
#     4  10  21  43  61  86 130 185 218 266 345 409
#     4  12  26  45  71 101 141 189 232 281 351 414
#
# _framework density 25.443473000000001
#
# number of rings (size 3 to 8) (size 9 to 14) (size 15 to 20)
#    0.000    0.533    2.667    5.600    0.000    7.467 
#    0.000    0.000    0.000    0.000    0.000    0.000 
#    0.000    0.000    0.000    0.000    0.000    0.000 
#
# Total GULP energy -83834.044905 kJ/mol
# GULP energy per Si atom -5588.936327 kJ/mol
# Density = 2.538556 g / cm^3
# Si number density = 25.443473 Si / 1000 Ang^3
#
#
#
# Elastic Constant Matrix: (Units=GPa)
#
#
# Indices 1 2 3 4 5 6 
#
# 1 84.7430 9.2162 27.9851 1.8159 33.3360 22.0571
# 2 9.2162 142.4686 11.9669 -5.8417 6.6962 5.7909
# 3 27.9851 11.9669 95.5663 -8.4697 22.4823 20.6022
# 4 1.8159 -5.8417 -8.4697 59.4986 12.8328 -0.5585
# 5 33.3360 6.6962 22.4823 12.8328 50.4256 -1.1958
# 6 22.0571 5.7909 20.6022 -0.5585 -1.1958 33.5309
#
#
#
# Elastic Compliance Matrix: (Units=1/GPa)
#
#
# Indices 1 2 3 4 5 6 
#
# 1 0.021622 -0.000001 0.000916 0.002726 -0.015759 -0.015302
# 2 -0.000001 0.007176 -0.000351 0.000870 -0.001042 -0.001046
# 3 0.000916 -0.000351 0.014610 0.003705 -0.008247 -0.009752
# 4 0.002726 0.000870 0.003705 0.019139 -0.008540 -0.004205
# 5 -0.015759 -0.001042 -0.008247 -0.008540 0.036636 0.016778
# 6 -0.015302 -0.001046 -0.009752 -0.004205 0.016778 0.046590
#
#
# Mechanical properties :
#
#
# Convention : Reuss Voigt Hill
#
# Bulk Modulus (GPa) = 22.45336 46.79048 34.62192
# Shear Modulus (GPa) = 31.35019 46.93166 39.14092
#
# Velocity S-wave (km/s) = 3.51401 4.29948 3.92643
# Velocity P-wave (km/s) = 5.03074 6.56333 5.84746
#
# Compressibility (1/GPa) = 0.04453676
#
# Stress axis : x y z
#
# Youngs Moduli (GPa) = 46.25004 139.35830 68.44493
#
# Poissons Ratio (x) = 0.00017 -0.06272
# Poissons Ratio (y) = 0.00006 0.02400
# Poissons Ratio (z) = -0.04238 0.04886
#
# Static dielectric constant tensor:
#      x y z
#    x 2.032780 0.048120 0.008670 
#    y 0.048120 1.910930 0.029990 
#    z 0.008670 0.029990 2.007430 
# 
# From -- ./inp_files/536398.got.cif
#   From: 2010.05.17/outbox.cif.g08.bks.cpg/sg2_269_cif.got.tgz:536398.got - 2010.06.03 11:33:40.
