data_PCOD9017187
_publ_section_title
;
Structure prediction by ZEFSAII (Michael W. Deem and Ramdas Pophale) SiO2 
 PCOD9017187
Probable space group: P -1
;
_chemical_formula_sum "Si O2"
_cell_formula_units_Z 16
_cell_length_a 16.235608
_cell_length_b 9.250437
_cell_length_c 11.470566
_cell_angle_alpha 53.631358
_cell_angle_beta 132.035811
_cell_angle_gamma 149.559191
_cell_volume 647.699042
_symmetry_space_group_name_H-M "P -1"
_symmetry_group_IT_number 2
_symmetry_cell_setting 'triclinic'
loop_
_space_group_symop_operation_xyz
x,y,z
-x,-y,-z
loop_
_atom_site_type_symbol
_atom_site_label
_atom_site_fract_x
_atom_site_fract_y
_atom_site_fract_z
Si Si1 0.111894 0.276866 0.841329
Si Si2 0.606358 0.395206 0.678228
Si Si3 0.133153 0.447841 0.548284
Si Si4 0.733928 0.795605 0.806104
Si Si5 0.022999 0.265985 0.130405
Si Si6 0.971009 0.467137 0.788277
Si Si7 0.384317 0.490194 0.637362
Si Si8 0.255739 0.958065 0.687237
O O1 0.174655 0.498822 0.699895
O O2 0.244809 0.354688 0.021444
O O3 0.934612 0.110693 0.822273
O O4 0.048184 0.022394 0.825567
O O5 0.658875 0.640437 0.683434
O O6 0.767989 0.467495 0.825777
O O7 0.618207 0.440106 0.530554
O O8 0.414025 0.104465 0.681965
O O9 0.248379 0.433653 0.610208
O O10 0.158717 0.645705 0.388229
O O11 0.918282 0.172449 0.475421
O O12 0.589065 0.744208 0.748069
O O13 0.006841 0.316318 0.221826
O O14 0.929953 0.280723 0.943116
O O15 0.165474 0.690952 0.808088
O O16 0.331812 0.215145 0.714983
#
# Coordination Sequence:
#
# PCOD9017187 Si02
#       8
#     2   2   2   2   2   2   2   2
#     4  10  19  34  52  71 101 133 164 200 240 299
#     4  10  17  30  52  76 100 125 160 208 247 287
#     4  10  19  30  50  77 100 125 164 202 249 282
#     4   9  20  31  48  77 100 131 161 201 247 291
#     4  10  18  33  51  72 101 134 162 198 250 288
#     4   9  20  31  47  78 100 130 162 203 246 289
#     4  11  17  29  51  79 100 122 162 210 250 283
#     4   9  17  27  45  75  99 122 156 200 245 286
#
# _framework density 24.702829000000001
#
# number of rings (size 3 to 8) (size 9 to 14) (size 15 to 20)
#    0.750    1.500    1.250    4.875    0.000    1.000 
#    0.000    0.000    0.000    7.500    3.250    0.000 
#    0.000    0.000    0.000    0.000    0.000    0.000 
#
# Total GULP energy -89294.473749 kJ/mol
# GULP energy per Si atom -5580.904609 kJ/mol
# Density = 2.464660 g / cm^3
# Si number density = 24.702829 Si / 1000 Ang^3
#
#
#
# Elastic Constant Matrix: (Units=GPa)
#
#
# Indices 1 2 3 4 5 6 
#
# 1 91.0763 15.6581 29.2084 14.1020 -10.7880 35.2866
# 2 15.6581 104.5370 23.2255 4.4401 4.7057 20.2943
# 3 29.2084 23.2255 139.4026 -5.9300 -1.4255 16.1945
# 4 14.1020 4.4401 -5.9300 31.7575 9.6454 5.2960
# 5 -10.7880 4.7057 -1.4255 9.6454 32.1329 -1.5565
# 6 35.2866 20.2943 16.1945 5.2960 -1.5565 37.6295
#
#
#
# Elastic Compliance Matrix: (Units=1/GPa)
#
#
# Indices 1 2 3 4 5 6 
#
# 1 0.020966 0.000838 -0.002869 -0.009811 0.008904 -0.017129
# 2 0.000838 0.011023 -0.001346 -0.000696 -0.001480 -0.006115
# 3 -0.002869 -0.001346 0.008215 0.003567 -0.001505 -0.000683
# 4 -0.009811 -0.000696 0.003567 0.040967 -0.015251 0.001643
# 5 0.008904 -0.001480 -0.001505 -0.015251 0.038685 -0.003157
# 6 -0.017129 -0.006115 -0.000683 0.001643 -0.003157 0.045867
#
#
# Mechanical properties :
#
#
# Convention : Reuss Voigt Hill
#
# Bulk Modulus (GPa) = 29.89631 52.35555 41.12593
# Shear Modulus (GPa) = 27.22921 38.09891 32.66406
#
# Velocity S-wave (km/s) = 3.32365 3.93146 3.64026
# Velocity P-wave (km/s) = 5.18242 6.46905 5.86115
#
# Compressibility (1/GPa) = 0.03344895
#
# Stress axis : x y z
#
# Youngs Moduli (GPa) = 47.69639 90.72079 121.73398
#
# Poissons Ratio (x) = -0.07604 0.34925
# Poissons Ratio (y) = -0.03998 0.16391
# Poissons Ratio (z) = 0.13684 0.12215
#
# Static dielectric constant tensor:
#      x y z
#    x 2.033980 -0.071520 0.020460 
#    y -0.071520 2.017650 -0.002650 
#    z 0.020460 -0.002650 1.934810 
# 
# From -- ./inp_files/463677.got.cif
#   From: 2010.05.17/outbox.cif.g08.bks.cpg/sg2_232_cif.got.tgz:463677.got - 2010.06.03 11:33:40.
