data_PCOD9017042
_publ_section_title
;
Structure prediction by ZEFSAII (Michael W. Deem and Ramdas Pophale) SiO2 
 PCOD9017042
Probable space group: P -1
;
_chemical_formula_sum "Si O2"
_cell_formula_units_Z 15
_cell_length_a 13.367867
_cell_length_b 9.106560
_cell_length_c 9.229716
_cell_angle_alpha 62.624664
_cell_angle_beta 49.660523
_cell_angle_gamma 48.862038
_cell_volume 643.863261
_symmetry_space_group_name_H-M "P -1"
_symmetry_group_IT_number 2
_symmetry_cell_setting 'triclinic'
loop_
_space_group_symop_operation_xyz
x,y,z
-x,-y,-z
loop_
_atom_site_type_symbol
_atom_site_label
_atom_site_fract_x
_atom_site_fract_y
_atom_site_fract_z
Si Si1 0.317436 0.817526 0.976242
Si Si2 0.852731 0.572487 0.454204
Si Si3 0.198149 0.835746 0.770470
Si Si4 0.673209 0.898944 0.944471
Si Si5 0.500000 0.500000 0.500000
Si Si6 0.378073 0.533229 0.298863
Si Si7 0.088442 0.539997 0.022888
Si Si8 0.868415 0.830778 0.521290
O O1 0.292984 0.705972 0.182537
O O2 0.320427 0.996692 0.962938
O O3 0.205420 0.876661 0.915297
O O4 0.484623 0.650348 0.832879
O O5 0.730347 0.540117 0.502076
O O6 0.774531 0.749227 0.560520
O O7 0.967194 0.606742 0.236728
O O8 0.967017 0.365293 0.516369
O O9 0.373090 0.706146 0.604453
O O10 0.116618 0.021875 0.660191
O O11 0.129275 0.699398 0.877483
O O12 0.753897 0.666242 0.997662
O O13 0.783396 0.912738 0.715671
O O14 0.500000 0.000000 0.000000
O O15 0.437323 0.595268 0.352015
O O16 0.000000 0.500000 0.000000
#
# Coordination Sequence:
#
# PCOD9017042 Si02
#       8
#     2   2   2   2   1   2   2   2
#     4  10  24  40  71 108 134 177 235 288 353 400
#     4  10  23  45  68  99 138 181 226 285 342 423
#     4  11  25  44  71 102 138 181 230 289 344 417
#     4  11  25  45  71 101 140 184 234 290 348 420
#     4  10  22  42  66 100 132 178 228 282 338 408
#     4  10  21  42  70  97 140 178 228 288 345 408
#     4  11  27  45  69 103 143 184 231 289 354 411
#     4  10  24  43  71 100 135 184 229 272 358 412
#
# _framework density 23.296870999999999
#
# number of rings (size 3 to 8) (size 9 to 14) (size 15 to 20)
#    0.000    1.600    0.000    2.400   14.933    1.600 
#    0.000    5.333    0.000    0.000    0.000    0.000 
#    0.000    0.000    0.000    0.000    0.000    0.000 
#
# Total GULP energy -83626.989331 kJ/mol
# GULP energy per Si atom -5575.132622 kJ/mol
# Density = 2.324385 g / cm^3
# Si number density = 23.296871 Si / 1000 Ang^3
#
#
#
# Elastic Constant Matrix: (Units=GPa)
#
#
# Indices 1 2 3 4 5 6 
#
# 1 75.3290 26.8427 42.1176 -5.6609 12.5430 15.1988
# 2 26.8427 102.5910 58.9017 -15.5571 4.5037 10.3054
# 3 42.1176 58.9017 91.3223 -12.7796 24.9350 10.8899
# 4 -5.6609 -15.5571 -12.7796 46.2317 8.6200 10.4052
# 5 12.5430 4.5037 24.9350 8.6200 38.2564 4.5059
# 6 15.1988 10.3054 10.8899 10.4052 4.5059 30.0621
#
#
#
# Elastic Compliance Matrix: (Units=1/GPa)
#
#
# Indices 1 2 3 4 5 6 
#
# 1 0.019324 0.000591 -0.007771 0.002357 -0.000949 -0.007831
# 2 0.000591 0.016887 -0.011974 0.002163 0.005527 -0.003327
# 3 -0.007771 -0.011974 0.027335 0.005727 -0.014960 -0.001608
# 4 0.002357 0.002163 0.005727 0.028876 -0.009790 -0.012535
# 5 -0.000949 0.005527 -0.014960 -0.009790 0.037549 0.001765
# 6 -0.007831 -0.003327 -0.001608 -0.012535 0.001765 0.043021
#
#
# Mechanical properties :
#
#
# Convention : Reuss Voigt Hill
#
# Bulk Modulus (GPa) = 39.62151 58.32959 48.97555
# Shear Modulus (GPa) = 22.75677 32.33541 27.54609
#
# Velocity S-wave (km/s) = 3.12880 3.72959 3.44233
# Velocity P-wave (km/s) = 5.48604 6.60593 6.07186
#
# Compressibility (1/GPa) = 0.02523882
#
# Stress axis : x y z
#
# Youngs Moduli (GPa) = 51.74789 59.21547 36.58256
#
# Poissons Ratio (x) = -0.03500 0.28428
# Poissons Ratio (y) = -0.03058 0.43806
# Poissons Ratio (z) = 0.40212 0.70907
#
# Static dielectric constant tensor:
#      x y z
#    x 1.963590 -0.030730 -0.004040 
#    y -0.030730 1.877820 0.020290 
#    z -0.004040 0.020290 1.920110 
# 
# From -- ./inp_files/294425.got.cif
#   From: 2010.05.17/outbox.cif.g08.bks.cpg/sg2_148_cif.got.tgz:294425.got - 2010.06.03 11:33:40.
