data_PCOD9017248
_publ_section_title
;
Structure prediction by ZEFSAII (Michael W. Deem and Ramdas Pophale) SiO2 
 PCOD9017248
Probable space group: P -1
;
_chemical_formula_sum "Si O2"
_cell_formula_units_Z 14
_cell_length_a 13.860886
_cell_length_b 17.110833
_cell_length_c 9.614856
_cell_angle_alpha 139.197265
_cell_angle_beta 28.462732
_cell_angle_gamma 142.668518
_cell_volume 645.682441
_symmetry_space_group_name_H-M "P -1"
_symmetry_group_IT_number 2
_symmetry_cell_setting 'triclinic'
loop_
_space_group_symop_operation_xyz
x,y,z
-x,-y,-z
loop_
_atom_site_type_symbol
_atom_site_label
_atom_site_fract_x
_atom_site_fract_y
_atom_site_fract_z
Si Si1 0.152338 0.066577 0.529585
Si Si2 0.034478 0.663910 0.549283
Si Si3 0.900733 0.437353 0.189883
Si Si4 0.793955 0.637377 0.107403
Si Si5 0.010699 0.174967 0.405951
Si Si6 0.488689 0.653647 0.895805
Si Si7 0.393149 0.768341 0.887755
O O1 0.402707 0.093274 0.206827
O O2 0.057844 0.973287 0.656048
O O3 0.185067 0.215457 0.713799
O O4 0.000000 0.000000 0.500000
O O5 0.020255 0.791418 0.668905
O O6 0.914739 0.547622 0.431364
O O7 0.909572 0.628030 0.803996
O O8 0.288449 0.678279 0.258440
O O9 0.665387 0.320704 0.296096
O O10 0.058061 0.375347 0.970993
O O11 0.000000 0.500000 0.000000
O O12 0.572493 0.501245 0.219379
O O13 0.541214 0.305449 0.168971
O O14 0.830145 0.215837 0.766846
O O15 0.735638 0.739903 0.752906
#
# Coordination Sequence:
#
# PCOD9017248 Si02
#       7
#     2   2   2   2   2   2   2
#     4  12  26  42  68  98 134 177 225 274 337 392
#     4  10  24  45  67  99 142 176 218 272 333 397
#     4  11  19  39  71 103 128 171 220 279 332 382
#     4  11  25  44  68 101 140 175 220 275 334 397
#     4  11  23  43  69  93 139 180 222 269 333 395
#     4  10  21  42  72  97 133 173 224 275 332 391
#     4  11  23  40  68 102 132 169 224 284 330 387
#
# _framework density 21.682485
#
# number of rings (size 3 to 8) (size 9 to 14) (size 15 to 20)
#    0.000    1.143    5.714    3.000    2.000    1.714 
#    2.571    0.714    0.000    0.000    0.000    0.000 
#    0.000    0.000    0.000    0.000    0.000    0.000 
#
# Total GULP energy -78216.369568 kJ/mol
# GULP energy per Si atom -5586.883541 kJ/mol
# Density = 2.163313 g / cm^3
# Si number density = 21.682485 Si / 1000 Ang^3
#
#
#
# Elastic Constant Matrix: (Units=GPa)
#
#
# Indices 1 2 3 4 5 6 
#
# 1 95.4020 61.8410 42.9270 -11.5364 -15.5300 -2.1224
# 2 61.8410 181.6442 46.0061 2.2014 -18.4463 -0.0186
# 3 42.9270 46.0061 74.3810 5.1223 -3.6926 -0.3250
# 4 -11.5364 2.2014 5.1223 34.0577 -10.0083 -15.8139
# 5 -15.5300 -18.4463 -3.6926 -10.0083 26.9297 0.1344
# 6 -2.1224 -0.0186 -0.3250 -15.8139 0.1344 48.8030
#
#
#
# Elastic Compliance Matrix: (Units=1/GPa)
#
#
# Indices 1 2 3 4 5 6 
#
# 1 0.022445 -0.003455 -0.011196 0.016960 0.015313 0.006354
# 2 -0.003455 0.007595 -0.002527 -0.000701 0.002604 -0.000399
# 3 -0.011196 -0.002527 0.021778 -0.011582 -0.009486 -0.004070
# 4 0.016960 -0.000701 -0.011582 0.053227 0.027405 0.017832
# 5 0.015313 0.002604 -0.009486 0.027405 0.056586 0.009328
# 6 0.006354 -0.000399 -0.004070 0.017832 0.009328 0.026492
#
#
# Mechanical properties :
#
#
# Convention : Reuss Voigt Hill
#
# Bulk Modulus (GPa) = 57.27575 72.55281 64.91428
# Shear Modulus (GPa) = 21.90092 35.33496 28.61794
#
# Velocity S-wave (km/s) = 3.18161 4.04128 3.63694
# Velocity P-wave (km/s) = 6.32218 7.43707 6.90217
#
# Compressibility (1/GPa) = 0.01745940
#
# Stress axis : x y z
#
# Youngs Moduli (GPa) = 44.55432 131.66959 45.91797
#
# Poissons Ratio (x) = 0.45498 0.51410
# Poissons Ratio (y) = 0.15395 0.11606
# Poissons Ratio (z) = 0.49883 0.33279
#
# Static dielectric constant tensor:
#      x y z
#    x 1.769890 -0.003530 -0.033110 
#    y -0.003530 1.816600 0.008500 
#    z -0.033110 0.008500 1.883080 
# 
# From -- ./inp_files/269147.got.cif
#   From: 2010.05.17/outbox.cif.g08.bks.cpg/sg2_135_cif.got.tgz:269147.got - 2010.06.03 11:33:40.
