data_PCOD9017371
_publ_section_title
;
Structure prediction by ZEFSAII (Michael W. Deem and Ramdas Pophale) SiO2 
 PCOD9017371
Probable space group: P -1
;
_chemical_formula_sum "Si O2"
_cell_formula_units_Z 16
_cell_length_a 16.954171
_cell_length_b 7.187523
_cell_length_c 13.770628
_cell_angle_alpha 111.278308
_cell_angle_beta 156.525502
_cell_angle_gamma 71.042380
_cell_volume 622.729876
_symmetry_space_group_name_H-M "P -1"
_symmetry_group_IT_number 2
_symmetry_cell_setting 'triclinic'
loop_
_space_group_symop_operation_xyz
x,y,z
-x,-y,-z
loop_
_atom_site_type_symbol
_atom_site_label
_atom_site_fract_x
_atom_site_fract_y
_atom_site_fract_z
Si Si1 0.267197 0.396473 0.832771
Si Si2 0.301245 0.964866 0.870950
Si Si3 0.096561 0.776862 0.793484
Si Si4 0.293379 0.548637 0.675755
Si Si5 0.288811 0.977488 0.543200
Si Si6 0.291867 0.387439 0.254856
Si Si7 0.121949 0.522585 0.277489
Si Si8 0.430564 0.969118 0.306557
O O1 0.231987 0.171646 0.785814
O O2 0.284594 0.422906 0.741303
O O3 0.112080 0.549273 0.729512
O O4 0.487692 0.467745 0.126324
O O5 0.181504 0.900481 0.819202
O O6 0.277184 0.778183 0.735507
O O7 0.530226 0.994229 0.169947
O O8 0.900169 0.890931 0.622660
O O9 0.265311 0.799236 0.070699
O O10 0.148880 0.485776 0.414301
O O11 0.212984 0.747419 0.407843
O O12 0.389803 0.040890 0.567652
O O13 0.500000 0.500000 0.500000
O O14 0.237714 0.382580 0.307126
O O15 0.315700 0.173208 0.193182
O O16 0.105959 0.488580 0.013649
O O17 0.500000 0.000000 0.500000
#
# Coordination Sequence:
#
# PCOD9017371 Si02
#       8
#     2   2   2   2   2   2   2   2
#     4  10  21  42  76 111 154 201 247 308 373 450
#     4  10  22  45  79 106 153 205 246 305 377 449
#     4  10  24  46  69 111 154 198 253 310 377 452
#     4  10  22  43  76 112 154 198 252 311 376 448
#     4  11  22  45  75 105 146 205 246 302 383 450
#     4  11  24  47  75 106 139 190 255 311 374 453
#     4  11  23  43  77 107 141 195 255 306 376 455
#     4  11  25  44  73 102 148 191 245 321 384 437
#
# _framework density 25.693325999999999
#
# number of rings (size 3 to 8) (size 9 to 14) (size 15 to 20)
#    0.000    1.500    3.750    0.375    1.750    0.500 
#    0.000   10.625    2.750    0.000    0.000    0.000 
#    0.000    0.000    0.000    0.000    0.000    0.000 
#
# Total GULP energy -89764.616961 kJ/mol
# GULP energy per Si atom -5610.288560 kJ/mol
# Density = 2.563485 g / cm^3
# Si number density = 25.693326 Si / 1000 Ang^3
#
#
#
# Elastic Constant Matrix: (Units=GPa)
#
#
# Indices 1 2 3 4 5 6 
#
# 1 147.4041 54.1806 56.0691 -23.0846 -3.4547 -13.8882
# 2 54.1806 155.5365 32.9521 -9.5831 10.4864 -2.9767
# 3 56.0691 32.9521 141.2677 0.5020 1.9346 -19.7710
# 4 -23.0846 -9.5831 0.5020 39.2437 -18.9414 0.9945
# 5 -3.4547 10.4864 1.9346 -18.9414 47.7016 -9.2226
# 6 -13.8882 -2.9767 -19.7710 0.9945 -9.2226 52.4719
#
#
#
# Elastic Compliance Matrix: (Units=1/GPa)
#
#
# Indices 1 2 3 4 5 6 
#
# 1 0.010697 -0.002817 -0.003387 0.008082 0.005156 0.002148
# 2 -0.002817 0.007662 -0.000774 -0.000917 -0.002416 -0.001010
# 3 -0.003387 -0.000774 0.008949 -0.002910 -0.001152 0.002284
# 4 0.008082 -0.000917 -0.002910 0.037982 0.016603 0.003189
# 5 0.005156 -0.002416 -0.001152 0.016603 0.029606 0.005683
# 6 0.002148 -0.001010 0.002284 0.003189 0.005683 0.021368
#
#
# Mechanical properties :
#
#
# Convention : Reuss Voigt Hill
#
# Bulk Modulus (GPa) = 74.89834 81.17909 78.03871
# Shear Modulus (GPa) = 37.12726 47.95054 42.53890
#
# Velocity S-wave (km/s) = 3.80546 4.32471 4.07337
# Velocity P-wave (km/s) = 6.96584 7.52340 7.24998
#
# Compressibility (1/GPa) = 0.01335143
#
# Stress axis : x y z
#
# Youngs Moduli (GPa) = 93.48565 130.51785 111.73829
#
# Poissons Ratio (x) = 0.36769 0.37847
# Poissons Ratio (y) = 0.26336 0.08649
# Poissons Ratio (z) = 0.31665 0.10103
#
# Static dielectric constant tensor:
#      x y z
#    x 2.032220 0.065190 0.020840 
#    y 0.065190 2.016430 0.057340 
#    z 0.020840 0.057340 2.123720 
# 
# From -- ./inp_files/538279.got.cif
#   From: 2010.05.17/outbox.cif.g08.bks.cpg/sg2_270_cif.got.tgz:538279.got - 2010.06.03 11:33:40.
