data_PCOD9017525
_publ_section_title
;
Structure prediction by ZEFSAII (Michael W. Deem and Ramdas Pophale) SiO2 
 PCOD9017525
Probable space group: P -1
;
_chemical_formula_sum "Si O2"
_cell_formula_units_Z 12
_cell_length_a 22.423387
_cell_length_b 8.462401
_cell_length_c 5.719633
_cell_angle_alpha 121.897908
_cell_angle_beta 104.796399
_cell_angle_gamma 39.524379
_cell_volume 562.660761
_symmetry_space_group_name_H-M "P -1"
_symmetry_group_IT_number 2
_symmetry_cell_setting 'triclinic'
loop_
_space_group_symop_operation_xyz
x,y,z
-x,-y,-z
loop_
_atom_site_type_symbol
_atom_site_label
_atom_site_fract_x
_atom_site_fract_y
_atom_site_fract_z
Si Si1 0.387024 0.279892 0.550056
Si Si2 0.249453 0.283703 0.640494
Si Si3 0.917336 0.137218 0.340283
Si Si4 0.045091 0.331769 0.163520
Si Si5 0.250727 0.551227 0.238738
Si Si6 0.740806 0.136113 0.866592
O O1 0.327441 0.249506 0.588046
O O2 0.356113 0.330726 0.289398
O O3 0.342576 0.579113 0.832457
O O4 0.500000 0.000000 0.500000
O O5 0.144907 0.565000 0.631018
O O6 0.283203 0.996775 0.397467
O O7 0.240098 0.375222 0.968579
O O8 0.832054 0.239200 0.486145
O O9 0.000000 0.000000 0.500000
O O10 0.957878 0.885962 0.011985
O O11 0.000000 0.500000 0.500000
O O12 0.157515 0.134048 0.111439
O O13 0.000000 0.500000 0.000000
O O14 0.235470 0.752031 0.199847
#
# Coordination Sequence:
#
# PCOD9017525 Si02
#       6
#     2   2   2   2   2   2
#     4  10  23  45  69  92 129 169 219 285 347 405
#     4  10  23  40  64  94 128 173 219 273 340 405
#     4  11  23  41  61  94 136 180 225 275 332 404
#     4  12  25  40  65 100 137 186 233 278 341 406
#     4  10  21  43  64  90 134 168 223 274 341 397
#     4  11  23  42  64  96 134 171 223 278 335 405
#
# _framework density 21.327237
#
# number of rings (size 3 to 8) (size 9 to 14) (size 15 to 20)
#    0.000    1.333    5.000    2.000    2.333    6.667 
#    0.000    1.667    0.000    0.000    0.000    0.000 
#    0.000    0.000    0.000    0.000    0.000    0.000 
#
# Total GULP energy -67013.247478 kJ/mol
# GULP energy per Si atom -5584.437290 kJ/mol
# Density = 2.127869 g / cm^3
# Si number density = 21.327237 Si / 1000 Ang^3
#
#
#
# Elastic Constant Matrix: (Units=GPa)
#
#
# Indices 1 2 3 4 5 6 
#
# 1 46.0737 32.8165 28.5111 9.2096 16.2011 -15.6715
# 2 32.8165 139.0869 74.9396 -4.4189 12.2493 -35.0096
# 3 28.5111 74.9396 180.5927 20.8471 32.1687 -6.1892
# 4 9.2096 -4.4189 20.8471 44.2120 12.8620 11.2404
# 5 16.2011 12.2493 32.1687 12.8620 37.7431 2.7435
# 6 -15.6715 -35.0096 -6.1892 11.2404 2.7435 36.0127
#
#
#
# Elastic Compliance Matrix: (Units=1/GPa)
#
#
# Indices 1 2 3 4 5 6 
#
# 1 0.035570 -0.003328 -0.000642 -0.007866 -0.012088 0.015509
# 2 -0.003328 0.013101 -0.004757 0.001746 -0.000086 0.009932
# 3 -0.000642 -0.004757 0.008628 -0.002515 -0.004511 -0.002292
# 4 -0.007866 0.001746 -0.002515 0.029708 -0.004364 -0.011099
# 5 -0.012088 -0.000086 -0.004511 -0.004364 0.037597 -0.007621
# 6 0.015509 0.009932 -0.002292 -0.011099 -0.007621 0.047823
#
#
# Mechanical properties :
#
#
# Convention : Reuss Voigt Hill
#
# Bulk Modulus (GPa) = 25.09710 70.92084 48.00897
# Shear Modulus (GPa) = 24.61084 38.89264 31.75174
#
# Velocity S-wave (km/s) = 3.40069 4.27501 3.86267
# Velocity P-wave (km/s) = 5.21658 7.59562 6.51561
#
# Compressibility (1/GPa) = 0.03984524
#
# Stress axis : x y z
#
# Youngs Moduli (GPa) = 28.11342 76.33040 115.90458
#
# Poissons Ratio (x) = 0.25404 0.07439
# Poissons Ratio (y) = 0.09357 0.55134
# Poissons Ratio (z) = 0.01804 0.36309
#
# Static dielectric constant tensor:
#      x y z
#    x 1.776060 0.022080 -0.012390 
#    y 0.022080 1.826610 -0.033340 
#    z -0.012390 -0.033340 1.862830 
# 
# From -- ./inp_files/126531.got.cif
#   From: 2010.05.17/outbox.cif.g08.bks.cpg/sg2_64_cif.got.tgz:126531.got - 2010.06.03 11:33:40.
