data_PCOD9017151
_publ_section_title
;
Structure prediction by ZEFSAII (Michael W. Deem and Ramdas Pophale) SiO2 
 PCOD9017151
Probable space group: P -1
;
_chemical_formula_sum "Si O2"
_cell_formula_units_Z 16
_cell_length_a 20.592058
_cell_length_b 10.813355
_cell_length_c 9.406393
_cell_angle_alpha 45.948805
_cell_angle_beta 29.028157
_cell_angle_gamma 40.380826
_cell_volume 655.598015
_symmetry_space_group_name_H-M "P -1"
_symmetry_group_IT_number 2
_symmetry_cell_setting 'triclinic'
loop_
_space_group_symop_operation_xyz
x,y,z
-x,-y,-z
loop_
_atom_site_type_symbol
_atom_site_label
_atom_site_fract_x
_atom_site_fract_y
_atom_site_fract_z
Si Si1 0.877647 0.577650 0.049947
Si Si2 0.628555 0.666169 0.671309
Si Si3 0.348645 0.087215 0.311863
Si Si4 0.674279 0.432255 0.226635
Si Si5 0.873474 0.185290 0.280057
Si Si6 0.200210 0.890760 0.935658
Si Si7 0.856212 0.664635 0.718833
Si Si8 0.295150 0.783730 0.141660
O O1 0.725250 0.690398 0.337788
O O2 0.893133 0.377658 0.116280
O O3 0.892942 0.688865 0.792698
O O4 0.000000 0.500000 0.000000
O O5 0.655680 0.746027 0.705863
O O6 0.674061 0.438206 0.767148
O O7 0.455731 0.774198 0.873240
O O8 0.213060 0.162054 0.397563
O O9 0.320866 0.945728 0.585579
O O10 0.500000 0.000000 0.000000
O O11 0.500000 0.500000 0.500000
O O12 0.751988 0.260727 0.328156
O O13 0.749929 0.330729 0.017237
O O14 0.723467 0.597250 0.034464
O O15 0.801545 0.147318 0.587728
O O16 0.036986 0.016052 0.085367
O O17 0.210754 0.910362 0.067605
O O18 0.000000 0.500000 0.500000
#
# Coordination Sequence:
#
# PCOD9017151 Si02
#       8
#     2   2   2   2   2   2   2   2
#     4  10  21  42  71  96 134 184 231 285 343 422
#     4  10  23  45  68  98 136 181 241 284 343 426
#     4  12  27  44  65 102 144 179 228 294 353 412
#     4  11  25  43  74  96 138 189 238 282 340 429
#     4  10  23  43  65 104 133 170 231 292 348 410
#     4  12  25  43  67 101 142 180 224 290 364 408
#     4  11  24  45  71 102 137 188 241 280 347 424
#     4  10  24  41  74  97 133 181 234 286 347 426
#
# _framework density 24.405200000000001
#
# number of rings (size 3 to 8) (size 9 to 14) (size 15 to 20)
#    0.000    1.250    0.000    5.250   12.250    1.500 
#    2.250    0.000    0.000    0.000    0.000    0.000 
#    0.000    0.000    0.000    0.000    0.000    0.000 
#
# Total GULP energy -89568.436310 kJ/mol
# GULP energy per Si atom -5598.027269 kJ/mol
# Density = 2.434965 g / cm^3
# Si number density = 24.405200 Si / 1000 Ang^3
#
#
#
# Elastic Constant Matrix: (Units=GPa)
#
#
# Indices 1 2 3 4 5 6 
#
# 1 138.3222 20.5083 41.8103 0.4791 16.9266 -20.8558
# 2 20.5083 67.6567 18.9290 11.6667 -3.1052 -7.3665
# 3 41.8103 18.9290 95.9238 21.6213 12.1548 -23.2120
# 4 0.4791 11.6667 21.6213 41.3257 -7.0223 0.4146
# 5 16.9266 -3.1052 12.1548 -7.0223 47.8117 -2.2600
# 6 -20.8558 -7.3665 -23.2120 0.4146 -2.2600 44.0191
#
#
#
# Elastic Compliance Matrix: (Units=1/GPa)
#
#
# Indices 1 2 3 4 5 6 
#
# 1 0.009068 -0.002031 -0.003134 0.001714 -0.002191 0.002175
# 2 -0.002031 0.016647 -0.001531 -0.003595 0.001715 0.001138
# 3 -0.003134 -0.001531 0.016202 -0.008769 -0.004081 0.006676
# 4 0.001714 -0.003595 -0.008769 0.030794 0.005703 -0.004411
# 5 -0.002191 0.001715 -0.004081 0.005703 0.023595 -0.001745
# 6 0.002175 0.001138 0.006676 -0.004411 -0.001745 0.027410
#
#
# Mechanical properties :
#
#
# Convention : Reuss Voigt Hill
#
# Bulk Modulus (GPa) = 35.05805 51.59976 43.32891
# Shear Modulus (GPa) = 34.10215 41.34166 37.72191
#
# Velocity S-wave (km/s) = 3.74214 4.12025 3.93574
# Velocity P-wave (km/s) = 5.75045 6.61998 6.20048
#
# Compressibility (1/GPa) = 0.02852412
#
# Stress axis : x y z
#
# Youngs Moduli (GPa) = 110.27664 60.07025 61.72030
#
# Poissons Ratio (x) = 0.12201 0.19343
# Poissons Ratio (y) = 0.22399 0.09452
# Poissons Ratio (z) = 0.34561 0.09200
#
# Static dielectric constant tensor:
#      x y z
#    x 2.103320 0.007730 0.017140 
#    y 0.007730 1.979310 -0.056460 
#    z 0.017140 -0.056460 1.950200 
# 
# From -- ./inp_files/345917.got.cif
#   From: 2010.05.17/outbox.cif.g08.bks.cpg/sg2_173_cif.got.tgz:345917.got - 2010.06.03 11:33:40.
