data_PCOD9017426
_publ_section_title
;
Structure prediction by ZEFSAII (Michael W. Deem and Ramdas Pophale) SiO2 
 PCOD9017426
Probable space group: P -1
;
_chemical_formula_sum "Si O2"
_cell_formula_units_Z 16
_cell_length_a 11.905132
_cell_length_b 14.017678
_cell_length_c 8.979948
_cell_angle_alpha 73.766409
_cell_angle_beta 32.203660
_cell_angle_gamma 74.881707
_cell_volume 765.941623
_symmetry_space_group_name_H-M "P -1"
_symmetry_group_IT_number 2
_symmetry_cell_setting 'triclinic'
loop_
_space_group_symop_operation_xyz
x,y,z
-x,-y,-z
loop_
_atom_site_type_symbol
_atom_site_label
_atom_site_fract_x
_atom_site_fract_y
_atom_site_fract_z
Si Si1 0.586309 0.907836 0.538012
Si Si2 0.437517 0.150293 0.921417
Si Si3 0.566524 0.732325 0.425258
Si Si4 0.130941 0.448656 0.742345
Si Si5 0.852016 0.305061 0.922117
Si Si6 0.757839 0.462485 0.720189
Si Si7 0.720775 0.066860 0.874587
Si Si8 0.117245 0.131935 0.539592
O O1 0.660617 0.817760 0.387071
O O2 0.767013 0.936400 0.436928
O O3 0.500000 0.000000 0.500000
O O4 0.402397 0.880169 0.871164
O O5 0.279849 0.177797 0.222059
O O6 0.362769 0.043713 0.993235
O O7 0.431020 0.229506 0.763226
O O8 0.658490 0.124728 0.767951
O O9 0.682627 0.625269 0.369584
O O10 0.329423 0.730926 0.751613
O O11 0.204326 0.528158 0.502986
O O12 0.000000 0.500000 0.000000
O O13 0.986208 0.377349 0.840509
O O14 0.752455 0.363154 0.866007
O O15 0.000480 0.218724 0.724301
O O16 0.000000 0.500000 0.500000
O O17 0.500000 0.500000 0.000000
O O18 0.961404 0.070155 0.644641
#
# Coordination Sequence:
#
# PCOD9017426 Si02
#       8
#     2   2   2   2   2   2   2   2
#     4  11  22  41  66  97 138 179 223 281 342 411
#     4  10  24  40  63  95 140 177 226 283 339 400
#     4  12  23  44  67  98 137 173 229 288 346 416
#     4  11  26  47  68 101 138 173 231 297 362 424
#     4  11  24  44  68 100 131 180 230 284 353 435
#     4  10  22  46  73  99 138 186 229 289 364 435
#     4  10  21  43  62  94 136 185 224 273 339 416
#     4  11  23  41  67  96 134 183 234 273 341 424
#
# _framework density 20.889320999999999
#
# number of rings (size 3 to 8) (size 9 to 14) (size 15 to 20)
#    0.000    1.250    5.000    0.375    1.750    2.000 
#    2.250    0.000    0.000    0.000    0.000    0.000 
#    0.000    0.000    0.000    0.000    0.000    0.000 
#
# Total GULP energy -89108.212945 kJ/mol
# GULP energy per Si atom -5569.263309 kJ/mol
# Density = 2.084178 g / cm^3
# Si number density = 20.889321 Si / 1000 Ang^3
#
#
#
# Elastic Constant Matrix: (Units=GPa)
#
#
# Indices 1 2 3 4 5 6 
#
# 1 133.0555 40.2960 68.5037 -6.4905 10.4037 -33.2150
# 2 40.2960 59.6847 28.8704 18.1012 14.2095 -16.8412
# 3 68.5037 28.8704 97.7318 16.6203 20.7222 -12.2058
# 4 -6.4905 18.1012 16.6203 34.6669 -0.9511 8.7498
# 5 10.4037 14.2095 20.7222 -0.9511 43.9448 -5.6199
# 6 -33.2150 -16.8412 -12.2058 8.7498 -5.6199 43.9358
#
#
#
# Elastic Compliance Matrix: (Units=1/GPa)
#
#
# Indices 1 2 3 4 5 6 
#
# 1 0.019174 -0.011312 -0.013476 0.015065 0.006340 0.004226
# 2 -0.011312 0.034938 0.005495 -0.025851 -0.010468 0.010176
# 3 -0.013476 0.005495 0.023035 -0.016809 -0.009759 0.000417
# 4 0.015065 -0.025851 -0.016809 0.056825 0.012294 -0.012934
# 5 0.006340 -0.010468 -0.009759 0.012294 0.029429 -0.000615
# 6 0.004226 0.010176 0.000417 -0.012934 -0.000615 0.032469
#
#
# Mechanical properties :
#
#
# Convention : Reuss Voigt Hill
#
# Bulk Modulus (GPa) = 25.93424 62.86802 44.40113
# Shear Modulus (GPa) = 20.21760 34.69630 27.45695
#
# Velocity S-wave (km/s) = 3.11439 4.07991 3.62940
# Velocity P-wave (km/s) = 5.03732 7.23570 6.23418
#
# Compressibility (1/GPa) = 0.03855907
#
# Stress axis : x y z
#
# Youngs Moduli (GPa) = 52.15362 28.62235 43.41287
#
# Poissons Ratio (x) = 0.32379 0.58505
# Poissons Ratio (y) = 0.58998 -0.23856
# Poissons Ratio (z) = 0.70285 -0.15728
#
# Static dielectric constant tensor:
#      x y z
#    x 1.802760 0.021970 -0.080750 
#    y 0.021970 1.752560 0.015870 
#    z -0.080750 0.015870 1.818200 
# 
# From -- ./inp_files/122581.got.cif
#   From: 2010.05.17/outbox.cif.g08.bks.cpg/sg2_62_cif.got.tgz:122581.got - 2010.06.03 11:33:40.
