data_PCOD9017063
_publ_section_title
;
Structure prediction by ZEFSAII (Michael W. Deem and Ramdas Pophale) SiO2 
 PCOD9017063
Probable space group: P -1
;
_chemical_formula_sum "Si O2"
_cell_formula_units_Z 13
_cell_length_a 9.113887
_cell_length_b 13.198938
_cell_length_c 11.082361
_cell_angle_alpha 100.572088
_cell_angle_beta 55.595639
_cell_angle_gamma 53.168868
_cell_volume 538.956827
_symmetry_space_group_name_H-M "P -1"
_symmetry_group_IT_number 2
_symmetry_cell_setting 'triclinic'
loop_
_space_group_symop_operation_xyz
x,y,z
-x,-y,-z
loop_
_atom_site_type_symbol
_atom_site_label
_atom_site_fract_x
_atom_site_fract_y
_atom_site_fract_z
Si Si1 0.358900 0.378884 0.274015
Si Si2 0.649704 0.139565 0.845784
Si Si3 0.500000 0.000000 0.000000
Si Si4 0.274979 0.608095 0.895507
Si Si5 0.604431 0.073256 0.208927
Si Si6 0.487290 0.731546 0.339149
Si Si7 0.805785 0.764048 0.338166
O O1 0.389973 0.485369 0.299804
O O2 0.618888 0.188887 0.206781
O O3 0.000000 0.500000 0.500000
O O4 0.471389 0.298350 0.067056
O O5 0.541728 0.228970 0.781227
O O6 0.077304 0.935703 0.617873
O O7 0.539477 0.076627 0.900215
O O8 0.550853 0.056261 0.097487
O O9 0.340798 0.467426 0.766920
O O10 0.166781 0.630268 0.087033
O O11 0.943418 0.843164 0.055161
O O12 0.268035 0.219172 0.484310
O O13 0.707872 0.708655 0.299893
O O14 0.500000 0.000000 0.500000
#
# Coordination Sequence:
#
# PCOD9017063 Si02
#       7
#     2   2   1   2   2   2   2
#     4  11  26  46  69 101 142 189 238 287 354 425
#     4  10  23  43  68  97 147 179 233 293 351 415
#     4  10  22  42  72  96 134 188 224 282 354 414
#     4  11  24  43  72 103 137 189 238 291 349 419
#     4  10  23  46  72  97 144 180 238 291 355 421
#     4  11  24  42  70 107 139 182 239 294 352 412
#     4  10  21  42  70  99 137 181 231 288 351 414
#
# _framework density 24.120667999999998
#
# number of rings (size 3 to 8) (size 9 to 14) (size 15 to 20)
#    0.000    1.538    0.000    4.615    6.462    3.077 
#    2.769    3.846    0.000    0.000    0.000    0.000 
#    0.000    0.000    0.000    0.000    0.000    0.000 
#
# Total GULP energy -72472.570606 kJ/mol
# GULP energy per Si atom -5574.813124 kJ/mol
# Density = 2.406577 g / cm^3
# Si number density = 24.120668 Si / 1000 Ang^3
#
#
#
# Elastic Constant Matrix: (Units=GPa)
#
#
# Indices 1 2 3 4 5 6 
#
# 1 58.3927 53.4077 22.2744 -6.2907 -14.2011 28.0746
# 2 53.4077 123.8868 37.8557 -11.4902 -7.7302 32.3371
# 3 22.2744 37.8557 100.8377 -0.7063 -12.8920 0.9726
# 4 -6.2907 -11.4902 -0.7063 34.5046 -4.8062 2.6180
# 5 -14.2011 -7.7302 -12.8920 -4.8062 32.1235 -7.5861
# 6 28.0746 32.3371 0.9726 2.6180 -7.5861 54.8729
#
#
#
# Elastic Compliance Matrix: (Units=1/GPa)
#
#
# Indices 1 2 3 4 5 6 
#
# 1 0.036558 -0.011001 -0.002429 0.005279 0.010744 -0.010944
# 2 -0.011001 0.014897 -0.003510 0.002723 -0.003142 -0.003652
# 3 -0.002429 -0.003510 0.012197 -0.001128 0.003671 0.003656
# 4 0.005279 0.002723 -0.001128 0.032062 0.006161 -0.004963
# 5 0.010744 -0.003142 0.003671 0.006161 0.037807 0.001223
# 6 -0.010944 -0.003652 0.003656 -0.004963 0.001223 0.026317
#
#
# Mechanical properties :
#
#
# Convention : Reuss Voigt Hill
#
# Bulk Modulus (GPa) = 33.58911 56.68810 45.13861
# Shear Modulus (GPa) = 24.55288 35.60549 30.07919
#
# Velocity S-wave (km/s) = 3.19395 3.84623 3.53516
# Velocity P-wave (km/s) = 5.24951 6.57856 5.95126
#
# Compressibility (1/GPa) = 0.02977155
#
# Stress axis : x y z
#
# Youngs Moduli (GPa) = 27.35416 67.12895 81.98497
#
# Poissons Ratio (x) = 0.73848 0.19916
# Poissons Ratio (y) = 0.30092 0.28775
# Poissons Ratio (z) = 0.06645 0.23561
#
# Static dielectric constant tensor:
#      x y z
#    x 1.879870 -0.022250 -0.049290 
#    y -0.022250 1.976190 0.055140 
#    z -0.049290 0.055140 1.978050 
# 
# From -- ./inp_files/191255.got.cif
#   From: 2010.05.17/outbox.cif.g08.bks.cpg/sg2_96_cif.got.tgz:191255.got - 2010.06.03 11:33:40.
