data_PCOD9017455
_publ_section_title
;
Structure prediction by ZEFSAII (Michael W. Deem and Ramdas Pophale) SiO2 
 PCOD9017455
Probable space group: P -1
;
_chemical_formula_sum "Si O2"
_cell_formula_units_Z 12
_cell_length_a 11.325281
_cell_length_b 9.109110
_cell_length_c 7.258901
_cell_angle_alpha 126.076945
_cell_angle_beta 68.760325
_cell_angle_gamma 78.553058
_cell_volume 472.387904
_symmetry_space_group_name_H-M "P -1"
_symmetry_group_IT_number 2
_symmetry_cell_setting 'triclinic'
loop_
_space_group_symop_operation_xyz
x,y,z
-x,-y,-z
loop_
_atom_site_type_symbol
_atom_site_label
_atom_site_fract_x
_atom_site_fract_y
_atom_site_fract_z
Si Si1 0.234895 0.287212 0.389775
Si Si2 0.080427 0.665131 0.018526
Si Si3 0.412373 0.775132 0.483782
Si Si4 0.762056 0.781929 0.273510
Si Si5 0.295686 0.841813 0.996639
Si Si6 0.585643 0.614879 0.920693
O O1 0.439777 0.326292 0.805663
O O2 0.330734 0.028060 0.674933
O O3 0.324070 0.311396 0.194553
O O4 0.204965 0.102316 0.221713
O O5 0.108935 0.526819 0.710924
O O6 0.147132 0.476957 0.998065
O O7 0.177780 0.769835 0.025899
O O8 0.902329 0.812177 0.260405
O O9 0.344417 0.638891 0.341661
O O10 0.402429 0.748278 0.685920
O O11 0.675373 0.807950 0.534752
O O12 0.416825 0.742766 0.020408
#
# Coordination Sequence:
#
# PCOD9017455 Si02
#       6
#     2   2   2   2   2   2
#     4  10  21  43  63  91 129 164 201 264 311 361
#     4   9  21  43  67  89 130 164 207 261 311 368
#     4  11  23  39  65  97 122 167 210 256 311 372
#     4   9  20  44  63  91 129 163 206 266 306 358
#     4  12  23  41  68  93 124 174 202 252 327 366
#     4  11  23  44  60  95 136 156 209 264 308 373
#
# _framework density 25.402853
#
# number of rings (size 3 to 8) (size 9 to 14) (size 15 to 20)
#    1.000    0.667    3.333    1.000    0.000    2.000 
#    6.000    0.833    0.000    0.000    0.000    0.000 
#    0.000    0.000    0.000    0.000    0.000    0.000 
#
# Total GULP energy -66935.418569 kJ/mol
# GULP energy per Si atom -5577.951547 kJ/mol
# Density = 2.534503 g / cm^3
# Si number density = 25.402853 Si / 1000 Ang^3
#
#
#
# Elastic Constant Matrix: (Units=GPa)
#
#
# Indices 1 2 3 4 5 6 
#
# 1 41.9182 21.6633 31.2673 -14.4977 -7.1109 21.2452
# 2 21.6633 165.6775 30.8872 -13.3773 -3.1543 47.7534
# 3 31.2673 30.8872 93.7536 -23.9402 13.6614 18.3217
# 4 -14.4977 -13.3773 -23.9402 51.3620 6.4522 1.5405
# 5 -7.1109 -3.1543 13.6614 6.4522 40.2293 -7.7412
# 6 21.2452 47.7534 18.3217 1.5405 -7.7412 51.7146
#
#
#
# Elastic Compliance Matrix: (Units=1/GPa)
#
#
# Indices 1 2 3 4 5 6 
#
# 1 0.041909 0.001100 -0.011274 0.006284 0.007762 -0.013264
# 2 0.001100 0.008637 -0.000804 0.002545 -0.000870 -0.008349
# 3 -0.011274 -0.000804 0.018323 0.006470 -0.009852 -0.002785
# 4 0.006284 0.002545 0.006470 0.026046 -0.006799 -0.009017
# 5 0.007762 -0.000870 -0.009852 -0.006799 0.031764 0.006062
# 6 -0.013264 -0.008349 -0.002785 -0.009017 0.006062 0.034658
#
#
# Mechanical properties :
#
#
# Convention : Reuss Voigt Hill
#
# Bulk Modulus (GPa) = 21.31584 52.10943 36.71264
# Shear Modulus (GPa) = 25.13432 43.16329 34.14880
#
# Velocity S-wave (km/s) = 3.14893 4.12655 3.67043
# Velocity P-wave (km/s) = 4.65085 6.57741 5.69617
#
# Compressibility (1/GPa) = 0.04691346
#
# Stress axis : x y z
#
# Youngs Moduli (GPa) = 23.86105 115.77873 54.57631
#
# Poissons Ratio (x) = -0.12737 0.61528
# Poissons Ratio (y) = -0.02625 0.04390
# Poissons Ratio (z) = 0.26900 0.09312
#
# Static dielectric constant tensor:
#      x y z
#    x 2.094180 0.047600 0.060170 
#    y 0.047600 1.976670 0.040920 
#    z 0.060170 0.040920 2.039230 
# 
# From -- ./inp_files/245277.got.cif
#   From: 2010.05.17/outbox.cif.g08.bks.cpg/sg2_123_cif.got.tgz:245277.got - 2010.06.03 11:33:40.
