data_PCOD9017724
_publ_section_title
;
Structure prediction by ZEFSAII (Michael W. Deem and Ramdas Pophale) SiO2 
 PCOD9017724
Probable space group: P -1
;
_chemical_formula_sum "Si O2"
_cell_formula_units_Z 16
_cell_length_a 16.665612
_cell_length_b 10.703540
_cell_length_c 8.738482
_cell_angle_alpha 79.611143
_cell_angle_beta 63.310242
_cell_angle_gamma 133.755470
_cell_volume 652.868993
_symmetry_space_group_name_H-M "P -1"
_symmetry_group_IT_number 2
_symmetry_cell_setting 'triclinic'
loop_
_space_group_symop_operation_xyz
x,y,z
-x,-y,-z
loop_
_atom_site_type_symbol
_atom_site_label
_atom_site_fract_x
_atom_site_fract_y
_atom_site_fract_z
Si Si1 0.974397 0.322578 0.943450
Si Si2 0.410844 0.167012 0.446381
Si Si3 0.903513 0.740173 0.370538
Si Si4 0.604925 0.564321 0.688206
Si Si5 0.297089 0.728241 0.160975
Si Si6 0.163894 0.770928 0.475420
Si Si7 0.318221 0.701710 0.791271
Si Si8 0.789029 0.906245 0.752576
O O1 0.996328 0.221314 0.850400
O O2 0.041741 0.524530 0.738833
O O3 0.128540 0.495395 0.907568
O O4 0.763715 0.080820 0.237578
O O5 0.412502 0.319984 0.398414
O O6 0.610933 0.355572 0.272975
O O7 0.348013 0.028844 0.366637
O O8 0.752198 0.654180 0.461850
O O9 0.784995 0.494934 0.630479
O O10 0.071840 0.997198 0.278448
O O11 0.700152 0.708370 0.741192
O O12 0.390042 0.255293 0.968900
O O13 0.197366 0.733239 0.301547
O O14 0.300967 0.716099 0.979850
O O15 0.500000 0.000000 0.000000
O O16 0.103985 0.839801 0.470078
O O17 0.500000 0.000000 0.500000
#
# Coordination Sequence:
#
# PCOD9017724 Si02
#       8
#     2   2   2   2   2   2   2   2
#     4  11  26  44  67 101 143 177 223 277 342 422
#     4  11  24  44  68  97 139 179 221 279 343 402
#     4  11  25  44  69 101 135 181 230 282 339 398
#     4  10  24  43  70  99 135 174 236 286 327 404
#     4  11  22  40  69 104 137 170 230 284 335 409
#     4  10  21  43  66 103 135 169 226 281 337 400
#     4  12  25  41  68  99 138 184 214 272 350 402
#     4  10  23  42  71 101 134 177 228 289 338 391
#
# _framework density 24.507211000000002
#
# number of rings (size 3 to 8) (size 9 to 14) (size 15 to 20)
#    0.000    1.250    2.500    2.250    7.000    5.500 
#    0.000    1.250    0.000    0.000    0.000    0.000 
#    0.000    0.000    0.000    0.000    0.000    0.000 
#
# Total GULP energy -89584.408697 kJ/mol
# GULP energy per Si atom -5599.025544 kJ/mol
# Density = 2.445143 g / cm^3
# Si number density = 24.507211 Si / 1000 Ang^3
#
#
#
# Elastic Constant Matrix: (Units=GPa)
#
#
# Indices 1 2 3 4 5 6 
#
# 1 94.3154 30.9062 30.8907 0.9503 -20.6739 6.4422
# 2 30.9062 56.0277 42.6541 7.3267 0.4956 -0.3274
# 3 30.8907 42.6541 107.1963 13.4759 -10.8068 10.7757
# 4 0.9503 7.3267 13.4759 36.5616 -1.5686 -1.4842
# 5 -20.6739 0.4956 -10.8068 -1.5686 43.6381 -2.8937
# 6 6.4422 -0.3274 10.7757 -1.4842 -2.8937 35.2788
#
#
#
# Elastic Compliance Matrix: (Units=1/GPa)
#
#
# Indices 1 2 3 4 5 6 
#
# 1 0.015144 -0.008422 -0.000287 0.001620 0.007118 -0.002104
# 2 -0.008422 0.031091 -0.010812 -0.002136 -0.006800 0.004481
# 3 -0.000287 -0.010812 0.014916 -0.003365 0.003263 -0.004478
# 4 0.001620 -0.002136 -0.003365 0.029109 0.001139 0.002030
# 5 0.007118 -0.006800 0.003263 0.001139 0.027209 -0.000080
# 6 -0.002104 0.004481 -0.004478 0.002030 -0.000080 0.030218
#
#
# Mechanical properties :
#
#
# Convention : Reuss Voigt Hill
#
# Bulk Modulus (GPa) = 45.23233 51.82684 48.52958
# Shear Modulus (GPa) = 25.76006 33.30160 29.53083
#
# Velocity S-wave (km/s) = 3.24562 3.69026 3.47506
# Velocity P-wave (km/s) = 5.70458 6.27302 5.99554
#
# Compressibility (1/GPa) = 0.02210808
#
# Stress axis : x y z
#
# Youngs Moduli (GPa) = 66.03094 32.16368 67.04359
#
# Poissons Ratio (x) = 0.27089 0.01927
# Poissons Ratio (y) = 0.55613 0.72486
# Poissons Ratio (z) = 0.01898 0.34775
#
# Static dielectric constant tensor:
#      x y z
#    x 1.999970 0.009380 -0.042160 
#    y 0.009380 1.954660 -0.013520 
#    z -0.042160 -0.013520 2.008520 
# 
# From -- ./inp_files/333243.got.cif
#   From: 2010.05.17/outbox.cif.g08.bks.cpg/sg2_167_cif.got.tgz:333243.got - 2010.06.03 11:33:40.
