data_PCOD9017569
_publ_section_title
;
Structure prediction by ZEFSAII (Michael W. Deem and Ramdas Pophale) SiO2 
 PCOD9017569
Probable space group: P -1
;
_chemical_formula_sum "Si O2"
_cell_formula_units_Z 14
_cell_length_a 20.051244
_cell_length_b 11.324384
_cell_length_c 8.736700
_cell_angle_alpha 135.544733
_cell_angle_beta 36.260741
_cell_angle_gamma 153.697005
_cell_volume 519.624500
_symmetry_space_group_name_H-M "P -1"
_symmetry_group_IT_number 2
_symmetry_cell_setting 'triclinic'
loop_
_space_group_symop_operation_xyz
x,y,z
-x,-y,-z
loop_
_atom_site_type_symbol
_atom_site_label
_atom_site_fract_x
_atom_site_fract_y
_atom_site_fract_z
Si Si1 0.084493 0.287852 0.032004
Si Si2 0.349461 0.954035 0.414428
Si Si3 0.793193 0.704516 0.613343
Si Si4 0.604017 0.565094 0.543685
Si Si5 0.309550 0.865073 0.065478
Si Si6 0.796413 0.305436 0.222130
Si Si7 0.746853 0.688551 0.030289
O O1 0.218946 0.286684 0.739587
O O2 0.166108 0.545288 0.044170
O O3 0.136235 0.340529 0.163724
O O4 0.887633 0.006978 0.090971
O O5 0.266785 0.895607 0.342594
O O6 0.249313 0.800031 0.616296
O O7 0.477973 0.257439 0.497056
O O8 0.485923 0.957294 0.138855
O O9 0.687940 0.688398 0.667608
O O10 0.769306 0.476630 0.415970
O O11 0.721937 0.657292 0.867821
O O12 0.000000 0.000000 0.500000
O O13 0.459455 0.539108 0.741812
O O14 0.295654 0.896688 0.939823
O O15 0.000000 0.500000 0.000000
#
# Coordination Sequence:
#
# PCOD9017569 Si02
#       7
#     2   2   2   2   2   2   2
#     4  10  21  43  64  96 145 168 234 284 340 418
#     4  10  23  42  71  97 133 184 231 284 350 408
#     4  12  24  46  67  95 142 180 226 289 349 407
#     4  11  23  43  69  99 139 176 234 289 342 421
#     4  10  21  45  67  95 138 185 222 297 343 406
#     4  12  26  44  70 105 140 182 235 288 349 425
#     4  11  23  40  71  98 133 189 221 283 354 410
#
# _framework density 26.942532
#
# number of rings (size 3 to 8) (size 9 to 14) (size 15 to 20)
#    0.000    1.143    4.286    2.143    4.000    0.571 
#    5.143    0.000    0.000    0.000    0.000    0.000 
#    0.000    0.000    0.000    0.000    0.000    0.000 
#
# Total GULP energy -78189.981926 kJ/mol
# GULP energy per Si atom -5584.998709 kJ/mol
# Density = 2.688121 g / cm^3
# Si number density = 26.942532 Si / 1000 Ang^3
#
#
#
# Elastic Constant Matrix: (Units=GPa)
#
#
# Indices 1 2 3 4 5 6 
#
# 1 103.8910 41.8491 58.7199 3.3507 16.9086 48.5764
# 2 41.8491 124.5081 56.3142 -6.1941 13.8290 -1.8748
# 3 58.7199 56.3142 99.9892 -14.6532 23.0086 7.9501
# 4 3.3507 -6.1941 -14.6532 45.6324 -3.0127 -0.4979
# 5 16.9086 13.8290 23.0086 -3.0127 54.5802 -1.7150
# 6 48.5764 -1.8748 7.9501 -0.4979 -1.7150 53.3796
#
#
#
# Elastic Compliance Matrix: (Units=1/GPa)
#
#
# Indices 1 2 3 4 5 6 
#
# 1 0.036892 -0.005399 -0.016419 -0.009365 -0.004648 -0.031554
# 2 -0.005399 0.011669 -0.003885 0.000836 0.000586 0.005928
# 3 -0.016419 -0.003885 0.022707 0.007916 -0.002706 0.011410
# 4 -0.009365 0.000836 0.007916 0.025406 0.000995 0.007642
# 5 -0.004648 0.000586 -0.002706 0.000995 0.020976 0.005337
# 6 -0.031554 0.005928 0.011410 0.007642 0.005337 0.046200
#
#
# Mechanical properties :
#
#
# Convention : Reuss Voigt Hill
#
# Bulk Modulus (GPa) = 50.34607 71.35050 60.84829
# Shear Modulus (GPa) = 22.53485 42.15210 32.34347
#
# Velocity S-wave (km/s) = 2.89520 3.95969 3.46853
# Velocity P-wave (km/s) = 5.46839 6.88807 6.21887
#
# Compressibility (1/GPa) = 0.01986252
#
# Stress axis : x y z
#
# Youngs Moduli (GPa) = 27.10581 85.69503 44.03899
#
# Poissons Ratio (x) = 0.46264 0.72308
# Poissons Ratio (y) = 0.14633 0.17111
# Poissons Ratio (z) = 0.44505 0.33296
#
# Static dielectric constant tensor:
#      x y z
#    x 2.316200 -0.042250 0.112990 
#    y -0.042250 2.116670 0.141240 
#    z 0.112990 0.141240 2.344600 
# 
# From -- ./inp_files/346330.got.cif
#   From: 2010.05.17/outbox.cif.g08.bks.cpg/sg2_174_cif.got.tgz:346330.got - 2010.06.03 11:33:40.
