data_PCOD9017331
_publ_section_title
;
Structure prediction by ZEFSAII (Michael W. Deem and Ramdas Pophale) SiO2 
 PCOD9017331
Probable space group: P -1
;
_chemical_formula_sum "Si O2"
_cell_formula_units_Z 12
_cell_length_a 11.504384
_cell_length_b 9.273396
_cell_length_c 11.538750
_cell_angle_alpha 144.847615
_cell_angle_beta 42.050604
_cell_angle_gamma 122.042867
_cell_volume 465.262440
_symmetry_space_group_name_H-M "P -1"
_symmetry_group_IT_number 2
_symmetry_cell_setting 'triclinic'
loop_
_space_group_symop_operation_xyz
x,y,z
-x,-y,-z
loop_
_atom_site_type_symbol
_atom_site_label
_atom_site_fract_x
_atom_site_fract_y
_atom_site_fract_z
Si Si1 0.153498 0.543779 0.499873
Si Si2 0.435744 0.794341 0.328403
Si Si3 0.064475 0.616457 0.869576
Si Si4 0.310421 0.553426 0.952394
Si Si5 0.396395 0.217756 0.455318
Si Si6 0.728732 0.044083 0.930193
O O1 0.271136 0.705233 0.449609
O O2 0.084466 0.672429 0.756461
O O3 0.000000 0.500000 0.500000
O O4 0.253866 0.257013 0.270163
O O5 0.597824 0.550460 0.063372
O O6 0.500000 0.000000 0.500000
O O7 0.390040 0.951764 0.348420
O O8 0.217372 0.376158 0.635880
O O9 0.104734 0.852667 0.070236
O O10 0.876485 0.537901 0.975354
O O11 0.426951 0.401048 0.661114
O O12 0.288571 0.842558 0.112701
O O13 0.561289 0.168950 0.214796
#
# Coordination Sequence:
#
# PCOD9017331 Si02
#       6
#     2   2   2   2   2   2
#     4  12  30  46  70 110 142 183 246 291 351 420
#     4  10  23  45  71 100 145 183 229 287 349 417
#     4  11  24  46  74 102 145 190 230 292 355 418
#     4  10  22  42  76 106 137 191 234 282 360 422
#     4  10  21  42  74 103 137 188 238 278 351 428
#     4  11  24  45  74 102 144 188 236 291 349 422
#
# _framework density 25.791895
#
# number of rings (size 3 to 8) (size 9 to 14) (size 15 to 20)
#    0.000    1.333    0.000    7.000    9.333    4.667 
#    0.000    0.000    0.000    0.000    0.000    0.000 
#    0.000    0.000    0.000    0.000    0.000    0.000 
#
# Total GULP energy -67264.302813 kJ/mol
# GULP energy per Si atom -5605.358568 kJ/mol
# Density = 2.573319 g / cm^3
# Si number density = 25.791895 Si / 1000 Ang^3
#
#
#
# Elastic Constant Matrix: (Units=GPa)
#
#
# Indices 1 2 3 4 5 6 
#
# 1 149.0913 61.7767 3.2326 -11.1430 -11.0033 -18.5541
# 2 61.7767 243.6055 25.8429 -0.4393 -9.3695 -7.1054
# 3 3.2326 25.8429 40.7923 8.5047 2.0006 1.0059
# 4 -11.1430 -0.4393 8.5047 52.9882 4.5073 -3.3914
# 5 -11.0033 -9.3695 2.0006 4.5073 32.9501 -4.5409
# 6 -18.5541 -7.1054 1.0059 -3.3914 -4.5409 55.2959
#
#
#
# Elastic Compliance Matrix: (Units=1/GPa)
#
#
# Indices 1 2 3 4 5 6 
#
# 1 0.008133 -0.001891 0.000022 0.001671 0.002331 0.002780
# 2 -0.001891 0.004950 -0.003049 0.000059 0.000972 0.000140
# 3 0.000022 -0.003049 0.027485 -0.004337 -0.002118 -0.001324
# 4 0.001671 0.000059 -0.004337 0.020175 -0.001681 0.001746
# 5 0.002331 0.000972 -0.002118 -0.001681 0.032243 0.003490
# 6 0.002780 0.000140 -0.001324 0.001746 0.003490 0.019453
#
#
# Mechanical properties :
#
#
# Convention : Reuss Voigt Hill
#
# Bulk Modulus (GPa) = 32.53958 68.35485 50.44721
# Shear Modulus (GPa) = 37.73028 51.08929 44.40979
#
# Velocity S-wave (km/s) = 3.82890 4.45548 4.15402
# Velocity P-wave (km/s) = 5.67370 7.28206 6.52761
#
# Compressibility (1/GPa) = 0.03073181
#
# Stress axis : x y z
#
# Youngs Moduli (GPa) = 122.95181 202.03362 36.38334
#
# Poissons Ratio (x) = 0.38208 -0.00081
# Poissons Ratio (y) = 0.23252 0.11094
# Poissons Ratio (z) = -0.00275 0.61607
#
# Static dielectric constant tensor:
#      x y z
#    x 2.105280 0.000640 0.051170 
#    y 0.000640 1.988810 0.085970 
#    z 0.051170 0.085970 2.107690 
# 
# From -- ./inp_files/255217.got.cif
#   From: 2010.05.17/outbox.cif.g08.bks.cpg/sg2_128_cif.got.tgz:255217.got - 2010.06.03 11:33:40.
