data_PCOD9017469
_publ_section_title
;
Structure prediction by ZEFSAII (Michael W. Deem and Ramdas Pophale) SiO2 
 PCOD9017469
Probable space group: P -1
;
_chemical_formula_sum "Si O2"
_cell_formula_units_Z 15
_cell_length_a 16.623867
_cell_length_b 15.604743
_cell_length_c 8.110732
_cell_angle_alpha 32.320696
_cell_angle_beta 137.851474
_cell_angle_gamma 146.632217
_cell_volume 614.161175
_symmetry_space_group_name_H-M "P -1"
_symmetry_group_IT_number 2
_symmetry_cell_setting 'triclinic'
loop_
_space_group_symop_operation_xyz
x,y,z
-x,-y,-z
loop_
_atom_site_type_symbol
_atom_site_label
_atom_site_fract_x
_atom_site_fract_y
_atom_site_fract_z
Si Si1 0.500000 0.500000 0.500000
Si Si2 0.237653 0.910710 0.717482
Si Si3 0.797592 0.802249 0.596927
Si Si4 0.241583 0.721224 0.361530
Si Si5 0.520116 0.769277 0.665603
Si Si6 0.965767 0.690299 0.464583
Si Si7 0.916464 0.112823 0.991829
Si Si8 0.664289 0.570625 0.335611
O O1 0.630499 0.618975 0.643349
O O2 0.612698 0.483534 0.580089
O O3 0.093671 0.721995 0.723260
O O4 0.188944 0.048679 0.486243
O O5 0.367921 0.031699 0.588025
O O6 0.283754 0.850226 0.048302
O O7 0.921782 0.767773 0.872192
O O8 0.829838 0.911791 0.291994
O O9 0.393243 0.760416 0.589360
O O10 0.117512 0.500669 0.470015
O O11 0.170696 0.791637 0.263778
O O12 0.425552 0.597600 0.665396
O O13 0.616100 0.718867 0.998595
O O14 0.834634 0.669438 0.400425
O O15 0.050536 0.876727 0.167014
#
# Coordination Sequence:
#
# PCOD9017469 Si02
#       8
#     1   2   2   2   2   2   2   2
#     4  12  24  42  64 100 128 162 214 268 320 378
#     4  11  22  42  65  95 129 167 214 265 315 376
#     4  10  24  41  66  95 129 169 207 269 319 374
#     4  10  23  42  64  89 134 173 211 255 320 376
#     4  10  21  43  63  93 128 171 210 262 316 372
#     4  11  24  41  68  97 126 169 213 264 314 382
#     4  10  23  44  65  95 131 167 214 260 317 377
#     4  10  24  40  66  95 126 166 213 262 321 374
#
# _framework density 24.423555
#
# number of rings (size 3 to 8) (size 9 to 14) (size 15 to 20)
#    0.000    1.600    1.333    2.000   11.200    1.067 
#    0.000    0.667    0.000    0.000    0.000    0.000 
#    0.000    0.000    0.000    0.000    0.000    0.000 
#
# Total GULP energy -83717.637140 kJ/mol
# GULP energy per Si atom -5581.175809 kJ/mol
# Density = 2.436797 g / cm^3
# Si number density = 24.423555 Si / 1000 Ang^3
#
#
#
# Elastic Constant Matrix: (Units=GPa)
#
#
# Indices 1 2 3 4 5 6 
#
# 1 120.7819 17.7018 15.8721 2.9092 9.2753 26.5573
# 2 17.7018 91.7583 7.6512 2.4626 6.8175 30.2902
# 3 15.8721 7.6512 40.7847 -2.0287 9.2542 13.4176
# 4 2.9092 2.4626 -2.0287 19.3788 4.9737 -0.8432
# 5 9.2753 6.8175 9.2542 4.9737 33.0595 7.0493
# 6 26.5573 30.2902 13.4176 -0.8432 7.0493 39.1781
#
#
#
# Elastic Compliance Matrix: (Units=1/GPa)
#
#
# Indices 1 2 3 4 5 6 
#
# 1 0.009953 0.000440 -0.001776 -0.001821 -0.000751 -0.006382
# 2 0.000440 0.014804 0.001031 -0.002219 -0.000563 -0.012043
# 3 -0.001776 0.001031 0.029570 0.004638 -0.006903 -0.008378
# 4 -0.001821 -0.002219 0.004638 0.055282 -0.009558 0.004271
# 5 -0.000751 -0.000563 -0.006903 -0.009558 0.034612 -0.003125
# 6 -0.006382 -0.012043 -0.008378 0.004271 -0.003125 0.042686
#
#
# Mechanical properties :
#
#
# Convention : Reuss Voigt Hill
#
# Bulk Modulus (GPa) = 18.61624 37.30835 27.96230
# Shear Modulus (GPa) = 24.33980 32.46328 28.40154
#
# Velocity S-wave (km/s) = 3.16028 3.64975 3.41379
# Velocity P-wave (km/s) = 4.57769 5.75062 5.19735
#
# Compressibility (1/GPa) = 0.05371654
#
# Stress axis : x y z
#
# Youngs Moduli (GPa) = 100.46914 67.54732 33.81777
#
# Poissons Ratio (x) = -0.02969 0.06007
# Poissons Ratio (y) = -0.04416 -0.03487
# Poissons Ratio (z) = 0.17847 -0.06965
#
# Static dielectric constant tensor:
#      x y z
#    x 1.962110 -0.036180 -0.038290 
#    y -0.036180 1.956330 -0.037980 
#    z -0.038290 -0.037980 2.026720 
# 
# From -- ./inp_files/245394.got.cif
#   From: 2010.05.17/outbox.cif.g08.bks.cpg/sg2_123_cif.got.tgz:245394.got - 2010.06.03 11:33:40.
