data_PCOD9017095
_publ_section_title
;
Structure prediction by ZEFSAII (Michael W. Deem and Ramdas Pophale) SiO2 
 PCOD9017095
Probable space group: P -1
;
_chemical_formula_sum "Si O2"
_cell_formula_units_Z 14
_cell_length_a 10.620954
_cell_length_b 4.947926
_cell_length_c 15.602846
_cell_angle_alpha 95.016599
_cell_angle_beta 132.201127
_cell_angle_gamma 106.550486
_cell_volume 535.497838
_symmetry_space_group_name_H-M "P -1"
_symmetry_group_IT_number 2
_symmetry_cell_setting 'triclinic'
loop_
_space_group_symop_operation_xyz
x,y,z
-x,-y,-z
loop_
_atom_site_type_symbol
_atom_site_label
_atom_site_fract_x
_atom_site_fract_y
_atom_site_fract_z
Si Si1 0.173945 0.841864 0.813542
Si Si2 0.593991 0.730143 0.626623
Si Si3 0.076752 0.860155 0.318887
Si Si4 0.742919 0.678138 0.429905
Si Si5 0.647350 0.123243 0.282570
Si Si6 0.258765 0.747945 0.032020
Si Si7 0.858981 0.674566 0.888256
O O1 0.295612 0.956539 0.786374
O O2 0.011216 0.494750 0.711590
O O3 0.287782 0.809988 0.946564
O O4 0.077510 0.060346 0.797490
O O5 0.500000 0.500000 0.500000
O O6 0.409588 0.633870 0.599061
O O7 0.732658 0.667062 0.750565
O O8 0.733490 0.041455 0.650439
O O9 0.127950 0.085594 0.431322
O O10 0.792531 0.484296 0.377561
O O11 0.669283 0.888776 0.351790
O O12 0.424852 0.050318 0.162840
O O13 0.272739 0.508378 0.097302
O O14 0.024655 0.596924 0.927234
O O15 0.000000 0.000000 0.000000
#
# Coordination Sequence:
#
# PCOD9017095 Si02
#       7
#     2   2   2   2   2   2   2
#     4  12  26  45  68  99 141 186 232 281 338 412
#     4  10  21  42  71 102 137 172 226 294 354 406
#     4  11  25  45  71 102 137 180 232 288 350 413
#     4  11  25  45  71 102 137 180 232 288 350 413
#     4  12  26  45  68  99 141 186 232 281 338 412
#     4  11  25  40  68 100 135 179 234 280 354 409
#     4  11  21  42  70  97 139 178 225 290 354 414
#
# _framework density 26.143896999999999
#
# number of rings (size 3 to 8) (size 9 to 14) (size 15 to 20)
#    0.000    0.857    2.857    3.857    0.000    5.714 
#    0.000    7.143    0.000    0.000    0.000    0.000 
#    0.000    0.000    0.000    0.000    0.000    0.000 
#
# Total GULP energy -78079.077693 kJ/mol
# GULP energy per Si atom -5577.076978 kJ/mol
# Density = 2.608439 g / cm^3
# Si number density = 26.143897 Si / 1000 Ang^3
#
#
#
# Elastic Constant Matrix: (Units=GPa)
#
#
# Indices 1 2 3 4 5 6 
#
# 1 40.2210 26.9707 0.1623 -13.1546 -3.8137 2.2722
# 2 26.9707 104.1688 33.7038 -5.7183 -2.6462 0.4533
# 3 0.1623 33.7038 160.4329 -16.4924 -14.1049 3.5519
# 4 -13.1546 -5.7183 -16.4924 34.7307 9.8000 -11.7292
# 5 -3.8137 -2.6462 -14.1049 9.8000 35.5254 -1.4757
# 6 2.2722 0.4533 3.5519 -11.7292 -1.4757 35.3520
#
#
#
# Elastic Compliance Matrix: (Units=1/GPa)
#
#
# Indices 1 2 3 4 5 6 
#
# 1 0.035886 -0.009622 0.003456 0.014203 0.000682 0.002211
# 2 -0.009622 0.012903 -0.003037 -0.002901 -0.000487 -0.000225
# 3 0.003456 -0.003037 0.007440 0.003921 0.002036 0.000455
# 4 0.014203 -0.002901 0.003921 0.042043 -0.008220 0.012336
# 5 0.000682 -0.000487 0.002036 -0.008220 0.031192 -0.001667
# 6 0.002211 -0.000225 0.000455 0.012336 -0.001667 0.032125
#
#
# Mechanical properties :
#
#
# Convention : Reuss Voigt Hill
#
# Bulk Modulus (GPa) = 26.43905 47.38848 36.91376
# Shear Modulus (GPa) = 25.96012 37.38734 31.67373
#
# Velocity S-wave (km/s) = 3.15456 3.78572 3.48446
# Velocity P-wave (km/s) = 4.83769 6.10526 5.50806
#
# Compressibility (1/GPa) = 0.03782285
#
# Stress axis : x y z
#
# Youngs Moduli (GPa) = 27.86595 77.50060 134.41495
#
# Poissons Ratio (x) = 0.74573 -0.46457
# Poissons Ratio (y) = 0.26813 0.40821
# Poissons Ratio (z) = -0.09631 0.23537
#
# Static dielectric constant tensor:
#      x y z
#    x 2.231390 0.018600 0.136340 
#    y 0.018600 2.039240 -0.028260 
#    z 0.136340 -0.028260 2.180360 
# 
# From -- ./inp_files/67716.got.cif
#   From: 2010.05.17/outbox.cif.g08.bks.cpg/sg2_34_cif.got.tgz:67716.got - 2010.06.03 11:33:40.
