data_PCOD9017632
_publ_section_title
;
Structure prediction by ZEFSAII (Michael W. Deem and Ramdas Pophale) SiO2 
 PCOD9017632
Probable space group: P -1
;
_chemical_formula_sum "Si O2"
_cell_formula_units_Z 14
_cell_length_a 6.313049
_cell_length_b 23.282052
_cell_length_c 11.600510
_cell_angle_alpha 151.707432
_cell_angle_beta 105.662788
_cell_angle_gamma 59.331904
_cell_volume 624.402712
_symmetry_space_group_name_H-M "P -1"
_symmetry_group_IT_number 2
_symmetry_cell_setting 'triclinic'
loop_
_space_group_symop_operation_xyz
x,y,z
-x,-y,-z
loop_
_atom_site_type_symbol
_atom_site_label
_atom_site_fract_x
_atom_site_fract_y
_atom_site_fract_z
Si Si1 0.573257 0.821842 0.029286
Si Si2 0.867822 0.127264 0.107833
Si Si3 0.037062 0.313280 0.366700
Si Si4 0.316553 0.683107 0.174632
Si Si5 0.479516 0.365774 0.123690
Si Si6 0.945724 0.875913 0.278974
Si Si7 0.575902 0.635899 0.365147
O O1 0.283799 0.899259 0.060561
O O2 0.791651 0.718326 0.778978
O O3 0.598942 0.720731 0.960584
O O4 0.662463 0.922629 0.269626
O O5 0.635975 0.278705 0.410452
O O6 0.058296 0.166200 0.146773
O O7 0.000000 0.000000 0.000000
O O8 0.179356 0.351322 0.551745
O O9 0.722568 0.458791 0.566139
O O10 0.020997 0.814151 0.311058
O O11 0.411684 0.712088 0.357489
O O12 0.524906 0.652283 0.047272
O O13 0.325011 0.535194 0.926185
O O14 0.808757 0.271127 0.017023
O O15 0.000000 0.000000 0.500000
#
# Coordination Sequence:
#
# PCOD9017632 Si02
#       7
#     2   2   2   2   2   2   2
#     4  11  24  41  68  93 127 167 210 270 317 370
#     4  11  25  44  64  93 128 168 215 260 318 380
#     4  11  23  41  67  96 127 167 216 263 315 375
#     4   9  21  41  63  93 128 165 213 258 311 376
#     4  10  22  41  64  99 127 164 213 260 318 372
#     4  10  23  42  62  92 132 163 208 258 318 382
#     4  10  21  43  65  92 130 169 210 266 312 368
#
# _framework density 22.421426
#
# number of rings (size 3 to 8) (size 9 to 14) (size 15 to 20)
#    0.857    0.857    1.429    2.143    0.000   10.286 
#    2.571    0.000    0.000    0.000    0.000    0.000 
#    0.000    0.000    0.000    0.000    0.000    0.000 
#
# Total GULP energy -78142.798170 kJ/mol
# GULP energy per Si atom -5581.628441 kJ/mol
# Density = 2.237039 g / cm^3
# Si number density = 22.421426 Si / 1000 Ang^3
#
#
#
# Elastic Constant Matrix: (Units=GPa)
#
#
# Indices 1 2 3 4 5 6 
#
# 1 100.0081 61.4450 33.2774 -13.5910 21.0337 4.4213
# 2 61.4450 124.9633 37.5777 -21.6821 41.2741 -2.9044
# 3 33.2774 37.5777 64.7953 -18.9097 14.7006 -14.8019
# 4 -13.5910 -21.6821 -18.9097 35.0608 1.5730 1.2746
# 5 21.0337 41.2741 14.7006 1.5730 45.7738 -8.7592
# 6 4.4213 -2.9044 -14.8019 1.2746 -8.7592 37.7888
#
#
#
# Elastic Compliance Matrix: (Units=1/GPa)
#
#
# Indices 1 2 3 4 5 6 
#
# 1 0.015930 -0.005957 -0.005690 -0.000358 -0.001023 -0.004775
# 2 -0.005957 0.017022 -0.002184 0.007676 -0.012560 -0.002020
# 3 -0.005690 -0.002184 0.025086 0.009716 -0.001982 0.009537
# 4 -0.000358 0.007676 0.009716 0.038848 -0.011107 0.000553
# 5 -0.001023 -0.012560 -0.001982 -0.011107 0.036019 0.007102
# 6 -0.004775 -0.002020 0.009537 0.000553 0.007102 0.032229
#
#
# Mechanical properties :
#
#
# Convention : Reuss Voigt Hill
#
# Bulk Modulus (GPa) = 32.92154 61.59630 47.25892
# Shear Modulus (GPa) = 24.64013 34.22245 29.43129
#
# Velocity S-wave (km/s) = 3.31864 3.91106 3.62697
# Velocity P-wave (km/s) = 5.42213 6.92293 6.21797
#
# Compressibility (1/GPa) = 0.03037525
#
# Stress axis : x y z
#
# Youngs Moduli (GPa) = 62.77391 58.74878 39.86366
#
# Poissons Ratio (x) = 0.34998 0.22682
# Poissons Ratio (y) = 0.37396 0.08705
# Poissons Ratio (z) = 0.35718 0.12830
#
# Static dielectric constant tensor:
#      x y z
#    x 1.832920 -0.021230 -0.026470 
#    y -0.021230 1.838850 -0.008640 
#    z -0.026470 -0.008640 1.851470 
# 
# From -- ./inp_files/370914.got.cif
#   From: 2010.05.17/outbox.cif.g08.bks.cpg/sg2_186_cif.got.tgz:370914.got - 2010.06.03 11:33:40.
