data_PCOD9017918
_publ_section_title
;
Structure prediction by ZEFSAII (Michael W. Deem and Ramdas Pophale) SiO2 
 PCOD9017918
Probable space group: P -1
;
_chemical_formula_sum "Si O2"
_cell_formula_units_Z 12
_cell_length_a 14.128611
_cell_length_b 12.505266
_cell_length_c 10.262794
_cell_angle_alpha 146.520731
_cell_angle_beta 32.966536
_cell_angle_gamma 148.717309
_cell_volume 466.296675
_symmetry_space_group_name_H-M "P -1"
_symmetry_group_IT_number 2
_symmetry_cell_setting 'triclinic'
loop_
_space_group_symop_operation_xyz
x,y,z
-x,-y,-z
loop_
_atom_site_type_symbol
_atom_site_label
_atom_site_fract_x
_atom_site_fract_y
_atom_site_fract_z
Si Si1 0.849388 0.430458 0.264613
Si Si2 0.061480 0.960862 0.203860
Si Si3 0.713818 0.662233 0.484509
Si Si4 0.814608 0.275199 0.641495
Si Si5 0.141307 0.285780 0.073100
Si Si6 0.470872 0.155327 0.584467
O O1 0.789814 0.492544 0.262353
O O2 0.681342 0.364638 0.505875
O O3 0.058038 0.639574 0.288323
O O4 0.864534 0.210274 0.019800
O O5 0.855578 0.862965 0.426178
O O6 0.239105 0.204308 0.295570
O O7 0.985142 0.901397 0.083337
O O8 0.500000 0.500000 0.500000
O O9 0.763551 0.466128 0.851391
O O10 0.970968 0.275016 0.354490
O O11 0.626342 0.023583 0.603912
O O12 0.315333 0.242024 0.880243
O O13 0.500000 0.000000 0.500000
#
# Coordination Sequence:
#
# PCOD9017918 Si02
#       6
#     2   2   2   2   2   2
#     4  11  25  42  64  97 130 167 213 263 322 385
#     4  10  23  44  68  93 127 168 213 267 322 380
#     4  11  24  43  68  95 123 166 217 269 324 376
#     4  10  23  42  65  93 131 173 211 263 323 379
#     4  10  21  43  67  93 131 170 214 266 320 384
#     4  12  24  37  61  95 131 174 215 256 315 382
#
# _framework density 25.734688999999999
#
# number of rings (size 3 to 8) (size 9 to 14) (size 15 to 20)
#    0.000    1.333    0.000    6.000    0.000   10.000 
#    0.000    1.667    0.000    0.000    0.000    0.000 
#    0.000    0.000    0.000    0.000    0.000    0.000 
#
# Total GULP energy -67149.116398 kJ/mol
# GULP energy per Si atom -5595.759700 kJ/mol
# Density = 2.567612 g / cm^3
# Si number density = 25.734689 Si / 1000 Ang^3
#
#
#
# Elastic Constant Matrix: (Units=GPa)
#
#
# Indices 1 2 3 4 5 6 
#
# 1 140.8662 39.2692 62.6804 8.2213 -27.2767 16.0580
# 2 39.2692 113.1708 25.1590 15.8195 0.6505 28.3923
# 3 62.6804 25.1590 99.6948 10.6090 -11.7898 17.4379
# 4 8.2213 15.8195 10.6090 28.8499 -2.5578 9.3957
# 5 -27.2767 0.6505 -11.7898 -2.5578 54.8115 9.5406
# 6 16.0580 28.3923 17.4379 9.3957 9.5406 48.9673
#
#
#
# Elastic Compliance Matrix: (Units=1/GPa)
#
#
# Indices 1 2 3 4 5 6 
#
# 1 0.011412 -0.002505 -0.005870 0.001136 0.004732 -0.001340
# 2 -0.002505 0.011532 -0.000139 -0.004030 -0.000749 -0.004897
# 3 -0.005870 -0.000139 0.014597 -0.002656 0.000583 -0.002797
# 4 0.001136 -0.004030 -0.002656 0.039468 0.002790 -0.005206
# 5 0.004732 -0.000749 0.000583 0.002790 0.021932 -0.006134
# 6 -0.001340 -0.004897 -0.002797 -0.005206 -0.006134 0.026890
#
#
# Mechanical properties :
#
#
# Convention : Reuss Voigt Hill
#
# Bulk Modulus (GPa) = 48.74528 67.54988 58.14758
# Shear Modulus (GPa) = 33.40119 41.63397 37.51758
#
# Velocity S-wave (km/s) = 3.60655 4.02657 3.82234
# Velocity P-wave (km/s) = 6.02707 6.92266 6.49033
#
# Compressibility (1/GPa) = 0.02051481
#
# Stress axis : x y z
#
# Youngs Moduli (GPa) = 87.62908 86.71276 68.50807
#
# Poissons Ratio (x) = 0.21719 0.40212
# Poissons Ratio (y) = 0.21949 0.00950
# Poissons Ratio (z) = 0.51435 0.01203
#
# Static dielectric constant tensor:
#      x y z
#    x 2.055340 -0.032470 0.049500 
#    y -0.032470 2.022470 -0.030800 
#    z 0.049500 -0.030800 2.134230 
# 
# From -- ./inp_files/455161.got.cif
#   From: 2010.05.17/outbox.cif.g08.bks.cpg/sg2_228_cif.got.tgz:455161.got - 2010.06.03 11:33:40.
