data_PCOD9017814
_publ_section_title
;
Structure prediction by ZEFSAII (Michael W. Deem and Ramdas Pophale) SiO2 
 PCOD9017814
Probable space group: P -1
;
_chemical_formula_sum "Si O2"
_cell_formula_units_Z 16
_cell_length_a 11.269190
_cell_length_b 16.554928
_cell_length_c 9.050115
_cell_angle_alpha 84.135258
_cell_angle_beta 93.089546
_cell_angle_gamma 24.656934
_cell_volume 655.407911
_symmetry_space_group_name_H-M "P -1"
_symmetry_group_IT_number 2
_symmetry_cell_setting 'triclinic'
loop_
_space_group_symop_operation_xyz
x,y,z
-x,-y,-z
loop_
_atom_site_type_symbol
_atom_site_label
_atom_site_fract_x
_atom_site_fract_y
_atom_site_fract_z
Si Si1 0.917958 0.270546 0.617391
Si Si2 0.064138 0.932731 0.349220
Si Si3 0.657950 0.661327 0.420736
Si Si4 0.164670 0.801674 0.940921
Si Si5 0.451047 0.897188 0.104625
Si Si6 0.591475 0.895225 0.828933
Si Si7 0.594274 0.459334 0.260400
Si Si8 0.722127 0.780296 0.557239
O O1 0.962837 0.145695 0.643657
O O2 0.984796 0.412167 0.493503
O O3 0.810633 0.354750 0.425706
O O4 0.644348 0.450261 0.685332
O O5 0.400486 0.756501 0.382192
O O6 0.000000 0.000000 0.500000
O O7 0.875015 0.090530 0.171846
O O8 0.575564 0.783768 0.512032
O O9 0.649689 0.718240 0.259584
O O10 0.237764 0.695733 0.827745
O O11 0.855929 0.961076 0.961204
O O12 0.411816 0.640526 0.117409
O O13 0.358668 0.041524 0.145914
O O14 0.623468 0.818060 0.986514
O O15 0.806279 0.730740 0.743440
O O16 0.233731 0.110304 0.720369
O O17 0.500000 0.000000 0.500000
#
# Coordination Sequence:
#
# PCOD9017814 Si02
#       8
#     2   2   2   2   2   2   2   2
#     4  11  23  40  64 102 134 175 240 278 347 427
#     4  11  22  42  68  97 141 183 221 291 353 420
#     4  10  24  45  68 104 139 180 240 289 354 422
#     4  10  21  43  66  95 140 175 227 281 355 407
#     4  10  22  44  68  97 139 184 232 298 349 418
#     4  11  23  41  70  97 136 189 233 290 354 418
#     4  10  22  40  64  98 134 175 228 286 337 422
#     4  11  23  43  70 102 136 184 237 292 346 417
#
# _framework density 24.412277
#
# number of rings (size 3 to 8) (size 9 to 14) (size 15 to 20)
#    0.000    1.500    3.750    0.750    1.750    4.000 
#    0.000    0.000    0.000    0.000    0.000    0.000 
#    0.000    0.000    0.000    0.000    0.000    0.000 
#
# Total GULP energy -89428.777567 kJ/mol
# GULP energy per Si atom -5589.298598 kJ/mol
# Density = 2.435671 g / cm^3
# Si number density = 24.412277 Si / 1000 Ang^3
#
#
#
# Elastic Constant Matrix: (Units=GPa)
#
#
# Indices 1 2 3 4 5 6 
#
# 1 59.1547 18.6124 42.2695 -7.0453 -11.0917 13.3291
# 2 18.6124 103.3395 36.5841 8.9204 -17.4456 21.9089
# 3 42.2695 36.5841 140.8217 -7.9815 -11.0493 21.1441
# 4 -7.0453 8.9204 -7.9815 45.8554 3.5857 -4.8062
# 5 -11.0917 -17.4456 -11.0493 3.5857 29.5221 -2.8273
# 6 13.3291 21.9089 21.1441 -4.8062 -2.8273 36.9657
#
#
#
# Elastic Compliance Matrix: (Units=1/GPa)
#
#
# Indices 1 2 3 4 5 6 
#
# 1 0.023372 -0.000486 -0.005706 0.001803 0.005737 -0.004203
# 2 -0.000486 0.013426 -0.002048 -0.004276 0.006868 -0.006641
# 3 -0.005706 -0.002048 0.009724 0.000991 -0.000043 -0.002165
# 4 0.001803 -0.004276 0.000991 0.023831 -0.003979 0.004112
# 5 0.005737 0.006868 -0.000043 -0.003979 0.040214 -0.003557
# 6 -0.004203 -0.006641 -0.002165 0.004112 -0.003557 0.034004
#
#
# Mechanical properties :
#
#
# Convention : Reuss Voigt Hill
#
# Bulk Modulus (GPa) = 33.28662 55.36090 44.32376
# Shear Modulus (GPa) = 29.22848 36.19198 32.71023
#
# Velocity S-wave (km/s) = 3.46394 3.85454 3.66445
# Velocity P-wave (km/s) = 5.44640 6.52202 6.00833
#
# Compressibility (1/GPa) = 0.03004210
#
# Stress axis : x y z
#
# Youngs Moduli (GPa) = 42.78562 74.48185 102.83886
#
# Poissons Ratio (x) = 0.03617 0.58680
# Poissons Ratio (y) = 0.02078 0.21066
# Poissons Ratio (z) = 0.24413 0.15258
#
# Static dielectric constant tensor:
#      x y z
#    x 1.950860 -0.003690 -0.018220 
#    y -0.003690 2.026820 -0.033170 
#    z -0.018220 -0.033170 2.018850 
# 
# From -- ./inp_files/272525.got.cif
#   From: 2010.05.17/outbox.cif.g08.bks.cpg/sg2_137_cif.got.tgz:272525.got - 2010.06.03 11:33:40.
