data_PCOD9017846
_publ_section_title
;
Structure prediction by ZEFSAII (Michael W. Deem and Ramdas Pophale) SiO2 
 PCOD9017846
Probable space group: P -1
;
_chemical_formula_sum "Si O2"
_cell_formula_units_Z 13
_cell_length_a 11.705375
_cell_length_b 5.089930
_cell_length_c 9.433292
_cell_angle_alpha 101.954102
_cell_angle_beta 100.918080
_cell_angle_gamma 106.532512
_cell_volume 508.295734
_symmetry_space_group_name_H-M "P -1"
_symmetry_group_IT_number 2
_symmetry_cell_setting 'triclinic'
loop_
_space_group_symop_operation_xyz
x,y,z
-x,-y,-z
loop_
_atom_site_type_symbol
_atom_site_label
_atom_site_fract_x
_atom_site_fract_y
_atom_site_fract_z
Si Si1 0.349450 0.720131 0.888270
Si Si2 0.835708 0.706317 0.040648
Si Si3 0.278774 0.905742 0.606886
Si Si4 0.050810 0.299773 0.210387
Si Si5 0.000000 0.500000 0.500000
Si Si6 0.698267 0.650705 0.575669
Si Si7 0.403841 0.222926 0.152700
O O1 0.217884 0.480448 0.855727
O O2 0.337369 0.917833 0.777016
O O3 0.461275 0.613860 0.859041
O O4 0.382924 0.898689 0.062079
O O5 0.935945 0.012891 0.127507
O O6 0.710890 0.724641 0.944068
O O7 0.894714 0.572491 0.914397
O O8 0.131983 0.762184 0.576414
O O9 0.322469 0.677391 0.501930
O O10 0.305543 0.185851 0.551385
O O11 0.019012 0.511149 0.332513
O O12 0.837986 0.767136 0.686617
O O13 0.609679 0.711148 0.679239
#
# Coordination Sequence:
#
# PCOD9017846 Si02
#       7
#     2   2   2   2   1   2   2
#     4  11  25  41  70  97 132 183 226 288 330 412
#     4  10  21  43  66  98 132 175 224 280 341 403
#     4  11  26  43  69 102 139 178 225 282 346 405
#     4   9  21  41  69 100 134 175 224 277 342 407
#     4  10  22  38  66  96 136 170 220 272 336 404
#     4  10  25  46  69 101 138 180 224 282 345 408
#     4  10  24  45  67  96 133 178 238 276 339 397
#
# _framework density 25.575662999999999
#
# number of rings (size 3 to 8) (size 9 to 14) (size 15 to 20)
#    0.000    1.846    0.000    1.385   12.923    2.462 
#    0.000    3.077    0.000    0.000    0.000    0.000 
#    0.000    0.000    0.000    0.000    0.000    0.000 
#
# Total GULP energy -72515.637856 kJ/mol
# GULP energy per Si atom -5578.125989 kJ/mol
# Density = 2.551745 g / cm^3
# Si number density = 25.575663 Si / 1000 Ang^3
#
#
#
# Elastic Constant Matrix: (Units=GPa)
#
#
# Indices 1 2 3 4 5 6 
#
# 1 108.6984 39.4236 47.3422 -11.9191 -3.1977 17.4982
# 2 39.4236 56.3815 10.3429 -9.6992 7.8028 12.0835
# 3 47.3422 10.3429 100.5372 4.3314 -11.9231 12.1857
# 4 -11.9191 -9.6992 4.3314 35.4203 -2.7135 3.5472
# 5 -3.1977 7.8028 -11.9231 -2.7135 37.8739 -8.4038
# 6 17.4982 12.0835 12.1857 3.5472 -8.4038 24.8042
#
#
#
# Elastic Compliance Matrix: (Units=1/GPa)
#
#
# Indices 1 2 3 4 5 6 
#
# 1 0.016334 -0.008524 -0.006386 0.004448 0.000393 -0.004736
# 2 -0.008524 0.028041 0.001357 0.005195 -0.008333 -0.011880
# 3 -0.006386 0.001357 0.013453 -0.003066 0.002898 -0.001345
# 4 0.004448 0.005195 -0.003066 0.032347 -0.001397 -0.009262
# 5 0.000393 -0.008333 0.002898 -0.001397 0.031934 0.013378
# 6 -0.004736 -0.011880 -0.001345 -0.009262 0.013378 0.055962
#
#
# Mechanical properties :
#
#
# Convention : Reuss Voigt Hill
#
# Bulk Modulus (GPa) = 32.54990 51.09273 41.82131
# Shear Modulus (GPa) = 23.21077 30.85358 27.03217
#
# Velocity S-wave (km/s) = 3.01580 3.47704 3.25460
# Velocity P-wave (km/s) = 4.98811 6.01168 5.52365
#
# Compressibility (1/GPa) = 0.03072206
#
# Stress axis : x y z
#
# Youngs Moduli (GPa) = 61.22085 35.66245 74.33413
#
# Poissons Ratio (x) = 0.30399 0.47468
# Poissons Ratio (y) = 0.52185 -0.10087
# Poissons Ratio (z) = 0.39094 -0.04839
#
# Static dielectric constant tensor:
#      x y z
#    x 2.080030 -0.061890 -0.012050 
#    y -0.061890 2.012250 0.009810 
#    z -0.012050 0.009810 1.998350 
# 
# From -- ./inp_files/229248.got.cif
#   From: 2010.05.17/outbox.cif.g08.bks.cpg/sg2_115_cif.got.tgz:229248.got - 2010.06.03 11:33:40.
