data_PCOD9017680
_publ_section_title
;
Structure prediction by ZEFSAII (Michael W. Deem and Ramdas Pophale) SiO2 
 PCOD9017680
Probable space group: P -1
;
_chemical_formula_sum "Si O2"
_cell_formula_units_Z 16
_cell_length_a 6.741905
_cell_length_b 14.670087
_cell_length_c 11.523523
_cell_angle_alpha 71.171987
_cell_angle_beta 88.236674
_cell_angle_gamma 46.731021
_cell_volume 754.896915
_symmetry_space_group_name_H-M "P -1"
_symmetry_group_IT_number 2
_symmetry_cell_setting 'triclinic'
loop_
_space_group_symop_operation_xyz
x,y,z
-x,-y,-z
loop_
_atom_site_type_symbol
_atom_site_label
_atom_site_fract_x
_atom_site_fract_y
_atom_site_fract_z
Si Si1 0.289378 0.090454 0.861230
Si Si2 0.778620 0.552251 0.380737
Si Si3 0.012056 0.615512 0.174214
Si Si4 0.335215 0.589812 0.689226
Si Si5 0.151568 0.859958 0.283926
Si Si6 0.832674 0.372208 0.074862
Si Si7 0.789396 0.934720 0.752975
Si Si8 0.989799 0.889026 0.525935
O O1 0.173575 0.237031 0.824012
O O2 0.020300 0.114872 0.836255
O O3 0.494001 0.008061 0.782425
O O4 0.500000 0.000000 0.000000
O O5 0.904950 0.555911 0.260049
O O6 0.741233 0.451293 0.400685
O O7 0.468465 0.706339 0.343620
O O8 0.000000 0.500000 0.500000
O O9 0.333438 0.528101 0.240970
O O10 0.004946 0.625097 0.029910
O O11 0.160953 0.609636 0.795389
O O12 0.258282 0.728580 0.618642
O O13 0.982950 0.879906 0.392096
O O14 0.160632 0.971866 0.250671
O O15 0.965678 0.218368 0.134140
O O16 0.500000 0.500000 0.000000
O O17 0.778698 0.928816 0.615659
O O18 0.000000 0.000000 0.500000
#
# Coordination Sequence:
#
# PCOD9017680 Si02
#       8
#     2   2   2   2   2   2   2   2
#     4  12  24  41  66  97 134 173 219 270 327 395
#     4  12  26  40  67 103 136 174 221 268 329 403
#     4  11  22  42  65  96 135 172 220 271 326 396
#     4  10  22  43  68  98 134 174 213 276 335 383
#     4  11  24  42  66  97 132 178 213 273 336 384
#     4   9  20  42  68  91 130 175 221 276 325 386
#     4  10  21  43  65  98 129 169 224 274 327 394
#     4   9  21  42  70  95 128 172 224 270 328 395
#
# _framework density 21.194946999999999
#
# number of rings (size 3 to 8) (size 9 to 14) (size 15 to 20)
#    0.000    1.500    3.750    0.750    1.750    2.500 
#    4.500   16.250    0.000    0.000    0.000    0.000 
#    0.000    0.000    0.000    0.000    0.000    0.000 
#
# Total GULP energy -89155.119106 kJ/mol
# GULP energy per Si atom -5572.194944 kJ/mol
# Density = 2.114671 g / cm^3
# Si number density = 21.194947 Si / 1000 Ang^3
#
#
#
# Elastic Constant Matrix: (Units=GPa)
#
#
# Indices 1 2 3 4 5 6 
#
# 1 57.4492 41.6008 45.9243 -7.3126 8.5375 -5.8971
# 2 41.6008 138.5708 47.1018 -19.4399 3.6866 -4.6448
# 3 45.9243 47.1018 110.3489 -4.4567 0.1519 -7.7295
# 4 -7.3126 -19.4399 -4.4567 35.0372 -7.2656 -12.6859
# 5 8.5375 3.6866 0.1519 -7.2656 36.3974 5.0085
# 6 -5.8971 -4.6448 -7.7295 -12.6859 5.0085 29.9909
#
#
#
# Elastic Compliance Matrix: (Units=1/GPa)
#
#
# Indices 1 2 3 4 5 6 
#
# 1 0.031303 -0.005139 -0.010363 0.002740 -0.006920 0.005003
# 2 -0.005139 0.010181 -0.001840 0.005331 0.000945 0.002189
# 3 -0.010363 -0.001840 0.014177 -0.000656 0.002336 0.000664
# 4 0.002740 0.005331 -0.000656 0.039024 0.004272 0.016989
# 5 -0.006920 0.000945 0.002336 0.004272 0.030379 -0.003879
# 6 0.005003 0.002189 0.000664 0.016989 -0.003879 0.042671
#
#
# Mechanical properties :
#
#
# Convention : Reuss Voigt Hill
#
# Bulk Modulus (GPa) = 47.67048 63.95810 55.81429
# Shear Modulus (GPa) = 23.87650 31.73457 27.80553
#
# Velocity S-wave (km/s) = 3.36001 3.87366 3.62594
# Velocity P-wave (km/s) = 6.13132 7.08862 6.62728
#
# Compressibility (1/GPa) = 0.02097734
#
# Stress axis : x y z
#
# Youngs Moduli (GPa) = 31.94583 98.22591 70.53590
#
# Poissons Ratio (x) = 0.50475 0.73099
# Poissons Ratio (y) = 0.16416 0.12976
# Poissons Ratio (z) = 0.33107 0.18070
#
# Static dielectric constant tensor:
#      x y z
#    x 1.748720 -0.009180 -0.024990 
#    y -0.009180 1.765240 0.039910 
#    z -0.024990 0.039910 1.837490 
# 
# From -- ./inp_files/118677.got.cif
#   From: 2010.05.17/outbox.cif.g08.bks.cpg/sg2_60_cif.got.tgz:118677.got - 2010.06.03 11:33:40.
