data_PCOD9017570
_publ_section_title
;
Structure prediction by ZEFSAII (Michael W. Deem and Ramdas Pophale) SiO2 
 PCOD9017570
Probable space group: P -1
;
_chemical_formula_sum "Si O2"
_cell_formula_units_Z 14
_cell_length_a 9.229336
_cell_length_b 10.691657
_cell_length_c 14.924636
_cell_angle_alpha 144.440011
_cell_angle_beta 110.469538
_cell_angle_gamma 94.686559
_cell_volume 594.119289
_symmetry_space_group_name_H-M "P -1"
_symmetry_group_IT_number 2
_symmetry_cell_setting 'triclinic'
loop_
_space_group_symop_operation_xyz
x,y,z
-x,-y,-z
loop_
_atom_site_type_symbol
_atom_site_label
_atom_site_fract_x
_atom_site_fract_y
_atom_site_fract_z
Si Si1 0.732272 0.208692 0.630924
Si Si2 0.645324 0.847894 0.220460
Si Si3 0.045335 0.985084 0.394999
Si Si4 0.574345 0.026741 0.885554
Si Si5 0.743929 0.773374 0.727976
Si Si6 0.606140 0.392988 0.239819
Si Si7 0.822042 0.785596 0.960634
O O1 0.799545 0.519465 0.830057
O O2 0.500000 0.000000 0.500000
O O3 0.696470 0.043127 0.432806
O O4 0.911601 0.227932 0.726129
O O5 0.538786 0.918187 0.172775
O O6 0.500000 0.500000 0.000000
O O7 0.853333 0.927992 0.274723
O O8 0.250916 0.275511 0.562584
O O9 0.000000 0.000000 0.500000
O O10 0.738398 0.027346 0.873627
O O11 0.419099 0.731381 0.739401
O O12 0.689315 0.277948 0.130086
O O13 0.500000 0.500000 0.500000
O O14 0.790068 0.739419 0.818640
O O15 0.947828 0.902441 0.790820
O O16 0.372073 0.244558 0.073178
#
# Coordination Sequence:
#
# PCOD9017570 Si02
#       7
#     2   2   2   2   2   2   2
#     4  11  22  42  69  93 129 181 222 270 346 405
#     4  11  25  41  63  98 133 173 226 282 331 400
#     4  10  22  40  66  90 132 174 222 265 335 406
#     4  10  22  41  66  90 132 170 221 271 335 398
#     4  10  22  42  64  96 130 171 220 278 337 407
#     4  10  21  43  64  97 126 175 222 272 334 405
#     4  10  22  40  67  93 132 171 219 278 339 400
#
# _framework density 23.564291999999998
#
# number of rings (size 3 to 8) (size 9 to 14) (size 15 to 20)
#    0.000    1.714    1.429    2.571    6.000    0.571 
#   10.286    0.714    0.000    0.000    0.000    0.000 
#    0.000    0.000    0.000    0.000    0.000    0.000 
#
# Total GULP energy -78033.665381 kJ/mol
# GULP energy per Si atom -5573.833241 kJ/mol
# Density = 2.351066 g / cm^3
# Si number density = 23.564292 Si / 1000 Ang^3
#
#
#
# Elastic Constant Matrix: (Units=GPa)
#
#
# Indices 1 2 3 4 5 6 
#
# 1 100.9228 12.6209 -11.0781 5.5535 12.5036 -26.7306
# 2 12.6209 91.6726 -8.8203 15.5351 1.4141 -30.8537
# 3 -11.0781 -8.8203 46.2721 12.7076 8.0086 0.9220
# 4 5.5535 15.5351 12.7076 24.0371 -1.7116 -13.5156
# 5 12.5036 1.4141 8.0086 -1.7116 44.4694 2.8234
# 6 -26.7306 -30.8537 0.9220 -13.5156 2.8234 35.1622
#
#
#
# Elastic Compliance Matrix: (Units=1/GPa)
#
#
# Indices 1 2 3 4 5 6 
#
# 1 0.014597 0.003498 0.005149 -0.000796 -0.006076 0.014213
# 2 0.003498 0.017527 0.006539 -0.007208 -0.003975 0.015416
# 3 0.005149 0.006539 0.031585 -0.022156 -0.008258 0.000970
# 4 -0.000796 -0.007208 -0.022156 0.069834 0.005860 0.020024
# 5 -0.006076 -0.003975 -0.008258 0.005860 0.026528 -0.007768
# 6 0.014213 0.015416 0.000970 0.020024 -0.007768 0.061066
#
#
# Mechanical properties :
#
#
# Convention : Reuss Voigt Hill
#
# Bulk Modulus (GPa) = 10.62932 24.92364 17.77648
# Shear Modulus (GPa) = 22.50960 37.14341 29.82650
#
# Velocity S-wave (km/s) = 3.09405 3.97452 3.56160
# Velocity P-wave (km/s) = 4.15750 5.62692 4.94707
#
# Compressibility (1/GPa) = 0.09407942
#
# Stress axis : x y z
#
# Youngs Moduli (GPa) = 68.50548 57.05464 31.66071
#
# Poissons Ratio (x) = -0.19958 -0.16301
# Poissons Ratio (y) = -0.23963 -0.20702
# Poissons Ratio (z) = -0.35270 -0.37306
#
# Static dielectric constant tensor:
#      x y z
#    x 1.826260 0.064790 0.058240 
#    y 0.064790 2.000110 -0.082350 
#    z 0.058240 -0.082350 1.827440 
# 
# From -- ./inp_files/559423.got.cif
#   From: 2010.05.17/outbox.cif.g08.bks.cpg/sg2_280_cif.got.tgz:559423.got - 2010.06.03 11:33:40.
