data_PCOD9017502
_publ_section_title
;
Structure prediction by ZEFSAII (Michael W. Deem and Ramdas Pophale) SiO2 
 PCOD9017502
Probable space group: P -1
;
_chemical_formula_sum "Si O2"
_cell_formula_units_Z 14
_cell_length_a 8.132463
_cell_length_b 10.614912
_cell_length_c 11.371723
_cell_angle_alpha 91.807243
_cell_angle_beta 103.237761
_cell_angle_gamma 138.698206
_cell_volume 598.214288
_symmetry_space_group_name_H-M "P -1"
_symmetry_group_IT_number 2
_symmetry_cell_setting 'triclinic'
loop_
_space_group_symop_operation_xyz
x,y,z
-x,-y,-z
loop_
_atom_site_type_symbol
_atom_site_label
_atom_site_fract_x
_atom_site_fract_y
_atom_site_fract_z
Si Si1 0.148743 0.392444 0.470957
Si Si2 0.045752 0.150498 0.092782
Si Si3 0.365534 0.782975 0.563423
Si Si4 0.228434 0.807666 0.285651
Si Si5 0.753395 0.551035 0.047980
Si Si6 0.469241 0.192607 0.846769
Si Si7 0.504732 0.549712 0.307476
O O1 0.274309 0.588836 0.558959
O O2 0.291922 0.461818 0.372363
O O3 0.229752 0.329980 0.571304
O O4 0.835607 0.238101 0.404402
O O5 0.339354 0.342418 0.207028
O O6 0.812019 0.013373 0.148247
O O7 0.040383 0.267079 0.007218
O O8 0.000000 0.000000 0.000000
O O9 0.311985 0.783141 0.417501
O O10 0.657404 0.986624 0.664359
O O11 0.374814 0.820265 0.203809
O O12 0.915242 0.635379 0.197948
O O13 0.500000 0.500000 0.000000
O O14 0.653381 0.356337 0.986267
O O15 0.438466 0.298818 0.762237
#
# Coordination Sequence:
#
# PCOD9017502 Si02
#       7
#     2   2   2   2   2   2   2
#     4  10  21  43  63  98 130 178 218 270 327 394
#     4  11  24  40  65 100 130 171 224 269 332 386
#     4  10  23  40  68  96 134 173 219 270 332 391
#     4  11  24  44  65 100 133 175 220 272 333 396
#     4  11  25  44  69  98 131 174 224 274 333 393
#     4  11  23  45  66  97 137 174 219 276 333 394
#     4  10  23  41  68  97 135 171 221 271 329 393
#
# _framework density 23.402985000000001
#
# number of rings (size 3 to 8) (size 9 to 14) (size 15 to 20)
#    0.000    1.429    2.857    1.286    6.000    0.571 
#    5.143    2.143    0.000    0.000    0.000    0.000 
#    0.000    0.000    0.000    0.000    0.000    0.000 
#
# Total GULP energy -78241.719678 kJ/mol
# GULP energy per Si atom -5588.694263 kJ/mol
# Density = 2.334972 g / cm^3
# Si number density = 23.402985 Si / 1000 Ang^3
#
#
#
# Elastic Constant Matrix: (Units=GPa)
#
#
# Indices 1 2 3 4 5 6 
#
# 1 64.7124 14.0379 35.1113 4.6489 -10.8612 14.2251
# 2 14.0379 103.2856 32.0772 3.0973 3.9832 9.0128
# 3 35.1113 32.0772 96.7002 13.7825 1.4548 10.3223
# 4 4.6489 3.0973 13.7825 40.8702 5.6274 -10.1022
# 5 -10.8612 3.9832 1.4548 5.6274 24.9496 -5.9505
# 6 14.2251 9.0128 10.3223 -10.1022 -5.9505 20.1821
#
#
#
# Elastic Compliance Matrix: (Units=1/GPa)
#
#
# Indices 1 2 3 4 5 6 
#
# 1 0.023799 -0.000227 -0.006585 -0.004935 0.008746 -0.013196
# 2 -0.000227 0.011148 -0.003051 -0.000486 -0.002610 -0.004271
# 3 -0.006585 -0.003051 0.015041 -0.004896 -0.003377 -0.005136
# 4 -0.004935 -0.000486 -0.004896 0.032538 -0.004045 0.021294
# 5 0.008746 -0.002610 -0.003377 -0.004045 0.047490 0.008705
# 6 -0.013196 -0.004271 -0.005136 0.021294 0.008705 0.076609
#
#
# Mechanical properties :
#
#
# Convention : Reuss Voigt Hill
#
# Bulk Modulus (GPa) = 33.04586 47.46121 40.25354
# Shear Modulus (GPa) = 21.14703 29.43183 25.28943
#
# Velocity S-wave (km/s) = 3.00926 3.55013 3.29082
# Velocity P-wave (km/s) = 5.12106 6.09332 5.62822
#
# Compressibility (1/GPa) = 0.03026097
#
# Stress axis : x y z
#
# Youngs Moduli (GPa) = 42.01933 89.70013 66.48351
#
# Poissons Ratio (x) = 0.02037 0.43782
# Poissons Ratio (y) = 0.00954 0.20285
# Poissons Ratio (z) = 0.27671 0.27369
#
# Static dielectric constant tensor:
#      x y z
#    x 1.908180 0.024250 -0.011760 
#    y 0.024250 1.875940 -0.011330 
#    z -0.011760 -0.011330 1.926210 
# 
# From -- ./inp_files/390456.got.cif
#   From: 2010.05.17/outbox.cif.g08.bks.cpg/sg2_196_cif.got.tgz:390456.got - 2010.06.03 11:33:40.
