data_PCOD9017711
_publ_section_title
;
Structure prediction by ZEFSAII (Michael W. Deem and Ramdas Pophale) SiO2 
 PCOD9017711
Probable space group: P -1
;
_chemical_formula_sum "Si O2"
_cell_formula_units_Z 16
_cell_length_a 28.526685
_cell_length_b 9.542284
_cell_length_c 9.091164
_cell_angle_alpha 69.127121
_cell_angle_beta 142.732927
_cell_angle_gamma 139.172290
_cell_volume 767.826969
_symmetry_space_group_name_H-M "P -1"
_symmetry_group_IT_number 2
_symmetry_cell_setting 'triclinic'
loop_
_space_group_symop_operation_xyz
x,y,z
-x,-y,-z
loop_
_atom_site_type_symbol
_atom_site_label
_atom_site_fract_x
_atom_site_fract_y
_atom_site_fract_z
Si Si1 0.824718 0.367049 0.687022
Si Si2 0.626051 0.292409 0.281657
Si Si3 0.836348 0.040841 0.311552
Si Si4 0.146571 0.143486 0.840058
Si Si5 0.634517 0.643722 0.204576
Si Si6 0.145488 0.916294 0.188899
Si Si7 0.350655 0.705914 0.303340
Si Si8 0.854494 0.391038 0.080789
O O1 0.756962 0.421524 0.478760
O O2 0.787924 0.144575 0.609291
O O3 0.787930 0.277502 0.797331
O O4 0.989786 0.649728 0.964260
O O5 0.604476 0.431829 0.144486
O O6 0.632719 0.294415 0.477628
O O7 0.500000 0.000000 0.000000
O O8 0.856709 0.226461 0.203487
O O9 0.993784 0.282705 0.681515
O O10 0.810124 0.859496 0.205962
O O11 0.713051 0.860560 0.189731
O O12 0.270613 0.443668 0.112721
O O13 0.000000 0.000000 0.500000
O O14 0.126919 0.968242 0.966184
O O15 0.754615 0.819514 0.562286
O O16 0.500000 0.500000 0.000000
O O17 0.500000 0.000000 0.500000
O O18 0.240805 0.664884 0.030370
#
# Coordination Sequence:
#
# PCOD9017711 Si02
#       8
#     2   2   2   2   2   2   2   2
#     4  10  22  41  70  99 135 179 223 290 345 410
#     4  11  26  46  66  97 136 182 238 279 354 418
#     4  11  24  42  70  98 138 173 233 283 342 414
#     4  12  25  44  70 107 136 182 235 286 350 418
#     4  12  27  45  70 100 138 184 235 289 353 413
#     4  11  23  44  68 101 140 174 231 287 346 418
#     4  11  26  44  68  96 142 178 227 289 350 410
#     4  10  21  43  66 101 132 179 222 283 344 410
#
# _framework density 20.838028000000001
#
# number of rings (size 3 to 8) (size 9 to 14) (size 15 to 20)
#    0.000    1.000    5.000    0.750    5.250    0.500 
#    0.000    1.250    0.000    0.000    0.000    0.000 
#    0.000    0.000    0.000    0.000    0.000    0.000 
#
# Total GULP energy -89133.598288 kJ/mol
# GULP energy per Si atom -5570.849893 kJ/mol
# Density = 2.079060 g / cm^3
# Si number density = 20.838028 Si / 1000 Ang^3
#
#
#
# Elastic Constant Matrix: (Units=GPa)
#
#
# Indices 1 2 3 4 5 6 
#
# 1 121.0136 45.4489 29.2363 23.6586 10.9530 -13.5993
# 2 45.4489 80.2783 26.5837 20.2631 4.9413 -14.2813
# 3 29.2363 26.5837 52.2859 24.8043 -3.0396 -8.5548
# 4 23.6586 20.2631 24.8043 30.7007 0.7848 -2.8563
# 5 10.9530 4.9413 -3.0396 0.7848 40.4357 3.1647
# 6 -13.5993 -14.2813 -8.5548 -2.8563 3.1647 37.8664
#
#
#
# Elastic Compliance Matrix: (Units=1/GPa)
#
#
# Indices 1 2 3 4 5 6 
#
# 1 0.011718 -0.004319 -0.002252 -0.004100 -0.002893 0.002003
# 2 -0.004319 0.018346 -0.003814 -0.005264 -0.001588 0.004242
# 3 -0.002252 -0.003814 0.034017 -0.023014 0.003815 0.003383
# 4 -0.004100 -0.005264 -0.023014 0.057423 -0.000757 -0.004262
# 5 -0.002893 -0.001588 0.003815 -0.000757 0.026247 -0.003027
# 6 0.002003 0.004242 0.003383 -0.004262 -0.003027 0.029424
#
#
# Mechanical properties :
#
#
# Convention : Reuss Voigt Hill
#
# Bulk Modulus (GPa) = 23.08854 50.67951 36.88402
# Shear Modulus (GPa) = 23.54265 31.95449 27.74857
#
# Velocity S-wave (km/s) = 3.36489 3.92020 3.65311
# Velocity P-wave (km/s) = 5.11866 6.69807 5.96091
#
# Compressibility (1/GPa) = 0.04331153
#
# Stress axis : x y z
#
# Youngs Moduli (GPa) = 85.33725 54.50828 29.39730
#
# Poissons Ratio (x) = 0.23543 0.06620
# Poissons Ratio (y) = 0.36859 0.11211
# Poissons Ratio (z) = 0.19216 0.20787
#
# Static dielectric constant tensor:
#      x y z
#    x 1.786240 -0.012170 0.055880 
#    y -0.012170 1.806420 -0.031550 
#    z 0.055880 -0.031550 1.857310 
# 
# From -- ./inp_files/205153.got.cif
#   From: 2010.05.17/outbox.cif.g08.bks.cpg/sg2_103_cif.got.tgz:205153.got - 2010.06.03 11:33:40.
