data_PCOD9017191
_publ_section_title
;
Structure prediction by ZEFSAII (Michael W. Deem and Ramdas Pophale) SiO2 
 PCOD9017191
Probable space group: P -1
;
_chemical_formula_sum "Si O2"
_cell_formula_units_Z 16
_cell_length_a 8.258591
_cell_length_b 12.114051
_cell_length_c 14.491432
_cell_angle_alpha 47.706867
_cell_angle_beta 42.185618
_cell_angle_gamma 69.512713
_cell_volume 687.186190
_symmetry_space_group_name_H-M "P -1"
_symmetry_group_IT_number 2
_symmetry_cell_setting 'triclinic'
loop_
_space_group_symop_operation_xyz
x,y,z
-x,-y,-z
loop_
_atom_site_type_symbol
_atom_site_label
_atom_site_fract_x
_atom_site_fract_y
_atom_site_fract_z
Si Si1 0.268510 0.042244 0.517434
Si Si2 0.707049 0.417722 0.432430
Si Si3 0.157977 0.550014 0.311477
Si Si4 0.478695 0.389360 0.161400
Si Si5 0.435915 0.940526 0.333501
Si Si6 0.022715 0.936945 0.863641
Si Si7 0.035117 0.411294 0.943301
Si Si8 0.614889 0.079967 0.001771
O O1 0.312026 0.211480 0.356032
O O2 0.500000 0.000000 0.500000
O O3 0.231876 0.931633 0.505514
O O4 0.070127 0.019771 0.696528
O O5 0.500000 0.500000 0.500000
O O6 0.597049 0.232899 0.590083
O O7 0.781207 0.465100 0.269751
O O8 0.956562 0.483683 0.352012
O O9 0.392991 0.483166 0.228300
O O10 0.000000 0.500000 0.500000
O O11 0.265277 0.735925 0.160799
O O12 0.500000 0.500000 0.000000
O O13 0.750101 0.363729 0.054957
O O14 0.708140 0.018879 0.222551
O O15 0.428949 0.041764 0.189220
O O16 0.905654 0.753274 0.992226
O O17 0.838614 0.001909 0.966402
O O18 0.000000 0.500000 0.000000
O O19 0.500000 0.000000 0.000000
#
# Coordination Sequence:
#
# PCOD9017191 Si02
#       8
#     2   2   2   2   2   2   2   2
#     4  10  21  42  72 102 135 181 233 281 347 422
#     4  12  26  44  68 105 138 184 242 289 347 426
#     4  12  27  46  70 100 144 187 230 297 363 415
#     4  12  24  47  72 104 148 183 234 296 362 419
#     4  11  22  43  70  97 135 179 236 284 344 417
#     4  11  23  46  72 100 138 186 236 289 344 423
#     4  12  26  43  73 106 141 187 239 291 357 421
#     4  12  26  45  67 100 140 185 236 287 356 420
#
# _framework density 23.283355
#
# number of rings (size 3 to 8) (size 9 to 14) (size 15 to 20)
#    0.000    0.500    3.750    5.625    5.250    0.000 
#    0.000    1.250    0.000    0.000    0.000    0.000 
#    0.000    0.000    0.000    0.000    0.000    0.000 
#
# Total GULP energy -89361.249112 kJ/mol
# GULP energy per Si atom -5585.078069 kJ/mol
# Density = 2.323036 g / cm^3
# Si number density = 23.283355 Si / 1000 Ang^3
#
#
#
# Elastic Constant Matrix: (Units=GPa)
#
#
# Indices 1 2 3 4 5 6 
#
# 1 59.8758 9.6246 19.1720 -6.7779 15.8543 20.0940
# 2 9.6246 144.9052 40.5096 -19.3701 12.8425 3.9161
# 3 19.1720 40.5096 127.5913 -7.1747 41.6114 11.3399
# 4 -6.7779 -19.3701 -7.1747 68.3442 5.2833 0.5681
# 5 15.8543 12.8425 41.6114 5.2833 39.5310 7.9621
# 6 20.0940 3.9161 11.3399 0.5681 7.9621 33.4542
#
#
#
# Elastic Compliance Matrix: (Units=1/GPa)
#
#
# Indices 1 2 3 4 5 6 
#
# 1 0.023027 -0.000231 0.000266 0.002918 -0.007375 -0.012188
# 2 -0.000231 0.007837 -0.002215 0.001996 -0.000395 0.000032
# 3 0.000266 -0.002215 0.012953 0.001774 -0.013012 -0.001224
# 4 0.002918 0.001996 0.001774 0.016113 -0.005529 -0.001545
# 5 -0.007375 -0.000395 -0.013012 -0.005529 0.043075 -0.001271
# 6 -0.012188 0.000032 -0.001224 -0.001545 -0.001271 0.037952
#
#
# Mechanical properties :
#
#
# Convention : Reuss Voigt Hill
#
# Bulk Modulus (GPa) = 25.34489 52.33165 38.83827
# Shear Modulus (GPa) = 31.55187 45.80363 38.67775
#
# Velocity S-wave (km/s) = 3.68520 4.44015 4.08017
# Velocity P-wave (km/s) = 5.38671 6.98652 6.23811
#
# Compressibility (1/GPa) = 0.03945568
#
# Stress axis : x y z
#
# Youngs Moduli (GPa) = 43.42821 127.60625 77.20055
#
# Poissons Ratio (x) = 0.02944 -0.02051
# Poissons Ratio (y) = 0.01002 0.17103
# Poissons Ratio (z) = -0.01154 0.28269
#
# Static dielectric constant tensor:
#      x y z
#    x 2.033170 -0.050960 -0.051350 
#    y -0.050960 1.899130 -0.093760 
#    z -0.051350 -0.093760 2.046070 
# 
# From -- ./inp_files/499977.got.cif
#   From: 2010.05.17/outbox.cif.g08.bks.cpg/sg2_250_cif.got.tgz:499977.got - 2010.06.03 11:33:40.
