data_PCOD9017158
_publ_section_title
;
Structure prediction by ZEFSAII (Michael W. Deem and Ramdas Pophale) SiO2 
 PCOD9017158
Probable space group: P -1
;
_chemical_formula_sum "Si O2"
_cell_formula_units_Z 16
_cell_length_a 19.182429
_cell_length_b 8.589666
_cell_length_c 25.032964
_cell_angle_alpha 139.569157
_cell_angle_beta 164.430551
_cell_angle_gamma 38.855277
_cell_volume 693.049739
_symmetry_space_group_name_H-M "P -1"
_symmetry_group_IT_number 2
_symmetry_cell_setting 'triclinic'
loop_
_space_group_symop_operation_xyz
x,y,z
-x,-y,-z
loop_
_atom_site_type_symbol
_atom_site_label
_atom_site_fract_x
_atom_site_fract_y
_atom_site_fract_z
Si Si1 0.346401 0.576394 0.729352
Si Si2 0.018358 0.620241 0.389003
Si Si3 0.600233 0.050582 0.832937
Si Si4 0.136201 0.265254 0.876605
Si Si5 0.945260 0.033928 0.577558
Si Si6 0.579152 0.807964 0.460582
Si Si7 0.106015 0.839894 0.818715
Si Si8 0.974827 0.242097 0.008170
O O1 0.208519 0.602240 0.575899
O O2 0.458511 0.292235 0.756128
O O3 0.602416 0.687945 0.946203
O O4 0.121993 0.753896 0.647092
O O5 0.922649 0.874974 0.353671
O O6 0.203534 0.451357 0.435417
O O7 0.816945 0.455472 0.213324
O O8 0.356412 0.970303 0.659956
O O9 0.785565 0.834258 0.877436
O O10 0.792277 0.124510 0.037737
O O11 0.206860 0.024281 0.903579
O O12 0.020668 0.513611 0.891218
O O13 0.951418 0.198151 0.676838
O O14 0.500000 0.000000 0.500000
O O15 0.315991 0.735430 0.226968
O O16 0.774848 0.913799 0.592658
O O17 0.000000 0.000000 0.000000
#
# Coordination Sequence:
#
# PCOD9017158 Si02
#       8
#     2   2   2   2   2   2   2   2
#     4  12  24  49  70  97 141 180 233 293 335 405
#     4  10  22  45  70  97 137 178 230 278 347 401
#     4  12  25  45  70 105 136 183 233 277 349 407
#     4  12  25  44  68 102 139 179 231 278 347 408
#     4  12  28  44  70 102 137 185 233 284 342 406
#     4  10  21  42  71  97 140 176 219 278 345 399
#     4  10  24  42  69  99 142 176 227 278 337 419
#     4  12  24  43  74 100 143 177 224 286 345 411
#
# _framework density 23.086364
#
# number of rings (size 3 to 8) (size 9 to 14) (size 15 to 20)
#    0.750    0.000    3.750    3.375    3.500    2.000 
#    0.000    1.875    0.000    0.000    0.000    0.000 
#    0.000    0.000    0.000    0.000    0.000    0.000 
#
# Total GULP energy -89328.250124 kJ/mol
# GULP energy per Si atom -5583.015633 kJ/mol
# Density = 2.303382 g / cm^3
# Si number density = 23.086364 Si / 1000 Ang^3
#
#
#
# Elastic Constant Matrix: (Units=GPa)
#
#
# Indices 1 2 3 4 5 6 
#
# 1 44.7025 24.1185 19.1855 8.0450 -8.2758 9.9004
# 2 24.1185 94.0093 50.1383 13.3699 -9.6007 -1.0298
# 3 19.1855 50.1383 77.8423 13.0850 4.8512 -14.0778
# 4 8.0450 13.3699 13.0850 28.9587 -3.5215 -0.4320
# 5 -8.2758 -9.6007 4.8512 -3.5215 46.9628 3.5788
# 6 9.9004 -1.0298 -14.0778 -0.4320 3.5788 31.0936
#
#
#
# Elastic Compliance Matrix: (Units=1/GPa)
#
#
# Indices 1 2 3 4 5 6 
#
# 1 0.033112 -0.002516 -0.009297 -0.003190 0.007239 -0.015714
# 2 -0.002516 0.018420 -0.012071 -0.001839 0.004784 -0.004630
# 3 -0.009297 -0.012071 0.027109 -0.004889 -0.008473 0.015742
# 4 -0.003190 -0.001839 -0.004889 0.038771 0.002551 -0.001014
# 5 0.007239 0.004784 -0.008473 0.002551 0.025289 -0.008858
# 6 -0.015714 -0.004630 0.015742 -0.001014 -0.008858 0.045144
#
#
# Mechanical properties :
#
#
# Convention : Reuss Voigt Hill
#
# Bulk Modulus (GPa) = 32.38957 44.82653 38.60805
# Shear Modulus (GPa) = 20.33321 29.61048 24.97184
#
# Velocity S-wave (km/s) = 2.97096 3.58522 3.29244
# Velocity P-wave (km/s) = 5.08222 6.04958 5.58688
#
# Compressibility (1/GPa) = 0.03087414
#
# Stress axis : x y z
#
# Youngs Moduli (GPa) = 30.20037 54.29012 36.88756
#
# Poissons Ratio (x) = 0.13657 0.34296
# Poissons Ratio (y) = 0.07597 0.44525
# Poissons Ratio (z) = 0.28079 0.65531
#
# Static dielectric constant tensor:
#      x y z
#    x 1.987270 0.095210 0.009540 
#    y 0.095210 2.000600 0.015030 
#    z 0.009540 0.015030 1.847870 
# 
# From -- ./inp_files/613006.got.cif
#   From: 2010.05.17/outbox.cif.g08.bks.cpg/sg2_307_cif.got.tgz:613006.got - 2010.06.03 11:33:40.
