data_PCOD9017860
_publ_section_title
;
Structure prediction by ZEFSAII (Michael W. Deem and Ramdas Pophale) SiO2 
 PCOD9017860
Probable space group: P -1
;
_chemical_formula_sum "Si O2"
_cell_formula_units_Z 14
_cell_length_a 4.923740
_cell_length_b 9.527627
_cell_length_c 14.056371
_cell_angle_alpha 120.533879
_cell_angle_beta 105.671507
_cell_angle_gamma 92.178073
_cell_volume 534.504012
_symmetry_space_group_name_H-M "P -1"
_symmetry_group_IT_number 2
_symmetry_cell_setting 'triclinic'
loop_
_space_group_symop_operation_xyz
x,y,z
-x,-y,-z
loop_
_atom_site_type_symbol
_atom_site_label
_atom_site_fract_x
_atom_site_fract_y
_atom_site_fract_z
Si Si1 0.132857 0.685760 0.041361
Si Si2 0.731511 0.884958 0.983858
Si Si3 0.873535 0.509780 0.215704
Si Si4 0.239882 0.651285 0.529836
Si Si5 0.420675 0.403470 0.279254
Si Si6 0.271766 0.179378 0.494801
Si Si7 0.672816 0.162566 0.701029
O O1 0.362103 0.782874 0.173390
O O2 0.000000 0.500000 0.000000
O O3 0.883908 0.793942 0.049285
O O4 0.224578 0.628688 0.925247
O O5 0.619401 0.740880 0.851001
O O6 0.500000 0.000000 0.000000
O O7 0.000000 0.000000 0.000000
O O8 0.102431 0.436448 0.275148
O O9 0.063298 0.685002 0.255100
O O10 0.632037 0.536280 0.276447
O O11 0.453052 0.676122 0.647522
O O12 0.485629 0.668034 0.475836
O O13 0.000000 0.500000 0.500000
O O14 0.041500 0.776619 0.521394
O O15 0.401028 0.142539 0.596146
O O16 0.250200 0.017730 0.368937
#
# Coordination Sequence:
#
# PCOD9017860 Si02
#       7
#     2   2   2   2   2   2   2
#     4   9  21  43  70  99 135 186 231 275 344 418
#     4  11  24  41  65  99 136 173 220 284 346 403
#     4  10  21  43  67 101 130 179 224 274 337 408
#     4  12  25  44  69  97 134 179 227 273 336 410
#     4  11  23  41  68  96 136 174 224 272 339 412
#     4  11  26  43  66 102 131 176 228 281 339 389
#     4  10  23  44  69  95 140 173 227 287 331 400
#
# _framework density 26.192506000000002
#
# number of rings (size 3 to 8) (size 9 to 14) (size 15 to 20)
#    0.000    1.429    0.000    4.714    4.000    3.429 
#    0.000   31.429    0.000    0.000    0.000    0.000 
#    0.000    0.000    0.000    0.000    0.000    0.000 
#
# Total GULP energy -78150.389970 kJ/mol
# GULP energy per Si atom -5582.170712 kJ/mol
# Density = 2.613289 g / cm^3
# Si number density = 26.192506 Si / 1000 Ang^3
#
#
#
# Elastic Constant Matrix: (Units=GPa)
#
#
# Indices 1 2 3 4 5 6 
#
# 1 158.9371 35.6046 13.0882 -17.4200 -13.1676 -7.5218
# 2 35.6046 93.2262 8.5815 -8.4579 11.3980 -18.2213
# 3 13.0882 8.5815 152.7355 -29.1787 0.4636 7.5728
# 4 -17.4200 -8.4579 -29.1787 40.7733 -5.0752 -6.8294
# 5 -13.1676 11.3980 0.4636 -5.0752 22.6836 -5.2272
# 6 -7.5218 -18.2213 7.5728 -6.8294 -5.2272 33.0520
#
#
#
# Elastic Compliance Matrix: (Units=1/GPa)
#
#
# Indices 1 2 3 4 5 6 
#
# 1 0.008251 -0.003325 0.000171 0.004303 0.007914 0.002146
# 2 -0.003325 0.014309 -0.000565 0.001294 -0.007352 0.006366
# 3 0.000171 -0.000565 0.007639 0.005468 0.001292 -0.000689
# 4 0.004303 0.001294 0.005468 0.033490 0.011338 0.009153
# 5 0.007914 -0.007352 0.001292 0.011338 0.056910 0.008795
# 6 0.002146 0.006366 -0.000689 0.009153 0.008795 0.037693
#
#
# Mechanical properties :
#
#
# Convention : Reuss Voigt Hill
#
# Bulk Modulus (GPa) = 43.93211 57.71638 50.82425
# Shear Modulus (GPa) = 28.84868 42.47672 35.66270
#
# Velocity S-wave (km/s) = 3.32235 4.03142 3.69394
# Velocity P-wave (km/s) = 5.61485 6.61461 6.13513
#
# Compressibility (1/GPa) = 0.02276239
#
# Stress axis : x y z
#
# Youngs Moduli (GPa) = 121.19181 69.88619 130.90314
#
# Poissons Ratio (x) = 0.23236 -0.02243
# Poissons Ratio (y) = 0.40295 0.07397
# Poissons Ratio (z) = -0.02076 0.03949
#
# Static dielectric constant tensor:
#      x y z
#    x 1.655360 0.266440 -0.252830 
#    y 0.266440 2.010490 0.117870 
#    z -0.252830 0.117870 2.023230 
# 
# From -- ./inp_files/480810.got.cif
#   From: 2010.05.17/outbox.cif.g08.bks.cpg/sg2_241_cif.got.tgz:480810.got - 2010.06.03 11:33:40.
