data_PCOD9017133
_publ_section_title
;
Structure prediction by ZEFSAII (Michael W. Deem and Ramdas Pophale) SiO2 
 PCOD9017133
Probable space group: P -1
;
_chemical_formula_sum "Si O2"
_cell_formula_units_Z 14
_cell_length_a 10.355539
_cell_length_b 6.953697
_cell_length_c 13.326280
_cell_angle_alpha 38.940868
_cell_angle_beta 83.728306
_cell_angle_gamma 97.454917
_cell_volume 563.007530
_symmetry_space_group_name_H-M "P -1"
_symmetry_group_IT_number 2
_symmetry_cell_setting 'triclinic'
loop_
_space_group_symop_operation_xyz
x,y,z
-x,-y,-z
loop_
_atom_site_type_symbol
_atom_site_label
_atom_site_fract_x
_atom_site_fract_y
_atom_site_fract_z
Si Si1 0.033436 0.316003 0.976593
Si Si2 0.367880 0.720485 0.082905
Si Si3 0.325264 0.765882 0.432692
Si Si4 0.073678 0.729962 0.601760
Si Si5 0.830655 0.182203 0.774641
Si Si6 0.729587 0.829196 0.194539
Si Si7 0.531458 0.261216 0.301753
O O1 0.070045 0.566692 0.778114
O O2 0.000000 0.500000 0.000000
O O3 0.893212 0.009805 0.088844
O O4 0.146171 0.156028 0.066524
O O5 0.242333 0.694819 0.178349
O O6 0.421223 0.422691 0.204920
O O7 0.500000 0.000000 0.000000
O O8 0.326005 0.868115 0.926930
O O9 0.226615 0.840996 0.497459
O O10 0.260339 0.823717 0.311406
O O11 0.299729 0.388585 0.614904
O O12 0.488774 0.978043 0.334564
O O13 0.981358 0.453268 0.646114
O O14 0.000000 0.000000 0.500000
O O15 0.651958 0.569029 0.217704
O O16 0.500000 0.000000 0.500000
#
# Coordination Sequence:
#
# PCOD9017133 Si02
#       7
#     2   2   2   2   2   2   2
#     4  12  26  43  71 103 140 186 235 282 351 418
#     4  10  21  42  71  91 133 186 231 282 347 396
#     4  11  23  40  68 103 139 176 232 280 348 415
#     4  12  24  40  67  98 141 180 224 287 351 410
#     4  12  24  42  69 106 141 182 230 288 346 414
#     4  10  21  43  68  91 138 181 227 280 345 397
#     4   9  21  43  70  93 131 183 229 286 340 406
#
# _framework density 24.866454000000001
#
# number of rings (size 3 to 8) (size 9 to 14) (size 15 to 20)
#    0.000    1.143    2.857    3.429    4.000    0.000 
#    0.000    9.286    6.286    0.000    0.000    0.000 
#    0.000    0.000    0.000    0.000    0.000    0.000 
#
# Total GULP energy -78020.578028 kJ/mol
# GULP energy per Si atom -5572.898431 kJ/mol
# Density = 2.480986 g / cm^3
# Si number density = 24.866454 Si / 1000 Ang^3
#
#
#
# Elastic Constant Matrix: (Units=GPa)
#
#
# Indices 1 2 3 4 5 6 
#
# 1 78.9735 8.9854 48.1670 8.2151 25.5782 1.4948
# 2 8.9854 68.5578 50.6205 19.0414 -4.5839 19.3292
# 3 48.1670 50.6205 166.6214 8.0818 36.2443 -1.2743
# 4 8.2151 19.0414 8.0818 43.5321 12.6052 3.9093
# 5 25.5782 -4.5839 36.2443 12.6052 68.7837 -7.4475
# 6 1.4948 19.3292 -1.2743 3.9093 -7.4475 51.6268
#
#
#
# Elastic Compliance Matrix: (Units=1/GPa)
#
#
# Indices 1 2 3 4 5 6 
#
# 1 0.016575 0.002005 -0.004568 -0.002010 -0.003437 -0.001687
# 2 0.002005 0.028536 -0.010449 -0.012430 0.007975 -0.008908
# 3 -0.004568 -0.010449 0.011507 0.004622 -0.005564 0.003176
# 4 -0.002010 -0.012430 0.004622 0.030084 -0.007877 0.001412
# 5 -0.003437 0.007975 -0.005564 -0.007877 0.020785 0.000571
# 6 -0.001687 -0.008908 0.003176 0.001412 0.000571 0.022808
#
#
# Mechanical properties :
#
#
# Convention : Reuss Voigt Hill
#
# Bulk Modulus (GPa) = 32.68759 58.85539 45.77149
# Shear Modulus (GPa) = 30.02708 46.54715 38.28712
#
# Velocity S-wave (km/s) = 3.47873 4.33122 3.92817
# Velocity P-wave (km/s) = 5.41380 6.98088 6.24667
#
# Compressibility (1/GPa) = 0.03059265
#
# Stress axis : x y z
#
# Youngs Moduli (GPa) = 60.33228 35.04406 86.90301
#
# Poissons Ratio (x) = -0.07025 0.39699
# Poissons Ratio (y) = -0.12095 0.90803
# Poissons Ratio (z) = 0.27561 0.36617
#
# Static dielectric constant tensor:
#      x y z
#    x 1.945840 -0.028820 0.080680 
#    y -0.028820 2.060890 -0.010990 
#    z 0.080680 -0.010990 1.946670 
# 
# From -- ./inp_files/514830.got.cif
#   From: 2010.05.17/outbox.cif.g08.bks.cpg/sg2_258_cif.got.tgz:514830.got - 2010.06.03 11:33:40.
