data_PCOD9017057
_publ_section_title
;
Structure prediction by ZEFSAII (Michael W. Deem and Ramdas Pophale) SiO2 
 PCOD9017057
Probable space group: P -1
;
_chemical_formula_sum "Si O2"
_cell_formula_units_Z 15
_cell_length_a 5.213630
_cell_length_b 5.115901
_cell_length_c 22.308378
_cell_angle_alpha 113.649432
_cell_angle_beta 74.955203
_cell_angle_gamma 94.311034
_cell_volume 526.082373
_symmetry_space_group_name_H-M "P -1"
_symmetry_group_IT_number 2
_symmetry_cell_setting 'triclinic'
loop_
_space_group_symop_operation_xyz
x,y,z
-x,-y,-z
loop_
_atom_site_type_symbol
_atom_site_label
_atom_site_fract_x
_atom_site_fract_y
_atom_site_fract_z
Si Si1 0.716356 0.780832 0.692015
Si Si2 0.404360 0.067851 0.628265
Si Si3 0.131894 0.510697 0.556450
Si Si4 0.841543 0.276700 0.999286
Si Si5 0.979046 0.272258 0.763328
Si Si6 0.597535 0.920840 0.071013
Si Si7 0.500000 0.000000 0.500000
Si Si8 0.445139 0.603758 0.798030
O O1 0.571262 0.970621 0.667254
O O2 0.496073 0.610308 0.724165
O O3 0.951667 0.612069 0.630971
O O4 0.852920 0.967641 0.753006
O O5 0.344943 0.772989 0.564654
O O6 0.132252 0.204243 0.684287
O O7 0.571576 0.202455 0.577910
O O8 0.234705 0.194653 0.531029
O O9 0.000000 0.500000 0.500000
O O10 0.821217 0.643733 0.034819
O O11 0.594685 0.206322 0.054127
O O12 0.687616 0.207111 0.939643
O O13 0.000000 0.000000 0.000000
O O14 0.198560 0.400871 0.804620
O O15 0.722715 0.481538 0.795396
O O16 0.628845 0.080164 0.146087
#
# Coordination Sequence:
#
# PCOD9017057 Si02
#       8
#     2   2   2   2   2   2   1   2
#     4  11  26  47  68  98 144 179 234 299 351 436
#     4  11  25  45  65  98 137 175 239 293 356 442
#     4  11  25  44  66 101 134 179 237 302 361 446
#     4  10  21  42  70  98 145 185 225 288 341 397
#     4  11  26  46  67 100 135 187 230 284 361 425
#     4  10  23  41  65 107 137 179 241 280 335 420
#     4  12  24  42  70  92 132 178 232 294 376 424
#     4  12  26  43  73 101 142 187 231 291 355 418
#
# _framework density 28.512642
#
# number of rings (size 3 to 8) (size 9 to 14) (size 15 to 20)
#    0.000    1.067    2.667    2.400    5.600    2.667 
#    0.000    0.000    0.000    0.000    0.000    0.000 
#    0.000    0.000    0.000    0.000    0.000    0.000 
#
# Total GULP energy -83640.210904 kJ/mol
# GULP energy per Si atom -5576.014060 kJ/mol
# Density = 2.844775 g / cm^3
# Si number density = 28.512642 Si / 1000 Ang^3
#
#
#
# Elastic Constant Matrix: (Units=GPa)
#
#
# Indices 1 2 3 4 5 6 
#
# 1 177.5541 70.1271 39.6380 31.6673 19.8820 -9.2188
# 2 70.1271 136.2991 18.2452 17.3196 -8.0484 -7.0303
# 3 39.6380 18.2452 80.2948 38.0062 -7.9128 -3.9347
# 4 31.6673 17.3196 38.0062 49.3933 -5.7516 -4.9379
# 5 19.8820 -8.0484 -7.9128 -5.7516 36.7135 9.1923
# 6 -9.2188 -7.0303 -3.9347 -4.9379 9.1923 66.0789
#
#
#
# Elastic Compliance Matrix: (Units=1/GPa)
#
#
# Indices 1 2 3 4 5 6 
#
# 1 0.009538 -0.004504 -0.002937 -0.003014 -0.007637 0.001514
# 2 -0.004504 0.009903 0.000716 -0.000608 0.004728 -0.000235
# 3 -0.002937 0.000716 0.020684 -0.013865 0.004215 -0.000724
# 4 -0.003014 -0.000608 -0.013865 0.033548 0.003592 0.000696
# 5 -0.007637 0.004728 0.004215 0.003592 0.035115 -0.004928
# 6 0.001514 -0.000235 -0.000724 0.000696 -0.004928 0.016014
#
#
# Mechanical properties :
#
#
# Convention : Reuss Voigt Hill
#
# Bulk Modulus (GPa) = 37.48970 72.24094 54.86532
# Shear Modulus (GPa) = 33.98039 48.17964 41.08002
#
# Velocity S-wave (km/s) = 3.45594 4.11513 3.79986
# Velocity P-wave (km/s) = 5.39460 6.92608 6.20775
#
# Compressibility (1/GPa) = 0.02667399
#
# Stress axis : x y z
#
# Youngs Moduli (GPa) = 104.84435 100.98187 48.34646
#
# Poissons Ratio (x) = 0.45484 0.14199
# Poissons Ratio (y) = 0.47223 -0.03460
# Poissons Ratio (z) = 0.30791 -0.07227
#
# Static dielectric constant tensor:
#      x y z
#    x 1.810690 -0.322260 0.432950 
#    y -0.322260 2.211920 0.170150 
#    z 0.432950 0.170150 2.363620 
# 
# From -- ./inp_files/603020.got.cif
#   From: 2010.05.17/outbox.cif.g08.bks.cpg/sg2_302_cif.got.tgz:603020.got - 2010.06.03 11:33:40.
