data_PCOD9017754
_publ_section_title
;
Structure prediction by ZEFSAII (Michael W. Deem and Ramdas Pophale) SiO2 
 PCOD9017754
Probable space group: P -1
;
_chemical_formula_sum "Si O2"
_cell_formula_units_Z 16
_cell_length_a 12.482719
_cell_length_b 18.878005
_cell_length_c 21.991011
_cell_angle_alpha 161.856807
_cell_angle_beta 37.819495
_cell_angle_gamma 150.886877
_cell_volume 756.863219
_symmetry_space_group_name_H-M "P -1"
_symmetry_group_IT_number 2
_symmetry_cell_setting 'triclinic'
loop_
_space_group_symop_operation_xyz
x,y,z
-x,-y,-z
loop_
_atom_site_type_symbol
_atom_site_label
_atom_site_fract_x
_atom_site_fract_y
_atom_site_fract_z
Si Si1 0.167609 0.773679 0.376276
Si Si2 0.251100 0.659998 0.992043
Si Si3 0.656045 0.538789 0.015550
Si Si4 0.238673 0.646041 0.479829
Si Si5 0.069528 0.784728 0.560944
Si Si6 0.163373 0.303981 0.633903
Si Si7 0.494484 0.523435 0.202861
Si Si8 0.557859 0.283819 0.428584
O O1 0.104870 0.671241 0.390686
O O2 0.965333 0.737595 0.403644
O O3 0.374229 0.126237 0.573994
O O4 0.238519 0.612766 0.174867
O O5 0.213550 0.576853 0.870659
O O6 0.359718 0.520121 0.855805
O O7 0.000000 0.500000 0.000000
O O8 0.424450 0.997750 0.211632
O O9 0.503773 0.417456 0.046137
O O10 0.500000 0.500000 0.000000
O O11 0.855621 0.894259 0.224585
O O12 0.261299 0.413883 0.249366
O O13 0.415613 0.791226 0.575546
O O14 0.000000 0.500000 0.500000
O O15 0.232517 0.822158 0.571355
O O16 0.809869 0.547090 0.505735
O O17 0.398346 0.369787 0.572664
O O18 0.000000 0.000000 0.500000
#
# Coordination Sequence:
#
# PCOD9017754 Si02
#       8
#     2   2   2   2   2   2   2   2
#     4  11  23  43  66  94 134 169 218 278 323 391
#     4  12  23  37  66 100 126 167 221 265 329 388
#     4  11  24  39  69  94 128 175 219 268 325 392
#     4  10  21  43  66  91 136 173 209 273 326 384
#     4  10  25  45  62  97 134 174 221 263 331 400
#     4  12  22  41  66  95 130 170 219 279 325 381
#     4  11  22  38  64  98 127 165 220 267 325 386
#     4  11  24  43  66  96 137 173 212 279 329 386
#
# _framework density 21.139883999999999
#
# number of rings (size 3 to 8) (size 9 to 14) (size 15 to 20)
#    0.000    1.000    3.750    2.250    3.500    4.500 
#    0.000    2.500    0.000    0.000    0.000    0.000 
#    0.000    0.000    0.000    0.000    0.000    0.000 
#
# Total GULP energy -89378.929238 kJ/mol
# GULP energy per Si atom -5586.183077 kJ/mol
# Density = 2.109177 g / cm^3
# Si number density = 21.139884 Si / 1000 Ang^3
#
#
#
# Elastic Constant Matrix: (Units=GPa)
#
#
# Indices 1 2 3 4 5 6 
#
# 1 89.7197 27.8059 8.2845 -12.8986 10.2410 3.8161
# 2 27.8059 114.5922 44.4076 -26.4435 -2.0295 13.7186
# 3 8.2845 44.4076 102.5264 -25.1986 8.2235 5.0295
# 4 -12.8986 -26.4435 -25.1986 36.1915 4.3913 1.7592
# 5 10.2410 -2.0295 8.2235 4.3913 37.4409 -11.5630
# 6 3.8161 13.7186 5.0295 1.7592 -11.5630 41.3053
#
#
#
# Elastic Compliance Matrix: (Units=1/GPa)
#
#
# Indices 1 2 3 4 5 6 
#
# 1 0.013197 -0.002607 0.001794 0.004816 -0.005418 -0.002293
# 2 -0.002607 0.012561 -0.003649 0.005837 0.000391 -0.003626
# 3 0.001794 -0.003649 0.013812 0.008379 -0.005486 -0.002528
# 4 0.004816 0.005837 0.008379 0.041062 -0.010124 -0.007987
# 5 -0.005418 0.000391 -0.005486 -0.010124 0.033997 0.010987
# 6 -0.002293 -0.003626 -0.002528 -0.007987 0.010987 0.029350
#
#
# Mechanical properties :
#
#
# Convention : Reuss Voigt Hill
#
# Bulk Modulus (GPa) = 32.63156 51.98159 42.30657
# Shear Modulus (GPa) = 30.65233 38.07689 34.36461
#
# Velocity S-wave (km/s) = 3.81199 4.24864 4.03622
# Velocity P-wave (km/s) = 5.90292 6.97930 6.46356
#
# Compressibility (1/GPa) = 0.03064518
#
# Stress axis : x y z
#
# Youngs Moduli (GPa) = 75.77695 79.60984 72.39862
#
# Poissons Ratio (x) = 0.20757 -0.12986
# Poissons Ratio (y) = 0.19758 0.26418
# Poissons Ratio (z) = -0.13592 0.29049
#
# Static dielectric constant tensor:
#      x y z
#    x 1.747300 -0.037340 0.018680 
#    y -0.037340 1.846310 -0.006440 
#    z 0.018680 -0.006440 1.799910 
# 
# From -- ./inp_files/596046.got.cif
#   From: 2010.05.17/outbox.cif.g08.bks.cpg/sg2_299_cif.got.tgz:596046.got - 2010.06.03 11:33:40.
