data_PCOD9017454
_publ_section_title
;
Structure prediction by ZEFSAII (Michael W. Deem and Ramdas Pophale) SiO2 
 PCOD9017454
Probable space group: P -1
;
_chemical_formula_sum "Si O2"
_cell_formula_units_Z 16
_cell_length_a 8.290278
_cell_length_b 12.041582
_cell_length_c 15.477947
_cell_angle_alpha 68.125221
_cell_angle_beta 59.820883
_cell_angle_gamma 32.167889
_cell_volume 706.407801
_symmetry_space_group_name_H-M "P -1"
_symmetry_group_IT_number 2
_symmetry_cell_setting 'triclinic'
loop_
_space_group_symop_operation_xyz
x,y,z
-x,-y,-z
loop_
_atom_site_type_symbol
_atom_site_label
_atom_site_fract_x
_atom_site_fract_y
_atom_site_fract_z
Si Si1 0.522190 0.165592 0.183766
Si Si2 0.150113 0.741031 0.243751
Si Si3 0.723713 0.320149 0.106858
Si Si4 0.664174 0.910918 0.075224
Si Si5 0.266728 0.244272 0.569127
Si Si6 0.944276 0.655596 0.587054
Si Si7 0.057843 0.102991 0.422122
Si Si8 0.806377 0.026185 0.766760
O O1 0.500622 0.101248 0.121150
O O2 0.852865 0.941194 0.204887
O O3 0.558811 0.287389 0.123059
O O4 0.233638 0.292737 0.292617
O O5 0.459930 0.543060 0.159499
O O6 0.215298 0.819399 0.265990
O O7 0.026916 0.688718 0.343153
O O8 0.967054 0.140324 0.167923
O O9 0.953914 0.264578 0.991493
O O10 0.551483 0.845573 0.166299
O O11 0.500000 0.000000 0.000000
O O12 0.309887 0.207140 0.465320
O O13 0.574567 0.055910 0.600953
O O14 0.185659 0.424636 0.558301
O O15 0.117713 0.690750 0.547886
O O16 0.033955 0.106098 0.325402
O O17 0.000000 0.000000 0.500000
#
# Coordination Sequence:
#
# PCOD9017454 Si02
#       8
#     2   2   2   2   2   2   2   2
#     4  11  21  41  66  91 122 161 214 254 306 367
#     4  11  22  39  65  95 123 162 213 257 300 368
#     4  10  23  39  67  92 121 168 210 259 304 360
#     4  10  21  43  63  91 128 166 202 256 321 362
#     4  11  24  40  63  96 121 165 214 249 306 366
#     4  11  23  40  67  88 125 166 208 257 300 372
#     4  12  25  40  64  92 129 166 198 255 318 367
#     4  10  23  40  61  92 132 161 205 257 310 372
#
# _framework density 22.649808
#
# number of rings (size 3 to 8) (size 9 to 14) (size 15 to 20)
#    0.000    1.250    3.750    1.500    3.500    2.500 
#    0.000    0.000    0.000    0.000    0.000    0.000 
#    0.000    0.000    0.000    0.000    0.000    0.000 
#
# Total GULP energy -89454.882860 kJ/mol
# GULP energy per Si atom -5590.930179 kJ/mol
# Density = 2.259826 g / cm^3
# Si number density = 22.649808 Si / 1000 Ang^3
#
#
#
# Elastic Constant Matrix: (Units=GPa)
#
#
# Indices 1 2 3 4 5 6 
#
# 1 128.5695 32.4353 47.1337 8.4390 9.8189 54.0460
# 2 32.4353 62.5477 2.9579 6.8006 0.2779 33.4281
# 3 47.1337 2.9579 78.9379 10.7036 14.7141 14.8425
# 4 8.4390 6.8006 10.7036 28.1463 7.5700 2.5838
# 5 9.8189 0.2779 14.7141 7.5700 45.7060 5.5677
# 6 54.0460 33.4281 14.8425 2.5838 5.5677 45.8163
#
#
#
# Elastic Compliance Matrix: (Units=1/GPa)
#
#
# Indices 1 2 3 4 5 6 
#
# 1 0.019141 0.002344 -0.007371 -0.001816 0.001221 -0.021947
# 2 0.002344 0.028322 0.002547 -0.006997 0.002608 -0.024177
# 3 -0.007371 0.002547 0.017933 -0.004391 -0.003688 0.001723
# 4 -0.001816 -0.006997 -0.004391 0.040314 -0.005694 0.007088
# 5 0.001221 0.002608 -0.003688 -0.005694 0.024314 -0.004782
# 6 -0.021947 -0.024177 0.001723 0.007088 -0.004782 0.064979
#
#
# Mechanical properties :
#
#
# Convention : Reuss Voigt Hill
#
# Bulk Modulus (GPa) = 16.54623 48.34544 32.44583
# Shear Modulus (GPa) = 22.71619 36.43558 29.57589
#
# Velocity S-wave (km/s) = 3.17034 4.01515 3.61749
# Velocity P-wave (km/s) = 4.55220 6.54876 5.63954
#
# Compressibility (1/GPa) = 0.06043673
#
# Stress axis : x y z
#
# Youngs Moduli (GPa) = 52.24510 35.30805 55.76300
#
# Poissons Ratio (x) = -0.08278 0.41105
# Poissons Ratio (y) = -0.12248 -0.14206
# Poissons Ratio (z) = 0.38512 -0.08995
#
# Static dielectric constant tensor:
#      x y z
#    x 1.860010 -0.009870 -0.029610 
#    y -0.009870 1.862840 -0.013590 
#    z -0.029610 -0.013590 1.826710 
# 
# From -- ./inp_files/315640.got.cif
#   From: 2010.05.17/outbox.cif.g08.bks.cpg/sg2_158_cif.got.tgz:315640.got - 2010.06.03 11:33:40.
