data_PCOD9017832
_publ_section_title
;
Structure prediction by ZEFSAII (Michael W. Deem and Ramdas Pophale) SiO2 
 PCOD9017832
Probable space group: P -1
;
_chemical_formula_sum "Si O2"
_cell_formula_units_Z 14
_cell_length_a 9.314869
_cell_length_b 17.555434
_cell_length_c 11.734109
_cell_angle_alpha 31.607997
_cell_angle_beta 132.714645
_cell_angle_gamma 113.986764
_cell_volume 661.877231
_symmetry_space_group_name_H-M "P -1"
_symmetry_group_IT_number 2
_symmetry_cell_setting 'triclinic'
loop_
_space_group_symop_operation_xyz
x,y,z
-x,-y,-z
loop_
_atom_site_type_symbol
_atom_site_label
_atom_site_fract_x
_atom_site_fract_y
_atom_site_fract_z
Si Si1 0.178107 0.621338 0.763084
Si Si2 0.634645 0.247816 0.707358
Si Si3 0.329594 0.290527 0.819367
Si Si4 0.139789 0.059418 0.919305
Si Si5 0.830348 0.512273 0.750755
Si Si6 0.670751 0.506452 0.244218
Si Si7 0.815239 0.178074 0.146922
O O1 0.226306 0.545832 0.757496
O O2 0.024117 0.811703 0.423195
O O3 0.040140 0.541828 0.851132
O O4 0.409463 0.585687 0.985034
O O5 0.383987 0.365540 0.452011
O O6 0.725747 0.349701 0.551147
O O7 0.759478 0.194402 0.961813
O O8 0.674771 0.090989 0.854960
O O9 0.243340 0.158381 0.918084
O O10 0.236326 0.425038 0.496666
O O11 0.267613 0.373159 0.803701
O O12 0.590078 0.211604 0.045999
O O13 0.000000 0.000000 0.000000
O O14 0.868756 0.327753 0.016682
O O15 0.000000 0.000000 0.500000
#
# Coordination Sequence:
#
# PCOD9017832 Si02
#       7
#     2   2   2   2   2   2   2
#     4  10  25  39  67  99 134 171 224 267 325 391
#     4  11  22  41  72  88 136 175 217 271 325 389
#     4  10  22  42  66  91 133 173 220 265 323 392
#     4  11  24  42  64 100 131 172 223 270 323 386
#     4  10  21  43  66  97 128 176 221 264 328 394
#     4  11  21  44  67  93 132 180 218 267 326 394
#     4  11  23  40  65 104 132 164 222 276 329 386
#
# _framework density 21.151961
#
# number of rings (size 3 to 8) (size 9 to 14) (size 15 to 20)
#    0.000    1.429    4.286    0.857    2.000   10.286 
#    0.000    0.714    0.000    0.000    0.000    0.000 
#    0.000    0.000    0.000    0.000    0.000    0.000 
#
# Total GULP energy -78330.358392 kJ/mol
# GULP energy per Si atom -5595.025599 kJ/mol
# Density = 2.110382 g / cm^3
# Si number density = 21.151961 Si / 1000 Ang^3
#
#
#
# Elastic Constant Matrix: (Units=GPa)
#
#
# Indices 1 2 3 4 5 6 
#
# 1 105.4145 42.6790 42.8685 -10.5569 -5.6474 10.4992
# 2 42.6790 120.0772 54.9582 -35.8649 -0.3476 -7.1419
# 3 42.8685 54.9582 135.1690 -19.4524 5.1792 11.5955
# 4 -10.5569 -35.8649 -19.4524 33.5426 1.5908 -5.2603
# 5 -5.6474 -0.3476 5.1792 1.5908 27.5682 -0.1267
# 6 10.4992 -7.1419 11.5955 -5.2603 -0.1267 42.0596
#
#
#
# Elastic Compliance Matrix: (Units=1/GPa)
#
#
# Indices 1 2 3 4 5 6 
#
# 1 0.012472 -0.004395 -0.002395 -0.002866 0.003099 -0.003548
# 2 -0.004395 0.016546 -0.003688 0.015281 -0.000849 0.006832
# 3 -0.002395 -0.003688 0.010110 0.000858 -0.002498 -0.002716
# 4 -0.002866 0.015281 0.000858 0.047310 -0.003244 0.008981
# 5 0.003099 -0.000849 -0.002498 -0.003244 0.037552 -0.000522
# 6 -0.003548 0.006832 -0.002716 0.008981 -0.000522 0.027692
#
#
# Mechanical properties :
#
#
# Convention : Reuss Voigt Hill
#
# Bulk Modulus (GPa) = 55.03191 71.29689 63.16440
# Shear Modulus (GPa) = 27.98051 35.31109 31.64580
#
# Velocity S-wave (km/s) = 3.64102 4.09026 3.87216
# Velocity P-wave (km/s) = 6.61437 7.48914 7.06531
#
# Compressibility (1/GPa) = 0.01817128
#
# Stress axis : x y z
#
# Youngs Moduli (GPa) = 80.17823 60.43680 98.91601
#
# Poissons Ratio (x) = 0.26561 0.23695
# Poissons Ratio (y) = 0.35237 0.36481
# Poissons Ratio (z) = 0.19207 0.22290
#
# Static dielectric constant tensor:
#      x y z
#    x 1.763480 -0.028300 -0.001230 
#    y -0.028300 1.780610 0.022150 
#    z -0.001230 0.022150 1.751450 
# 
# From -- ./inp_files/156696.got.cif
#   From: 2010.05.17/outbox.cif.g08.bks.cpg/sg2_79_cif.got.tgz:156696.got - 2010.06.03 11:33:40.
