data_PCOD9017071
_publ_section_title
;
Structure prediction by ZEFSAII (Michael W. Deem and Ramdas Pophale) SiO2 
 PCOD9017071
Probable space group: P -1
;
_chemical_formula_sum "Si O2"
_cell_formula_units_Z 16
_cell_length_a 13.758489
_cell_length_b 15.056263
_cell_length_c 8.078623
_cell_angle_alpha 136.426452
_cell_angle_beta 139.555372
_cell_angle_gamma 37.696820
_cell_volume 631.490527
_symmetry_space_group_name_H-M "P -1"
_symmetry_group_IT_number 2
_symmetry_cell_setting 'triclinic'
loop_
_space_group_symop_operation_xyz
x,y,z
-x,-y,-z
loop_
_atom_site_type_symbol
_atom_site_label
_atom_site_fract_x
_atom_site_fract_y
_atom_site_fract_z
Si Si1 0.236065 0.588084 0.765346
Si Si2 0.865804 0.590898 0.801476
Si Si3 0.520708 0.208501 0.099425
Si Si4 0.368940 0.117776 0.263873
Si Si5 0.852467 0.158481 0.609689
Si Si6 0.088876 0.127599 0.174580
Si Si7 0.634572 0.199173 0.866186
Si Si8 0.202742 0.526761 0.013220
O O1 0.254866 0.473037 0.493269
O O2 0.027273 0.726215 0.665116
O O3 0.349859 0.663431 0.989205
O O4 0.264772 0.519822 0.895248
O O5 0.742854 0.774241 0.889246
O O6 0.000000 0.500000 0.000000
O O7 0.007778 0.555249 0.791462
O O8 0.660664 0.179848 0.384609
O O9 0.338990 0.371619 0.077223
O O10 0.620804 0.206457 0.057409
O O11 0.510246 0.059308 0.867886
O O12 0.234286 0.130861 0.250509
O O13 0.477967 0.184003 0.572267
O O14 0.819781 0.321597 0.726567
O O15 0.000000 0.000000 0.500000
O O16 0.940338 0.143146 0.878602
O O17 0.191602 0.964482 0.171740
#
# Coordination Sequence:
#
# PCOD9017071 Si02
#       8
#     2   2   2   2   2   2   2   2
#     4  11  25  43  71 100 145 179 237 292 338 417
#     4  12  27  46  73 100 139 182 232 287 359 418
#     4  11  23  40  73 100 141 186 229 291 343 419
#     4  11  23  45  69 100 138 182 238 283 352 412
#     4  11  19  40  70 100 138 179 230 283 345 408
#     4  10  21  42  71 100 135 193 231 279 345 425
#     4  11  24  39  69 106 140 182 237 286 350 401
#     4  11  25  45  70 105 136 190 233 280 354 420
#
# _framework density 25.336880000000001
#
# number of rings (size 3 to 8) (size 9 to 14) (size 15 to 20)
#    0.000    1.000    5.000    3.375    5.250    3.000 
#    4.500    0.625    0.000    0.000    0.000    0.000 
#    0.000    0.000    0.000    0.000    0.000    0.000 
#
# Total GULP energy -89566.491245 kJ/mol
# GULP energy per Si atom -5597.905703 kJ/mol
# Density = 2.527921 g / cm^3
# Si number density = 25.336880 Si / 1000 Ang^3
#
#
#
# Elastic Constant Matrix: (Units=GPa)
#
#
# Indices 1 2 3 4 5 6 
#
# 1 65.8646 26.8801 27.7708 7.4923 12.6044 6.5485
# 2 26.8801 207.9995 48.9091 20.8474 6.1960 2.6724
# 3 27.7708 48.9091 139.2045 11.1112 29.7483 14.9774
# 4 7.4923 20.8474 11.1112 47.3054 -3.4637 0.8232
# 5 12.6044 6.1960 29.7483 -3.4637 28.2162 5.3150
# 6 6.5485 2.6724 14.9774 0.8232 5.3150 41.7590
#
#
#
# Elastic Compliance Matrix: (Units=1/GPa)
#
#
# Indices 1 2 3 4 5 6 
#
# 1 0.017997 -0.001572 -0.001367 -0.002271 -0.006270 -0.001388
# 2 -0.001572 0.005564 -0.001777 -0.001715 0.001064 0.000426
# 3 -0.001367 -0.001777 0.010644 -0.002201 -0.010084 -0.002163
# 4 -0.002271 -0.001715 -0.002201 0.023254 0.006574 -0.000040
# 5 -0.006270 0.001064 -0.010084 0.006574 0.049811 -0.001938
# 6 -0.001388 0.000426 -0.002163 -0.000040 -0.001938 0.025160
#
#
# Mechanical properties :
#
#
# Convention : Reuss Voigt Hill
#
# Bulk Modulus (GPa) = 40.36962 68.90984 54.63973
# Shear Modulus (GPa) = 33.30645 44.09001 38.69823
#
# Velocity S-wave (km/s) = 3.62960 4.17604 3.91237
# Velocity P-wave (km/s) = 5.79077 7.10696 6.48236
#
# Compressibility (1/GPa) = 0.02477110
#
# Stress axis : x y z
#
# Youngs Moduli (GPa) = 55.56468 179.74243 93.94699
#
# Poissons Ratio (x) = 0.28255 0.12847
# Poissons Ratio (y) = 0.08735 0.16698
# Poissons Ratio (z) = 0.07598 0.31948
#
# Static dielectric constant tensor:
#      x y z
#    x 2.078420 -0.031690 -0.014850 
#    y -0.031690 2.085490 0.037140 
#    z -0.014850 0.037140 1.958330 
# 
# From -- ./inp_files/316136.got.cif
#   From: 2010.05.17/outbox.cif.g08.bks.cpg/sg2_159_cif.got.tgz:316136.got - 2010.06.03 11:33:40.
