data_PCOD9017714
_publ_section_title
;
Structure prediction by ZEFSAII (Michael W. Deem and Ramdas Pophale) SiO2 
 PCOD9017714
Probable space group: P -1
;
_chemical_formula_sum "Si O2"
_cell_formula_units_Z 16
_cell_length_a 8.663868
_cell_length_b 6.779716
_cell_length_c 18.045430
_cell_angle_alpha 49.289004
_cell_angle_beta 127.854455
_cell_angle_gamma 107.150070
_cell_volume 624.479950
_symmetry_space_group_name_H-M "P -1"
_symmetry_group_IT_number 2
_symmetry_cell_setting 'triclinic'
loop_
_space_group_symop_operation_xyz
x,y,z
-x,-y,-z
loop_
_atom_site_type_symbol
_atom_site_label
_atom_site_fract_x
_atom_site_fract_y
_atom_site_fract_z
Si Si1 0.414313 0.318772 0.860389
Si Si2 0.776572 0.151639 0.402926
Si Si3 0.597042 0.762610 0.532677
Si Si4 0.233033 0.390666 0.110331
Si Si5 0.922307 0.663625 0.768079
Si Si6 0.863453 0.840987 0.301587
Si Si7 0.252339 0.500057 0.537104
Si Si8 0.666565 0.692610 0.998733
O O1 0.295778 0.625338 0.735314
O O2 0.638130 0.373993 0.903751
O O3 0.310391 0.163753 0.806453
O O4 0.375362 0.194403 0.958493
O O5 0.759395 0.321909 0.433644
O O6 0.648974 0.920326 0.437695
O O7 0.000000 0.000000 0.500000
O O8 0.444533 0.561425 0.538837
O O9 0.796961 0.630834 0.666443
O O10 0.500000 0.000000 0.500000
O O11 0.223515 0.276051 0.218425
O O12 0.328420 0.220881 0.108039
O O13 0.000000 0.500000 0.000000
O O14 0.099321 0.424567 0.894592
O O15 0.042670 0.900496 0.735790
O O16 0.769934 0.779123 0.366936
O O17 0.057606 0.613729 0.404402
O O18 0.500000 0.500000 0.000000
#
# Coordination Sequence:
#
# PCOD9017714 Si02
#       8
#     2   2   2   2   2   2   2   2
#     4  10  20  34  55  78 110 142 167 224 280 310
#     4  10  18  29  52  83 108 139 180 212 251 314
#     4  10  17  30  52  83 108 141 183 213 242 319
#     4   9  19  36  58  79  96 133 190 234 259 311
#     4  11  18  32  61  83 100 141 185 215 262 320
#     4  10  19  31  53  83 113 142 174 211 272 320
#     4   9  19  33  49  77 120 147 170 215 251 311
#     4   9  20  38  55  76 103 134 182 233 270 306
#
# _framework density 25.621320000000001
#
# number of rings (size 3 to 8) (size 9 to 14) (size 15 to 20)
#    0.000    2.250    2.500    3.000    0.000    0.000 
#    0.000    6.250    0.000   28.500    0.000    0.000 
#    0.000    0.000    0.000    0.000    0.000    0.000 
#
# Total GULP energy -89316.578982 kJ/mol
# GULP energy per Si atom -5582.286186 kJ/mol
# Density = 2.556301 g / cm^3
# Si number density = 25.621320 Si / 1000 Ang^3
#
#
#
# Elastic Constant Matrix: (Units=GPa)
#
#
# Indices 1 2 3 4 5 6 
#
# 1 183.2032 66.3955 48.7533 20.1037 -36.3805 24.6984
# 2 66.3955 92.1433 24.1017 7.0902 -13.9945 47.5770
# 3 48.7533 24.1017 129.5600 20.6346 7.4560 10.3000
# 4 20.1037 7.0902 20.6346 37.7656 8.0342 -2.7989
# 5 -36.3805 -13.9945 7.4560 8.0342 53.8499 12.5344
# 6 24.6984 47.5770 10.3000 -2.7989 12.5344 50.7638
#
#
#
# Elastic Compliance Matrix: (Units=1/GPa)
#
#
# Indices 1 2 3 4 5 6 
#
# 1 0.009823 -0.002775 -0.002475 -0.005344 0.007973 -0.003940
# 2 -0.002775 0.036163 -0.002048 -0.010794 0.018073 -0.037185
# 3 -0.002475 -0.002048 0.009493 -0.002579 -0.003586 0.001940
# 4 -0.005344 -0.010794 -0.002579 0.037629 -0.016167 0.019306
# 5 0.007973 0.018073 -0.003586 -0.016167 0.038668 -0.030529
# 6 -0.003940 -0.037185 0.001940 0.019306 -0.030529 0.064676
#
#
# Mechanical properties :
#
#
# Convention : Reuss Voigt Hill
#
# Bulk Modulus (GPa) = 24.45876 75.93418 50.19647
# Shear Modulus (GPa) = 22.25430 46.18627 34.22029
#
# Velocity S-wave (km/s) = 2.95037 4.25037 3.65858
# Velocity P-wave (km/s) = 4.60144 7.33410 6.12218
#
# Compressibility (1/GPa) = 0.04088515
#
# Stress axis : x y z
#
# Youngs Moduli (GPa) = 101.79778 27.65259 105.33592
#
# Poissons Ratio (x) = 0.07672 0.26069
# Poissons Ratio (y) = 0.28244 0.21573
# Poissons Ratio (z) = 0.25193 0.05663
#
# Static dielectric constant tensor:
#      x y z
#    x 2.080480 -0.132770 -0.008450 
#    y -0.132770 2.092330 -0.017450 
#    z -0.008450 -0.017450 2.073720 
# 
# From -- ./inp_files/292963.got.cif
#   From: 2010.05.17/outbox.cif.g08.bks.cpg/sg2_147_cif.got.tgz:292963.got - 2010.06.03 11:33:40.
