data_PCOD9017928
_publ_section_title
;
Structure prediction by ZEFSAII (Michael W. Deem and Ramdas Pophale) SiO2 
 PCOD9017928
Probable space group: P -1
;
_chemical_formula_sum "Si O2"
_cell_formula_units_Z 16
_cell_length_a 17.460258
_cell_length_b 8.220756
_cell_length_c 10.991963
_cell_angle_alpha 35.284023
_cell_angle_beta 53.490193
_cell_angle_gamma 51.180782
_cell_volume 697.807280
_symmetry_space_group_name_H-M "P -1"
_symmetry_group_IT_number 2
_symmetry_cell_setting 'triclinic'
loop_
_space_group_symop_operation_xyz
x,y,z
-x,-y,-z
loop_
_atom_site_type_symbol
_atom_site_label
_atom_site_fract_x
_atom_site_fract_y
_atom_site_fract_z
Si Si1 0.552302 0.796510 0.885230
Si Si2 0.419056 0.427395 0.282799
Si Si3 0.225022 0.893753 0.108167
Si Si4 0.363347 0.254946 0.685190
Si Si5 0.078858 0.164528 0.282339
Si Si6 0.723545 0.056648 0.603617
Si Si7 0.843940 0.641114 0.562526
Si Si8 0.988973 0.674428 0.211446
O O1 0.578726 0.688544 0.786285
O O2 0.453573 0.077196 0.794967
O O3 0.640965 0.889057 0.806373
O O4 0.514761 0.543356 0.137555
O O5 0.317773 0.706095 0.218898
O O6 0.408093 0.219835 0.528345
O O7 0.200833 0.631326 0.219414
O O8 0.123681 0.069731 0.165130
O O9 0.272868 0.114460 0.860361
O O10 0.324883 0.594716 0.553205
O O11 0.022339 0.506814 0.155330
O O12 0.180885 0.054370 0.331604
O O13 0.000000 0.000000 0.500000
O O14 0.767660 0.943800 0.497347
O O15 0.883379 0.675708 0.369042
O O16 0.934702 0.539692 0.634386
O O17 0.000000 0.000000 0.000000
#
# Coordination Sequence:
#
# PCOD9017928 Si02
#       8
#     2   2   2   2   2   2   2   2
#     4  10  22  42  68  94 132 169 212 264 323 380
#     4  10  21  43  67  94 131 170 209 265 321 386
#     4  11  22  42  64  92 131 172 216 259 320 384
#     4  11  24  40  65 101 128 167 221 260 316 386
#     4  11  23  43  68  92 128 177 214 264 328 377
#     4  11  23  42  64  95 133 169 208 272 321 376
#     4  10  22  42  62  88 130 170 207 268 326 374
#     4  10  23  41  64  92 122 163 223 270 319 376
#
# _framework density 22.928967
#
# number of rings (size 3 to 8) (size 9 to 14) (size 15 to 20)
#    0.000    1.500    3.750    0.750    1.750    2.500 
#    2.250    1.250    0.000    0.000    0.000    0.000 
#    0.000    0.000    0.000    0.000    0.000    0.000 
#
# Total GULP energy -89378.372441 kJ/mol
# GULP energy per Si atom -5586.148278 kJ/mol
# Density = 2.287678 g / cm^3
# Si number density = 22.928967 Si / 1000 Ang^3
#
#
#
# Elastic Constant Matrix: (Units=GPa)
#
#
# Indices 1 2 3 4 5 6 
#
# 1 80.2736 6.9965 21.2390 7.7901 -26.4212 -10.5984
# 2 6.9965 146.6194 27.2616 -9.5440 -9.0741 7.0847
# 3 21.2390 27.2616 82.8345 5.3427 -25.2287 4.6427
# 4 7.7901 -9.5440 5.3427 32.6435 -1.2737 -11.7751
# 5 -26.4212 -9.0741 -25.2287 -1.2737 33.6249 -5.4688
# 6 -10.5984 7.0847 4.6427 -11.7751 -5.4688 19.0440
#
#
#
# Elastic Compliance Matrix: (Units=1/GPa)
#
#
# Indices 1 2 3 4 5 6 
#
# 1 0.021386 -0.000460 -0.000672 0.002649 0.019440 0.019457
# 2 -0.000460 0.007497 -0.002539 0.002310 -0.000333 -0.001094
# 3 -0.000672 -0.002539 0.016770 -0.003941 0.010754 -0.002867
# 4 0.002649 0.002310 -0.003941 0.042170 0.006129 0.029410
# 5 0.019440 -0.000333 0.010754 0.006129 0.057900 0.028738
# 6 0.019457 -0.001094 -0.002867 0.029410 0.028738 0.090881
#
#
# Mechanical properties :
#
#
# Convention : Reuss Voigt Hill
#
# Bulk Modulus (GPa) = 26.10231 46.74689 36.42460
# Shear Modulus (GPa) = 19.47673 34.01118 26.74396
#
# Velocity S-wave (km/s) = 2.91767 3.85558 3.41894
# Velocity P-wave (km/s) = 4.77065 6.34449 5.61301
#
# Compressibility (1/GPa) = 0.03831078
#
# Stress axis : x y z
#
# Youngs Moduli (GPa) = 46.75985 133.38857 59.62946
#
# Poissons Ratio (x) = 0.06137 0.04010
# Poissons Ratio (y) = 0.02151 0.15137
# Poissons Ratio (z) = 0.03144 0.33861
#
# Static dielectric constant tensor:
#      x y z
#    x 1.889860 0.018200 0.029270 
#    y 0.018200 1.920120 0.039520 
#    z 0.029270 0.039520 1.844030 
# 
# From -- ./inp_files/49355.got.cif
#   From: 2010.05.17/outbox.cif.g08.bks.cpg/sg2_25_cif.got.tgz:49355.got - 2010.06.03 11:33:40.
