data_PCOD9017141
_publ_section_title
;
Structure prediction by ZEFSAII (Michael W. Deem and Ramdas Pophale) SiO2 
 PCOD9017141
Probable space group: P -1
;
_chemical_formula_sum "Si O2"
_cell_formula_units_Z 16
_cell_length_a 8.232930
_cell_length_b 10.604430
_cell_length_c 18.430975
_cell_angle_alpha 144.885884
_cell_angle_beta 136.295024
_cell_angle_gamma 59.279455
_cell_volume 626.271791
_symmetry_space_group_name_H-M "P -1"
_symmetry_group_IT_number 2
_symmetry_cell_setting 'triclinic'
loop_
_space_group_symop_operation_xyz
x,y,z
-x,-y,-z
loop_
_atom_site_type_symbol
_atom_site_label
_atom_site_fract_x
_atom_site_fract_y
_atom_site_fract_z
Si Si1 0.585175 0.767125 0.643218
Si Si2 0.936138 0.043025 0.311748
Si Si3 0.166506 0.650125 0.183127
Si Si4 0.500488 0.204730 0.204181
Si Si5 0.882773 0.178500 0.145533
Si Si6 0.667252 0.560801 0.326325
Si Si7 0.394307 0.176805 0.768892
Si Si8 0.134814 0.547093 0.871259
O O1 0.500000 0.500000 0.500000
O O2 0.568026 0.839339 0.755397
O O3 0.861549 0.809637 0.729212
O O4 0.438240 0.940069 0.638679
O O5 0.741265 0.106013 0.224527
O O6 0.089508 0.261070 0.501708
O O7 0.772259 0.892875 0.247458
O O8 0.118867 0.897529 0.274371
O O9 0.444210 0.645959 0.260510
O O10 0.075056 0.559768 0.191240
O O11 0.000000 0.500000 0.000000
O O12 0.574998 0.463795 0.330186
O O13 0.276493 0.069072 0.024338
O O14 0.721647 0.343048 0.202541
O O15 0.935637 0.283092 0.130327
O O16 0.244221 0.355587 0.772813
O O17 0.650085 0.318355 0.945327
#
# Coordination Sequence:
#
# PCOD9017141 Si02
#       8
#     2   2   2   2   2   2   2   2
#     4  11  23  41  64  96 135 168 214 268 326 388
#     4  10  21  45  65  92 133 168 213 271 325 383
#     4  11  25  43  68  96 129 168 219 264 326 391
#     4  11  23  44  64  93 131 171 219 270 320 384
#     4  12  23  41  67  96 128 170 224 266 314 391
#     4  12  26  41  64  96 135 173 212 267 334 382
#     4   9  20  39  69  90 125 160 218 260 326 362
#     4  10  21  42  71  94 122 167 219 276 310 376
#
# _framework density 25.548013999999998
#
# number of rings (size 3 to 8) (size 9 to 14) (size 15 to 20)
#    0.000    1.250    2.500    4.500    5.250    0.000 
#    2.250    6.875    0.000    0.000    0.000    0.000 
#    0.000    0.000    0.000    0.000    0.000    0.000 
#
# Total GULP energy -89509.817909 kJ/mol
# GULP energy per Si atom -5594.363619 kJ/mol
# Density = 2.548987 g / cm^3
# Si number density = 25.548014 Si / 1000 Ang^3
#
#
#
# Elastic Constant Matrix: (Units=GPa)
#
#
# Indices 1 2 3 4 5 6 
#
# 1 88.5088 64.6305 30.4473 7.6435 49.7830 -26.1709
# 2 64.6305 590.9927 379.2612 229.4938 496.0333 -53.5469
# 3 30.4473 379.2612 374.2335 180.2229 399.3417 -37.3227
# 4 7.6435 229.4938 180.2229 127.1970 210.3772 -20.3840
# 5 49.7830 496.0333 399.3417 210.3772 529.5071 -33.3262
# 6 -26.1709 -53.5469 -37.3227 -20.3840 -33.3262 50.3888
#
#
#
# Elastic Compliance Matrix: (Units=1/GPa)
#
#
# Indices 1 2 3 4 5 6 
#
# 1 0.015714 -0.002820 0.000823 0.007287 -0.001881 0.007478
# 2 -0.002820 0.011275 0.002329 -0.009825 -0.007961 0.003002
# 3 0.000823 0.002329 0.017058 -0.009213 -0.011186 0.004412
# 4 0.007287 -0.009825 -0.009213 0.037159 0.000836 0.002105
# 5 -0.001881 -0.007961 -0.011186 0.000836 0.017252 -0.005975
# 6 0.007478 0.003002 0.004412 0.002105 -0.005975 0.027088
#
#
# Mechanical properties :
#
#
# Convention : Reuss Voigt Hill
#
# Bulk Modulus (GPa) = 22.36543 222.49032 122.42788
# Shear Modulus (GPa) = 35.76893 180.04497 107.90695
#
# Velocity S-wave (km/s) = 3.74581 8.40394 6.50604
# Velocity P-wave (km/s) = 5.24227 13.47013 10.22071
#
# Compressibility (1/GPa) = 0.04471186
#
# Stress axis : x y z
#
# Youngs Moduli (GPa) = 63.63602 88.69016 58.62407
#
# Poissons Ratio (x) = 0.25014 -0.04826
# Poissons Ratio (y) = 0.17948 -0.13656
# Poissons Ratio (z) = -0.05238 -0.20660
#
# Static dielectric constant tensor:
#      x y z
#    x 2.060470 0.031790 -0.077110 
#    y 0.031790 2.076560 0.019490 
#    z -0.077110 0.019490 2.038630 
# 
# From -- ./inp_files/418971.got.cif
#   From: 2010.05.17/outbox.cif.g08.bks.cpg/sg2_210_cif.got.tgz:418971.got - 2010.06.03 11:33:40.
