data_PCOD9017325
_publ_section_title
;
Structure prediction by ZEFSAII (Michael W. Deem and Ramdas Pophale) SiO2 
 PCOD9017325
Probable space group: P -1
;
_chemical_formula_sum "Si O2"
_cell_formula_units_Z 14
_cell_length_a 9.799935
_cell_length_b 12.092547
_cell_length_c 10.046475
_cell_angle_alpha 94.941344
_cell_angle_beta 63.555787
_cell_angle_gamma 142.536046
_cell_volume 564.913789
_symmetry_space_group_name_H-M "P -1"
_symmetry_group_IT_number 2
_symmetry_cell_setting 'triclinic'
loop_
_space_group_symop_operation_xyz
x,y,z
-x,-y,-z
loop_
_atom_site_type_symbol
_atom_site_label
_atom_site_fract_x
_atom_site_fract_y
_atom_site_fract_z
Si Si1 0.366613 0.956807 0.731033
Si Si2 0.942907 0.233528 0.525886
Si Si3 0.594292 0.429055 0.457987
Si Si4 0.939950 0.930100 0.173574
Si Si5 0.462570 0.779481 0.770483
Si Si6 0.795250 0.698576 0.819035
Si Si7 0.412603 0.068747 0.001223
O O1 0.684515 0.135104 0.548214
O O2 0.461942 0.096242 0.825760
O O3 0.293502 0.785942 0.794129
O O4 0.080871 0.829768 0.781239
O O5 0.089485 0.387312 0.598626
O O6 0.196221 0.354443 0.331545
O O7 0.785022 0.025961 0.627987
O O8 0.500000 0.500000 0.500000
O O9 0.369133 0.242785 0.645747
O O10 0.580062 0.352787 0.317800
O O11 0.140688 0.132562 0.196603
O O12 0.000000 0.000000 0.000000
O O13 0.074264 0.891159 0.132261
O O14 0.424572 0.754097 0.943713
O O15 0.500000 0.500000 0.000000
O O16 0.500000 0.000000 0.000000
#
# Coordination Sequence:
#
# PCOD9017325 Si02
#       7
#     2   2   2   2   2   2   2
#     4   9  21  46  71  99 149 189 247 308 366 447
#     4  10  23  43  71  99 143 195 240 300 373 438
#     4  12  26  44  73 112 149 195 256 304 371 453
#     4  12  24  44  72 105 156 191 244 317 375 434
#     4   9  22  45  71 101 142 198 244 301 362 439
#     4  12  24  45  71 108 146 192 244 312 380 440
#     4  10  21  42  73  99 141 203 239 296 375 434
#
# _framework density 24.782543
#
# number of rings (size 3 to 8) (size 9 to 14) (size 15 to 20)
#    0.857    0.571    2.857    2.143    2.000    1.143 
#    2.571    2.143    0.000    0.000    0.000    0.000 
#    0.000    0.000    0.000    0.000    0.000    0.000 
#
# Total GULP energy -78036.872479 kJ/mol
# GULP energy per Si atom -5574.062320 kJ/mol
# Density = 2.472614 g / cm^3
# Si number density = 24.782543 Si / 1000 Ang^3
#
#
#
# Elastic Constant Matrix: (Units=GPa)
#
#
# Indices 1 2 3 4 5 6 
#
# 1 114.4875 20.9622 13.6305 3.5960 -27.4215 5.9800
# 2 20.9622 159.6821 46.7825 20.6298 -12.0656 0.7857
# 3 13.6305 46.7825 111.6208 10.6375 -14.7865 1.6727
# 4 3.5960 20.6298 10.6375 51.5562 1.1851 -6.7990
# 5 -27.4215 -12.0656 -14.7865 1.1851 33.5188 1.5653
# 6 5.9800 0.7857 1.6727 -6.7990 1.5653 26.0848
#
#
#
# Elastic Compliance Matrix: (Units=1/GPa)
#
#
# Indices 1 2 3 4 5 6 
#
# 1 0.011277 -0.000691 0.000318 -0.001248 0.009323 -0.003469
# 2 -0.000691 0.007552 -0.002687 -0.002526 0.001086 -0.000620
# 3 0.000318 -0.002687 0.010752 -0.001433 0.004148 -0.001304
# 4 -0.001248 -0.002526 -0.001433 0.021708 -0.003625 0.006330
# 5 0.009323 0.001086 0.004148 -0.003625 0.040080 -0.005786
# 6 -0.003469 -0.000620 -0.001304 0.006330 -0.005786 0.041231
#
#
# Mechanical properties :
#
#
# Convention : Reuss Voigt Hill
#
# Bulk Modulus (GPa) = 42.62288 60.94898 51.78593
# Shear Modulus (GPa) = 34.12070 42.52629 38.32349
#
# Velocity S-wave (km/s) = 3.71456 4.14693 3.93668
# Velocity P-wave (km/s) = 5.96937 6.89756 6.45018
#
# Compressibility (1/GPa) = 0.02346158
#
# Stress axis : x y z
#
# Youngs Moduli (GPa) = 88.67902 132.41932 93.00873
#
# Poissons Ratio (x) = 0.09149 -0.02962
# Poissons Ratio (y) = 0.06127 0.24990
# Poissons Ratio (z) = -0.02824 0.35579
#
# Static dielectric constant tensor:
#      x y z
#    x 2.039580 0.019840 0.027900 
#    y 0.019840 1.972340 0.058070 
#    z 0.027900 0.058070 2.026670 
# 
# From -- ./inp_files/434121.got.cif
#   From: 2010.05.17/outbox.cif.g08.bks.cpg/sg2_218_cif.got.tgz:434121.got - 2010.06.03 11:33:40.
