data_PCOD9017350
_publ_section_title
;
Structure prediction by ZEFSAII (Michael W. Deem and Ramdas Pophale) SiO2 
 PCOD9017350
Probable space group: P -1
;
_chemical_formula_sum "Si O2"
_cell_formula_units_Z 14
_cell_length_a 7.035566
_cell_length_b 7.108404
_cell_length_c 15.382364
_cell_angle_alpha 69.312602
_cell_angle_beta 129.568918
_cell_angle_gamma 94.218809
_cell_volume 542.407609
_symmetry_space_group_name_H-M "P -1"
_symmetry_group_IT_number 2
_symmetry_cell_setting 'triclinic'
loop_
_space_group_symop_operation_xyz
x,y,z
-x,-y,-z
loop_
_atom_site_type_symbol
_atom_site_label
_atom_site_fract_x
_atom_site_fract_y
_atom_site_fract_z
Si Si1 0.104328 0.433940 0.418313
Si Si2 0.330254 0.297651 0.055573
Si Si3 0.896662 0.095490 0.234857
Si Si4 0.796424 0.299717 0.926850
Si Si5 0.831655 0.212605 0.493423
Si Si6 0.696984 0.754359 0.147511
Si Si7 0.710532 0.637094 0.704231
O O1 0.198819 0.573106 0.495439
O O2 0.278117 0.387461 0.392622
O O3 0.036655 0.237163 0.477091
O O4 0.845800 0.569510 0.280538
O O5 0.269319 0.516081 0.051317
O O6 0.620351 0.194710 0.175090
O O7 0.316026 0.311915 0.944494
O O8 0.092840 0.200780 0.031928
O O9 0.845715 0.936796 0.172830
O O10 0.064409 0.961800 0.379099
O O11 0.056817 0.256782 0.223272
O O12 0.581531 0.174396 0.904595
O O13 0.744933 0.422517 0.800232
O O14 0.556747 0.218241 0.374277
#
# Coordination Sequence:
#
# PCOD9017350 Si02
#       7
#     2   2   2   2   2   2   2
#     4  10  21  42  74  96 129 178 227 272 322 393
#     4  11  25  46  68 101 135 175 224 279 325 403
#     4  11  27  43  66 101 144 173 210 279 350 383
#     4  11  25  42  75  97 127 181 234 265 328 395
#     4  10  23  45  67  99 133 176 223 271 333 396
#     4  11  22  47  68  99 136 177 220 277 329 398
#     4  12  23  44  67 104 130 173 228 277 322 399
#
# _framework density 25.810848
#
# number of rings (size 3 to 8) (size 9 to 14) (size 15 to 20)
#    0.000    1.143    2.857    2.571    4.000    1.143 
#    5.143    0.000    0.000    0.000    0.000    0.000 
#    0.000    0.000    0.000    0.000    0.000    0.000 
#
# Total GULP energy -78480.006004 kJ/mol
# GULP energy per Si atom -5605.714715 kJ/mol
# Density = 2.575210 g / cm^3
# Si number density = 25.810848 Si / 1000 Ang^3
#
#
#
# Elastic Constant Matrix: (Units=GPa)
#
#
# Indices 1 2 3 4 5 6 
#
# 1 141.3285 9.6372 37.8424 11.8856 8.5801 1.5648
# 2 9.6372 46.8719 -5.8685 19.4666 -3.1450 3.6391
# 3 37.8424 -5.8685 80.7232 -17.9236 14.5821 8.4919
# 4 11.8856 19.4666 -17.9236 41.3443 -6.2892 4.6049
# 5 8.5801 -3.1450 14.5821 -6.2892 65.3326 2.2384
# 6 1.5648 3.6391 8.4919 4.6049 2.2384 35.6684
#
#
#
# Elastic Compliance Matrix: (Units=1/GPa)
#
#
# Indices 1 2 3 4 5 6 
#
# 1 0.009000 -0.000661 -0.005429 -0.004892 -0.000529 0.001630
# 2 -0.000661 0.026663 -0.000457 -0.012403 0.000313 -0.001001
# 3 -0.005429 -0.000457 0.018021 0.009824 -0.002209 -0.005135
# 4 -0.004892 -0.012403 0.009824 0.036563 0.001567 -0.005678
# 5 -0.000529 0.000313 -0.002209 0.001567 0.016058 -0.000693
# 6 0.001630 -0.001001 -0.005135 -0.005678 -0.000693 0.030066
#
#
# Mechanical properties :
#
#
# Convention : Reuss Voigt Hill
#
# Bulk Modulus (GPa) = 24.63661 39.12730 31.88196
# Shear Modulus (GPa) = 30.67572 43.62324 37.14948
#
# Velocity S-wave (km/s) = 3.45118 4.11556 3.79792
# Velocity P-wave (km/s) = 5.04446 6.14621 5.62239
#
# Compressibility (1/GPa) = 0.04058999
#
# Stress axis : x y z
#
# Youngs Moduli (GPa) = 111.11146 37.50465 55.49188
#
# Poissons Ratio (x) = 0.02477 0.30128
# Poissons Ratio (y) = 0.07339 0.02537
# Poissons Ratio (z) = 0.60326 0.01715
#
# Static dielectric constant tensor:
#      x y z
#    x 2.011370 0.009120 0.016570 
#    y 0.009120 2.076410 0.026030 
#    z 0.016570 0.026030 1.973510 
# 
# From -- ./inp_files/480373.got.cif
#   From: 2010.05.17/outbox.cif.g08.bks.cpg/sg2_241_cif.got.tgz:480373.got - 2010.06.03 11:33:40.
