data_PCOD9017736
_publ_section_title
;
Structure prediction by ZEFSAII (Michael W. Deem and Ramdas Pophale) SiO2 
 PCOD9017736
Probable space group: P -1
;
_chemical_formula_sum "Si O2"
_cell_formula_units_Z 16
_cell_length_a 8.278750
_cell_length_b 7.766509
_cell_length_c 21.169412
_cell_angle_alpha 117.521352
_cell_angle_beta 136.340102
_cell_angle_gamma 55.820529
_cell_volume 773.690055
_symmetry_space_group_name_H-M "P -1"
_symmetry_group_IT_number 2
_symmetry_cell_setting 'triclinic'
loop_
_space_group_symop_operation_xyz
x,y,z
-x,-y,-z
loop_
_atom_site_type_symbol
_atom_site_label
_atom_site_fract_x
_atom_site_fract_y
_atom_site_fract_z
Si Si1 0.008272 0.000791 0.353675
Si Si2 0.862802 0.005296 0.870444
Si Si3 0.648567 0.013113 0.673151
Si Si4 0.464189 0.836900 0.011689
Si Si5 0.507784 0.872695 0.830949
Si Si6 0.281066 0.497787 0.071568
Si Si7 0.236087 0.290967 0.534527
Si Si8 0.411039 0.727437 0.487494
O O1 0.144716 0.000218 0.324888
O O2 0.112652 0.124437 0.453965
O O3 0.714816 0.102601 0.276435
O O4 0.128988 0.783101 0.388198
O O5 0.750624 0.258782 0.892624
O O6 0.780537 0.977392 0.771389
O O7 0.749804 0.877797 0.863351
O O8 0.164240 0.908721 0.946984
O O9 0.507536 0.856842 0.587882
O O10 0.413635 0.235464 0.636675
O O11 0.597101 0.611202 0.978887
O O12 0.500000 0.000000 0.000000
O O13 0.577984 0.906297 0.117281
O O14 0.565778 0.670492 0.858774
O O15 0.000000 0.500000 0.000000
O O16 0.427257 0.269769 0.528077
O O17 0.000000 0.500000 0.500000
O O18 0.500000 0.500000 0.500000
#
# Coordination Sequence:
#
# PCOD9017736 Si02
#       8
#     2   2   2   2   2   2   2   2
#     4   9  20  40  60  84 125 163 200 255 316 365
#     4  12  24  43  64  96 130 162 217 264 309 381
#     4   9  20  39  60  85 123 164 199 257 316 365
#     4  10  21  43  66  89 129 164 202 268 310 366
#     4  11  24  42  63  96 128 160 217 265 307 381
#     4  11  24  43  69  91 123 177 209 250 333 373
#     4   9  19  35  59  84 115 162 200 247 308 373
#     4   9  19  39  61  87 122 159 206 253 312 372
#
# _framework density 20.680116000000002
#
# number of rings (size 3 to 8) (size 9 to 14) (size 15 to 20)
#    0.000    2.000    2.500    3.375    1.750    2.500 
#    6.750    2.500    0.000    0.000    0.000    0.000 
#    0.000    0.000    0.000    0.000    0.000    0.000 
#
# Total GULP energy -89085.312065 kJ/mol
# GULP energy per Si atom -5567.832004 kJ/mol
# Density = 2.063305 g / cm^3
# Si number density = 20.680116 Si / 1000 Ang^3
#
#
#
# Elastic Constant Matrix: (Units=GPa)
#
#
# Indices 1 2 3 4 5 6 
#
# 1 32.2513 -2.2385 -8.5912 4.5710 16.4496 2.1152
# 2 -2.2385 58.7857 -4.7414 -5.3258 1.3792 -4.5778
# 3 -8.5912 -4.7414 61.6124 -8.7484 6.1650 4.0617
# 4 4.5710 -5.3258 -8.7484 27.4483 -8.8099 -1.4523
# 5 16.4496 1.3792 6.1650 -8.8099 31.8824 -3.2855
# 6 2.1152 -4.5778 4.0617 -1.4523 -3.2855 28.1166
#
#
#
# Elastic Compliance Matrix: (Units=1/GPa)
#
#
# Indices 1 2 3 4 5 6 
#
# 1 0.055771 0.001276 0.009659 -0.018357 -0.036867 -0.010639
# 2 0.001276 0.017785 0.001966 0.003855 -0.000468 0.002660
# 3 0.009659 0.001966 0.019131 0.001871 -0.008672 -0.004087
# 4 -0.018357 0.003855 0.001871 0.048613 0.023092 0.006948
# 5 -0.036867 -0.000468 -0.008672 0.023092 0.059713 0.012120
# 6 -0.010639 0.002660 -0.004087 0.006948 0.012120 0.039165
#
#
# Mechanical properties :
#
#
# Convention : Reuss Voigt Hill
#
# Bulk Modulus (GPa) = 8.43963 13.50083 10.97023
# Shear Modulus (GPa) = 19.69470 28.70417 24.19944
#
# Velocity S-wave (km/s) = 3.08936 3.72964 3.42450
# Velocity P-wave (km/s) = 4.10067 5.00895 4.57739
#
# Compressibility (1/GPa) = 0.11848857
#
# Stress axis : x y z
#
# Youngs Moduli (GPa) = 17.93035 56.22567 52.27023
#
# Poissons Ratio (x) = -0.07175 -0.50486
# Poissons Ratio (y) = -0.02288 -0.10274
# Poissons Ratio (z) = -0.17318 -0.11051
#
# Static dielectric constant tensor:
#      x y z
#    x 1.763230 -0.049700 -0.008050 
#    y -0.049700 0.878700 0.304380 
#    z -0.008050 0.304380 1.627380 
# 
# From -- ./inp_files/356535.got.cif
#   From: 2010.05.17/outbox.cif.g08.bks.cpg/sg2_179_cif.got.tgz:356535.got - 2010.06.03 11:33:40.
