data_PCOD9017005
_publ_section_title
;
Structure prediction by ZEFSAII (Michael W. Deem and Ramdas Pophale) SiO2 
 PCOD9017005
Probable space group: P -1
;
_chemical_formula_sum "Si O2"
_cell_formula_units_Z 16
_cell_length_a 5.349496
_cell_length_b 5.163313
_cell_length_c 23.729507
_cell_angle_alpha 107.347360
_cell_angle_beta 86.650226
_cell_angle_gamma 94.312900
_cell_volume 623.404691
_symmetry_space_group_name_H-M "P -1"
_symmetry_group_IT_number 2
_symmetry_cell_setting 'triclinic'
loop_
_space_group_symop_operation_xyz
x,y,z
-x,-y,-z
loop_
_atom_site_type_symbol
_atom_site_label
_atom_site_fract_x
_atom_site_fract_y
_atom_site_fract_z
Si Si1 0.614915 0.119617 0.659840
Si Si2 0.207645 0.661599 0.629842
Si Si3 0.511353 0.195318 0.957816
Si Si4 0.996929 0.032295 0.069685
Si Si5 0.101828 0.065623 0.258249
Si Si6 0.010078 0.080716 0.569757
Si Si7 0.532372 0.444971 0.229597
Si Si8 0.953708 0.450963 0.830475
O O1 0.843007 0.124603 0.701650
O O2 0.743011 0.174791 0.602082
O O3 0.445129 0.330409 0.706337
O O4 0.476831 0.822415 0.640950
O O5 0.195710 0.345084 0.595228
O O6 0.063620 0.720172 0.694197
O O7 0.079667 0.826140 0.591088
O O8 0.270295 0.107057 0.918276
O O9 0.769710 0.126018 0.920754
O O10 0.500000 0.500000 0.000000
O O11 0.500000 0.000000 0.000000
O O12 0.031747 0.349745 0.103563
O O13 0.000000 0.000000 0.000000
O O14 0.995525 0.866461 0.197917
O O15 0.369948 0.192138 0.242067
O O16 0.000000 0.000000 0.500000
O O17 0.807464 0.414939 0.199444
O O18 0.329047 0.525539 0.189362
#
# Coordination Sequence:
#
# PCOD9017005 Si02
#       8
#     2   2   2   2   2   2   2   2
#     4  10  23  38  66  93 132 182 231 288 354 422
#     4  11  23  41  69  92 133 183 233 290 353 421
#     4  10  21  42  70  95 130 181 227 274 333 413
#     4  10  22  44  68  98 140 180 233 287 356 429
#     4  10  23  39  65  95 134 177 232 291 355 417
#     4  11  25  42  63 100 138 179 234 293 352 422
#     4  11  23  41  67  99 137 177 239 294 356 425
#     4  11  24  43  65 102 137 179 234 294 363 422
#
# _framework density 25.665509
#
# number of rings (size 3 to 8) (size 9 to 14) (size 15 to 20)
#    0.000    1.500    2.500    1.500    3.500    1.000 
#   13.500    0.000    0.000    0.000    0.000    0.000 
#    0.000    0.000    0.000    0.000    0.000    0.000 
#
# Total GULP energy -89470.418745 kJ/mol
# GULP energy per Si atom -5591.901172 kJ/mol
# Density = 2.560709 g / cm^3
# Si number density = 25.665509 Si / 1000 Ang^3
#
#
#
# Elastic Constant Matrix: (Units=GPa)
#
#
# Indices 1 2 3 4 5 6 
#
# 1 136.5193 27.2712 21.2150 10.0722 6.9981 14.8906
# 2 27.2712 116.9624 35.1276 31.5899 1.3743 19.5139
# 3 21.2150 35.1276 174.7173 33.3039 5.4045 11.8687
# 4 10.0722 31.5899 33.3039 41.3658 7.8222 8.0822
# 5 6.9981 1.3743 5.4045 7.8222 26.7990 6.6496
# 6 14.8906 19.5139 11.8687 8.0822 6.6496 45.2553
#
#
#
# Elastic Compliance Matrix: (Units=1/GPa)
#
#
# Indices 1 2 3 4 5 6 
#
# 1 0.007945 -0.001456 -0.000558 0.000243 -0.001547 -0.001656
# 2 -0.001456 0.011784 -0.000499 -0.008154 0.003118 -0.003473
# 3 -0.000558 -0.000499 0.006866 -0.004972 0.000379 -0.000570
# 4 0.000243 -0.008154 -0.004972 0.036140 -0.009098 -0.000377
# 5 -0.001547 0.003118 0.000379 -0.009098 0.041479 -0.005405
# 6 -0.001656 -0.003473 -0.000570 -0.000377 -0.005405 0.025150
#
#
# Mechanical properties :
#
#
# Convention : Reuss Voigt Hill
#
# Bulk Modulus (GPa) = 46.36046 66.15851 56.25949
# Shear Modulus (GPa) = 35.31601 45.65638 40.48620
#
# Velocity S-wave (km/s) = 3.71349 4.22228 3.97603
# Velocity P-wave (km/s) = 6.04063 7.04296 6.56096
#
# Compressibility (1/GPa) = 0.02157010
#
# Stress axis : x y z
#
# Youngs Moduli (GPa) = 125.87280 84.85939 145.64088
#
# Poissons Ratio (x) = 0.12355 0.08125
# Poissons Ratio (y) = 0.18326 0.07262
# Poissons Ratio (z) = 0.07022 0.04231
#
# Static dielectric constant tensor:
#      x y z
#    x 2.173310 -0.072510 0.009300 
#    y -0.072510 2.079000 -0.029170 
#    z 0.009300 -0.029170 1.971400 
# 
# From -- ./inp_files/12402.got.cif
#   From: 2010.05.17/outbox.cif.g08.bks.cpg/sg2_7_cif.got.tgz:12402.got - 2010.06.03 11:33:40.
