data_PCOD9017882
_publ_section_title
;
Structure prediction by ZEFSAII (Michael W. Deem and Ramdas Pophale) SiO2 
 PCOD9017882
Probable space group: P -1
;
_chemical_formula_sum "Si O2"
_cell_formula_units_Z 15
_cell_length_a 9.912488
_cell_length_b 9.790190
_cell_length_c 12.063250
_cell_angle_alpha 117.170332
_cell_angle_beta 82.417790
_cell_angle_gamma 137.157579
_cell_volume 667.193374
_symmetry_space_group_name_H-M "P -1"
_symmetry_group_IT_number 2
_symmetry_cell_setting 'triclinic'
loop_
_space_group_symop_operation_xyz
x,y,z
-x,-y,-z
loop_
_atom_site_type_symbol
_atom_site_label
_atom_site_fract_x
_atom_site_fract_y
_atom_site_fract_z
Si Si1 0.489302 0.063260 0.290892
Si Si2 0.839590 0.473746 0.567987
Si Si3 0.000000 0.500000 0.000000
Si Si4 0.679848 0.356542 0.158270
Si Si5 0.895078 0.110369 0.629516
Si Si6 0.735679 0.412484 0.800491
Si Si7 0.071499 0.956215 0.634264
Si Si8 0.483536 0.484227 0.865045
O O1 0.625808 0.268784 0.445037
O O2 0.576484 0.172549 0.200684
O O3 0.251299 0.922199 0.281407
O O4 0.468377 0.865262 0.245751
O O5 0.813981 0.410375 0.675239
O O6 0.000000 0.500000 0.500000
O O7 0.943981 0.730053 0.639804
O O8 0.792022 0.358695 0.049473
O O9 0.097992 0.468740 0.075642
O O10 0.523322 0.352025 0.125478
O O11 0.874003 0.618085 0.288384
O O12 0.835036 0.053898 0.486313
O O13 0.909416 0.946096 0.604439
O O14 0.666564 0.525869 0.823675
O O15 0.261529 0.212659 0.761455
O O16 0.500000 0.500000 0.000000
#
# Coordination Sequence:
#
# PCOD9017882 Si02
#       8
#     2   2   1   2   2   2   2   2
#     4  12  24  43  77 103 136 188 233 290 355 423
#     4  12  24  43  70 106 142 179 233 299 356 413
#     4  12  24  48  68  98 142 188 234 290 338 426
#     4  11  24  46  74 101 145 181 238 292 348 419
#     4  10  21  43  67 106 137 179 233 289 348 418
#     4  12  26  44  71 103 142 187 240 285 353 418
#     4  10  22  41  69  99 147 178 225 297 352 406
#     4  11  24  47  67 102 141 188 234 288 345 426
#
# _framework density 22.482237000000001
#
# number of rings (size 3 to 8) (size 9 to 14) (size 15 to 20)
#    0.000    0.800    4.000    3.600    1.867    1.067 
#    2.400    0.667    0.000    0.000    0.000    0.000 
#    0.000    0.000    0.000    0.000    0.000    0.000 
#
# Total GULP energy -83652.078437 kJ/mol
# GULP energy per Si atom -5576.805229 kJ/mol
# Density = 2.243107 g / cm^3
# Si number density = 22.482237 Si / 1000 Ang^3
#
#
#
# Elastic Constant Matrix: (Units=GPa)
#
#
# Indices 1 2 3 4 5 6 
#
# 1 102.9225 31.7891 8.7142 -22.4873 -4.2917 -2.4138
# 2 31.7891 107.4653 24.9070 -36.2435 -0.7054 -17.2410
# 3 8.7142 24.9070 77.2089 -37.4358 6.4583 2.5065
# 4 -22.4873 -36.2435 -37.4358 46.2018 3.6936 2.6061
# 5 -4.2917 -0.7054 6.4583 3.6936 42.3521 -3.4957
# 6 -2.4138 -17.2410 2.5065 2.6061 -3.4957 22.8545
#
#
#
# Elastic Compliance Matrix: (Units=1/GPa)
#
#
# Indices 1 2 3 4 5 6 
#
# 1 0.011423 -0.002175 0.002201 0.005695 0.000182 -0.001298
# 2 -0.002175 0.014944 0.000015 0.010123 -0.000041 0.009882
# 3 0.002201 0.000015 0.023465 0.020861 -0.005634 -0.005570
# 4 0.005695 0.010123 0.020861 0.049852 -0.006848 -0.000782
# 5 0.000182 -0.000041 -0.005634 -0.006848 0.025522 0.005291
# 6 -0.001298 0.009882 -0.005570 -0.000782 0.005291 0.052582
#
#
# Mechanical properties :
#
#
# Convention : Reuss Voigt Hill
#
# Bulk Modulus (GPa) = 20.03419 46.49083 33.26251
# Shear Modulus (GPa) = 25.72742 37.09411 31.41076
#
# Velocity S-wave (km/s) = 3.38649 4.06634 3.74188
# Velocity P-wave (km/s) = 4.92154 6.53993 5.78758
#
# Compressibility (1/GPa) = 0.04991466
#
# Stress axis : x y z
#
# Youngs Moduli (GPa) = 87.54192 66.91504 42.61597
#
# Poissons Ratio (x) = 0.14556 -0.09379
# Poissons Ratio (y) = 0.19043 -0.00066
# Poissons Ratio (z) = -0.19266 -0.00103
#
# Static dielectric constant tensor:
#      x y z
#    x 2.021630 0.063190 0.061010 
#    y 0.063190 1.863020 0.132540 
#    z 0.061010 0.132540 2.022960 
# 
# From -- ./inp_files/379956.got.cif
#   From: 2010.05.17/outbox.cif.g08.bks.cpg/sg2_190_cif.got.tgz:379956.got - 2010.06.03 11:33:40.
