data_PCOD9017589
_publ_section_title
;
Structure prediction by ZEFSAII (Michael W. Deem and Ramdas Pophale) SiO2 
 PCOD9017589
Probable space group: P -1
;
_chemical_formula_sum "Si O2"
_cell_formula_units_Z 16
_cell_length_a 12.062470
_cell_length_b 15.208485
_cell_length_c 5.342583
_cell_angle_alpha 52.900323
_cell_angle_beta 104.126553
_cell_angle_gamma 83.320867
_cell_volume 712.723214
_symmetry_space_group_name_H-M "P -1"
_symmetry_group_IT_number 2
_symmetry_cell_setting 'triclinic'
loop_
_space_group_symop_operation_xyz
x,y,z
-x,-y,-z
loop_
_atom_site_type_symbol
_atom_site_label
_atom_site_fract_x
_atom_site_fract_y
_atom_site_fract_z
Si Si1 0.032356 0.178528 0.676669
Si Si2 0.601091 0.876206 0.729934
Si Si3 0.845846 0.073747 0.558233
Si Si4 0.335090 0.355141 0.620079
Si Si5 0.459573 0.389164 0.146869
Si Si6 0.048872 0.423898 0.408694
Si Si7 0.230562 0.054791 0.628795
Si Si8 0.605798 0.147903 0.632056
O O1 0.017369 0.302327 0.584824
O O2 0.139175 0.154591 0.571223
O O3 0.913927 0.164435 0.501366
O O4 0.080119 0.057171 0.071254
O O5 0.723224 0.889847 0.673981
O O6 0.532830 0.828712 0.563929
O O7 0.500000 0.000000 0.500000
O O8 0.620045 0.787074 0.118281
O O9 0.710238 0.119249 0.524735
O O10 0.832258 0.040759 0.320081
O O11 0.360195 0.399533 0.290056
O O12 0.193986 0.392539 0.542857
O O13 0.408143 0.386334 0.839799
O O14 0.581021 0.278884 0.485856
O O15 0.500000 0.500000 0.000000
O O16 0.000000 0.500000 0.500000
O O17 0.000000 0.500000 0.000000
O O18 0.349167 0.969232 0.979020
#
# Coordination Sequence:
#
# PCOD9017589 Si02
#       8
#     2   2   2   2   2   2   2   2
#     4  10  25  42  68  98 136 188 241 303 364 423
#     4  11  21  37  67 103 142 178 221 287 363 434
#     4  10  21  43  65 100 142 181 235 299 367 433
#     4  11  26  46  73 102 142 182 241 298 356 428
#     4  11  25  47  72 101 143 189 234 293 363 430
#     4  12  29  50  73 105 141 195 255 304 358 426
#     4  11  21  38  67 100 142 181 230 294 370 433
#     4  10  23  36  62 103 135 178 236 282 358 442
#
# _framework density 22.449109
#
# number of rings (size 3 to 8) (size 9 to 14) (size 15 to 20)
#    0.000    1.250    1.250    3.375   10.500    2.000 
#    2.250    0.000    0.000    0.000    0.000    0.000 
#    0.000    0.000    0.000    0.000    0.000    0.000 
#
# Total GULP energy -89262.325252 kJ/mol
# GULP energy per Si atom -5578.895328 kJ/mol
# Density = 2.239801 g / cm^3
# Si number density = 22.449109 Si / 1000 Ang^3
#
#
#
# Elastic Constant Matrix: (Units=GPa)
#
#
# Indices 1 2 3 4 5 6 
#
# 1 68.2947 41.0167 19.9358 -11.9018 -2.3148 2.7019
# 2 41.0167 136.1056 27.9481 -19.7398 -5.1767 -0.6075
# 3 19.9358 27.9481 45.8909 -7.1535 -7.9993 2.8826
# 4 -11.9018 -19.7398 -7.1535 35.1887 6.1914 -1.9601
# 5 -2.3148 -5.1767 -7.9993 6.1914 32.5187 4.9262
# 6 2.7019 -0.6075 2.8826 -1.9601 4.9262 35.2785
#
#
#
# Elastic Compliance Matrix: (Units=1/GPa)
#
#
# Indices 1 2 3 4 5 6 
#
# 1 0.019363 -0.004302 -0.005444 0.003185 -0.001135 -0.000777
# 2 -0.004302 0.009910 -0.003775 0.003481 -0.000482 0.001069
# 3 -0.005444 -0.003775 0.027774 0.000447 0.006176 -0.002755
# 4 0.003185 0.003481 0.000447 0.032674 -0.005692 0.002390
# 5 -0.001135 -0.000482 0.006176 -0.005692 0.034029 -0.005494
# 6 -0.000777 0.001069 -0.002755 0.002390 -0.005494 0.029549
#
#
# Mechanical properties :
#
#
# Convention : Reuss Voigt Hill
#
# Bulk Modulus (GPa) = 33.32783 47.56580 40.44681
# Shear Modulus (GPa) = 26.26842 31.35656 28.81249
#
# Velocity S-wave (km/s) = 3.42443 3.74141 3.58642
# Velocity P-wave (km/s) = 5.52393 6.31653 5.93348
#
# Compressibility (1/GPa) = 0.03000496
#
# Stress axis : x y z
#
# Youngs Moduli (GPa) = 51.64598 100.90657 36.00473
#
# Poissons Ratio (x) = 0.43409 0.19601
# Poissons Ratio (y) = 0.22217 0.13592
# Poissons Ratio (z) = 0.28116 0.38094
#
# Static dielectric constant tensor:
#      x y z
#    x 1.907080 0.189230 -0.004540 
#    y 0.189230 2.311400 -0.081330 
#    z -0.004540 -0.081330 1.999900 
# 
# From -- ./inp_files/77017.got.cif
#   From: 2010.05.17/outbox.cif.g08.bks.cpg/sg2_39_cif.got.tgz:77017.got - 2010.06.03 11:33:40.
