data_PCOD9017962
_publ_section_title
;
Structure prediction by ZEFSAII (Michael W. Deem and Ramdas Pophale) SiO2 
 PCOD9017962
Probable space group: P -1
;
_chemical_formula_sum "Si O2"
_cell_formula_units_Z 16
_cell_length_a 13.719414
_cell_length_b 8.517974
_cell_length_c 7.237275
_cell_angle_alpha 95.339860
_cell_angle_beta 61.401735
_cell_angle_gamma 84.781845
_cell_volume 730.417341
_symmetry_space_group_name_H-M "P -1"
_symmetry_group_IT_number 2
_symmetry_cell_setting 'triclinic'
loop_
_space_group_symop_operation_xyz
x,y,z
-x,-y,-z
loop_
_atom_site_type_symbol
_atom_site_label
_atom_site_fract_x
_atom_site_fract_y
_atom_site_fract_z
Si Si1 0.018611 0.259638 0.339892
Si Si2 0.624861 0.404766 0.713973
Si Si3 0.375818 0.355574 0.955938
Si Si4 0.204494 0.892489 0.492937
Si Si5 0.623658 0.923970 0.811779
Si Si6 0.084473 0.125116 0.908689
Si Si7 0.343186 0.329499 0.546585
Si Si8 0.914904 0.611004 0.330194
O O1 0.915994 0.158346 0.454158
O O2 0.968798 0.432117 0.315000
O O3 0.075318 0.288639 0.482884
O O4 0.106121 0.176915 0.101029
O O5 0.510915 0.337811 0.852333
O O6 0.718854 0.270281 0.532109
O O7 0.594900 0.544318 0.606257
O O8 0.667031 0.481555 0.872565
O O9 0.352001 0.342875 0.759864
O O10 0.336563 0.216604 0.095424
O O11 0.282905 0.960230 0.277789
O O12 0.181230 0.027517 0.686507
O O13 0.615035 0.839351 0.609729
O O14 0.500000 0.000000 0.000000
O O15 0.033158 0.286130 0.862638
O O16 0.000000 0.000000 0.000000
O O17 0.212807 0.380708 0.616062
#
# Coordination Sequence:
#
# PCOD9017962 Si02
#       8
#     2   2   2   2   2   2   2   2
#     4  10  24  44  70  92 129 175 218 278 323 377
#     4  10  21  43  67  96 130 170 222 264 325 386
#     4  10  23  42  68  94 133 176 214 271 320 382
#     4  11  21  44  66  96 134 170 216 270 322 391
#     4  11  23  43  66  96 140 171 214 265 325 392
#     4  10  23  42  65  94 130 166 215 271 327 387
#     4  11  23  43  67  97 131 172 222 268 319 392
#     4  11  22  45  68  96 130 168 223 270 325 393
#
# _framework density 21.905284000000002
#
# number of rings (size 3 to 8) (size 9 to 14) (size 15 to 20)
#    0.000    1.500    3.750    0.750    0.000    4.500 
#    4.500    1.250    0.000    0.000    0.000    0.000 
#    0.000    0.000    0.000    0.000    0.000    0.000 
#
# Total GULP energy -89327.032254 kJ/mol
# GULP energy per Si atom -5582.939516 kJ/mol
# Density = 2.185543 g / cm^3
# Si number density = 21.905284 Si / 1000 Ang^3
#
#
#
# Elastic Constant Matrix: (Units=GPa)
#
#
# Indices 1 2 3 4 5 6 
#
# 1 77.6093 38.5416 54.9369 0.5407 7.0946 10.4534
# 2 38.5416 75.2869 39.5354 -14.1020 -3.4647 25.6508
# 3 54.9369 39.5354 150.4993 0.3020 23.6010 16.0037
# 4 0.5407 -14.1020 0.3020 42.2605 11.7059 -13.3363
# 5 7.0946 -3.4647 23.6010 11.7059 43.8734 -0.0041
# 6 10.4534 25.6508 16.0037 -13.3363 -0.0041 22.5975
#
#
#
# Elastic Compliance Matrix: (Units=1/GPa)
#
#
# Indices 1 2 3 4 5 6 
#
# 1 0.021114 -0.009675 -0.005465 -0.002043 -0.000693 0.003880
# 2 -0.009675 0.028487 -0.001886 -0.000086 0.004849 -0.026575
# 3 -0.005465 -0.001886 0.010147 -0.000160 -0.004681 -0.002612
# 4 -0.002043 -0.000086 -0.000160 0.032320 -0.008212 0.020229
# 5 -0.000693 0.004849 -0.004681 -0.008212 0.027996 -0.006710
# 6 0.003880 -0.026575 -0.002612 0.020229 -0.006710 0.086411
#
#
# Mechanical properties :
#
#
# Convention : Reuss Voigt Hill
#
# Bulk Modulus (GPa) = 38.91832 63.26926 51.09379
# Shear Modulus (GPa) = 20.07279 33.10504 26.58892
#
# Velocity S-wave (km/s) = 3.03040 3.89174 3.48776
# Velocity P-wave (km/s) = 5.48176 7.00999 6.29244
#
# Compressibility (1/GPa) = 0.02569484
#
# Stress axis : x y z
#
# Youngs Moduli (GPa) = 47.36295 35.10323 98.54889
#
# Poissons Ratio (x) = 0.33963 0.53860
# Poissons Ratio (y) = 0.45825 0.18587
# Poissons Ratio (z) = 0.25885 0.06621
#
# Static dielectric constant tensor:
#      x y z
#    x 1.777130 0.025830 -0.038670 
#    y 0.025830 1.856570 0.003730 
#    z -0.038670 0.003730 1.832470 
# 
# From -- ./inp_files/90334.got.cif
#   From: 2010.05.17/outbox.cif.g08.bks.cpg/sg2_46_cif.got.tgz:90334.got - 2010.06.03 11:33:40.
