data_PCOD9017491
_publ_section_title
;
Structure prediction by ZEFSAII (Michael W. Deem and Ramdas Pophale) SiO2 
 PCOD9017491
Probable space group: P -1
;
_chemical_formula_sum "Si O2"
_cell_formula_units_Z 16
_cell_length_a 20.117186
_cell_length_b 5.740290
_cell_length_c 22.650150
_cell_angle_alpha 57.108545
_cell_angle_beta 158.642411
_cell_angle_gamma 112.261523
_cell_volume 727.730473
_symmetry_space_group_name_H-M "P -1"
_symmetry_group_IT_number 2
_symmetry_cell_setting 'triclinic'
loop_
_space_group_symop_operation_xyz
x,y,z
-x,-y,-z
loop_
_atom_site_type_symbol
_atom_site_label
_atom_site_fract_x
_atom_site_fract_y
_atom_site_fract_z
Si Si1 0.081562 0.340552 0.028083
Si Si2 0.213310 0.486354 0.792777
Si Si3 0.109621 0.085412 0.461941
Si Si4 0.585759 0.552257 0.152078
Si Si5 0.288270 0.645167 0.338294
Si Si6 0.369782 0.330473 0.571424
Si Si7 0.407930 0.358869 0.207087
Si Si8 0.733298 0.121070 0.072355
O O1 0.252545 0.386172 0.126789
O O2 0.184546 0.988597 0.181537
O O3 0.000000 0.500000 0.000000
O O4 0.881869 0.465690 0.805837
O O5 0.264368 0.410199 0.776736
O O6 0.994452 0.745149 0.587321
O O7 0.226838 0.195962 0.881933
O O8 0.389543 0.567084 0.952876
O O9 0.187532 0.284388 0.458044
O O10 0.929382 0.043143 0.285274
O O11 0.293739 0.770972 0.672830
O O12 0.479089 0.795612 0.081126
O O13 0.500000 0.500000 0.500000
O O14 0.322192 0.570999 0.445437
O O15 0.458083 0.478713 0.675041
O O16 0.495616 0.990500 0.691350
O O17 0.296274 0.587638 0.030436
#
# Coordination Sequence:
#
# PCOD9017491 Si02
#       8
#     2   2   2   2   2   2   2   2
#     4  11  26  44  74 106 142 186 230 291 343 416
#     4  10  23  39  67  96 133 181 227 293 345 421
#     4  11  24  41  66  98 134 180 234 285 350 415
#     4  10  21  43  63  96 136 176 230 287 354 414
#     4  11  24  46  72 104 144 181 234 282 349 411
#     4  12  27  46  75 101 140 191 232 288 349 416
#     4  12  27  47  73 102 142 186 235 286 351 412
#     4  11  24  41  67  95 136 179 232 287 352 414
#
# _framework density 21.986160999999999
#
# number of rings (size 3 to 8) (size 9 to 14) (size 15 to 20)
#    0.000    1.000    2.500    3.000    7.000    3.500 
#    0.000    0.000    0.000    0.000    0.000    0.000 
#    0.000    0.000    0.000    0.000    0.000    0.000 
#
# Total GULP energy -89208.738494 kJ/mol
# GULP energy per Si atom -5575.546156 kJ/mol
# Density = 2.193612 g / cm^3
# Si number density = 21.986161 Si / 1000 Ang^3
#
#
#
# Elastic Constant Matrix: (Units=GPa)
#
#
# Indices 1 2 3 4 5 6 
#
# 1 86.1280 5.8008 18.5082 -0.1194 20.2055 14.3240
# 2 5.8008 51.1196 6.6599 4.9652 15.4807 -0.5700
# 3 18.5082 6.6599 67.9086 -2.5925 19.9312 -3.8535
# 4 -0.1194 4.9652 -2.5925 26.3577 7.9883 2.3117
# 5 20.2055 15.4807 19.9312 7.9883 41.4464 -2.5354
# 6 14.3240 -0.5700 -3.8535 2.3117 -2.5354 33.0749
#
#
#
# Elastic Compliance Matrix: (Units=1/GPa)
#
#
# Indices 1 2 3 4 5 6 
#
# 1 0.015064 0.000487 -0.002312 0.002648 -0.007385 -0.007536
# 2 0.000487 0.022151 0.000028 -0.001644 -0.008228 -0.000342
# 3 -0.002312 0.000028 0.018041 0.004053 -0.008206 0.002192
# 4 0.002648 -0.001644 0.004053 0.042413 -0.011077 -0.004517
# 5 -0.007385 -0.008228 -0.008206 -0.011077 0.037233 0.005729
# 6 -0.007536 -0.000342 0.002192 -0.004517 0.005729 0.034502
#
#
# Mechanical properties :
#
#
# Convention : Reuss Voigt Hill
#
# Bulk Modulus (GPa) = 19.35705 29.67711 24.51708
# Shear Modulus (GPa) = 26.28535 31.78829 29.03682
#
# Velocity S-wave (km/s) = 3.46141 3.80653 3.63807
# Velocity P-wave (km/s) = 4.97980 5.73123 5.36868
#
# Compressibility (1/GPa) = 0.05166078
#
# Stress axis : x y z
#
# Youngs Moduli (GPa) = 66.38169 45.14512 55.43020
#
# Poissons Ratio (x) = -0.02199 0.12818
# Poissons Ratio (y) = -0.03233 -0.00154
# Poissons Ratio (z) = 0.15350 -0.00125
#
# Static dielectric constant tensor:
#      x y z
#    x 1.769340 -0.050710 0.029790 
#    y -0.050710 1.878060 0.029080 
#    z 0.029790 0.029080 1.730160 
# 
# From -- ./inp_files/10749.got.cif
#   From: 2010.05.17/outbox.cif.g08.bks.cpg/sg2_6_cif.got.tgz:10749.got - 2010.06.03 11:33:40.
