data_PCOD9017579
_publ_section_title
;
Structure prediction by ZEFSAII (Michael W. Deem and Ramdas Pophale) SiO2 
 PCOD9017579
Probable space group: P -1
;
_chemical_formula_sum "Si O2"
_cell_formula_units_Z 15
_cell_length_a 5.507017
_cell_length_b 5.473830
_cell_length_c 22.905989
_cell_angle_alpha 52.057675
_cell_angle_beta 90.469145
_cell_angle_gamma 84.338258
_cell_volume 539.794673
_symmetry_space_group_name_H-M "P -1"
_symmetry_group_IT_number 2
_symmetry_cell_setting 'triclinic'
loop_
_space_group_symop_operation_xyz
x,y,z
-x,-y,-z
loop_
_atom_site_type_symbol
_atom_site_label
_atom_site_fract_x
_atom_site_fract_y
_atom_site_fract_z
Si Si1 0.375067 0.679377 0.550126
Si Si2 0.500000 0.000000 0.000000
Si Si3 0.573356 0.323613 0.138975
Si Si4 0.156724 0.921826 0.719963
Si Si5 0.174216 0.601950 0.185773
Si Si6 0.546727 0.627326 0.679968
Si Si7 0.818716 0.179025 0.584039
Si Si8 0.138070 0.802251 0.952321
O O1 0.363362 0.596390 0.630799
O O2 0.576990 0.407305 0.567109
O O3 0.144753 0.720997 0.498465
O O4 0.500000 0.000000 0.500000
O O5 0.265664 0.826917 0.010636
O O6 0.361900 0.319614 0.918380
O O7 0.761503 0.075759 0.213038
O O8 0.332545 0.385690 0.169662
O O9 0.622501 0.220254 0.087147
O O10 0.400304 0.856027 0.692440
O O11 0.032571 0.603573 0.765241
O O12 0.988841 0.168633 0.643222
O O13 0.335016 0.650228 0.237250
O O14 0.061108 0.928567 0.111663
O O15 0.758347 0.823152 0.629803
O O16 0.000000 0.500000 0.000000
#
# Coordination Sequence:
#
# PCOD9017579 Si02
#       8
#     2   1   2   2   2   2   2   2
#     4   9  18  37  62  92 134 179 227 290 356 424
#     4  12  26  52  72 110 152 176 256 314 348 476
#     4  11  25  45  72 105 141 188 243 301 370 443
#     4  10  21  43  64  97 139 184 239 298 361 426
#     4  10  23  47  69 103 149 183 244 311 358 442
#     4   9  20  39  63  95 133 182 235 293 355 427
#     4   9  19  37  62  93 133 180 232 292 353 431
#     4  12  28  49  81 110 143 203 245 303 393 437
#
# _framework density 27.788339000000001
#
# number of rings (size 3 to 8) (size 9 to 14) (size 15 to 20)
#    0.000    1.867    1.333    1.200    3.733    1.600 
#    7.200    6.667    0.000    0.000    0.000    0.000 
#    0.000    0.000    0.000    0.000    0.000    0.000 
#
# Total GULP energy -83552.615541 kJ/mol
# GULP energy per Si atom -5570.174369 kJ/mol
# Density = 2.772509 g / cm^3
# Si number density = 27.788339 Si / 1000 Ang^3
#
#
#
# Elastic Constant Matrix: (Units=GPa)
#
#
# Indices 1 2 3 4 5 6 
#
# 1 83.2369 18.0521 61.0900 -10.7489 21.0473 17.4403
# 2 18.0521 57.7252 41.9107 -11.9984 -2.2019 -3.9027
# 3 61.0900 41.9107 235.8946 -0.5460 40.5279 -4.4083
# 4 -10.7489 -11.9984 -0.5460 37.6809 -3.4438 0.9833
# 5 21.0473 -2.2019 40.5279 -3.4438 48.6202 2.9195
# 6 17.4403 -3.9027 -4.4083 0.9833 2.9195 44.2996
#
#
#
# Elastic Compliance Matrix: (Units=1/GPa)
#
#
# Indices 1 2 3 4 5 6 
#
# 1 0.018625 -0.002994 -0.003675 0.004109 -0.004378 -0.007765
# 2 -0.002994 0.023315 -0.004407 0.007032 0.006391 0.002217
# 3 -0.003675 -0.004407 0.006797 -0.002828 -0.004601 0.002101
# 4 0.004109 0.007032 -0.002828 0.030255 0.003170 -0.002160
# 5 -0.004378 0.006391 -0.004601 0.003170 0.026812 -0.000009
# 6 -0.007765 0.002217 0.002101 -0.002160 -0.000009 0.026083
#
#
# Mechanical properties :
#
#
# Convention : Reuss Voigt Hill
#
# Bulk Modulus (GPa) = 37.61612 68.77356 53.19484
# Shear Modulus (GPa) = 30.69348 43.17373 36.93360
#
# Velocity S-wave (km/s) = 3.32708 3.94593 3.64964
# Velocity P-wave (km/s) = 5.32215 6.75006 6.07818
#
# Compressibility (1/GPa) = 0.02658435
#
# Stress axis : x y z
#
# Youngs Moduli (GPa) = 53.69205 42.89108 147.12321
#
# Poissons Ratio (x) = 0.12843 0.54064
# Poissons Ratio (y) = 0.16077 0.64838
# Poissons Ratio (z) = 0.19731 0.18902
#
# Static dielectric constant tensor:
#      x y z
#    x 1.309190 -0.809900 -2.247000 
#    y -0.809900 1.615460 -1.898720 
#    z -2.247000 -1.898720 -3.481130 
# 
# From -- ./inp_files/603062.got.cif
#   From: 2010.05.17/outbox.cif.g08.bks.cpg/sg2_302_cif.got.tgz:603062.got - 2010.06.03 11:33:40.
