data_PCOD9017961
_publ_section_title
;
Structure prediction by ZEFSAII (Michael W. Deem and Ramdas Pophale) SiO2 
 PCOD9017961
Probable space group: P -1
;
_chemical_formula_sum "Si O2"
_cell_formula_units_Z 16
_cell_length_a 8.987431
_cell_length_b 12.632218
_cell_length_c 9.339829
_cell_angle_alpha 110.491354
_cell_angle_beta 90.459307
_cell_angle_gamma 123.086078
_cell_volume 804.982020
_symmetry_space_group_name_H-M "P -1"
_symmetry_group_IT_number 2
_symmetry_cell_setting 'triclinic'
loop_
_space_group_symop_operation_xyz
x,y,z
-x,-y,-z
loop_
_atom_site_type_symbol
_atom_site_label
_atom_site_fract_x
_atom_site_fract_y
_atom_site_fract_z
Si Si1 0.284093 0.437977 0.110958
Si Si2 0.659423 0.115859 0.660786
Si Si3 0.528403 0.130389 0.981427
Si Si4 0.302287 0.418823 0.780052
Si Si5 0.167299 0.128591 0.971899
Si Si6 0.007746 0.111159 0.652229
Si Si7 0.251871 0.606537 0.695180
Si Si8 0.180101 0.601825 0.374444
O O1 0.503681 0.552185 0.171952
O O2 0.203667 0.494541 0.241977
O O3 0.232173 0.433790 0.941339
O O4 0.225750 0.284532 0.082012
O O5 0.585053 0.124654 0.817574
O O6 0.814429 0.087888 0.664701
O O7 0.750100 0.264384 0.656641
O O8 0.500000 0.000000 0.500000
O O9 0.345347 0.126846 0.980403
O O10 0.683078 0.267234 0.136483
O O11 0.500000 0.000000 0.000000
O O12 0.342478 0.533094 0.720231
O O13 0.148527 0.263583 0.656501
O O14 0.095151 0.109775 0.801079
O O15 0.000000 0.000000 0.000000
O O16 0.000000 0.000000 0.500000
O O17 0.285803 0.649141 0.549763
O O18 0.036454 0.484002 0.644142
#
# Coordination Sequence:
#
# PCOD9017961 Si02
#       8
#     2   2   2   2   2   2   2   2
#     4  10  23  41  69  97 129 174 219 275 330 399
#     4  12  26  45  69 101 134 179 229 274 338 399
#     4  12  26  45  72  97 136 178 224 283 333 406
#     4  10  21  43  67  96 130 169 224 266 337 397
#     4  11  25  45  66  99 133 175 224 273 338 400
#     4  11  25  43  68  98 133 177 218 276 335 399
#     4  11  24  45  64  99 136 172 225 273 337 391
#     4  11  26  41  68  99 136 177 220 279 328 399
#
# _framework density 19.876221000000001
#
# number of rings (size 3 to 8) (size 9 to 14) (size 15 to 20)
#    0.000    1.000    2.500    3.000   10.500    2.500 
#    0.000    0.000    0.000    0.000    0.000    0.000 
#    0.000    0.000    0.000    0.000    0.000    0.000 
#
# Total GULP energy -89401.147489 kJ/mol
# GULP energy per Si atom -5587.571718 kJ/mol
# Density = 1.983098 g / cm^3
# Si number density = 19.876221 Si / 1000 Ang^3
#
#
#
# Elastic Constant Matrix: (Units=GPa)
#
#
# Indices 1 2 3 4 5 6 
#
# 1 82.0298 29.3793 34.4256 4.6510 2.0301 -14.0343
# 2 29.3793 110.3875 48.4383 -2.9808 2.1178 -7.8350
# 3 34.4256 48.4383 119.2358 9.2442 0.1864 -10.7863
# 4 4.6510 -2.9808 9.2442 39.2500 1.8165 4.5570
# 5 2.0301 2.1178 0.1864 1.8165 32.9962 1.3955
# 6 -14.0343 -7.8350 -10.7863 4.5570 1.3955 33.1641
#
#
#
# Elastic Compliance Matrix: (Units=1/GPa)
#
#
# Indices 1 2 3 4 5 6 
#
# 1 0.015285 -0.002516 -0.002763 -0.001923 -0.000881 0.005277
# 2 -0.002516 0.011631 -0.004162 0.002187 -0.000691 0.000058
# 3 -0.002763 -0.004162 0.011269 -0.002883 0.000452 0.001890
# 4 -0.001923 0.002187 -0.002883 0.027181 -0.001294 -0.004915
# 5 -0.000881 -0.000691 0.000452 -0.001294 0.030537 -0.001496
# 6 0.005277 0.000058 0.001890 -0.004915 -0.001496 0.033753
#
#
# Mechanical properties :
#
#
# Convention : Reuss Voigt Hill
#
# Bulk Modulus (GPa) = 51.80504 59.57106 55.68805
# Shear Modulus (GPa) = 32.26369 34.37606 33.31987
#
# Velocity S-wave (km/s) = 4.03330 4.16325 4.09879
# Velocity P-wave (km/s) = 6.91451 7.29015 7.10481
#
# Compressibility (1/GPa) = 0.01930314
#
# Stress axis : x y z
#
# Youngs Moduli (GPa) = 65.42343 85.97464 88.73918
#
# Poissons Ratio (x) = 0.21633 0.24519
# Poissons Ratio (y) = 0.16462 0.36932
# Poissons Ratio (z) = 0.18077 0.35782
#
# Static dielectric constant tensor:
#      x y z
#    x 1.635300 0.009280 0.044250 
#    y 0.009280 1.704590 -0.006870 
#    z 0.044250 -0.006870 1.685160 
# 
# From -- ./inp_files/190001.got.cif
#   From: 2010.05.17/outbox.cif.g08.bks.cpg/sg2_96_cif.got.tgz:190001.got - 2010.06.03 11:33:40.
