data_PCOD9017793
_publ_section_title
;
Structure prediction by ZEFSAII (Michael W. Deem and Ramdas Pophale) SiO2 
 PCOD9017793
Probable space group: P -1
;
_chemical_formula_sum "Si O2"
_cell_formula_units_Z 16
_cell_length_a 5.218232
_cell_length_b 9.156824
_cell_length_c 16.738448
_cell_angle_alpha 97.441771
_cell_angle_beta 76.491226
_cell_angle_gamma 122.574712
_cell_volume 655.333432
_symmetry_space_group_name_H-M "P -1"
_symmetry_group_IT_number 2
_symmetry_cell_setting 'triclinic'
loop_
_space_group_symop_operation_xyz
x,y,z
-x,-y,-z
loop_
_atom_site_type_symbol
_atom_site_label
_atom_site_fract_x
_atom_site_fract_y
_atom_site_fract_z
Si Si1 0.287485 0.192232 0.012916
Si Si2 0.159586 0.503500 0.071442
Si Si3 0.264346 0.131590 0.186368
Si Si4 0.291586 0.182147 0.723813
Si Si5 0.005092 0.639090 0.316708
Si Si6 0.825738 0.036087 0.444962
Si Si7 0.139322 0.384678 0.501091
Si Si8 0.881257 0.317592 0.236709
O O1 0.216592 0.344252 0.046059
O O2 0.400893 0.166138 0.089146
O O3 0.551266 0.296557 0.934528
O O4 0.000000 0.000000 0.000000
O O5 0.973313 0.449158 0.163420
O O6 0.000000 0.500000 0.000000
O O7 0.531729 0.166523 0.231541
O O8 0.117977 0.251427 0.219952
O O9 0.969306 0.939484 0.202737
O O10 0.640242 0.255191 0.730028
O O11 0.231703 0.333061 0.714706
O O12 0.224022 0.068326 0.639982
O O13 0.009054 0.705097 0.410052
O O14 0.896952 0.438172 0.315186
O O15 0.047044 0.241526 0.430458
O O16 0.500000 0.000000 0.500000
O O17 0.000000 0.000000 0.500000
O O18 0.500000 0.500000 0.500000
O O19 0.000000 0.500000 0.500000
#
# Coordination Sequence:
#
# PCOD9017793 Si02
#       8
#     2   2   2   2   2   2   2   2
#     4  10  23  41  68  98 133 173 230 276 329 403
#     4  10  21  43  66  94 133 178 218 279 340 387
#     4  11  25  45  65 100 131 173 220 269 329 396
#     4  12  25  44  67  96 132 172 219 267 332 394
#     4  12  26  45  65  98 132 173 219 266 328 401
#     4  12  23  45  67  91 129 170 211 274 323 379
#     4  12  26  42  67  97 126 167 224 268 323 390
#     4  11  25  44  67  94 137 173 216 271 333 389
#
# _framework density 24.415050999999998
#
# number of rings (size 3 to 8) (size 9 to 14) (size 15 to 20)
#    0.000    0.750    3.750    3.000    5.250    1.500 
#    0.000    0.000    0.000    0.000    0.000    0.000 
#    0.000    0.000    0.000    0.000    0.000    0.000 
#
# Total GULP energy -89473.422838 kJ/mol
# GULP energy per Si atom -5592.088927 kJ/mol
# Density = 2.435948 g / cm^3
# Si number density = 24.415051 Si / 1000 Ang^3
#
#
#
# Elastic Constant Matrix: (Units=GPa)
#
#
# Indices 1 2 3 4 5 6 
#
# 1 99.0741 20.3428 4.8959 1.4256 -5.2808 14.7122
# 2 20.3428 107.5911 -3.8082 6.3032 1.2450 17.6096
# 3 4.8959 -3.8082 49.9599 -4.5370 2.6588 0.0229
# 4 1.4256 6.3032 -4.5370 45.2190 6.6125 2.1292
# 5 -5.2808 1.2450 2.6588 6.6125 23.0721 -4.9642
# 6 14.7122 17.6096 0.0229 2.1292 -4.9642 49.8273
#
#
#
# Elastic Compliance Matrix: (Units=1/GPa)
#
#
# Indices 1 2 3 4 5 6 
#
# 1 0.011007 -0.001741 -0.001382 -0.000482 0.002400 -0.002374
# 2 -0.001741 0.010255 0.000951 -0.000909 -0.001494 -0.003221
# 3 -0.001382 0.000951 0.020642 0.002521 -0.003555 -0.000399
# 4 -0.000482 -0.000909 0.002521 0.023653 -0.007408 -0.001286
# 5 0.002400 -0.001494 -0.003555 -0.007408 0.047554 0.004875
# 6 -0.002374 -0.003221 -0.000399 -0.001286 0.004875 0.022449
#
#
# Mechanical properties :
#
#
# Convention : Reuss Voigt Hill
#
# Bulk Modulus (GPa) = 26.62411 33.27623 29.95017
# Shear Modulus (GPa) = 32.80323 39.30332 36.05327
#
# Velocity S-wave (km/s) = 3.66945 4.01658 3.84693
# Velocity P-wave (km/s) = 5.37416 5.93039 5.65911
#
# Compressibility (1/GPa) = 0.03755994
#
# Stress axis : x y z
#
# Youngs Moduli (GPa) = 90.85450 97.51404 48.44439
#
# Poissons Ratio (x) = 0.16976 0.06694
# Poissons Ratio (y) = 0.15817 -0.04606
# Poissons Ratio (z) = 0.12553 -0.09271
#
# Static dielectric constant tensor:
#      x y z
#    x 1.902710 0.027050 -0.013740 
#    y 0.027050 1.975220 -0.015170 
#    z -0.013740 -0.015170 1.974950 
# 
# From -- ./inp_files/323221.got.cif
#   From: 2010.05.17/outbox.cif.g08.bks.cpg/sg2_162_cif.got.tgz:323221.got - 2010.06.03 11:33:40.
