data_PCOD9017806
_publ_section_title
;
Structure prediction by ZEFSAII (Michael W. Deem and Ramdas Pophale) SiO2 
 PCOD9017806
Probable space group: P -1
;
_chemical_formula_sum "Si O2"
_cell_formula_units_Z 16
_cell_length_a 14.157469
_cell_length_b 5.282903
_cell_length_c 8.977039
_cell_angle_alpha 77.225311
_cell_angle_beta 80.753036
_cell_angle_gamma 98.651391
_cell_volume 634.112527
_symmetry_space_group_name_H-M "P -1"
_symmetry_group_IT_number 2
_symmetry_cell_setting 'triclinic'
loop_
_space_group_symop_operation_xyz
x,y,z
-x,-y,-z
loop_
_atom_site_type_symbol
_atom_site_label
_atom_site_fract_x
_atom_site_fract_y
_atom_site_fract_z
Si Si1 0.660511 0.736048 0.967482
Si Si2 0.110587 0.463786 0.517791
Si Si3 0.859808 0.426326 0.179770
Si Si4 0.828612 0.959347 0.666427
Si Si5 0.314626 0.056310 0.752884
Si Si6 0.481272 0.806556 0.868531
Si Si7 0.446679 0.247574 0.457456
Si Si8 0.035844 0.161325 0.116428
O O1 0.737154 0.820190 0.806209
O O2 0.573987 0.901767 0.938800
O O3 0.599935 0.437643 0.020483
O O4 0.709759 0.790589 0.112513
O O5 0.131499 0.403500 0.693292
O O6 0.140245 0.240678 0.434676
O O7 0.000000 0.500000 0.500000
O O8 0.177331 0.754420 0.433285
O O9 0.761514 0.213842 0.213069
O O10 0.947073 0.264751 0.199766
O O11 0.887791 0.587064 0.999295
O O12 0.915142 0.006280 0.760391
O O13 0.419764 0.002831 0.784781
O O14 0.339143 0.186259 0.567398
O O15 0.536859 0.695861 0.728195
O O16 0.500000 0.500000 0.500000
O O17 0.500000 0.000000 0.500000
O O18 0.000000 0.000000 0.000000
#
# Coordination Sequence:
#
# PCOD9017806 Si02
#       8
#     2   2   2   2   2   2   2   2
#     4  11  24  43  70 101 142 191 239 298 354 433
#     4  12  27  52  73 107 148 197 237 303 364 443
#     4  11  26  43  74 107 142 190 243 300 372 429
#     4  12  28  47  76 105 151 188 250 295 365 435
#     4  11  23  43  70 103 142 185 242 302 356 433
#     4  10  23  44  67 101 140 191 238 293 363 416
#     4  10  21  43  66  95 133 182 228 289 350 414
#     4  11  24  45  73 106 143 190 238 306 366 444
#
# _framework density 25.232112000000001
#
# number of rings (size 3 to 8) (size 9 to 14) (size 15 to 20)
#    0.000    1.000    2.500    3.000    8.750    0.000 
#    4.500    0.000    0.000    0.000    0.000    0.000 
#    0.000    0.000    0.000    0.000    0.000    0.000 
#
# Total GULP energy -89538.604728 kJ/mol
# GULP energy per Si atom -5596.162795 kJ/mol
# Density = 2.517468 g / cm^3
# Si number density = 25.232112 Si / 1000 Ang^3
#
#
#
# Elastic Constant Matrix: (Units=GPa)
#
#
# Indices 1 2 3 4 5 6 
#
# 1 78.7091 4.4213 18.5027 7.5380 -4.9605 8.9408
# 2 4.4213 110.0638 33.6539 2.6104 -11.6913 17.9264
# 3 18.5027 33.6539 129.9466 0.3848 -17.1018 18.6346
# 4 7.5380 2.6104 0.3848 48.1381 1.8720 4.1489
# 5 -4.9605 -11.6913 -17.1018 1.8720 46.7287 -1.7246
# 6 8.9408 17.9264 18.6346 4.1489 -1.7246 38.0988
#
#
#
# Elastic Compliance Matrix: (Units=1/GPa)
#
#
# Indices 1 2 3 4 5 6 
#
# 1 0.013570 0.000475 -0.001581 -0.001971 0.000972 -0.002376
# 2 0.000475 0.010522 -0.001982 -0.000358 0.001825 -0.003971
# 3 -0.001581 -0.001982 0.009222 0.000452 0.002577 -0.003140
# 4 -0.001971 -0.000358 0.000452 0.021308 -0.001059 -0.001958
# 5 0.000972 0.001825 0.002577 -0.001059 0.022902 -0.001196
# 6 -0.002376 -0.003971 -0.003140 -0.001958 -0.001196 0.030369
#
#
# Mechanical properties :
#
#
# Convention : Reuss Voigt Hill
#
# Bulk Modulus (GPa) = 36.84733 47.98613 42.41673
# Shear Modulus (GPa) = 40.61324 44.06923 42.34123
#
# Velocity S-wave (km/s) = 4.01632 4.18371 4.10087
# Velocity P-wave (km/s) = 6.01189 6.51131 6.26657
#
# Compressibility (1/GPa) = 0.02713901
#
# Stress axis : x y z
#
# Youngs Moduli (GPa) = 73.69265 95.04140 108.43753
#
# Poissons Ratio (x) = -0.04517 0.17141
# Poissons Ratio (y) = -0.03503 0.21490
# Poissons Ratio (z) = 0.11649 0.18836
#
# Static dielectric constant tensor:
#      x y z
#    x 2.053300 -0.032690 0.008270 
#    y -0.032690 2.038100 0.092480 
#    z 0.008270 0.092480 2.153920 
# 
# From -- ./inp_files/90184.got.cif
#   From: 2010.05.17/outbox.cif.g08.bks.cpg/sg2_46_cif.got.tgz:90184.got - 2010.06.03 11:33:40.
