data_PCOD9017969
_publ_section_title
;
Structure prediction by ZEFSAII (Michael W. Deem and Ramdas Pophale) SiO2 
 PCOD9017969
Probable space group: P -1
;
_chemical_formula_sum "Si O2"
_cell_formula_units_Z 10
_cell_length_a 11.170511
_cell_length_b 6.747041
_cell_length_c 7.296928
_cell_angle_alpha 119.150274
_cell_angle_beta 71.326244
_cell_angle_gamma 127.150072
_cell_volume 382.558571
_symmetry_space_group_name_H-M "P -1"
_symmetry_group_IT_number 2
_symmetry_cell_setting 'triclinic'
loop_
_space_group_symop_operation_xyz
x,y,z
-x,-y,-z
loop_
_atom_site_type_symbol
_atom_site_label
_atom_site_fract_x
_atom_site_fract_y
_atom_site_fract_z
Si Si1 0.140222 0.331193 0.359954
Si Si2 0.231255 0.800639 0.083729
Si Si3 0.660245 0.767352 0.057443
Si Si4 0.659194 0.050425 0.513323
Si Si5 0.086648 0.232648 0.762353
O O1 0.242878 0.291934 0.153307
O O2 0.198299 0.643359 0.454356
O O3 0.150267 0.282242 0.548296
O O4 0.976301 0.070505 0.272915
O O5 0.335648 0.964887 0.277393
O O6 0.070203 0.771079 0.174777
O O7 0.310697 0.960519 0.931092
O O8 0.192656 0.496798 0.949785
O O9 0.500000 0.500000 0.000000
O O10 0.678912 0.838333 0.295170
O O11 0.500000 0.000000 0.500000
#
# Coordination Sequence:
#
# PCOD9017969 Si02
#       5
#     2   2   2   2   2
#     4  10  21  43  67  96 132 165 219 265 320 391
#     4  10  23  43  71  94 133 171 213 274 320 384
#     4  11  23  45  63  97 133 170 223 263 320 392
#     4  12  25  44  65  98 133 174 217 265 324 385
#     4   9  20  45  67  96 131 170 215 265 329 381
#
# _framework density 26.139790000000001
#
# number of rings (size 3 to 8) (size 9 to 14) (size 15 to 20)
#    0.000    1.600    4.000    0.000    0.000    3.200 
#   10.800    0.000    0.000    0.000    0.000    0.000 
#    0.000    0.000    0.000    0.000    0.000    0.000 
#
# Total GULP energy -55925.808933 kJ/mol
# GULP energy per Si atom -5592.580893 kJ/mol
# Density = 2.608030 g / cm^3
# Si number density = 26.139790 Si / 1000 Ang^3
#
#
#
# Elastic Constant Matrix: (Units=GPa)
#
#
# Indices 1 2 3 4 5 6 
#
# 1 72.1702 11.5790 29.4696 5.1686 -11.1989 22.4494
# 2 11.5790 100.3438 24.8058 19.0360 -19.3630 -7.3507
# 3 29.4696 24.8058 181.0833 23.5254 -18.5133 16.6150
# 4 5.1686 19.0360 23.5254 65.2231 -8.8309 -3.9664
# 5 -11.1989 -19.3630 -18.5133 -8.8309 45.6851 8.8073
# 6 22.4494 -7.3507 16.6150 -3.9664 8.8073 31.6478
#
#
#
# Elastic Compliance Matrix: (Units=1/GPa)
#
#
# Indices 1 2 3 4 5 6 
#
# 1 0.020922 -0.001934 -0.000737 -0.000898 0.007113 -0.016996
# 2 -0.001934 0.011700 -0.001011 -0.002283 0.002957 0.003511
# 3 -0.000737 -0.001011 0.006676 -0.001967 0.002519 -0.004165
# 4 -0.000898 -0.002283 -0.001967 0.017063 0.000720 0.003078
# 5 0.007113 0.002957 0.002519 0.000720 0.028661 -0.013567
# 6 -0.016996 0.003511 -0.004165 0.003078 -0.013567 0.050817
#
#
# Mechanical properties :
#
#
# Convention : Reuss Voigt Hill
#
# Bulk Modulus (GPa) = 31.31492 53.92289 42.61890
# Shear Modulus (GPa) = 32.49957 47.69406 40.09681
#
# Velocity S-wave (km/s) = 3.52987 4.27614 3.92080
# Velocity P-wave (km/s) = 5.34968 6.71222 6.06931
#
# Compressibility (1/GPa) = 0.03193366
#
# Stress axis : x y z
#
# Youngs Moduli (GPa) = 47.79644 85.47190 149.79357
#
# Poissons Ratio (x) = 0.16532 0.11033
# Poissons Ratio (y) = 0.09245 0.15148
# Poissons Ratio (z) = 0.03520 0.08643
#
# Static dielectric constant tensor:
#      x y z
#    x 2.309520 -0.071210 0.016260 
#    y -0.071210 2.016760 0.012210 
#    z 0.016260 0.012210 1.982820 
# 
# From -- ./inp_files/18201.got.cif
#   From: 2010.05.17/outbox.cif.g08.bks.cpg/sg2_10_cif.got.tgz:18201.got - 2010.06.03 11:33:40.
