data_PCOD9017159
_publ_section_title
;
Structure prediction by ZEFSAII (Michael W. Deem and Ramdas Pophale) SiO2 
 PCOD9017159
Probable space group: P -1
;
_chemical_formula_sum "Si O2"
_cell_formula_units_Z 15
_cell_length_a 11.479472
_cell_length_b 8.085226
_cell_length_c 11.355877
_cell_angle_alpha 103.353164
_cell_angle_beta 133.331207
_cell_angle_gamma 56.280242
_cell_volume 617.780833
_symmetry_space_group_name_H-M "P -1"
_symmetry_group_IT_number 2
_symmetry_cell_setting 'triclinic'
loop_
_space_group_symop_operation_xyz
x,y,z
-x,-y,-z
loop_
_atom_site_type_symbol
_atom_site_label
_atom_site_fract_x
_atom_site_fract_y
_atom_site_fract_z
Si Si1 0.789340 0.596549 0.636870
Si Si2 0.462886 0.773004 0.288994
Si Si3 0.000000 0.500000 0.000000
Si Si4 0.937989 0.929438 0.559602
Si Si5 0.770049 0.861933 0.993188
Si Si6 0.205702 0.729727 0.285956
Si Si7 0.817370 0.757573 0.263424
Si Si8 0.669860 0.487396 0.184732
O O1 0.616210 0.784392 0.477229
O O2 0.693154 0.488206 0.615224
O O3 0.959994 0.425108 0.641796
O O4 0.899321 0.626473 0.822233
O O5 0.306832 0.765519 0.256650
O O6 0.596038 0.558334 0.277738
O O7 0.357194 0.948471 0.146384
O O8 0.218130 0.343801 0.060801
O O9 0.128997 0.731458 0.713851
O O10 0.807529 0.863777 0.396342
O O11 0.000000 0.000000 0.500000
O O12 0.846629 0.102410 0.623263
O O13 0.747411 0.902043 0.123144
O O14 0.004483 0.750547 0.108435
O O15 0.704958 0.651316 0.182137
O O16 0.500000 0.500000 0.000000
#
# Coordination Sequence:
#
# PCOD9017159 Si02
#       8
#     2   2   1   2   2   2   2   2
#     4  10  21  42  71  97 140 185 235 288 352 417
#     4  12  24  41  66 110 141 177 237 299 350 413
#     4   8  20  40  60  88 128 182 218 270 350 410
#     4  12  21  46  76 102 134 194 241 281 354 431
#     4  10  22  42  69  96 141 190 231 286 353 422
#     4  10  22  41  70 101 144 184 228 290 357 423
#     4  10  23  47  71  95 141 193 239 283 350 429
#     4  12  28  45  70 107 143 186 238 297 354 415
#
# _framework density 24.280456000000001
#
# number of rings (size 3 to 8) (size 9 to 14) (size 15 to 20)
#    0.000    1.600    4.000    2.000    0.000    7.467 
#    2.400    0.000    0.000    0.000    0.000    0.000 
#    0.000    0.000    0.000    0.000    0.000    0.000 
#
# Total GULP energy -83682.302837 kJ/mol
# GULP energy per Si atom -5578.820189 kJ/mol
# Density = 2.422519 g / cm^3
# Si number density = 24.280456 Si / 1000 Ang^3
#
#
#
# Elastic Constant Matrix: (Units=GPa)
#
#
# Indices 1 2 3 4 5 6 
#
# 1 121.9046 15.4175 41.6574 -1.3589 -10.7462 16.1264
# 2 15.4175 54.4456 34.9225 4.5841 -7.1459 5.5162
# 3 41.6574 34.9225 151.8940 -14.0208 -14.6154 20.3683
# 4 -1.3589 4.5841 -14.0208 44.3304 0.5290 -9.7171
# 5 -10.7462 -7.1459 -14.6154 0.5290 23.6481 11.7159
# 6 16.1264 5.5162 20.3683 -9.7171 11.7159 32.7946
#
#
#
# Elastic Compliance Matrix: (Units=1/GPa)
#
#
# Indices 1 2 3 4 5 6 
#
# 1 0.010291 -0.000236 -0.001184 -0.001780 0.007651 -0.007546
# 2 -0.000236 0.023033 -0.004391 -0.004925 0.006661 -0.004870
# 3 -0.001184 -0.004391 0.009732 0.001908 0.007493 -0.006834
# 4 -0.001780 -0.004925 0.001908 0.026056 -0.007026 0.010749
# 5 0.007651 0.006661 0.007493 -0.007026 0.070863 -0.036934
# 6 -0.007546 -0.004870 -0.006834 0.010749 -0.036934 0.055647
#
#
# Mechanical properties :
#
#
# Convention : Reuss Voigt Hill
#
# Bulk Modulus (GPa) = 31.81477 56.91543 44.36510
# Shear Modulus (GPa) = 22.96518 35.90442 29.43480
#
# Velocity S-wave (km/s) = 3.07877 3.84961 3.48556
# Velocity P-wave (km/s) = 5.07641 6.57655 5.87456
#
# Compressibility (1/GPa) = 0.03143194
#
# Stress axis : x y z
#
# Youngs Moduli (GPa) = 97.17696 43.41625 102.75871
#
# Poissons Ratio (x) = 0.01024 0.12169
# Poissons Ratio (y) = 0.02291 0.45126
# Poissons Ratio (z) = 0.11508 0.19066
#
# Static dielectric constant tensor:
#      x y z
#    x 1.975780 -0.097540 -0.029080 
#    y -0.097540 1.517290 -0.187190 
#    z -0.029080 -0.187190 1.930600 
# 
# From -- ./inp_files/417669.got.cif
#   From: 2010.05.17/outbox.cif.g08.bks.cpg/sg2_209_cif.got.tgz:417669.got - 2010.06.03 11:33:40.
