data_PCOD9017284
_publ_section_title
;
Structure prediction by ZEFSAII (Michael W. Deem and Ramdas Pophale) SiO2 
 PCOD9017284
Probable space group: P -1
;
_chemical_formula_sum "Si O2"
_cell_formula_units_Z 16
_cell_length_a 11.150591
_cell_length_b 6.653699
_cell_length_c 17.383948
_cell_angle_alpha 59.203608
_cell_angle_beta 148.574331
_cell_angle_gamma 125.383071
_cell_volume 547.779772
_symmetry_space_group_name_H-M "P -1"
_symmetry_group_IT_number 2
_symmetry_cell_setting 'triclinic'
loop_
_space_group_symop_operation_xyz
x,y,z
-x,-y,-z
loop_
_atom_site_type_symbol
_atom_site_label
_atom_site_fract_x
_atom_site_fract_y
_atom_site_fract_z
Si Si1 0.466070 0.311497 0.584955
Si Si2 0.768721 0.148910 0.413362
Si Si3 0.299791 0.372425 0.620927
Si Si4 0.056910 0.998141 0.858137
Si Si5 0.986359 0.462553 0.181107
Si Si6 0.280387 0.810806 0.464233
Si Si7 0.596720 0.289806 0.130021
Si Si8 0.820221 0.622293 0.920228
O O1 0.500000 0.500000 0.500000
O O2 0.337328 0.524010 0.527690
O O3 0.314019 0.037654 0.513106
O O4 0.753330 0.337558 0.736350
O O5 0.681229 0.283627 0.265832
O O6 0.054242 0.191523 0.555119
O O7 0.641583 0.854451 0.362492
O O8 0.765571 0.353403 0.443577
O O9 0.554105 0.456149 0.785852
O O10 0.998374 0.771326 0.812252
O O11 0.956142 0.191477 0.717164
O O12 0.893110 0.886323 0.865963
O O13 0.343475 0.067096 0.020282
O O14 0.838853 0.329272 0.202044
O O15 0.825479 0.598630 0.019210
O O16 0.500000 0.000000 0.500000
O O17 0.500000 0.500000 0.000000
O O18 0.000000 0.500000 0.000000
#
# Coordination Sequence:
#
# PCOD9017284 Si02
#       8
#     2   2   2   2   2   2   2   2
#     4  12  24  47  72 104 145 185 244 302 369 428
#     4  12  29  45  70 109 149 190 233 312 376 416
#     4  12  24  45  72 104 146 187 248 293 357 434
#     4  11  23  47  75 102 138 197 252 289 356 438
#     4  11  24  46  73 101 141 197 248 293 351 447
#     4  12  25  47  75 105 142 195 250 293 357 439
#     4  12  29  47  69 111 157 185 238 306 372 424
#     4  10  21  42  73 103 134 184 255 294 340 421
#
# _framework density 29.208817
#
# number of rings (size 3 to 8) (size 9 to 14) (size 15 to 20)
#    0.000    0.500    3.750    4.875    5.250    2.000 
#    0.000    1.875    0.000    0.000    0.000    0.000 
#    0.000    0.000    0.000    0.000    0.000    0.000 
#
# Total GULP energy -89255.926807 kJ/mol
# GULP energy per Si atom -5578.495425 kJ/mol
# Density = 2.914234 g / cm^3
# Si number density = 29.208817 Si / 1000 Ang^3
#
#
#
# Elastic Constant Matrix: (Units=GPa)
#
#
# Indices 1 2 3 4 5 6 
#
# 1 261.6397 64.9046 93.8813 0.6106 -11.1574 46.3865
# 2 64.9046 219.9139 52.8822 7.5247 -1.2831 26.5848
# 3 93.8813 52.8822 200.8381 18.0957 7.3772 54.8402
# 4 0.6106 7.5247 18.0957 69.6467 21.2427 11.9464
# 5 -11.1574 -1.2831 7.3772 21.2427 50.5138 -5.2085
# 6 46.3865 26.5848 54.8402 11.9464 -5.2085 65.2518
#
#
#
# Elastic Compliance Matrix: (Units=1/GPa)
#
#
# Indices 1 2 3 4 5 6 
#
# 1 0.005004 -0.000863 -0.001702 0.000516 0.000930 -0.001795
# 2 -0.000863 0.005076 -0.000687 -0.000236 0.000052 -0.000830
# 3 -0.001702 -0.000687 0.007360 -0.000472 -0.001760 -0.004749
# 4 0.000516 -0.000236 -0.000472 0.017427 -0.007530 -0.003666
# 5 0.000930 0.000052 -0.001760 -0.007530 0.023847 0.004079
# 6 -0.001795 -0.000830 -0.004749 -0.003666 0.004079 0.021928
#
#
# Mechanical properties :
#
#
# Convention : Reuss Voigt Hill
#
# Bulk Modulus (GPa) = 91.45208 122.85864 107.15536
# Shear Modulus (GPa) = 55.07171 68.46406 61.76788
#
# Velocity S-wave (km/s) = 4.34689 4.84669 4.60358
# Velocity P-wave (km/s) = 7.52141 8.57170 8.06367
#
# Compressibility (1/GPa) = 0.01093469
#
# Stress axis : x y z
#
# Youngs Moduli (GPa) = 199.85870 197.01362 135.87255
#
# Poissons Ratio (x) = 0.16995 0.23129
# Poissons Ratio (y) = 0.17240 0.09340
# Poissons Ratio (z) = 0.34021 0.13543
#
# Static dielectric constant tensor:
#      x y z
#    x 2.516910 -0.382150 -0.028650 
#    y -0.382150 2.495340 0.004680 
#    z -0.028650 0.004680 2.050360 
# 
# From -- ./inp_files/566669.got.cif
#   From: 2010.05.17/outbox.cif.g08.bks.cpg/sg2_284_cif.got.tgz:566669.got - 2010.06.03 11:33:40.
