data_PCOD9017808
_publ_section_title
;
Structure prediction by ZEFSAII (Michael W. Deem and Ramdas Pophale) SiO2 
 PCOD9017808
Probable space group: P -1
;
_chemical_formula_sum "Si O2"
_cell_formula_units_Z 15
_cell_length_a 21.388797
_cell_length_b 6.904966
_cell_length_c 11.460216
_cell_angle_alpha 63.995122
_cell_angle_beta 40.348474
_cell_angle_gamma 42.070802
_cell_volume 701.930050
_symmetry_space_group_name_H-M "P -1"
_symmetry_group_IT_number 2
_symmetry_cell_setting 'triclinic'
loop_
_space_group_symop_operation_xyz
x,y,z
-x,-y,-z
loop_
_atom_site_type_symbol
_atom_site_label
_atom_site_fract_x
_atom_site_fract_y
_atom_site_fract_z
Si Si1 0.622677 0.398613 0.429209
Si Si2 0.478131 0.851316 0.724452
Si Si3 0.942887 0.149039 0.729820
Si Si4 0.071192 0.615521 0.868033
Si Si5 0.797247 0.492674 0.057938
Si Si6 0.500000 0.500000 0.000000
Si Si7 0.308904 0.176173 0.471731
Si Si8 0.792387 0.275227 0.676970
O O1 0.500000 0.500000 0.500000
O O2 0.560872 0.659227 0.542539
O O3 0.729070 0.363993 0.208748
O O4 0.684529 0.090013 0.485615
O O5 0.545827 0.948812 0.669506
O O6 0.323422 0.150498 0.841538
O O7 0.490662 0.634126 0.851782
O O8 0.848047 0.204785 0.747854
O O9 0.856784 0.440440 0.858388
O O10 0.989991 0.901396 0.823861
O O11 0.081619 0.005370 0.507261
O O12 0.092151 0.655857 0.959558
O O13 0.216479 0.362722 0.666608
O O14 0.000000 0.500000 0.000000
O O15 0.342785 0.649531 0.166427
O O16 0.245008 0.422993 0.395001
#
# Coordination Sequence:
#
# PCOD9017808 Si02
#       8
#     2   2   2   2   2   1   2   2
#     4  12  23  38  68 102 139 179 215 281 351 397
#     4  11  24  43  63 103 136 169 230 283 328 402
#     4  10  23  43  68  95 136 178 221 277 338 406
#     4  11  23  41  65  95 137 179 221 273 337 408
#     4  12  24  41  68 101 140 175 225 277 340 414
#     4  10  24  42  72  92 130 182 220 288 334 380
#     4  10  21  43  66  95 134 177 219 278 336 396
#     4   9  22  45  70  96 135 176 231 282 331 404
#
# _framework density 21.369651999999999
#
# number of rings (size 3 to 8) (size 9 to 14) (size 15 to 20)
#    0.000    1.333    2.667    2.400    3.733    1.067 
#    0.000    3.333    0.000    0.000    0.000    0.000 
#    0.000    0.000    0.000    0.000    0.000    0.000 
#
# Total GULP energy -83544.857118 kJ/mol
# GULP energy per Si atom -5569.657141 kJ/mol
# Density = 2.132101 g / cm^3
# Si number density = 21.369652 Si / 1000 Ang^3
#
#
#
# Elastic Constant Matrix: (Units=GPa)
#
#
# Indices 1 2 3 4 5 6 
#
# 1 130.8386 18.9062 68.9307 3.3057 -1.1634 -17.6269
# 2 18.9062 31.9774 15.5169 28.6347 8.0564 -3.2455
# 3 68.9307 15.5169 117.1018 8.9047 1.2613 -3.9044
# 4 3.3057 28.6347 8.9047 25.2183 1.3789 -0.3482
# 5 -1.1634 8.0564 1.2613 1.3789 39.8107 -2.2056
# 6 -17.6269 -3.2455 -3.9044 -0.3482 -2.2056 27.2447
#
#
#
# Elastic Compliance Matrix: (Units=1/GPa)
#
#
# Indices 1 2 3 4 5 6 
#
# 1 0.007169 0.038312 -0.005798 -0.041992 -0.005496 0.007390
# 2 0.038312 -0.285294 -0.009661 0.319675 0.047943 -0.002616
# 3 -0.005798 -0.009661 0.012577 0.007194 0.000976 -0.002929
# 4 -0.041992 0.319675 0.007194 -0.317311 -0.054966 0.003439
# 5 -0.005496 0.047943 0.000976 -0.054966 0.017295 0.002993
# 6 0.007390 -0.002616 -0.002929 0.003439 0.002993 0.041040
#
#
# Mechanical properties :
#
#
# Convention : Reuss Voigt Hill
#
# Bulk Modulus (GPa) = -4.54874 54.06949 24.76038
# Shear Modulus (GPa) = -7.76989 30.22568 11.22790
#
# Velocity S-wave (km/s) = -1.90888 3.76496 2.29468
# Velocity P-wave (km/s) = 2.64418 6.65258 4.31655
#
# Compressibility (1/GPa) = -0.21984125
#
# Stress axis : x y z
#
# Youngs Moduli (GPa) = 139.48575 -3.50516 79.50826
#
# Poissons Ratio (x) = 0.13429 0.46098
# Poissons Ratio (y) = -5.34391 0.76810
# Poissons Ratio (z) = 0.80872 -0.03386
#
# Static dielectric constant tensor:
#      x y z
#    x 1.748170 0.001630 -0.031870 
#    y 0.001630 1.850730 0.067010 
#    z -0.031870 0.067010 1.947440 
# 
# From -- ./inp_files/468050.got.cif
#   From: 2010.05.17/outbox.cif.g08.bks.cpg/sg2_235_cif.got.tgz:468050.got - 2010.06.03 11:33:40.
