data_PCOD9017503
_publ_section_title
;
Structure prediction by ZEFSAII (Michael W. Deem and Ramdas Pophale) SiO2 
 PCOD9017503
Probable space group: P -1
;
_chemical_formula_sum "Si O2"
_cell_formula_units_Z 13
_cell_length_a 6.586412
_cell_length_b 14.078864
_cell_length_c 7.430400
_cell_angle_alpha 51.941636
_cell_angle_beta 83.285684
_cell_angle_gamma 64.422194
_cell_volume 478.427492
_symmetry_space_group_name_H-M "P -1"
_symmetry_group_IT_number 2
_symmetry_cell_setting 'triclinic'
loop_
_space_group_symop_operation_xyz
x,y,z
-x,-y,-z
loop_
_atom_site_type_symbol
_atom_site_label
_atom_site_fract_x
_atom_site_fract_y
_atom_site_fract_z
Si Si1 0.700516 0.475904 0.244694
Si Si2 0.266725 0.267008 0.901129
Si Si3 0.332340 0.766632 0.300759
Si Si4 0.196357 0.662995 0.956743
Si Si5 0.000000 0.000000 0.000000
Si Si6 0.295357 0.896510 0.507290
Si Si7 0.329580 0.027130 0.687106
O O1 0.740281 0.599142 0.162441
O O2 0.723763 0.354307 0.513922
O O3 0.850412 0.403248 0.140040
O O4 0.428054 0.545346 0.151164
O O5 0.402065 0.271759 0.699787
O O6 0.443318 0.117410 0.131644
O O7 0.015779 0.286155 0.946643
O O8 0.215895 0.898371 0.301618
O O9 0.187394 0.857119 0.045405
O O10 0.273386 0.770540 0.739401
O O11 0.833018 0.928997 0.175119
O O12 0.202953 0.012952 0.534218
O O13 0.555209 0.875183 0.481202
#
# Coordination Sequence:
#
# PCOD9017503 Si02
#       7
#     2   2   2   2   1   2   2
#     4  10  21  43  63  99 132 169 215 269 316 400
#     4  11  22  41  66 100 129 175 209 273 319 391
#     4  10  24  43  65  93 135 166 223 264 328 383
#     4  10  22  39  69  95 135 168 216 263 328 381
#     4  10  24  44  62  98 122 178 210 276 322 374
#     4  10  22  42  62  97 127 175 211 269 315 392
#     4  10  23  41  68  93 136 165 222 267 324 380
#
# _framework density 27.172349000000001
#
# number of rings (size 3 to 8) (size 9 to 14) (size 15 to 20)
#    0.000    1.846    1.538    0.923    0.000   11.692 
#    8.308    0.000    0.000    0.000    0.000    0.000 
#    0.000    0.000    0.000    0.000    0.000    0.000 
#
# Total GULP energy -72437.564242 kJ/mol
# GULP energy per Si atom -5572.120326 kJ/mol
# Density = 2.711050 g / cm^3
# Si number density = 27.172349 Si / 1000 Ang^3
#
#
#
# Elastic Constant Matrix: (Units=GPa)
#
#
# Indices 1 2 3 4 5 6 
#
# 1 101.8266 62.9113 32.9869 4.6486 -32.9126 -23.3076
# 2 62.9113 128.9717 22.6252 17.8209 -15.8324 -5.4761
# 3 32.9869 22.6252 95.5579 -7.9747 -14.3754 -13.2445
# 4 4.6486 17.8209 -7.9747 43.2161 -11.0745 -1.3347
# 5 -32.9126 -15.8324 -14.3754 -11.0745 39.5271 9.3177
# 6 -23.3076 -5.4761 -13.2445 -1.3347 9.3177 57.3044
#
#
#
# Elastic Compliance Matrix: (Units=1/GPa)
#
#
# Indices 1 2 3 4 5 6 
#
# 1 0.021258 -0.008747 -0.002139 0.004535 0.013456 0.005234
# 2 -0.008747 0.012437 -0.001249 -0.005452 -0.003771 -0.002171
# 3 -0.002139 -0.001249 0.012478 0.003859 0.002984 0.001499
# 4 0.004535 -0.005452 0.003859 0.028384 0.010680 0.001140
# 5 0.013456 -0.003771 0.002984 0.010680 0.039144 -0.000314
# 6 0.005234 -0.002171 0.001499 0.001140 -0.000314 0.019796
#
#
# Mechanical properties :
#
#
# Convention : Reuss Voigt Hill
#
# Bulk Modulus (GPa) = 45.65396 62.60033 54.12714
# Shear Modulus (GPa) = 30.29070 41.86504 36.07787
#
# Velocity S-wave (km/s) = 3.34243 3.92946 3.64777
# Velocity P-wave (km/s) = 5.63328 6.60877 6.14043
#
# Compressibility (1/GPa) = 0.02190390
#
# Stress axis : x y z
#
# Youngs Moduli (GPa) = 47.04172 80.40231 80.14315
#
# Poissons Ratio (x) = 0.70326 0.17144
# Poissons Ratio (y) = 0.41146 0.10007
# Poissons Ratio (z) = 0.10063 0.10039
#
# Static dielectric constant tensor:
#      x y z
#    x 0.467310 -0.365980 -3.110480 
#    y -0.365980 2.039420 -0.714490 
#    z -3.110480 -0.714490 -3.541020 
# 
# From -- ./inp_files/59587.got.cif
#   From: 2010.05.17/outbox.cif.g08.bks.cpg/sg2_30_cif.got.tgz:59587.got - 2010.06.03 11:33:40.
