data_PCOD9017405
_publ_section_title
;
Structure prediction by ZEFSAII (Michael W. Deem and Ramdas Pophale) SiO2 
 PCOD9017405
Probable space group: P -1
;
_chemical_formula_sum "Si O2"
_cell_formula_units_Z 16
_cell_length_a 7.782176
_cell_length_b 8.139392
_cell_length_c 18.672650
_cell_angle_alpha 61.513836
_cell_angle_beta 124.774614
_cell_angle_gamma 141.597505
_cell_volume 602.451963
_symmetry_space_group_name_H-M "P -1"
_symmetry_group_IT_number 2
_symmetry_cell_setting 'triclinic'
loop_
_space_group_symop_operation_xyz
x,y,z
-x,-y,-z
loop_
_atom_site_type_symbol
_atom_site_label
_atom_site_fract_x
_atom_site_fract_y
_atom_site_fract_z
Si Si1 0.998578 0.061768 0.568918
Si Si2 0.838377 0.458564 0.865094
Si Si3 0.568131 0.922823 0.282333
Si Si4 0.607324 0.284710 0.130900
Si Si5 0.772063 0.501034 0.367409
Si Si6 0.310852 0.323891 0.834613
Si Si7 0.438745 0.898342 0.416742
Si Si8 0.236721 0.951010 0.985404
O O1 0.093895 0.939938 0.662291
O O2 0.233595 0.361970 0.594062
O O3 0.678309 0.955927 0.514615
O O4 0.000000 0.000000 0.500000
O O5 0.649424 0.467640 0.871522
O O6 0.148076 0.696420 0.851493
O O7 0.614853 0.285317 0.781977
O O8 0.923284 0.319314 0.955207
O O9 0.517350 0.107566 0.215048
O O10 0.453883 0.819213 0.357001
O O11 0.719145 0.545577 0.136472
O O12 0.361448 0.151350 0.039794
O O13 0.771101 0.630313 0.268872
O O14 0.547945 0.184720 0.373894
O O15 0.110487 0.644585 0.417812
O O16 0.136972 0.032337 0.883588
O O17 0.500000 0.000000 0.000000
#
# Coordination Sequence:
#
# PCOD9017405 Si02
#       8
#     2   2   2   2   2   2   2   2
#     4  10  23  45  69  98 138 183 228 288 362 421
#     4  10  22  42  65  95 138 180 233 287 353 416
#     4  10  21  43  61  99 137 178 230 289 348 422
#     4  11  22  41  67  96 138 179 234 290 348 421
#     4  12  24  47  69 106 138 182 238 291 353 425
#     4  11  22  42  66 100 133 182 235 290 352 421
#     4  11  25  45  71  99 142 180 234 296 351 420
#     4   9  22  42  61  95 139 174 236 287 347 420
#
# _framework density 26.558133999999999
#
# number of rings (size 3 to 8) (size 9 to 14) (size 15 to 20)
#    0.000    1.500    2.500    1.875    0.000    3.500 
#    4.500    3.750    0.000    0.000    0.000    0.000 
#    0.000    0.000    0.000    0.000    0.000    0.000 
#
# Total GULP energy -89350.173430 kJ/mol
# GULP energy per Si atom -5584.385839 kJ/mol
# Density = 2.649769 g / cm^3
# Si number density = 26.558134 Si / 1000 Ang^3
#
#
#
# Elastic Constant Matrix: (Units=GPa)
#
#
# Indices 1 2 3 4 5 6 
#
# 1 79.5410 17.4154 28.8119 3.7780 -14.4909 -14.9256
# 2 17.4154 71.1218 45.1438 7.8900 -14.0429 -12.3625
# 3 28.8119 45.1438 194.1733 2.6381 -8.7104 -12.1978
# 4 3.7780 7.8900 2.6381 28.3041 -5.1761 -7.8050
# 5 -14.4909 -14.0429 -8.7104 -5.1761 42.1056 2.5271
# 6 -14.9256 -12.3625 -12.1978 -7.8050 2.5271 33.7104
#
#
#
# Elastic Compliance Matrix: (Units=1/GPa)
#
#
# Indices 1 2 3 4 5 6 
#
# 1 0.015139 -0.001023 -0.001470 0.000748 0.004318 0.005645
# 2 -0.001023 0.018531 -0.003664 -0.002752 0.004489 0.004044
# 3 -0.001470 -0.003664 0.006221 0.000690 -0.000383 0.000445
# 4 0.000748 -0.002752 0.000690 0.038911 0.003768 0.008298
# 5 0.004318 0.004489 -0.000383 0.003768 0.026981 0.002269
# 6 0.005645 0.004044 0.000445 0.008298 0.002269 0.035559
#
#
# Mechanical properties :
#
#
# Convention : Reuss Voigt Hill
#
# Bulk Modulus (GPa) = 36.26142 58.61981 47.44062
# Shear Modulus (GPa) = 30.70331 37.72168 34.21250
#
# Velocity S-wave (km/s) = 3.40381 3.77283 3.59306
# Velocity P-wave (km/s) = 5.39732 6.41087 5.92580
#
# Compressibility (1/GPa) = 0.02757752
#
# Stress axis : x y z
#
# Youngs Moduli (GPa) = 66.05377 53.96387 160.73508
#
# Poissons Ratio (x) = 0.05520 0.23635
# Poissons Ratio (y) = 0.06756 0.58889
# Poissons Ratio (z) = 0.09713 0.19771
#
# Static dielectric constant tensor:
#      x y z
#    x 2.158880 -0.014000 0.038810 
#    y -0.014000 2.087650 0.019690 
#    z 0.038810 0.019690 2.085120 
# 
# From -- ./inp_files/122973.got.cif
#   From: 2010.05.17/outbox.cif.g08.bks.cpg/sg2_62_cif.got.tgz:122973.got - 2010.06.03 11:33:40.
