data_PCOD9017657
_publ_section_title
;
Structure prediction by ZEFSAII (Michael W. Deem and Ramdas Pophale) SiO2 
 PCOD9017657
Probable space group: P -1
;
_chemical_formula_sum "Si O2"
_cell_formula_units_Z 16
_cell_length_a 20.092183
_cell_length_b 17.395935
_cell_length_c 8.693200
_cell_angle_alpha 60.815931
_cell_angle_beta 128.715012
_cell_angle_gamma 160.297035
_cell_volume 737.777146
_symmetry_space_group_name_H-M "P -1"
_symmetry_group_IT_number 2
_symmetry_cell_setting 'triclinic'
loop_
_space_group_symop_operation_xyz
x,y,z
-x,-y,-z
loop_
_atom_site_type_symbol
_atom_site_label
_atom_site_fract_x
_atom_site_fract_y
_atom_site_fract_z
Si Si1 0.694223 0.692067 0.954980
Si Si2 0.600585 0.938729 0.435055
Si Si3 0.974538 0.038956 0.572587
Si Si4 0.432696 0.577702 0.208772
Si Si5 0.503628 0.161224 0.961553
Si Si6 0.972976 0.397976 0.685878
Si Si7 0.377304 0.535925 0.520464
Si Si8 0.741153 0.226982 0.823943
O O1 0.938713 0.922599 0.180868
O O2 0.500000 0.500000 0.000000
O O3 0.672987 0.589617 0.907907
O O4 0.602226 0.689593 0.735340
O O5 0.461003 0.715833 0.493168
O O6 0.438473 0.866792 0.310110
O O7 0.849977 0.194048 0.632092
O O8 0.637926 0.972178 0.273298
O O9 0.156235 0.293511 0.544194
O O10 0.702415 0.805965 0.410222
O O11 0.000000 0.000000 0.500000
O O12 0.311622 0.461873 0.316329
O O13 0.452508 0.696690 0.060829
O O14 0.764441 0.371684 0.098277
O O15 0.367212 0.965999 0.070717
O O16 0.796290 0.263124 0.691380
O O17 0.000000 0.500000 0.500000
O O18 0.000000 0.500000 0.000000
#
# Coordination Sequence:
#
# PCOD9017657 Si02
#       8
#     2   2   2   2   2   2   2   2
#     4  10  21  43  65  95 131 169 218 270 325 401
#     4  11  24  46  67 102 136 174 227 278 333 401
#     4  11  23  43  67  93 131 179 216 273 335 392
#     4  11  24  43  67  99 131 174 221 274 337 393
#     4  11  26  45  67 101 138 174 228 278 329 407
#     4  12  25  46  68  96 137 178 229 278 330 399
#     4  10  24  44  65 100 136 165 226 277 327 407
#     4  12  24  43  71  98 134 184 216 277 344 386
#
# _framework density 21.686765999999999
#
# number of rings (size 3 to 8) (size 9 to 14) (size 15 to 20)
#    0.000    1.000    5.000    1.875    1.750    4.500 
#    4.500    0.000    0.000    0.000    0.000    0.000 
#    0.000    0.000    0.000    0.000    0.000    0.000 
#
# Total GULP energy -89500.790216 kJ/mol
# GULP energy per Si atom -5593.799388 kJ/mol
# Density = 2.163741 g / cm^3
# Si number density = 21.686766 Si / 1000 Ang^3
#
#
#
# Elastic Constant Matrix: (Units=GPa)
#
#
# Indices 1 2 3 4 5 6 
#
# 1 60.3325 21.5116 29.4610 -10.5559 -13.1228 -20.4270
# 2 21.5116 91.2230 31.0719 -17.8374 -16.7515 -5.4254
# 3 29.4610 31.0719 72.5906 -5.5969 -13.8601 -21.5857
# 4 -10.5559 -17.8374 -5.5969 40.7951 -3.5956 7.5295
# 5 -13.1228 -16.7515 -13.8601 -3.5956 36.1999 4.5086
# 6 -20.4270 -5.4254 -21.5857 7.5295 4.5086 34.2474
#
#
#
# Elastic Compliance Matrix: (Units=1/GPa)
#
#
# Indices 1 2 3 4 5 6 
#
# 1 0.024824 -0.001871 -0.005057 0.003565 0.005326 0.009838
# 2 -0.001871 0.015373 -0.005550 0.006775 0.005531 -0.004396
# 3 -0.005057 -0.005550 0.021376 -0.002406 0.002324 0.009801
# 4 0.003565 0.006775 -0.002406 0.029773 0.007187 -0.005809
# 5 0.005326 0.005531 0.002324 0.007187 0.033781 -0.000510
# 6 0.009838 -0.004396 0.009801 -0.005809 -0.000510 0.041893
#
#
# Mechanical properties :
#
#
# Convention : Reuss Voigt Hill
#
# Bulk Modulus (GPa) = 27.30906 43.13723 35.22314
# Shear Modulus (GPa) = 24.48802 31.72190 28.10496
#
# Velocity S-wave (km/s) = 3.36396 3.82872 3.60384
# Velocity P-wave (km/s) = 5.26385 6.28328 5.79602
#
# Compressibility (1/GPa) = 0.03661789
#
# Stress axis : x y z
#
# Youngs Moduli (GPa) = 40.28305 65.05063 46.78094
#
# Poissons Ratio (x) = 0.12173 0.23656
# Poissons Ratio (y) = 0.07538 0.25961
# Poissons Ratio (z) = 0.20370 0.36100
#
# Static dielectric constant tensor:
#      x y z
#    x 0.868550 0.274220 0.067170 
#    y 0.274220 1.721010 -0.012160 
#    z 0.067170 -0.012160 1.797040 
# 
# From -- ./inp_files/348444.got.cif
#   From: 2010.05.17/outbox.cif.g08.bks.cpg/sg2_175_cif.got.tgz:348444.got - 2010.06.03 11:33:40.
