data_PCOD9017363
_publ_section_title
;
Structure prediction by ZEFSAII (Michael W. Deem and Ramdas Pophale) SiO2 
 PCOD9017363
Probable space group: P -1
;
_chemical_formula_sum "Si O2"
_cell_formula_units_Z 16
_cell_length_a 7.973808
_cell_length_b 18.864188
_cell_length_c 8.111090
_cell_angle_alpha 91.812612
_cell_angle_beta 55.592071
_cell_angle_gamma 130.977582
_cell_volume 637.592355
_symmetry_space_group_name_H-M "P -1"
_symmetry_group_IT_number 2
_symmetry_cell_setting 'triclinic'
loop_
_space_group_symop_operation_xyz
x,y,z
-x,-y,-z
loop_
_atom_site_type_symbol
_atom_site_label
_atom_site_fract_x
_atom_site_fract_y
_atom_site_fract_z
Si Si1 0.274737 0.083190 0.023843
Si Si2 0.146389 0.318492 0.702364
Si Si3 0.870983 0.093840 0.742434
Si Si4 0.398543 0.228264 0.224963
Si Si5 0.388039 0.044580 0.635322
Si Si6 0.666716 0.521912 0.629058
Si Si7 0.180615 0.734572 0.777873
Si Si8 0.471188 0.402128 0.048980
O O1 0.449795 0.173558 0.076209
O O2 0.065972 0.962956 0.206180
O O3 0.487347 0.106621 0.762090
O O4 0.994407 0.061599 0.124732
O O5 0.513043 0.433030 0.563113
O O6 0.083451 0.360588 0.598544
O O7 0.053044 0.214574 0.697371
O O8 0.985037 0.284907 0.965380
O O9 0.022654 0.122995 0.479745
O O10 0.500000 0.000000 0.000000
O O11 0.626435 0.282621 0.264445
O O12 0.463006 0.318758 0.101341
O O13 0.539797 0.138216 0.426070
O O14 0.500000 0.000000 0.500000
O O15 0.444569 0.524395 0.837601
O O16 0.694536 0.478348 0.770994
O O17 0.891752 0.668769 0.801758
#
# Coordination Sequence:
#
# PCOD9017363 Si02
#       8
#     2   2   2   2   2   2   2   2
#     4  11  26  42  66 104 151 201 250 301 361 453
#     4  10  21  42  75 107 140 198 250 303 378 447
#     4  12  25  40  71 109 150 203 245 301 381 448
#     4  12  25  46  69 109 155 191 250 309 368 457
#     4  11  24  43  65  99 149 199 249 305 360 434
#     4   9  20  43  74 103 142 188 256 309 370 448
#     4  11  24  42  68 102 145 183 244 306 366 444
#     4  10  22  44  74 104 142 196 239 316 386 430
#
# _framework density 25.094403
#
# number of rings (size 3 to 8) (size 9 to 14) (size 15 to 20)
#    0.000    1.250    2.500    2.625    5.250    4.000 
#    0.000    6.250    0.000    0.000    0.000    0.000 
#    0.000    0.000    0.000    0.000    0.000    0.000 
#
# Total GULP energy -89090.917437 kJ/mol
# GULP energy per Si atom -5568.182340 kJ/mol
# Density = 2.503729 g / cm^3
# Si number density = 25.094403 Si / 1000 Ang^3
#
#
#
# Elastic Constant Matrix: (Units=GPa)
#
#
# Indices 1 2 3 4 5 6 
#
# 1 98.4956 62.9205 23.7937 -1.2285 14.4988 -13.9360
# 2 62.9205 143.5229 57.7013 -5.9234 10.4591 -17.2109
# 3 23.7937 57.7013 161.0592 3.0839 29.1527 -29.2082
# 4 -1.2285 -5.9234 3.0839 39.2736 -14.0170 16.0586
# 5 14.4988 10.4591 29.1527 -14.0170 51.9136 -10.7527
# 6 -13.9360 -17.2109 -29.2082 16.0586 -10.7527 38.6566
#
#
#
# Elastic Compliance Matrix: (Units=1/GPa)
#
#
# Indices 1 2 3 4 5 6 
#
# 1 0.015160 -0.006698 0.001737 -0.003855 -0.004014 0.004280
# 2 -0.006698 0.011230 -0.003631 0.002876 0.002274 -0.000720
# 3 0.001737 -0.003631 0.009679 -0.006184 -0.005324 0.007411
# 4 -0.003855 0.002876 -0.006184 0.037033 0.010391 -0.017276
# 5 -0.004014 0.002274 -0.005324 0.010391 0.025365 -0.001718
# 6 0.004280 -0.000720 0.007411 -0.017276 -0.001718 0.039389
#
#
# Mechanical properties :
#
#
# Convention : Reuss Voigt Hill
#
# Bulk Modulus (GPa) = 52.95239 76.87875 64.91557
# Shear Modulus (GPa) = 30.99095 43.21292 37.10193
#
# Velocity S-wave (km/s) = 3.51803 4.15422 3.84929
# Velocity P-wave (km/s) = 6.13589 7.32887 6.75875
#
# Compressibility (1/GPa) = 0.01888489
#
# Stress axis : x y z
#
# Youngs Moduli (GPa) = 65.96182 89.04500 103.31402
#
# Poissons Ratio (x) = 0.59640 -0.17941
# Poissons Ratio (y) = 0.44179 0.37516
# Poissons Ratio (z) = -0.11454 0.32335
#
# Static dielectric constant tensor:
#      x y z
#    x 2.324950 0.115130 -0.060630 
#    y 0.115130 2.071090 0.038120 
#    z -0.060630 0.038120 2.003250 
# 
# From -- ./inp_files/215084.got.cif
#   From: 2010.05.17/outbox.cif.g08.bks.cpg/sg2_108_cif.got.tgz:215084.got - 2010.06.03 11:33:40.
