data_PCOD9017355
_publ_section_title
;
Structure prediction by ZEFSAII (Michael W. Deem and Ramdas Pophale) SiO2 
 PCOD9017355
Probable space group: P -1
;
_chemical_formula_sum "Si O2"
_cell_formula_units_Z 16
_cell_length_a 18.770736
_cell_length_b 9.631010
_cell_length_c 13.517086
_cell_angle_alpha 136.236115
_cell_angle_beta 153.971607
_cell_angle_gamma 54.456447
_cell_volume 723.057589
_symmetry_space_group_name_H-M "P -1"
_symmetry_group_IT_number 2
_symmetry_cell_setting 'triclinic'
loop_
_space_group_symop_operation_xyz
x,y,z
-x,-y,-z
loop_
_atom_site_type_symbol
_atom_site_label
_atom_site_fract_x
_atom_site_fract_y
_atom_site_fract_z
Si Si1 0.863708 0.521094 0.760057
Si Si2 0.382271 0.946121 0.420471
Si Si3 0.166952 0.443717 0.644066
Si Si4 0.460305 0.722983 0.078029
Si Si5 0.659755 0.105134 0.187185
Si Si6 0.232432 0.297114 0.852648
Si Si7 0.462900 0.409782 0.515807
Si Si8 0.033569 0.640063 0.834325
O O1 0.769196 0.303065 0.481727
O O2 0.721250 0.610766 0.682899
O O3 0.962065 0.652068 0.860372
O O4 0.000000 0.500000 0.000000
O O5 0.478987 0.800837 0.525812
O O6 0.500000 0.000000 0.500000
O O7 0.394457 0.137386 0.606133
O O8 0.195235 0.818928 0.104227
O O9 0.216507 0.296255 0.712921
O O10 0.000000 0.500000 0.500000
O O11 0.114979 0.360183 0.427598
O O12 0.299492 0.659469 0.914719
O O13 0.500000 0.500000 0.000000
O O14 0.407387 0.820221 0.961418
O O15 0.765588 0.927173 0.217469
O O16 0.500000 0.000000 0.000000
O O17 0.099178 0.424409 0.793804
O O18 0.410891 0.442287 0.176696
O O19 0.500000 0.500000 0.500000
#
# Coordination Sequence:
#
# PCOD9017355 Si02
#       8
#     2   2   2   2   2   2   2   2
#     4  12  26  45  68 104 148 179 234 307 361 410
#     4  11  25  45  76 102 134 194 244 274 356 438
#     4  10  21  44  67 100 146 179 223 293 355 411
#     4  12  26  45  73 102 139 186 237 294 351 429
#     4  12  25  43  71 105 138 186 248 285 358 429
#     4  10  21  42  74  98 141 189 235 287 347 436
#     4  11  23  46  72  97 141 185 236 290 355 433
#     4  10  23  45  69 106 148 182 234 299 358 416
#
# _framework density 22.128250999999999
#
# number of rings (size 3 to 8) (size 9 to 14) (size 15 to 20)
#    0.000    1.000    2.500    5.250    3.500    0.500 
#    6.750    1.250    0.000    0.000    0.000    0.000 
#    0.000    0.000    0.000    0.000    0.000    0.000 
#
# Total GULP energy -89415.116286 kJ/mol
# GULP energy per Si atom -5588.444768 kJ/mol
# Density = 2.207789 g / cm^3
# Si number density = 22.128251 Si / 1000 Ang^3
#
#
#
# Elastic Constant Matrix: (Units=GPa)
#
#
# Indices 1 2 3 4 5 6 
#
# 1 103.3691 28.8553 27.9469 -13.3536 2.5161 20.0483
# 2 28.8553 108.5576 23.1641 -4.6014 -12.3236 7.9052
# 3 27.9469 23.1641 105.0390 -5.2863 -8.8474 -1.7863
# 4 -13.3536 -4.6014 -5.2863 40.9293 5.5839 -6.6532
# 5 2.5161 -12.3236 -8.8474 5.5839 43.3630 -6.6249
# 6 20.0483 7.9052 -1.7863 -6.6532 -6.6249 45.3079
#
#
#
# Elastic Compliance Matrix: (Units=1/GPa)
#
#
# Indices 1 2 3 4 5 6 
#
# 1 0.012726 -0.002593 -0.003029 0.003053 -0.003301 -0.005332
# 2 -0.002593 0.010540 -0.001417 -0.000292 0.002837 -0.000375
# 3 -0.003029 -0.001417 0.010892 0.000334 0.002320 0.002405
# 4 0.003053 -0.000292 0.000334 0.026221 -0.003250 0.002089
# 5 -0.003301 0.002837 0.002320 -0.003250 0.025612 0.004325
# 6 -0.005332 -0.000375 0.002405 0.002089 0.004325 0.025530
#
#
# Mechanical properties :
#
#
# Convention : Reuss Voigt Hill
#
# Bulk Modulus (GPa) = 49.80094 52.98871 51.39482
# Shear Modulus (GPa) = 37.79506 41.72001 39.75754
#
# Velocity S-wave (km/s) = 4.13728 4.34680 4.24333
# Velocity P-wave (km/s) = 6.73626 7.01363 6.87635
#
# Compressibility (1/GPa) = 0.02007994
#
# Stress axis : x y z
#
# Youngs Moduli (GPa) = 78.58003 94.87373 91.81306
#
# Poissons Ratio (x) = 0.24604 0.27811
# Poissons Ratio (y) = 0.20378 0.13006
# Poissons Ratio (z) = 0.23803 0.13439
#
# Static dielectric constant tensor:
#      x y z
#    x 10.211500 -0.997090 2.205940 
#    y -0.997090 1.968310 -0.267060 
#    z 2.205940 -0.267060 2.350260 
# 
# From -- ./inp_files/462523.got.cif
#   From: 2010.05.17/outbox.cif.g08.bks.cpg/sg2_232_cif.got.tgz:462523.got - 2010.06.03 11:33:40.
