data_PCOD9017703
_publ_section_title
;
Structure prediction by ZEFSAII (Michael W. Deem and Ramdas Pophale) SiO2 
 PCOD9017703
Probable space group: P -1
;
_chemical_formula_sum "Si O2"
_cell_formula_units_Z 16
_cell_length_a 13.726405
_cell_length_b 7.005942
_cell_length_c 17.998307
_cell_angle_alpha 96.172396
_cell_angle_beta 29.805275
_cell_angle_gamma 109.569548
_cell_volume 746.087170
_symmetry_space_group_name_H-M "P -1"
_symmetry_group_IT_number 2
_symmetry_cell_setting 'triclinic'
loop_
_space_group_symop_operation_xyz
x,y,z
-x,-y,-z
loop_
_atom_site_type_symbol
_atom_site_label
_atom_site_fract_x
_atom_site_fract_y
_atom_site_fract_z
Si Si1 0.319963 0.189424 0.341328
Si Si2 0.987526 0.699308 0.554944
Si Si3 0.851879 0.783277 0.042718
Si Si4 0.538778 0.796162 0.477093
Si Si5 0.174673 0.572417 0.044511
Si Si6 0.463152 0.458318 0.395433
Si Si7 0.239158 0.365667 0.143484
Si Si8 0.070683 0.964691 0.138716
O O1 0.191973 0.252535 0.366978
O O2 0.577395 0.299433 0.150525
O O3 0.290859 0.285822 0.443359
O O4 0.216595 0.929105 0.406399
O O5 0.910248 0.644694 0.688420
O O6 0.000000 0.500000 0.500000
O O7 0.955567 0.637741 0.932953
O O8 0.658466 0.628192 0.220099
O O9 0.786463 0.873520 0.016680
O O10 0.000000 0.000000 0.000000
O O11 0.410391 0.609644 0.491605
O O12 0.470372 0.678901 0.597448
O O13 0.807890 0.888727 0.297551
O O14 0.500000 0.000000 0.500000
O O15 0.193419 0.480791 0.108240
O O16 0.087714 0.745032 0.116748
O O17 0.164287 0.116922 0.155824
O O18 0.500000 0.500000 0.000000
#
# Coordination Sequence:
#
# PCOD9017703 Si02
#       8
#     2   2   2   2   2   2   2   2
#     4  10  23  44  63 100 131 173 224 281 339 410
#     4  11  25  42  71  96 135 176 226 281 348 405
#     4  10  21  43  66 100 133 172 223 279 333 403
#     4  11  25  45  67  97 136 180 226 283 346 414
#     4  10  24  42  72  97 139 178 229 280 340 409
#     4  10  23  42  68  95 132 173 224 275 345 406
#     4  11  24  44  68 102 139 177 231 283 342 412
#     4  11  25  44  68  99 135 181 229 280 349 404
#
# _framework density 21.445215999999999
#
# number of rings (size 3 to 8) (size 9 to 14) (size 15 to 20)
#    0.000    1.500    2.500    0.750    1.750   12.000 
#    0.000    0.000    0.000    0.000    0.000    0.000 
#    0.000    0.000    0.000    0.000    0.000    0.000 
#
# Total GULP energy -89418.831228 kJ/mol
# GULP energy per Si atom -5588.676952 kJ/mol
# Density = 2.139641 g / cm^3
# Si number density = 21.445216 Si / 1000 Ang^3
#
#
#
# Elastic Constant Matrix: (Units=GPa)
#
#
# Indices 1 2 3 4 5 6 
#
# 1 70.2208 54.8390 39.7280 8.3573 23.9466 13.4192
# 2 54.8390 202.7530 50.4201 4.5411 8.7356 7.4520
# 3 39.7280 50.4201 91.5906 -12.0924 18.1573 -3.0127
# 4 8.3573 4.5411 -12.0924 32.1517 -1.6944 4.0377
# 5 23.9466 8.7356 18.1573 -1.6944 38.0179 3.1504
# 6 13.4192 7.4520 -3.0127 4.0377 3.1504 45.7863
#
#
#
# Elastic Compliance Matrix: (Units=1/GPa)
#
#
# Indices 1 2 3 4 5 6 
#
# 1 0.030665 -0.004825 -0.009613 -0.010743 -0.013518 -0.006957
# 2 -0.004825 0.006662 -0.002115 -0.000357 0.002499 0.000050
# 3 -0.009613 -0.002115 0.017942 0.008981 -0.001933 0.003683
# 4 -0.010743 -0.000357 0.008981 0.037521 0.004215 0.000199
# 5 -0.013518 0.002499 -0.001933 0.004215 0.035303 0.000627
# 6 -0.006957 0.000050 0.003683 0.000199 0.000627 0.024053
#
#
# Mechanical properties :
#
#
# Convention : Reuss Voigt Hill
#
# Bulk Modulus (GPa) = 45.11849 72.72653 58.92251
# Shear Modulus (GPa) = 25.95526 37.82967 31.89247
#
# Velocity S-wave (km/s) = 3.48272 4.20457 3.86055
# Velocity P-wave (km/s) = 6.10386 7.58667 6.88530
#
# Compressibility (1/GPa) = 0.02216386
#
# Stress axis : x y z
#
# Youngs Moduli (GPa) = 32.61014 150.11422 55.73454
#
# Poissons Ratio (x) = 0.72429 0.53575
# Poissons Ratio (y) = 0.15734 0.11788
# Poissons Ratio (z) = 0.31347 0.31751
#
# Static dielectric constant tensor:
#      x y z
#    x 1.779940 0.039250 -0.007890 
#    y 0.039250 1.777090 -0.015490 
#    z -0.007890 -0.015490 1.788780 
# 
# From -- ./inp_files/571721.got.cif
#   From: 2010.05.17/outbox.cif.g08.bks.cpg/sg2_286_cif.got.tgz:571721.got - 2010.06.03 11:33:40.
