data_PCOD9017696
_publ_section_title
;
Structure prediction by ZEFSAII (Michael W. Deem and Ramdas Pophale) SiO2 
 PCOD9017696
Probable space group: P -1
;
_chemical_formula_sum "Si O2"
_cell_formula_units_Z 16
_cell_length_a 10.477721
_cell_length_b 5.369809
_cell_length_c 11.993076
_cell_angle_alpha 79.820777
_cell_angle_beta 79.981986
_cell_angle_gamma 66.984416
_cell_volume 607.173513
_symmetry_space_group_name_H-M "P -1"
_symmetry_group_IT_number 2
_symmetry_cell_setting 'triclinic'
loop_
_space_group_symop_operation_xyz
x,y,z
-x,-y,-z
loop_
_atom_site_type_symbol
_atom_site_label
_atom_site_fract_x
_atom_site_fract_y
_atom_site_fract_z
Si Si1 0.121603 0.880048 0.084364
Si Si2 0.530580 0.171253 0.579657
Si Si3 0.512410 0.530728 0.863748
Si Si4 0.788773 0.321541 0.499070
Si Si5 0.034423 0.129540 0.313323
Si Si6 0.255564 0.341864 0.308912
Si Si7 0.630709 0.827093 0.205674
Si Si8 0.165539 0.373544 0.988619
O O1 0.050020 0.954433 0.211540
O O2 0.203081 0.582616 0.043310
O O3 0.214457 0.067662 0.052179
O O4 0.000000 0.000000 0.000000
O O5 0.629327 0.959473 0.672524
O O6 0.500000 0.000000 0.500000
O O7 0.630932 0.326441 0.514883
O O8 0.386251 0.273703 0.661044
O O9 0.657245 0.497757 0.778025
O O10 0.461700 0.298760 0.843369
O O11 0.412597 0.845885 0.822894
O O12 0.500000 0.500000 0.000000
O O13 0.782450 0.564450 0.564469
O O14 0.881183 0.269219 0.377915
O O15 0.875949 0.068355 0.586903
O O16 0.117222 0.335605 0.270964
O O17 0.780853 0.668015 0.141849
O O18 0.000000 0.500000 0.000000
#
# Coordination Sequence:
#
# PCOD9017696 Si02
#       8
#     2   2   2   2   2   2   2   2
#     4  10  23  43  63  99 136 179 224 278 343 415
#     4  10  23  43  65  97 135 181 230 287 346 413
#     4  11  24  41  68 100 138 180 227 279 345 415
#     4  10  21  43  65  99 134 175 237 279 353 409
#     4  10  23  39  69  98 135 180 223 293 346 412
#     4  10  22  42  65  99 136 172 235 287 345 417
#     4  11  23  44  65 100 137 175 227 285 341 414
#     4  10  23  43  65  92 135 174 227 276 340 408
#
# _framework density 26.351611999999999
#
# number of rings (size 3 to 8) (size 9 to 14) (size 15 to 20)
#    0.000    1.750    1.250    1.500    3.500    3.500 
#    4.500    0.000    0.000    0.000    0.000    0.000 
#    0.000    0.000    0.000    0.000    0.000    0.000 
#
# Total GULP energy -89389.304952 kJ/mol
# GULP energy per Si atom -5586.831559 kJ/mol
# Density = 2.629164 g / cm^3
# Si number density = 26.351612 Si / 1000 Ang^3
#
#
#
# Elastic Constant Matrix: (Units=GPa)
#
#
# Indices 1 2 3 4 5 6 
#
# 1 110.5569 20.2550 45.6326 25.7201 -18.5066 -10.5032
# 2 20.2550 117.5425 34.0390 24.5363 -8.0142 18.4837
# 3 45.6326 34.0390 203.1668 37.6193 -30.2212 -1.7514
# 4 25.7201 24.5363 37.6193 61.8762 -0.2511 1.6679
# 5 -18.5066 -8.0142 -30.2212 -0.2511 49.1254 17.0012
# 6 -10.5032 18.4837 -1.7514 1.6679 17.0012 41.2897
#
#
#
# Elastic Compliance Matrix: (Units=1/GPa)
#
#
# Indices 1 2 3 4 5 6 
#
# 1 0.011227 -0.001037 -0.001322 -0.003507 0.002391 0.002421
# 2 -0.001037 0.010737 -0.000531 -0.003322 0.003188 -0.006271
# 3 -0.001322 -0.000531 0.006436 -0.003104 0.003796 -0.001263
# 4 -0.003507 -0.003322 -0.003104 0.020771 -0.004124 0.001322
# 5 0.002391 0.003188 0.003796 -0.004124 0.028293 -0.012141
# 6 0.002421 -0.006271 -0.001263 0.001322 -0.012141 0.032534
#
#
# Mechanical properties :
#
#
# Convention : Reuss Voigt Hill
#
# Bulk Modulus (GPa) = 44.20817 70.12438 57.16627
# Shear Modulus (GPa) = 40.54526 52.54756 46.54641
#
# Velocity S-wave (km/s) = 3.92679 4.47037 4.20737
# Velocity P-wave (km/s) = 6.11328 7.30167 6.73375
#
# Compressibility (1/GPa) = 0.02262026
#
# Stress axis : x y z
#
# Youngs Moduli (GPa) = 89.07076 93.13677 155.36557
#
# Poissons Ratio (x) = 0.09663 0.20537
# Poissons Ratio (y) = 0.09241 0.08245
# Poissons Ratio (z) = 0.11774 0.04943
#
# Static dielectric constant tensor:
#      x y z
#    x 7.359780 -2.754220 3.946650 
#    y -2.754220 3.702500 -2.131740 
#    z 3.946650 -2.131740 5.193900 
# 
# From -- ./inp_files/410475.got.cif
#   From: 2010.05.17/outbox.cif.g08.bks.cpg/sg2_206_cif.got.tgz:410475.got - 2010.06.03 11:33:40.
