data_PCOD9017092
_publ_section_title
;
Structure prediction by ZEFSAII (Michael W. Deem and Ramdas Pophale) SiO2 
 PCOD9017092
Probable space group: P -1
;
_chemical_formula_sum "Si O2"
_cell_formula_units_Z 16
_cell_length_a 14.156953
_cell_length_b 7.483941
_cell_length_c 9.358215
_cell_angle_alpha 50.021560
_cell_angle_beta 121.266438
_cell_angle_gamma 125.391536
_cell_volume 602.006565
_symmetry_space_group_name_H-M "P -1"
_symmetry_group_IT_number 2
_symmetry_cell_setting 'triclinic'
loop_
_space_group_symop_operation_xyz
x,y,z
-x,-y,-z
loop_
_atom_site_type_symbol
_atom_site_label
_atom_site_fract_x
_atom_site_fract_y
_atom_site_fract_z
Si Si1 0.827092 0.131025 0.319025
Si Si2 0.144101 0.412277 0.098958
Si Si3 0.970406 0.158307 0.703290
Si Si4 0.409801 0.685479 0.595905
Si Si5 0.215060 0.207703 0.811615
Si Si6 0.584125 0.430646 0.802247
Si Si7 0.809845 0.254001 0.769818
Si Si8 0.437871 0.937513 0.773698
O O1 0.692285 0.050262 0.313828
O O2 0.915194 0.161849 0.502808
O O3 0.826558 0.926320 0.305699
O O4 0.856157 0.383871 0.121252
O O5 0.052218 0.135441 0.138157
O O6 0.277521 0.411962 0.198000
O O7 0.130289 0.519582 0.187773
O O8 0.897930 0.244530 0.718549
O O9 0.112065 0.297050 0.741508
O O10 0.335028 0.438645 0.759919
O O11 0.506503 0.599634 0.639480
O O12 0.305504 0.719164 0.404240
O O13 0.461613 0.895022 0.650906
O O14 0.228200 0.002382 0.035650
O O15 0.535930 0.187540 0.787447
O O16 0.566866 0.298829 0.011507
#
# Coordination Sequence:
#
# PCOD9017092 Si02
#       8
#     2   2   2   2   2   2   2   2
#     4  10  21  46  71 101 136 182 234 283 341 415
#     4  10  26  46  70 100 144 183 223 290 350 398
#     4  12  25  47  71 102 140 184 235 284 343 414
#     4  12  24  45  72 101 140 182 227 283 352 403
#     4  11  26  45  72 103 141 182 231 289 344 411
#     4  10  23  44  73 100 136 184 229 282 343 412
#     4  11  27  44  66 108 142 175 239 283 337 425
#     4  10  21  42  71 102 132 174 233 277 335 414
#
# _framework density 26.577784000000001
#
# number of rings (size 3 to 8) (size 9 to 14) (size 15 to 20)
#    0.000    1.250    2.500    1.875    5.250    5.000 
#    2.250    1.250    0.000    0.000    0.000    0.000 
#    0.000    0.000    0.000    0.000    0.000    0.000 
#
# Total GULP energy -90011.153170 kJ/mol
# GULP energy per Si atom -5625.697073 kJ/mol
# Density = 2.651729 g / cm^3
# Si number density = 26.577784 Si / 1000 Ang^3
#
#
#
# Elastic Constant Matrix: (Units=GPa)
#
#
# Indices 1 2 3 4 5 6 
#
# 1 140.2525 13.3608 41.7412 16.6713 4.7245 -13.0368
# 2 13.3608 81.2396 15.8333 13.0591 -4.5733 -13.9673
# 3 41.7412 15.8333 124.4172 15.2087 -1.4692 -24.9131
# 4 16.6713 13.0591 15.2087 37.3351 -10.7300 -12.3357
# 5 4.7245 -4.5733 -1.4692 -10.7300 42.3441 12.6114
# 6 -13.0368 -13.9673 -24.9131 -12.3357 12.6114 45.9688
#
#
#
# Elastic Compliance Matrix: (Units=1/GPa)
#
#
# Indices 1 2 3 4 5 6 
#
# 1 0.008335 -0.000435 -0.002245 -0.002986 -0.002042 0.000774
# 2 -0.000435 0.013517 -0.000597 -0.003427 -0.000214 0.002799
# 3 -0.002245 -0.000597 0.009955 -0.001727 -0.001232 0.004451
# 4 -0.002986 -0.003427 -0.001727 0.033457 0.007131 0.004197
# 5 -0.002042 -0.000214 -0.001232 0.007131 0.027666 -0.006989
# 6 0.000774 0.002799 0.004451 0.004197 -0.006989 0.028280
#
#
# Mechanical properties :
#
#
# Convention : Reuss Voigt Hill
#
# Bulk Modulus (GPa) = 39.60082 54.19776 46.89929
# Shear Modulus (GPa) = 36.71537 43.46120 40.08829
#
# Velocity S-wave (km/s) = 3.72079 4.04820 3.88795
# Velocity P-wave (km/s) = 5.77853 6.50285 6.15136
#
# Compressibility (1/GPa) = 0.02525200
#
# Stress axis : x y z
#
# Youngs Moduli (GPa) = 119.97087 73.97899 100.45596
#
# Poissons Ratio (x) = 0.03219 0.22554
# Poissons Ratio (y) = 0.05220 0.06000
# Poissons Ratio (z) = 0.26936 0.04419
#
# Static dielectric constant tensor:
#      x y z
#    x 2.005860 0.007910 -0.033560 
#    y 0.007910 2.075320 -0.043180 
#    z -0.033560 -0.043180 2.073410 
# 
# From -- ./inp_files/328492.got.cif
#   From: 2010.05.17/outbox.cif.g08.bks.cpg/sg2_165_cif.got.tgz:328492.got - 2010.06.03 11:33:40.
