data_PCOD9017366
_publ_section_title
;
Structure prediction by ZEFSAII (Michael W. Deem and Ramdas Pophale) SiO2 
 PCOD9017366
Probable space group: P -1
;
_chemical_formula_sum "Si O2"
_cell_formula_units_Z 16
_cell_length_a 9.241315
_cell_length_b 14.405869
_cell_length_c 6.355460
_cell_angle_alpha 85.088119
_cell_angle_beta 121.476741
_cell_angle_gamma 78.360582
_cell_volume 688.039640
_symmetry_space_group_name_H-M "P -1"
_symmetry_group_IT_number 2
_symmetry_cell_setting 'triclinic'
loop_
_space_group_symop_operation_xyz
x,y,z
-x,-y,-z
loop_
_atom_site_type_symbol
_atom_site_label
_atom_site_fract_x
_atom_site_fract_y
_atom_site_fract_z
Si Si1 0.779897 0.705038 0.847815
Si Si2 0.932676 0.909282 0.539567
Si Si3 0.090938 0.696512 0.753231
Si Si4 0.562149 0.232022 0.676389
Si Si5 0.014404 0.581939 0.340679
Si Si6 0.612674 0.853284 0.057461
Si Si7 0.355511 0.956951 0.497487
Si Si8 0.677122 0.420455 0.733986
O O1 0.615880 0.706340 0.583495
O O2 0.939024 0.707750 0.813377
O O3 0.711320 0.791863 0.944563
O O4 0.843284 0.611569 0.059061
O O5 0.771987 0.885304 0.288031
O O6 0.091615 0.809315 0.706976
O O7 0.826377 0.956786 0.657991
O O8 0.000000 0.000000 0.500000
O O9 0.028423 0.669383 0.484792
O O10 0.251194 0.601144 0.965150
O O11 0.481743 0.202249 0.837528
O O12 0.650637 0.135801 0.625850
O O13 0.676140 0.307346 0.731703
O O14 0.176065 0.557799 0.308071
O O15 0.000000 0.500000 0.500000
O O16 0.440281 0.926676 0.799692
O O17 0.500000 0.000000 0.500000
O O18 0.500000 0.500000 0.500000
#
# Coordination Sequence:
#
# PCOD9017366 Si02
#       8
#     2   2   2   2   2   2   2   2
#     4  10  21  42  75  97 136 182 234 283 352 415
#     4  12  25  40  69 101 139 185 232 281 344 408
#     4  11  25  49  68 100 148 178 233 287 353 419
#     4  11  24  43  71 100 146 182 235 290 345 412
#     4  11  26  46  75 101 135 185 230 289 362 416
#     4  11  22  43  69  99 141 189 227 285 348 410
#     4  11  24  43  70 104 138 188 240 280 346 417
#     4  11  30  46  72 107 139 180 235 294 351 421
#
# _framework density 23.254477000000001
#
# number of rings (size 3 to 8) (size 9 to 14) (size 15 to 20)
#    0.000    1.000    3.750    1.125    8.750    2.500 
#    0.000    1.875    0.000    0.000    0.000    0.000 
#    0.000    0.000    0.000    0.000    0.000    0.000 
#
# Total GULP energy -89164.390554 kJ/mol
# GULP energy per Si atom -5572.774410 kJ/mol
# Density = 2.320155 g / cm^3
# Si number density = 23.254477 Si / 1000 Ang^3
#
#
#
# Elastic Constant Matrix: (Units=GPa)
#
#
# Indices 1 2 3 4 5 6 
#
# 1 29.9405 -5.1772 -4.7190 -7.7964 -0.2926 -1.6289
# 2 -5.1772 77.5017 1.3032 -17.5580 2.2433 3.6474
# 3 -4.7190 1.3032 93.2234 -29.3766 -9.6026 -5.4688
# 4 -7.7964 -17.5580 -29.3766 35.6698 2.0449 1.2812
# 5 -0.2926 2.2433 -9.6026 2.0449 23.1903 -7.7415
# 6 -1.6289 3.6474 -5.4688 1.2812 -7.7415 42.5919
#
#
#
# Elastic Compliance Matrix: (Units=1/GPa)
#
#
# Indices 1 2 3 4 5 6 
#
# 1 0.040892 0.006707 0.008258 0.018843 0.002257 0.001893
# 2 0.006707 0.016301 0.003945 0.012866 -0.001420 -0.001278
# 3 0.008258 0.003945 0.017482 0.017678 0.006353 0.002846
# 4 0.018843 0.012866 0.017678 0.052916 0.001859 0.000635
# 5 0.002257 -0.001420 0.006353 0.001859 0.049053 0.009884
# 6 0.001893 -0.001278 0.002846 0.000635 0.009884 0.025803
#
#
# Mechanical properties :
#
#
# Convention : Reuss Voigt Hill
#
# Bulk Modulus (GPa) = 8.88940 20.38663 14.63802
# Shear Modulus (GPa) = 24.73707 34.24099 29.48903
#
# Velocity S-wave (km/s) = 3.26506 3.84141 3.56490
# Velocity P-wave (km/s) = 4.24796 5.33489 4.82215
#
# Compressibility (1/GPa) = 0.11249347
#
# Stress axis : x y z
#
# Youngs Moduli (GPa) = 24.45439 61.34730 57.20297
#
# Poissons Ratio (x) = -0.41147 -0.47235
# Poissons Ratio (y) = -0.16402 -0.22565
# Poissons Ratio (z) = -0.20193 -0.24200
#
# Static dielectric constant tensor:
#      x y z
#    x 1.864240 0.038640 0.122700 
#    y 0.038640 2.000870 0.043880 
#    z 0.122700 0.043880 1.997610 
# 
# From -- ./inp_files/38188.got.cif
#   From: 2010.05.17/outbox.cif.g08.bks.cpg/sg2_20_cif.got.tgz:38188.got - 2010.06.03 11:33:40.
