data_PCOD9017494
_publ_section_title
;
Structure prediction by ZEFSAII (Michael W. Deem and Ramdas Pophale) SiO2 
 PCOD9017494
Probable space group: P -1
;
_chemical_formula_sum "Si O2"
_cell_formula_units_Z 14
_cell_length_a 12.633772
_cell_length_b 9.332567
_cell_length_c 11.126696
_cell_angle_alpha 58.047373
_cell_angle_beta 120.383544
_cell_angle_gamma 144.077092
_cell_volume 645.162382
_symmetry_space_group_name_H-M "P -1"
_symmetry_group_IT_number 2
_symmetry_cell_setting 'triclinic'
loop_
_space_group_symop_operation_xyz
x,y,z
-x,-y,-z
loop_
_atom_site_type_symbol
_atom_site_label
_atom_site_fract_x
_atom_site_fract_y
_atom_site_fract_z
Si Si1 0.399164 0.788669 0.934013
Si Si2 0.739508 0.664735 0.410537
Si Si3 0.648792 0.981314 0.781686
Si Si4 0.907914 0.771854 0.717101
Si Si5 0.009486 0.500238 0.165050
Si Si6 0.853669 0.426233 0.538212
Si Si7 0.380144 0.397965 0.194380
O O1 0.487111 0.897947 0.803766
O O2 0.190299 0.630367 0.890589
O O3 0.419824 0.613039 0.054758
O O4 0.500000 0.000000 0.000000
O O5 0.775689 0.662769 0.573012
O O6 0.767780 0.518330 0.418628
O O7 0.541446 0.531539 0.323696
O O8 0.897554 0.951872 0.329451
O O9 0.624288 0.764055 0.826473
O O10 0.830067 0.197710 0.871578
O O11 0.699094 0.137189 0.620732
O O12 0.938506 0.605156 0.842275
O O13 0.810110 0.770429 0.769670
O O14 0.029841 0.428480 0.337955
O O15 0.000000 0.500000 0.500000
#
# Coordination Sequence:
#
# PCOD9017494 Si02
#       7
#     2   2   2   2   2   2   2
#     4  12  26  44  67  92 129 176 222 263 317 381
#     4  10  22  39  65  97 131 163 215 269 316 390
#     4  10  25  44  61 101 125 169 218 261 328 378
#     4  10  21  43  63  97 128 172 215 263 327 375
#     4   9  23  44  65  90 134 165 219 263 309 393
#     4   9  20  43  66  95 129 167 204 261 333 375
#     4  12  25  39  68  96 129 169 216 267 326 379
#
# _framework density 21.699964999999999
#
# number of rings (size 3 to 8) (size 9 to 14) (size 15 to 20)
#    0.857    0.857    0.000    3.429    2.000    4.571 
#    7.714    0.000    0.000    0.000    0.000    0.000 
#    0.000    0.000    0.000    0.000    0.000    0.000 
#
# Total GULP energy -78161.617034 kJ/mol
# GULP energy per Si atom -5582.972645 kJ/mol
# Density = 2.165057 g / cm^3
# Si number density = 21.699965 Si / 1000 Ang^3
#
#
#
# Elastic Constant Matrix: (Units=GPa)
#
#
# Indices 1 2 3 4 5 6 
#
# 1 139.0487 38.1218 38.5303 -2.7549 -4.9967 14.4450
# 2 38.1218 90.9249 30.7933 -7.1845 22.7139 7.9489
# 3 38.5303 30.7933 38.9495 -17.1940 4.1323 -1.5015
# 4 -2.7549 -7.1845 -17.1940 27.5012 1.4801 6.5819
# 5 -4.9967 22.7139 4.1323 1.4801 45.9416 -3.6881
# 6 14.4450 7.9489 -1.5015 6.5819 -3.6881 30.0069
#
#
#
# Elastic Compliance Matrix: (Units=1/GPa)
#
#
# Indices 1 2 3 4 5 6 
#
# 1 0.011982 -0.000954 -0.014897 -0.007510 0.003016 -0.004242
# 2 -0.000954 0.018584 -0.014048 -0.002202 -0.008417 -0.005718
# 3 -0.014897 -0.014048 0.067680 0.035728 -0.001410 0.006269
# 4 -0.007510 -0.002202 0.035728 0.059520 -0.005481 -0.007743
# 5 0.003016 -0.008417 -0.001410 -0.005481 0.026979 0.005225
# 6 -0.004242 -0.005718 0.006269 -0.007743 0.005225 0.039537
#
#
# Mechanical properties :
#
#
# Convention : Reuss Voigt Hill
#
# Bulk Modulus (GPa) = 26.00953 53.75711 39.88332
# Shear Modulus (GPa) = 16.84087 31.45511 24.14799
#
# Velocity S-wave (km/s) = 2.78884 3.81142 3.33950
# Velocity P-wave (km/s) = 4.73098 6.64800 5.76967
#
# Compressibility (1/GPa) = 0.03844745
#
# Stress axis : x y z
#
# Youngs Moduli (GPa) = 83.46107 53.80875 14.77533
#
# Poissons Ratio (x) = 0.05136 0.22011
# Poissons Ratio (y) = 0.07966 0.20757
# Poissons Ratio (z) = 1.24331 0.75592
#
# Static dielectric constant tensor:
#      x y z
#    x 1.804240 -0.033180 -0.015370 
#    y -0.033180 1.796070 0.017030 
#    z -0.015370 0.017030 1.845310 
# 
# From -- ./inp_files/418996.got.cif
#   From: 2010.05.17/outbox.cif.g08.bks.cpg/sg2_210_cif.got.tgz:418996.got - 2010.06.03 11:33:40.
