data_PCOD9017302
_publ_section_title
;
Structure prediction by ZEFSAII (Michael W. Deem and Ramdas Pophale) SiO2 
 PCOD9017302
Probable space group: P -1
;
_chemical_formula_sum "Si O2"
_cell_formula_units_Z 14
_cell_length_a 7.950734
_cell_length_b 8.426232
_cell_length_c 11.443655
_cell_angle_alpha 59.616828
_cell_angle_beta 67.761802
_cell_angle_gamma 53.008546
_cell_volume 525.188724
_symmetry_space_group_name_H-M "P -1"
_symmetry_group_IT_number 2
_symmetry_cell_setting 'triclinic'
loop_
_space_group_symop_operation_xyz
x,y,z
-x,-y,-z
loop_
_atom_site_type_symbol
_atom_site_label
_atom_site_fract_x
_atom_site_fract_y
_atom_site_fract_z
Si Si1 0.644819 0.569827 0.373467
Si Si2 0.897854 0.845024 0.593003
Si Si3 0.950135 0.817522 0.950536
Si Si4 0.432353 0.258463 0.184647
Si Si5 0.238099 0.142297 0.630248
Si Si6 0.836787 0.286329 0.811314
Si Si7 0.673141 0.599769 0.095219
O O1 0.500000 0.500000 0.500000
O O2 0.639227 0.750038 0.389260
O O3 0.569916 0.627157 0.238243
O O4 0.889492 0.385013 0.372569
O O5 0.739746 0.821452 0.735345
O O6 0.760818 0.890657 0.494443
O O7 0.000000 0.000000 0.500000
O O8 0.142493 0.647932 0.881108
O O9 0.842009 0.067670 0.858025
O O10 0.783522 0.740301 0.024052
O O11 0.045549 0.771854 0.072594
O O12 0.348702 0.469736 0.208370
O O13 0.655663 0.078519 0.243685
O O14 0.453769 0.317201 0.024073
O O15 0.992722 0.291070 0.672612
#
# Coordination Sequence:
#
# PCOD9017302 Si02
#       7
#     2   2   2   2   2   2   2
#     4  12  26  50  79 116 155 206 261 317 392 463
#     4  12  27  50  78 108 156 211 258 323 387 453
#     4   9  18  40  73 110 149 200 249 312 388 454
#     4  11  25  48  78 112 158 201 255 321 382 461
#     4  12  26  49  75 114 159 204 258 316 386 465
#     4  10  21  42  73 108 152 202 252 312 387 446
#     4  10  21  44  78 112 155 194 260 319 381 461
#
# _framework density 26.657086
#
# number of rings (size 3 to 8) (size 9 to 14) (size 15 to 20)
#    0.000    1.143    2.857    3.429    4.000    0.571 
#    0.000    7.857    0.000    0.000    0.000    0.000 
#    0.000    0.000    0.000    0.000    0.000    0.000 
#
# Total GULP energy -78470.094494 kJ/mol
# GULP energy per Si atom -5605.006750 kJ/mol
# Density = 2.659641 g / cm^3
# Si number density = 26.657086 Si / 1000 Ang^3
#
#
#
# Elastic Constant Matrix: (Units=GPa)
#
#
# Indices 1 2 3 4 5 6 
#
# 1 87.2121 43.7645 61.2644 -7.5757 -2.5700 24.1995
# 2 43.7645 106.2069 41.6990 -11.8054 11.1539 21.9984
# 3 61.2644 41.6990 164.8063 22.9742 2.9329 15.9998
# 4 -7.5757 -11.8054 22.9742 43.4667 -2.9474 -5.6213
# 5 -2.5700 11.1539 2.9329 -2.9474 61.1225 -15.1328
# 6 24.1995 21.9984 15.9998 -5.6213 -15.1328 61.2786
#
#
#
# Elastic Compliance Matrix: (Units=1/GPa)
#
#
# Indices 1 2 3 4 5 6 
#
# 1 0.019909 -0.004316 -0.006730 0.005458 0.001285 -0.003738
# 2 -0.004316 0.013228 -0.001840 0.003210 -0.003104 -0.003036
# 3 -0.006730 -0.001840 0.010048 -0.007058 -0.000807 -0.000152
# 4 0.005458 0.003210 -0.007058 0.028890 0.001778 0.001624
# 5 0.001285 -0.003104 -0.000807 0.001778 0.018478 0.005544
# 6 -0.003738 -0.003036 -0.000152 0.001624 0.005544 0.020443
#
#
# Mechanical properties :
#
#
# Convention : Reuss Voigt Hill
#
# Bulk Modulus (GPa) = 57.42632 72.40903 64.91767
# Shear Modulus (GPa) = 35.07027 47.27340 41.17184
#
# Velocity S-wave (km/s) = 3.63107 4.21573 3.93427
# Velocity P-wave (km/s) = 6.25851 7.13573 6.71147
#
# Compressibility (1/GPa) = 0.01741362
#
# Stress axis : x y z
#
# Youngs Moduli (GPa) = 50.22978 75.59706 99.52194
#
# Poissons Ratio (x) = 0.32624 0.66976
# Poissons Ratio (y) = 0.21677 0.18314
# Poissons Ratio (z) = 0.33803 0.13911
#
# Static dielectric constant tensor:
#      x y z
#    x 2.176130 -0.011900 -0.073740 
#    y -0.011900 2.130580 0.059600 
#    z -0.073740 0.059600 2.076140 
# 
# From -- ./inp_files/381282.got.cif
#   From: 2010.05.17/outbox.cif.g08.bks.cpg/sg2_191_cif.got.tgz:381282.got - 2010.06.03 11:33:40.
