data_PCOD9017259
_publ_section_title
;
Structure prediction by ZEFSAII (Michael W. Deem and Ramdas Pophale) SiO2 
 PCOD9017259
Probable space group: P -1
;
_chemical_formula_sum "Si O2"
_cell_formula_units_Z 14
_cell_length_a 26.148566
_cell_length_b 5.148267
_cell_length_c 11.140890
_cell_angle_alpha 100.384671
_cell_angle_beta 33.947986
_cell_angle_gamma 78.187474
_cell_volume 629.616751
_symmetry_space_group_name_H-M "P -1"
_symmetry_group_IT_number 2
_symmetry_cell_setting 'triclinic'
loop_
_space_group_symop_operation_xyz
x,y,z
-x,-y,-z
loop_
_atom_site_type_symbol
_atom_site_label
_atom_site_fract_x
_atom_site_fract_y
_atom_site_fract_z
Si Si1 0.249208 0.717721 0.476300
Si Si2 0.883539 0.737163 0.913143
Si Si3 0.913714 0.319439 0.606772
Si Si4 0.698894 0.447578 0.911664
Si Si5 0.179253 0.401552 0.748064
Si Si6 0.554168 0.231015 0.263071
Si Si7 0.347495 0.484523 0.499869
O O1 0.285511 0.560175 0.262182
O O2 0.161819 0.673274 0.711821
O O3 0.361393 0.521451 0.334535
O O4 0.193076 0.111269 0.621008
O O5 0.851496 0.641429 0.845812
O O6 0.003109 0.677626 0.647462
O O7 0.903831 0.509500 0.969534
O O8 0.772007 0.133785 0.194696
O O9 0.822059 0.293884 0.722257
O O10 0.000000 0.000000 0.500000
O O11 0.654392 0.238954 0.013578
O O12 0.607655 0.848183 0.163123
O O13 0.303215 0.262415 0.562625
O O14 0.500000 0.500000 0.500000
O O15 0.454369 0.356500 0.367217
#
# Coordination Sequence:
#
# PCOD9017259 Si02
#       7
#     2   2   2   2   2   2   2
#     4   9  21  41  67  98 135 175 221 271 328 400
#     4  10  21  42  72  99 127 179 228 276 327 408
#     4  11  26  42  70  97 135 180 225 279 342 389
#     4  12  28  46  66 102 142 170 226 280 331 396
#     4   9  19  39  69  96 132 172 225 264 326 399
#     4  12  28  43  69 102 139 180 217 275 331 405
#     4   9  22  41  71  96 136 176 223 264 340 392
#
# _framework density 22.235748000000001
#
# number of rings (size 3 to 8) (size 9 to 14) (size 15 to 20)
#    0.857    0.857    0.000    3.000   12.000    1.143 
#    0.000    3.571    0.000    0.000    0.000    0.000 
#    0.000    0.000    0.000    0.000    0.000    0.000 
#
# Total GULP energy -78157.911334 kJ/mol
# GULP energy per Si atom -5582.707952 kJ/mol
# Density = 2.218514 g / cm^3
# Si number density = 22.235748 Si / 1000 Ang^3
#
#
#
# Elastic Constant Matrix: (Units=GPa)
#
#
# Indices 1 2 3 4 5 6 
#
# 1 -1384.4681 571.7825 959.2784 720.7704 1463.1937 -529.5974
# 2 571.7825 -123.8171 -335.5022 -280.8965 -548.6819 228.8799
# 3 959.2784 -335.5022 -506.8056 -456.9749 -888.4270 336.7646
# 4 720.7704 -280.8965 -456.9749 -309.2276 -704.4354 256.8397
# 5 1463.1937 -548.6819 -888.4270 -704.4354-1406.3542 523.7007
# 6 -529.5974 228.8799 336.7646 256.8397 523.7007 -163.4880
#
#
#
# Elastic Compliance Matrix: (Units=1/GPa)
#
#
# Indices 1 2 3 4 5 6 
#
# 1 0.009276 0.001967 -0.005678 0.000689 0.010324 -0.004837
# 2 0.001967 0.014638 -0.002902 0.000310 -0.006364 -0.011756
# 3 -0.005678 -0.002902 0.023474 0.004632 -0.021403 0.001400
# 4 0.000689 0.000310 0.004632 0.024790 -0.013682 0.002862
# 5 0.010324 -0.006364 -0.021403 -0.013682 0.037883 0.013417
# 6 -0.004837 -0.011756 0.001400 0.002862 0.013417 0.043451
#
#
# Mechanical properties :
#
#
# Convention : Reuss Voigt Hill
#
# Bulk Modulus (GPa) = 29.27308 41.78074 35.52691
# Shear Modulus (GPa) = 28.07005 -589.85726 -280.89361
#
# Velocity S-wave (km/s) = 3.55686 -16.30491 -11.25164
# Velocity P-wave (km/s) = 5.48286 18.32038 12.36071
#
# Compressibility (1/GPa) = 0.03416108
#
# Stress axis : x y z
#
# Youngs Moduli (GPa) = 107.80583 68.31644 42.60059
#
# Poissons Ratio (x) = -0.13435 0.24188
# Poissons Ratio (y) = -0.21202 0.12363
# Poissons Ratio (z) = 0.61210 0.19826
#
# Static dielectric constant tensor:
#      x y z
#    x 1.805610 0.008320 0.014960 
#    y 0.008320 1.854120 0.018890 
#    z 0.014960 0.018890 1.836550 
# 
# From -- ./inp_files/477322.got.cif
#   From: 2010.05.17/outbox.cif.g08.bks.cpg/sg2_239_cif.got.tgz:477322.got - 2010.06.03 11:33:40.
