data_PCOD9017279
_publ_section_title
;
Structure prediction by ZEFSAII (Michael W. Deem and Ramdas Pophale) SiO2 
 PCOD9017279
Probable space group: P -1
;
_chemical_formula_sum "Si O2"
_cell_formula_units_Z 14
_cell_length_a 5.129894
_cell_length_b 8.670330
_cell_length_c 19.909546
_cell_angle_alpha 138.172034
_cell_angle_beta 115.624881
_cell_angle_gamma 79.542619
_cell_volume 517.680581
_symmetry_space_group_name_H-M "P -1"
_symmetry_group_IT_number 2
_symmetry_cell_setting 'triclinic'
loop_
_space_group_symop_operation_xyz
x,y,z
-x,-y,-z
loop_
_atom_site_type_symbol
_atom_site_label
_atom_site_fract_x
_atom_site_fract_y
_atom_site_fract_z
Si Si1 0.305776 0.445673 0.271401
Si Si2 0.326253 0.022543 0.290605
Si Si3 0.147016 0.915429 0.423921
Si Si4 0.081600 0.919140 0.056166
Si Si5 0.564945 0.466129 0.836930
Si Si6 0.765027 0.650264 0.507201
Si Si7 0.645882 0.843312 0.160848
O O1 0.093922 0.635887 0.311478
O O2 0.463504 0.445976 0.215580
O O3 0.933453 0.916942 0.587477
O O4 0.118693 0.179889 0.178876
O O5 0.980378 0.926833 0.200897
O O6 0.384938 0.262783 0.416173
O O7 0.378118 0.792098 0.260906
O O8 0.548740 0.041407 0.260143
O O9 0.500000 0.000000 0.500000
O O10 0.000000 0.000000 0.500000
O O11 0.389309 0.833565 0.073143
O O12 0.827962 0.680069 0.963641
O O13 0.000000 0.000000 0.000000
O O14 0.389972 0.372519 0.858104
O O15 0.000000 0.500000 0.500000
O O16 0.544312 0.537680 0.386335
#
# Coordination Sequence:
#
# PCOD9017279 Si02
#       7
#     2   2   2   2   2   2   2
#     4  10  21  43  67 103 146 180 235 286 348 413
#     4  10  23  40  71  99 134 179 230 279 348 403
#     4  10  22  41  66  93 130 180 221 275 336 404
#     4  10  21  42  73 101 141 182 231 286 348 410
#     4   9  21  42  71 100 134 188 231 285 344 409
#     4  11  23  41  67 104 139 185 229 289 346 415
#     4  10  22  44  69 102 135 177 232 284 343 408
#
# _framework density 27.043700999999999
#
# number of rings (size 3 to 8) (size 9 to 14) (size 15 to 20)
#    0.857    1.143    1.429    1.286    0.000    6.286 
#    0.000    5.000    6.286    0.000    0.000    0.000 
#    0.000    0.000    0.000    0.000    0.000    0.000 
#
# Total GULP energy -78068.955851 kJ/mol
# GULP energy per Si atom -5576.353989 kJ/mol
# Density = 2.698215 g / cm^3
# Si number density = 27.043701 Si / 1000 Ang^3
#
#
#
# Elastic Constant Matrix: (Units=GPa)
#
#
# Indices 1 2 3 4 5 6 
#
# 1 66.3364 7.3260 16.2250 6.6422 -1.2371 5.4273
# 2 7.3260 125.0485 48.9832 5.2730 1.7519 1.0888
# 3 16.2250 48.9832 182.8953 32.4113 10.5374 -14.9147
# 4 6.6422 5.2730 32.4113 67.6861 -5.2548 7.9391
# 5 -1.2371 1.7519 10.5374 -5.2548 42.9762 14.0748
# 6 5.4273 1.0888 -14.9147 7.9391 14.0748 26.1498
#
#
#
# Elastic Compliance Matrix: (Units=1/GPa)
#
#
# Indices 1 2 3 4 5 6 
#
# 1 0.016165 -0.000091 -0.002207 0.000485 0.003190 -0.006474
# 2 -0.000091 0.009143 -0.003031 0.001266 0.001619 -0.003346
# 3 -0.002207 -0.003031 0.008635 -0.005384 -0.006137 0.010447
# 4 0.000485 0.001266 -0.005384 0.019410 0.008063 -0.013457
# 5 0.003190 0.001619 -0.006137 0.008063 0.033958 -0.024955
# 6 -0.006474 -0.003346 0.010447 -0.013457 -0.024955 0.063200
#
#
# Mechanical properties :
#
#
# Convention : Reuss Voigt Hill
#
# Bulk Modulus (GPa) = 42.94856 57.70540 50.32698
# Shear Modulus (GPa) = 29.59798 47.47882 38.53840
#
# Velocity S-wave (km/s) = 3.31184 4.19457 3.77907
# Velocity P-wave (km/s) = 5.52630 6.69652 6.13936
#
# Compressibility (1/GPa) = 0.02328367
#
# Stress axis : x y z
#
# Youngs Moduli (GPa) = 61.86105 109.37831 115.81158
#
# Poissons Ratio (x) = 0.00997 0.25563
# Poissons Ratio (y) = 0.00564 0.35102
# Poissons Ratio (z) = 0.13654 0.33152
#
# Static dielectric constant tensor:
#      x y z
#    x 2.149790 0.024730 0.008530 
#    y 0.024730 2.345680 -0.231190 
#    z 0.008530 -0.231190 2.346340 
# 
# From -- ./inp_files/581766.got.cif
#   From: 2010.05.17/outbox.cif.g08.bks.cpg/sg2_291_cif.got.tgz:581766.got - 2010.06.03 11:33:40.
