data_PCOD9017221
_publ_section_title
;
Structure prediction by ZEFSAII (Michael W. Deem and Ramdas Pophale) SiO2 
 PCOD9017221
Probable space group: P -1
;
_chemical_formula_sum "Si O2"
_cell_formula_units_Z 14
_cell_length_a 13.455125
_cell_length_b 5.208452
_cell_length_c 8.546273
_cell_angle_alpha 85.320259
_cell_angle_beta 115.225203
_cell_angle_gamma 112.122585
_cell_volume 499.694254
_symmetry_space_group_name_H-M "P -1"
_symmetry_group_IT_number 2
_symmetry_cell_setting 'triclinic'
loop_
_space_group_symop_operation_xyz
x,y,z
-x,-y,-z
loop_
_atom_site_type_symbol
_atom_site_label
_atom_site_fract_x
_atom_site_fract_y
_atom_site_fract_z
Si Si1 0.236446 0.656773 0.077636
Si Si2 0.595908 0.675017 0.296927
Si Si3 0.837183 0.372019 0.562423
Si Si4 0.197905 0.367655 0.764682
Si Si5 0.453070 0.879788 0.643762
Si Si6 0.267054 0.141126 0.301338
Si Si7 0.976035 0.154203 0.130813
O O1 0.294490 0.937919 0.204175
O O2 0.105629 0.669291 0.974304
O O3 0.248949 0.393273 0.187024
O O4 0.266119 0.605730 0.923548
O O5 0.692426 0.278998 0.462396
O O6 0.708878 0.729919 0.260677
O O7 0.528896 0.881909 0.229869
O O8 0.638140 0.720125 0.505841
O O9 0.867656 0.490895 0.402856
O O10 0.839264 0.089335 0.654257
O O11 0.914475 0.626119 0.710842
O O12 0.104733 0.100238 0.800793
O O13 0.489831 0.641478 0.751477
O O14 0.500000 0.000000 0.500000
O O15 0.000000 0.000000 0.000000
#
# Coordination Sequence:
#
# PCOD9017221 Si02
#       7
#     2   2   2   2   2   2   2
#     4  12  26  45  70  97 148 197 245 279 350 427
#     4  10  23  42  76 106 144 180 238 303 360 417
#     4  10  25  46  72 105 145 184 243 301 352 415
#     4  11  25  47  70 106 147 195 239 298 353 423
#     4  10  21  42  72 108 140 177 233 305 369 419
#     4  11  24  47  68 104 138 194 237 295 344 430
#     4  12  28  47  70 105 151 199 244 286 351 433
#
# _framework density 28.017133000000001
#
# number of rings (size 3 to 8) (size 9 to 14) (size 15 to 20)
#    0.000    1.143    1.429    4.286   10.000    3.429 
#    5.143    0.000    0.000    0.857    0.000  153.000 
#    0.000    0.000    0.000    0.000    0.000    0.000 
#
# Total GULP energy -78317.722028 kJ/mol
# GULP energy per Si atom -5594.123002 kJ/mol
# Density = 2.795336 g / cm^3
# Si number density = 28.017133 Si / 1000 Ang^3
#
#
#
# Elastic Constant Matrix: (Units=GPa)
#
#
# Indices 1 2 3 4 5 6 
#
# 1 109.6860 72.8301 39.1498 -0.2932 -26.0280 -10.5783
# 2 72.8301 258.1198 57.3058 -17.3651 -11.9065 -32.0179
# 3 39.1498 57.3058 154.9677 -4.9451 -6.8838 -17.9814
# 4 -0.2932 -17.3651 -4.9451 47.0156 7.1220 -11.2004
# 5 -26.0280 -11.9065 -6.8838 7.1220 45.5925 11.8828
# 6 -10.5783 -32.0179 -17.9814 -11.2004 11.8828 67.2106
#
#
#
# Elastic Compliance Matrix: (Units=1/GPa)
#
#
# Indices 1 2 3 4 5 6 
#
# 1 0.013849 -0.003518 -0.002181 -0.003062 0.007643 -0.001941
# 2 -0.003518 0.005481 -0.000824 0.002819 -0.001827 0.002630
# 3 -0.002181 -0.000824 0.007485 0.000984 -0.000898 0.001589
# 4 -0.003062 0.002819 0.000984 0.024895 -0.006423 0.006408
# 5 0.007643 -0.001827 -0.000898 -0.006423 0.028243 -0.005972
# 6 -0.001941 0.002630 0.001589 0.006408 -0.005972 0.018375
#
#
# Mechanical properties :
#
#
# Convention : Reuss Voigt Hill
#
# Bulk Modulus (GPa) = 72.62907 95.70501 84.16704
# Shear Modulus (GPa) = 43.11655 55.52960 49.32307
#
# Velocity S-wave (km/s) = 3.92718 4.45678 4.20034
# Velocity P-wave (km/s) = 6.82225 7.79214 7.32327
#
# Compressibility (1/GPa) = 0.01376859
#
# Stress axis : x y z
#
# Youngs Moduli (GPa) = 72.20515 182.43846 133.60432
#
# Poissons Ratio (x) = 0.64176 0.29145
# Poissons Ratio (y) = 0.25399 0.11013
# Poissons Ratio (z) = 0.15751 0.15039
#
# Static dielectric constant tensor:
#      x y z
#    x 2.458960 -0.083960 0.062570 
#    y -0.083960 2.317340 -0.062190 
#    z 0.062570 -0.062190 2.188670 
# 
# From -- ./inp_files/288876.got.cif
#   From: 2010.05.17/outbox.cif.g08.bks.cpg/sg2_145_cif.got.tgz:288876.got - 2010.06.03 11:33:40.
