data_PCOD9017260
_publ_section_title
;
Structure prediction by ZEFSAII (Michael W. Deem and Ramdas Pophale) SiO2 
 PCOD9017260
Probable space group: P -1
;
_chemical_formula_sum "Si O2"
_cell_formula_units_Z 16
_cell_length_a 5.151427
_cell_length_b 9.275680
_cell_length_c 16.054669
_cell_angle_alpha 97.326448
_cell_angle_beta 67.063666
_cell_angle_gamma 112.851305
_cell_volume 650.784135
_symmetry_space_group_name_H-M "P -1"
_symmetry_group_IT_number 2
_symmetry_cell_setting 'triclinic'
loop_
_space_group_symop_operation_xyz
x,y,z
-x,-y,-z
loop_
_atom_site_type_symbol
_atom_site_label
_atom_site_fract_x
_atom_site_fract_y
_atom_site_fract_z
Si Si1 0.665540 0.107647 0.790572
Si Si2 0.542988 0.423074 0.075079
Si Si3 0.773979 0.431153 0.287632
Si Si4 0.501876 0.838595 0.568781
Si Si5 0.221920 0.831351 0.030240
Si Si6 0.085295 0.032088 0.612006
Si Si7 0.468839 0.613800 0.245608
Si Si8 0.906719 0.207294 0.129209
O O1 0.793957 0.182110 0.869694
O O2 0.552986 0.219946 0.756614
O O3 0.367382 0.950422 0.823948
O O4 0.947526 0.075688 0.714215
O O5 0.605287 0.562043 0.142516
O O6 0.239736 0.277862 0.132360
O O7 0.500000 0.500000 0.000000
O O8 0.751150 0.328527 0.018857
O O9 0.583337 0.309294 0.371643
O O10 0.641169 0.564102 0.293944
O O11 0.784392 0.338797 0.192882
O O12 0.114282 0.504048 0.284035
O O13 0.223250 0.897841 0.599769
O O14 0.783987 0.972257 0.588067
O O15 0.643303 0.832682 0.459936
O O16 0.008627 0.832819 0.978767
O O17 0.500000 0.000000 0.000000
#
# Coordination Sequence:
#
# PCOD9017260 Si02
#       8
#     2   2   2   2   2   2   2   2
#     4  11  23  43  61 101 134 172 223 285 333 392
#     4  11  22  42  60  89 131 179 227 267 326 398
#     4  11  22  42  67  96 129 177 226 269 328 401
#     4  10  21  42  72  99 130 172 222 274 333 404
#     4  10  22  39  59  92 126 170 227 271 329 378
#     4  10  22  41  69 104 130 169 222 278 335 393
#     4  11  25  41  64  98 136 178 220 272 337 394
#     4  10  23  40  64  91 128 179 226 274 325 393
#
# _framework density 24.585726000000001
#
# number of rings (size 3 to 8) (size 9 to 14) (size 15 to 20)
#    0.000    1.500    3.750    0.750    0.000    5.500 
#    6.750    1.250    0.000    0.000    0.000    0.000 
#    0.000    0.000    0.000    0.000    0.000    0.000 
#
# Total GULP energy -89273.109309 kJ/mol
# GULP energy per Si atom -5579.569332 kJ/mol
# Density = 2.452977 g / cm^3
# Si number density = 24.585726 Si / 1000 Ang^3
#
#
#
# Elastic Constant Matrix: (Units=GPa)
#
#
# Indices 1 2 3 4 5 6 
#
# 1 69.1711 7.8289 29.7477 4.5806 -14.3680 -6.9976
# 2 7.8289 66.0601 21.1214 -3.2680 -20.1181 0.7553
# 3 29.7477 21.1214 99.8161 -16.5744 -22.6358 -11.6896
# 4 4.5806 -3.2680 -16.5744 23.3421 -4.7057 1.6747
# 5 -14.3680 -20.1181 -22.6358 -4.7057 25.5302 1.8128
# 6 -6.9976 0.7553 -11.6896 1.6747 1.8128 38.2479
#
#
#
# Elastic Compliance Matrix: (Units=1/GPa)
#
#
# Indices 1 2 3 4 5 6 
#
# 1 0.018288 0.000645 -0.005401 -0.006514 0.004687 0.001746
# 2 0.000645 0.020977 0.000717 0.007233 0.018954 -0.001292
# 3 -0.005401 0.000717 0.018638 0.017614 0.017076 0.003113
# 4 -0.006514 0.007233 0.017614 0.063570 0.029377 -0.000127
# 5 0.004687 0.018954 0.017076 0.029377 0.077244 0.000755
# 6 0.001746 -0.001292 0.003113 -0.000127 0.000755 0.027411
#
#
# Mechanical properties :
#
#
# Convention : Reuss Voigt Hill
#
# Bulk Modulus (GPa) = 20.07050 39.16039 29.61544
# Shear Modulus (GPa) = 19.93492 29.18065 24.55779
#
# Velocity S-wave (km/s) = 2.85060 3.44887 3.16391
# Velocity P-wave (km/s) = 4.36071 5.64112 5.04173
#
# Compressibility (1/GPa) = 0.04982438
#
# Stress axis : x y z
#
# Youngs Moduli (GPa) = 54.67992 47.67164 53.65334
#
# Poissons Ratio (x) = -0.03073 0.28979
# Poissons Ratio (y) = -0.03525 -0.03847
# Poissons Ratio (z) = 0.29533 -0.03418
#
# Static dielectric constant tensor:
#      x y z
#    x 2.009490 0.039180 -0.012380 
#    y 0.039180 1.931690 0.064890 
#    z -0.012380 0.064890 1.980240 
# 
# From -- ./inp_files/547209.got.cif
#   From: 2010.05.17/outbox.cif.g08.bks.cpg/sg2_274_cif.got.tgz:547209.got - 2010.06.03 11:33:40.
