data_PCOD9017473
_publ_section_title
;
Structure prediction by ZEFSAII (Michael W. Deem and Ramdas Pophale) SiO2 
 PCOD9017473
Probable space group: P -1
;
_chemical_formula_sum "Si O2"
_cell_formula_units_Z 14
_cell_length_a 14.713790
_cell_length_b 10.024234
_cell_length_c 9.563360
_cell_angle_alpha 95.527623
_cell_angle_beta 117.262406
_cell_angle_gamma 136.645728
_cell_volume 611.633378
_symmetry_space_group_name_H-M "P -1"
_symmetry_group_IT_number 2
_symmetry_cell_setting 'triclinic'
loop_
_space_group_symop_operation_xyz
x,y,z
-x,-y,-z
loop_
_atom_site_type_symbol
_atom_site_label
_atom_site_fract_x
_atom_site_fract_y
_atom_site_fract_z
Si Si1 0.083546 0.240356 0.203057
Si Si2 0.363266 0.491736 0.662922
Si Si3 0.940241 0.357452 0.207395
Si Si4 0.375828 0.996103 0.278488
Si Si5 0.652254 0.048754 0.435476
Si Si6 0.473266 0.131474 0.965206
Si Si7 0.363729 0.386666 0.256648
O O1 0.153991 0.245245 0.396872
O O2 0.260492 0.411488 0.228814
O O3 0.068088 0.375230 0.249001
O O4 0.855794 0.941204 0.956230
O O5 0.515096 0.758768 0.702211
O O6 0.482454 0.484935 0.747055
O O7 0.365290 0.584531 0.813596
O O8 0.756576 0.105312 0.156721
O O9 0.111453 0.652813 0.417818
O O10 0.825305 0.277517 0.979359
O O11 0.529771 0.046700 0.379379
O O12 0.327048 0.987935 0.399439
O O13 0.532109 0.847761 0.201091
O O14 0.500000 0.000000 0.000000
O O15 0.500000 0.500000 0.500000
#
# Coordination Sequence:
#
# PCOD9017473 Si02
#       7
#     2   2   2   2   2   2   2
#     4  10  17  30  52  78  99 125 162 212 259 290
#     4  10  18  33  50  75 105 132 162 205 249 296
#     4  11  19  33  53  73 102 135 171 209 246 292
#     4  10  20  33  48  70 105 137 173 204 238 290
#     4  11  21  33  48  72 105 142 170 200 242 293
#     4  11  19  33  48  71 104 140 168 205 247 289
#     4   9  18  30  50  78 103 118 160 214 262 292
#
# _framework density 22.889530000000001
#
# number of rings (size 3 to 8) (size 9 to 14) (size 15 to 20)
#    0.000    1.714    7.143    0.857    0.000    0.000 
#    0.000    0.000    0.000    0.000    0.000   13.000 
#    0.000    0.000    0.000    0.000    0.000    0.000 
#
# Total GULP energy -77984.072515 kJ/mol
# GULP energy per Si atom -5570.290894 kJ/mol
# Density = 2.283743 g / cm^3
# Si number density = 22.889530 Si / 1000 Ang^3
#
#
#
# Elastic Constant Matrix: (Units=GPa)
#
#
# Indices 1 2 3 4 5 6 
#
# 1 97.8695 4.8571 39.9527 1.5752 -2.9720 3.1798
# 2 4.8571 15.7261 15.9647 -3.6258 -4.1607 5.4551
# 3 39.9527 15.9647 147.8530 13.3234 -18.5658 14.8511
# 4 1.5752 -3.6258 13.3234 27.2648 8.5729 -6.6267
# 5 -2.9720 -4.1607 -18.5658 8.5729 52.9660 -3.2936
# 6 3.1798 5.4551 14.8511 -6.6267 -3.2936 16.9310
#
#
#
# Elastic Compliance Matrix: (Units=1/GPa)
#
#
# Indices 1 2 3 4 5 6 
#
# 1 0.011555 -0.000401 -0.003462 0.001565 -0.000759 0.001461
# 2 -0.000401 0.079345 -0.007894 0.010720 0.000825 -0.014208
# 3 -0.003462 -0.007894 0.010863 -0.009682 0.003979 -0.009350
# 4 0.001565 0.010720 -0.009682 0.051267 -0.009332 0.022995
# 5 -0.000759 0.000825 0.003979 -0.009332 0.021617 -0.003060
# 6 0.001461 -0.014208 -0.009350 0.022995 -0.003060 0.079973
#
#
# Mechanical properties :
#
#
# Convention : Reuss Voigt Hill
#
# Bulk Modulus (GPa) = 12.77988 42.55530 27.66759
# Shear Modulus (GPa) = 16.43564 32.81063 24.62313
#
# Velocity S-wave (km/s) = 2.68254 3.79018 3.28340
# Velocity P-wave (km/s) = 3.89745 6.14702 5.14665
#
# Compressibility (1/GPa) = 0.07824797
#
# Stress axis : x y z
#
# Youngs Moduli (GPa) = 86.54077 12.60316 92.05900
#
# Poissons Ratio (x) = 0.00505 0.31872
# Poissons Ratio (y) = 0.03470 0.72675
# Poissons Ratio (z) = 0.29962 0.09949
#
# Static dielectric constant tensor:
#      x y z
#    x 1.935600 -0.040150 -0.019220 
#    y -0.040150 1.887130 -0.008330 
#    z -0.019220 -0.008330 1.926580 
# 
# From -- ./inp_files/277043.got.cif
#   From: 2010.05.17/outbox.cif.g08.bks.cpg/sg2_139_cif.got.tgz:277043.got - 2010.06.03 11:33:40.
