data_PCOD9017556
_publ_section_title
;
Structure prediction by ZEFSAII (Michael W. Deem and Ramdas Pophale) SiO2 
 PCOD9017556
Probable space group: P -1
;
_chemical_formula_sum "Si O2"
_cell_formula_units_Z 12
_cell_length_a 17.930357
_cell_length_b 11.176326
_cell_length_c 16.287258
_cell_angle_alpha 25.102808
_cell_angle_beta 19.311546
_cell_angle_gamma 28.888053
_cell_volume 452.779000
_symmetry_space_group_name_H-M "P -1"
_symmetry_group_IT_number 2
_symmetry_cell_setting 'triclinic'
loop_
_space_group_symop_operation_xyz
x,y,z
-x,-y,-z
loop_
_atom_site_type_symbol
_atom_site_label
_atom_site_fract_x
_atom_site_fract_y
_atom_site_fract_z
Si Si1 0.164993 0.947714 0.196669
Si Si2 0.041061 0.353839 0.645259
Si Si3 0.250661 0.185153 0.130588
Si Si4 0.953879 0.212047 0.100623
Si Si5 0.613906 0.688617 0.925277
Si Si6 0.320917 0.245324 0.572860
O O1 0.443193 0.942589 0.904463
O O2 0.153283 0.643965 0.350256
O O3 0.136717 0.024248 0.275965
O O4 0.999490 0.171213 0.175113
O O5 0.101977 0.254343 0.736035
O O6 0.772438 0.464139 0.843549
O O7 0.119748 0.080337 0.677254
O O8 0.209992 0.507497 0.935043
O O9 0.203745 0.224398 0.253111
O O10 0.500000 0.000000 0.000000
O O11 0.206905 0.227737 0.789899
O O12 0.446944 0.516635 0.258172
O O13 0.500000 0.000000 0.500000
#
# Coordination Sequence:
#
# PCOD9017556 Si02
#       6
#     2   2   2   2   2   2
#     4  10  25  42  64 101 139 170 214 275 337 390
#     4  11  22  42  69  94 136 176 218 270 335 393
#     4  10  22  45  70  93 133 179 226 266 325 401
#     4  12  22  42  70 100 135 169 221 282 327 384
#     4  10  21  43  64  95 131 179 221 264 325 400
#     4  11  21  38  66 100 131 170 226 271 324 392
#
# _framework density 26.502996
#
# number of rings (size 3 to 8) (size 9 to 14) (size 15 to 20)
#    0.000    1.333    3.333    2.500    0.000    1.333 
#   12.000    0.833    0.000    0.000    0.000    0.000 
#    0.000    0.000    0.000    0.000    0.000    0.000 
#
# Total GULP energy -66832.147958 kJ/mol
# GULP energy per Si atom -5569.345663 kJ/mol
# Density = 2.644267 g / cm^3
# Si number density = 26.502996 Si / 1000 Ang^3
#
#
#
# Elastic Constant Matrix: (Units=GPa)
#
#
# Indices 1 2 3 4 5 6 
#
# 1 157.6909 45.9192 42.6072 -8.3171 -15.8877 -4.6919
# 2 45.9192 182.8426 18.9651 -2.1284 -15.4380 3.3778
# 3 42.6072 18.9651 70.3379 -21.6487 -19.5064 5.3840
# 4 -8.3171 -2.1284 -21.6487 40.6939 10.0966 -6.4273
# 5 -15.8877 -15.4380 -19.5064 10.0966 36.3497 0.9109
# 6 -4.6919 3.3778 5.3840 -6.4273 0.9109 46.6691
#
#
#
# Elastic Compliance Matrix: (Units=1/GPa)
#
#
# Indices 1 2 3 4 5 6 
#
# 1 0.008113 -0.001536 -0.004708 -0.000857 0.000572 0.001341
# 2 -0.001536 0.006059 -0.000349 -0.000776 0.001948 -0.000698
# 3 -0.004708 -0.000349 0.021968 0.008603 0.007241 -0.001939
# 4 -0.000857 -0.000776 0.008603 0.030613 -0.004673 0.003285
# 5 0.000572 0.001948 0.007241 -0.004673 0.033827 -0.002223
# 6 0.001341 -0.000698 -0.001939 0.003285 -0.002223 0.022332
#
#
# Mechanical properties :
#
#
# Convention : Reuss Voigt Hill
#
# Bulk Modulus (GPa) = 43.56388 69.53937 56.55163
# Shear Modulus (GPa) = 34.78266 44.96788 39.87527
#
# Velocity S-wave (km/s) = 3.62664 4.12358 3.88307
# Velocity P-wave (km/s) = 5.83179 6.99765 6.44115
#
# Compressibility (1/GPa) = 0.02295479
#
# Stress axis : x y z
#
# Youngs Moduli (GPa) = 123.25648 165.03385 45.52134
#
# Poissons Ratio (x) = 0.25344 0.21433
# Poissons Ratio (y) = 0.18928 0.01587
# Poissons Ratio (z) = 0.58033 0.05755
#
# Static dielectric constant tensor:
#      x y z
#    x 2.199350 0.039310 0.026110 
#    y 0.039310 2.172880 -0.009630 
#    z 0.026110 -0.009630 2.168220 
# 
# From -- ./inp_files/575896.got.cif
#   From: 2010.05.17/outbox.cif.g08.bks.cpg/sg2_288_cif.got.tgz:575896.got - 2010.06.03 11:33:40.
