data_PCOD9017368
_publ_section_title
;
Structure prediction by ZEFSAII (Michael W. Deem and Ramdas Pophale) SiO2 
 PCOD9017368
Probable space group: P -1
;
_chemical_formula_sum "Si O2"
_cell_formula_units_Z 16
_cell_length_a 8.945531
_cell_length_b 9.954783
_cell_length_c 9.733291
_cell_angle_alpha 59.459830
_cell_angle_beta 111.330744
_cell_angle_gamma 123.343804
_cell_volume 619.319079
_symmetry_space_group_name_H-M "P -1"
_symmetry_group_IT_number 2
_symmetry_cell_setting 'triclinic'
loop_
_space_group_symop_operation_xyz
x,y,z
-x,-y,-z
loop_
_atom_site_type_symbol
_atom_site_label
_atom_site_fract_x
_atom_site_fract_y
_atom_site_fract_z
Si Si1 0.088976 0.894824 0.007318
Si Si2 0.975361 0.460852 0.853067
Si Si3 0.797194 0.644713 0.590327
Si Si4 0.439336 0.643747 0.852000
Si Si5 0.402206 0.643338 0.150197
Si Si6 0.275495 0.075898 0.715543
Si Si7 0.597101 0.024317 0.724234
Si Si8 0.782190 0.408619 0.463468
O O1 0.126123 0.936129 0.837211
O O2 0.279865 0.962450 0.111460
O O3 0.966088 0.686192 0.090888
O O4 0.000000 0.000000 0.000000
O O5 0.757781 0.340709 0.831456
O O6 0.293406 0.576711 0.717585
O O7 0.000000 0.500000 0.000000
O O8 0.661405 0.558253 0.719466
O O9 0.807211 0.827345 0.458513
O O10 0.725090 0.514300 0.501834
O O11 0.983308 0.634108 0.694020
O O12 0.570475 0.841321 0.744154
O O13 0.500000 0.500000 0.000000
O O14 0.377147 0.673470 0.967452
O O15 0.588929 0.774587 0.210170
O O16 0.406151 0.016390 0.708464
O O17 0.702657 0.203488 0.580944
O O18 0.000000 0.500000 0.500000
#
# Coordination Sequence:
#
# PCOD9017368 Si02
#       8
#     2   2   2   2   2   2   2   2
#     4  12  26  44  73 115 154 200 253 332 405 461
#     4  10  23  45  72 102 147 201 250 315 381 469
#     4  10  24  43  77 100 143 196 255 308 375 475
#     4  12  28  45  76 115 152 205 266 331 394 469
#     4  10  21  42  76 101 137 189 258 297 376 456
#     4  12  22  46  79 109 138 199 261 306 384 475
#     4  12  25  50  75 110 157 204 264 322 388 484
#     4  12  28  47  75 114 163 200 251 334 413 455
#
# _framework density 25.834824999999999
#
# number of rings (size 3 to 8) (size 9 to 14) (size 15 to 20)
#    0.750    0.000    5.000    2.625    5.250    1.000 
#    0.000    0.625    0.000    0.000    0.000    0.000 
#    0.000    0.000    0.000    0.000    0.000    0.000 
#
# Total GULP energy -89295.219441 kJ/mol
# GULP energy per Si atom -5580.951215 kJ/mol
# Density = 2.577602 g / cm^3
# Si number density = 25.834825 Si / 1000 Ang^3
#
#
#
# Elastic Constant Matrix: (Units=GPa)
#
#
# Indices 1 2 3 4 5 6 
#
# 1 78.1449 34.4808 46.2357 -34.8349 20.1634 -5.2359
# 2 34.4808 104.7822 70.7389 -20.8058 14.3731 -11.6208
# 3 46.2357 70.7389 209.8890 -23.9161 23.2248 4.0492
# 4 -34.8349 -20.8058 -23.9161 57.8395 -0.6045 2.8477
# 5 20.1634 14.3731 23.2248 -0.6045 44.0866 -15.7236
# 6 -5.2359 -11.6208 4.0492 2.8477 -15.7236 28.1156
#
#
#
# Elastic Compliance Matrix: (Units=1/GPa)
#
#
# Indices 1 2 3 4 5 6 
#
# 1 0.022629 -0.003180 -0.001413 0.011973 -0.009656 -0.003510
# 2 -0.003180 0.014216 -0.004245 0.001134 0.001415 0.006571
# 3 -0.001413 -0.004245 0.007078 0.000762 -0.003496 -0.005069
# 4 0.011973 0.001134 0.000762 0.025348 -0.007360 -0.004095
# 5 -0.009656 0.001415 -0.003496 -0.007360 0.035465 0.019869
# 6 -0.003510 0.006571 -0.005069 -0.004095 0.019869 0.049887
#
#
# Mechanical properties :
#
#
# Convention : Reuss Voigt Hill
#
# Bulk Modulus (GPa) = 38.09902 77.30298 57.70100
# Shear Modulus (GPa) = 27.61727 42.09906 34.85817
#
# Velocity S-wave (km/s) = 3.27309 4.04114 3.67723
# Velocity P-wave (km/s) = 5.39105 7.19454 6.35707
#
# Compressibility (1/GPa) = 0.02624739
#
# Stress axis : x y z
#
# Youngs Moduli (GPa) = 44.19040 70.34516 141.29025
#
# Poissons Ratio (x) = 0.22372 0.19959
# Poissons Ratio (y) = 0.14054 0.59972
# Poissons Ratio (z) = 0.06242 0.29859
#
# Static dielectric constant tensor:
#      x y z
#    x 2.769080 0.104160 -0.147740 
#    y 0.104160 2.135020 -0.079090 
#    z -0.147740 -0.079090 2.168390 
# 
# From -- ./inp_files/389152.got.cif
#   From: 2010.05.17/outbox.cif.g08.bks.cpg/sg2_195_cif.got.tgz:389152.got - 2010.06.03 11:33:40.
