data_PCOD9017416
_publ_section_title
;
Structure prediction by ZEFSAII (Michael W. Deem and Ramdas Pophale) SiO2 
 PCOD9017416
Probable space group: P -1
;
_chemical_formula_sum "Si O2"
_cell_formula_units_Z 14
_cell_length_a 17.409249
_cell_length_b 9.250217
_cell_length_c 7.346139
_cell_angle_alpha 109.357592
_cell_angle_beta 67.733098
_cell_angle_gamma 140.418600
_cell_volume 696.016199
_symmetry_space_group_name_H-M "P -1"
_symmetry_group_IT_number 2
_symmetry_cell_setting 'triclinic'
loop_
_space_group_symop_operation_xyz
x,y,z
-x,-y,-z
loop_
_atom_site_type_symbol
_atom_site_label
_atom_site_fract_x
_atom_site_fract_y
_atom_site_fract_z
Si Si1 0.901868 0.549203 0.114680
Si Si2 0.351915 0.382511 0.221168
Si Si3 0.966550 0.303487 0.556852
Si Si4 0.727704 0.608093 0.315896
Si Si5 0.747317 0.063105 0.884946
Si Si6 0.519928 0.336678 0.113920
Si Si7 0.060327 0.927555 0.842821
O O1 0.810926 0.570379 0.208584
O O2 0.961403 0.612556 0.284914
O O3 0.823933 0.294106 0.019931
O O4 0.011247 0.734006 0.948523
O O5 0.289289 0.370083 0.448602
O O6 0.529430 0.553924 0.789357
O O7 0.270669 0.133743 0.101726
O O8 0.395485 0.556142 0.097539
O O9 0.823309 0.129215 0.662395
O O10 0.000000 0.500000 0.500000
O O11 0.990880 0.193680 0.358353
O O12 0.597723 0.404406 0.248916
O O13 0.798779 0.837989 0.233548
O O14 0.608395 0.927494 0.910030
O O15 0.000000 0.000000 0.000000
#
# Coordination Sequence:
#
# PCOD9017416 Si02
#       7
#     2   2   2   2   2   2   2
#     4  11  26  40  60  94 129 162 201 255 313 359
#     4   9  20  39  62  91 116 163 206 249 295 359
#     4  12  24  42  64  91 122 166 209 250 307 368
#     4  11  22  39  63  93 125 159 203 253 308 367
#     4  10  21  43  62  90 124 160 206 257 295 367
#     4   9  21  39  67  89 120 159 211 249 305 354
#     4  10  23  39  61  95 123 160 198 255 308 361
#
# _framework density 20.114474000000001
#
# number of rings (size 3 to 8) (size 9 to 14) (size 15 to 20)
#    0.857    0.857    2.857    0.857    2.000    5.143 
#    2.571    0.714    0.000    0.000    0.000    0.000 
#    0.000    0.000    0.000    0.000    0.000    0.000 
#
# Total GULP energy -78012.468507 kJ/mol
# GULP energy per Si atom -5572.319179 kJ/mol
# Density = 2.006869 g / cm^3
# Si number density = 20.114474 Si / 1000 Ang^3
#
#
#
# Elastic Constant Matrix: (Units=GPa)
#
#
# Indices 1 2 3 4 5 6 
#
# 1 48.3206 35.5240 38.7193 9.6937 1.3194 -1.6770
# 2 35.5240 134.2548 71.6624 5.2527 4.6190 13.1135
# 3 38.7193 71.6624 146.4301 12.4069 -8.7646 -0.6248
# 4 9.6937 5.2527 12.4069 29.1370 2.2865 -1.0157
# 5 1.3194 4.6190 -8.7646 2.2865 33.2185 0.9982
# 6 -1.6770 13.1135 -0.6248 -1.0157 0.9982 18.0643
#
#
#
# Elastic Compliance Matrix: (Units=1/GPa)
#
#
# Indices 1 2 3 4 5 6 
#
# 1 0.030355 -0.005907 -0.004617 -0.006731 -0.001339 0.006642
# 2 -0.005907 0.012627 -0.004959 0.001673 -0.002655 -0.009645
# 3 -0.004617 -0.004959 0.010924 -0.002410 0.003825 0.003203
# 4 -0.006731 0.001673 -0.002410 0.037548 -0.003197 0.000365
# 5 -0.001339 -0.002655 0.003825 -0.003197 0.031755 0.000001
# 6 0.006642 -0.009645 0.003203 0.000365 0.000001 0.063107
#
#
# Mechanical properties :
#
#
# Convention : Reuss Voigt Hill
#
# Bulk Modulus (GPa) = 43.59410 68.97966 56.28688
# Shear Modulus (GPa) = 22.22921 28.29059 25.25990
#
# Velocity S-wave (km/s) = 3.32796 3.75437 3.54758
# Velocity P-wave (km/s) = 6.04046 7.29121 6.69511
#
# Compressibility (1/GPa) = 0.02293888
#
# Stress axis : x y z
#
# Youngs Moduli (GPa) = 32.94377 79.19748 91.54153
#
# Poissons Ratio (x) = 0.46779 0.42267
# Poissons Ratio (y) = 0.19459 0.45399
# Poissons Ratio (z) = 0.15211 0.39277
#
# Static dielectric constant tensor:
#      x y z
#    x 1.719630 0.001720 -0.004210 
#    y 0.001720 1.785160 -0.004220 
#    z -0.004210 -0.004220 1.703600 
# 
# From -- ./inp_files/107162.got.cif
#   From: 2010.05.17/outbox.cif.g08.bks.cpg/sg2_54_cif.got.tgz:107162.got - 2010.06.03 11:33:40.
