data_PCOD9017013
_publ_section_title
;
Structure prediction by ZEFSAII (Michael W. Deem and Ramdas Pophale) SiO2 
 PCOD9017013
Probable space group: P -1
;
_chemical_formula_sum "Si O2"
_cell_formula_units_Z 14
_cell_length_a 6.550286
_cell_length_b 6.153785
_cell_length_c 14.515848
_cell_angle_alpha 92.802905
_cell_angle_beta 81.475226
_cell_angle_gamma 71.150699
_cell_volume 544.686709
_symmetry_space_group_name_H-M "P -1"
_symmetry_group_IT_number 2
_symmetry_cell_setting 'triclinic'
loop_
_space_group_symop_operation_xyz
x,y,z
-x,-y,-z
loop_
_atom_site_type_symbol
_atom_site_label
_atom_site_fract_x
_atom_site_fract_y
_atom_site_fract_z
Si Si1 0.856073 0.757075 0.735381
Si Si2 0.535506 0.944336 0.135105
Si Si3 0.612226 0.759198 0.433284
Si Si4 0.755564 0.181424 0.005285
Si Si5 0.984796 0.389668 0.867463
Si Si6 0.226029 0.569537 0.421435
Si Si7 0.943110 0.905740 0.317987
O O1 0.633905 0.970199 0.768708
O O2 0.798773 0.591130 0.663633
O O3 0.926798 0.633606 0.826378
O O4 0.052711 0.839045 0.688519
O O5 0.388738 0.887025 0.064179
O O6 0.759380 0.731273 0.128776
O O7 0.621299 0.157945 0.104653
O O8 0.448152 0.629853 0.410199
O O9 0.772851 0.573344 0.488886
O O10 0.729359 0.835461 0.342340
O O11 0.500000 0.000000 0.500000
O O12 0.820760 0.391869 0.962339
O O13 0.000000 0.000000 0.000000
O O14 0.946718 0.224183 0.785358
O O15 0.056517 0.814421 0.406193
#
# Coordination Sequence:
#
# PCOD9017013 Si02
#       7
#     2   2   2   2   2   2   2
#     4  11  24  44  70 103 138 183 227 283 347 402
#     4  10  21  42  70  95 139 184 222 284 340 397
#     4  11  25  44  70  98 133 182 226 278 346 411
#     4   9  19  42  68  98 138 178 230 283 328 405
#     4  10  23  41  65 101 137 175 233 279 335 412
#     4  10  25  45  66  98 135 175 234 275 340 410
#     4  11  24  44  65  97 140 173 222 292 336 403
#
# _framework density 25.702847999999999
#
# number of rings (size 3 to 8) (size 9 to 14) (size 15 to 20)
#    0.000    1.714    1.429    1.286    4.000    7.429 
#    2.571    6.429    0.000    0.000    0.000    0.000 
#    0.000    0.000    0.000    0.000    0.000    0.000 
#
# Total GULP energy -78234.413872 kJ/mol
# GULP energy per Si atom -5588.172419 kJ/mol
# Density = 2.564435 g / cm^3
# Si number density = 25.702848 Si / 1000 Ang^3
#
#
#
# Elastic Constant Matrix: (Units=GPa)
#
#
# Indices 1 2 3 4 5 6 
#
# 1 131.8867 50.2359 44.2414 -34.0889 6.1749 8.0142
# 2 50.2359 100.0261 49.0606 -25.2714 0.4507 16.0618
# 3 44.2414 49.0606 85.8944 -21.9057 -11.8243 10.0106
# 4 -34.0889 -25.2714 -21.9057 55.3113 2.7696 -4.6035
# 5 6.1749 0.4507 -11.8243 2.7696 49.2247 -16.3986
# 6 8.0142 16.0618 10.0106 -4.6035 -16.3986 38.3624
#
#
#
# Elastic Compliance Matrix: (Units=1/GPa)
#
#
# Indices 1 2 3 4 5 6 
#
# 1 0.011003 -0.002639 -0.003321 0.004316 -0.002721 -0.000972
# 2 -0.002639 0.016467 -0.007174 0.002764 -0.003589 -0.005673
# 3 -0.003321 -0.007174 0.018490 0.001846 0.005268 0.001346
# 4 0.004316 0.002764 0.001846 0.022772 -0.001563 -0.000476
# 5 -0.002721 -0.003589 0.005268 -0.001563 0.025900 0.011580
# 6 -0.000972 -0.005673 0.001346 -0.000476 0.011580 0.033187
#
#
# Mechanical properties :
#
#
# Convention : Reuss Voigt Hill
#
# Bulk Modulus (GPa) = 50.78135 67.20920 58.99528
# Shear Modulus (GPa) = 31.12331 40.19764 35.66047
#
# Velocity S-wave (km/s) = 3.48356 3.95895 3.72884
# Velocity P-wave (km/s) = 5.99835 6.86317 6.44528
#
# Compressibility (1/GPa) = 0.01969227
#
# Stress axis : x y z
#
# Youngs Moduli (GPa) = 90.88184 60.72828 54.08410
#
# Poissons Ratio (x) = 0.16023 0.17961
# Poissons Ratio (y) = 0.23979 0.38802
# Poissons Ratio (z) = 0.30181 0.43569
#
# Static dielectric constant tensor:
#      x y z
#    x 2.101650 0.005930 -0.038190 
#    y 0.005930 2.089680 -0.057240 
#    z -0.038190 -0.057240 2.078920 
# 
# From -- ./inp_files/10264.got.cif
#   From: 2010.05.17/outbox.cif.g08.bks.cpg/sg2_6_cif.got.tgz:10264.got - 2010.06.03 11:33:40.
