data_PCOD9017543
_publ_section_title
;
Structure prediction by ZEFSAII (Michael W. Deem and Ramdas Pophale) SiO2 
 PCOD9017543
Probable space group: P -1
;
_chemical_formula_sum "Si O2"
_cell_formula_units_Z 16
_cell_length_a 11.906679
_cell_length_b 15.269109
_cell_length_c 9.243774
_cell_angle_alpha 76.448882
_cell_angle_beta 89.898171
_cell_angle_gamma 28.378987
_cell_volume 696.446496
_symmetry_space_group_name_H-M "P -1"
_symmetry_group_IT_number 2
_symmetry_cell_setting 'triclinic'
loop_
_space_group_symop_operation_xyz
x,y,z
-x,-y,-z
loop_
_atom_site_type_symbol
_atom_site_label
_atom_site_fract_x
_atom_site_fract_y
_atom_site_fract_z
Si Si1 0.078479 0.470337 0.729834
Si Si2 0.681348 0.021950 0.248621
Si Si3 0.517883 0.316568 0.305074
Si Si4 0.580746 0.753831 0.452094
Si Si5 0.970169 0.804583 0.032439
Si Si6 0.298618 0.174960 0.059224
Si Si7 0.941172 0.776372 0.619018
Si Si8 0.772502 0.289351 0.168790
O O1 0.335950 0.290713 0.695623
O O2 0.849189 0.582382 0.604224
O O3 0.994111 0.633379 0.690489
O O4 0.139408 0.372503 0.912110
O O5 0.915508 0.822301 0.432270
O O6 0.785994 0.958774 0.109928
O O7 0.547367 0.208492 0.241180
O O8 0.473972 0.089923 0.217815
O O9 0.513792 0.275624 0.480617
O O10 0.247891 0.566944 0.186499
O O11 0.746615 0.218431 0.291307
O O12 0.346756 0.988054 0.411749
O O13 0.011658 0.857431 0.902501
O O14 0.875371 0.787696 0.943941
O O15 0.500000 0.000000 0.000000
O O16 0.158681 0.679223 0.735428
O O17 0.500000 0.500000 0.000000
#
# Coordination Sequence:
#
# PCOD9017543 Si02
#       8
#     2   2   2   2   2   2   2   2
#     4  11  23  41  69 101 140 176 214 264 340 405
#     4  10  24  40  68 101 132 168 222 264 331 406
#     4  10  21  44  63  91 128 173 221 270 330 373
#     4  10  23  40  68 102 136 174 214 275 333 399
#     4  10  21  43  64  93 135 175 208 274 321 389
#     4  10  23  39  66 100 138 172 215 263 330 404
#     4  11  25  44  67 100 134 174 224 278 326 397
#     4  10  25  44  69  91 132 174 230 280 326 387
#
# _framework density 22.973768
#
# number of rings (size 3 to 8) (size 9 to 14) (size 15 to 20)
#    0.000    1.750    1.250    1.125   12.250    5.000 
#    0.000    8.125    0.000    0.000    0.000    0.000 
#    0.000    0.000    0.000    0.000    0.000    0.000 
#
# Total GULP energy -89472.380817 kJ/mol
# GULP energy per Si atom -5592.023801 kJ/mol
# Density = 2.292148 g / cm^3
# Si number density = 22.973768 Si / 1000 Ang^3
#
#
#
# Elastic Constant Matrix: (Units=GPa)
#
#
# Indices 1 2 3 4 5 6 
#
# 1 117.3266 21.1348 37.3445 14.4704 -25.7976 -22.6271
# 2 21.1348 62.3428 9.2569 13.0817 -21.2931 -5.1289
# 3 37.3445 9.2569 112.0532 7.3171 -2.7402 -11.9621
# 4 14.4704 13.0817 7.3171 34.0712 -4.8211 -9.3169
# 5 -25.7976 -21.2931 -2.7402 -4.8211 36.9336 1.5411
# 6 -22.6271 -5.1289 -11.9621 -9.3169 1.5411 27.4536
#
#
#
# Elastic Compliance Matrix: (Units=1/GPa)
#
#
# Indices 1 2 3 4 5 6 
#
# 1 0.013224 -0.000164 -0.003188 -0.001345 0.008373 0.008553
# 2 -0.000164 0.021471 -0.000961 -0.006161 0.011358 0.000729
# 3 -0.003188 -0.000961 0.010211 -0.000320 -0.002134 0.001653
# 4 -0.001345 -0.006161 -0.000320 0.034893 -0.000355 0.009463
# 5 0.008373 0.011358 -0.002134 -0.000355 0.039026 0.005782
# 6 0.008553 0.000729 0.001653 0.009463 0.005782 0.047218
#
#
# Mechanical properties :
#
#
# Convention : Reuss Voigt Hill
#
# Bulk Modulus (GPa) = 27.56358 47.46612 37.51485
# Shear Modulus (GPa) = 26.77195 34.62413 30.69804
#
# Velocity S-wave (km/s) = 3.41739 3.88637 3.65940
# Velocity P-wave (km/s) = 5.25312 6.39096 5.84977
#
# Compressibility (1/GPa) = 0.03627975
#
# Stress axis : x y z
#
# Youngs Moduli (GPa) = 75.62046 46.57515 97.92946
#
# Poissons Ratio (x) = 0.00763 0.31220
# Poissons Ratio (y) = 0.01240 0.09413
# Poissons Ratio (z) = 0.24108 0.04477
#
# Static dielectric constant tensor:
#      x y z
#    x 1.855590 -0.044620 -0.030860 
#    y -0.044620 1.874320 0.019280 
#    z -0.030860 0.019280 1.939590 
# 
# From -- ./inp_files/272886.got.cif
#   From: 2010.05.17/outbox.cif.g08.bks.cpg/sg2_137_cif.got.tgz:272886.got - 2010.06.03 11:33:40.
