data_PCOD9017824
_publ_section_title
;
Structure prediction by ZEFSAII (Michael W. Deem and Ramdas Pophale) SiO2 
 PCOD9017824
Probable space group: P -1
;
_chemical_formula_sum "Si O2"
_cell_formula_units_Z 12
_cell_length_a 17.109481
_cell_length_b 5.418631
_cell_length_c 7.749494
_cell_angle_alpha 120.455911
_cell_angle_beta 56.088218
_cell_angle_gamma 92.772594
_cell_volume 485.596218
_symmetry_space_group_name_H-M "P -1"
_symmetry_group_IT_number 2
_symmetry_cell_setting 'triclinic'
loop_
_space_group_symop_operation_xyz
x,y,z
-x,-y,-z
loop_
_atom_site_type_symbol
_atom_site_label
_atom_site_fract_x
_atom_site_fract_y
_atom_site_fract_z
Si Si1 0.713553 0.912537 0.852848
Si Si2 0.073927 0.797968 0.982613
Si Si3 0.751427 0.239750 0.456272
Si Si4 0.595134 0.109100 0.415237
Si Si5 0.101479 0.129525 0.572346
Si Si6 0.475913 0.689912 0.919715
O O1 0.707864 0.600487 0.666055
O O2 0.829348 0.889598 0.686617
O O3 0.661694 0.958373 0.118039
O O4 0.641109 0.205495 0.944508
O O5 0.011294 0.874652 0.264823
O O6 0.180585 0.831701 0.826442
O O7 0.092922 0.450299 0.785003
O O8 0.000000 0.000000 0.000000
O O9 0.671629 0.065988 0.466417
O O10 0.826687 0.120003 0.478544
O O11 0.544040 0.472993 0.613473
O O12 0.500000 0.000000 0.500000
O O13 0.500000 0.500000 0.000000
O O14 0.500000 0.000000 0.000000
#
# Coordination Sequence:
#
# PCOD9017824 Si02
#       6
#     2   2   2   2   2   2
#     4  11  24  41  65  97 134 179 229 287 347 412
#     4   8  16  35  67  98 125 169 219 277 344 416
#     4  10  21  43  66  96 137 175 228 280 348 412
#     4  12  27  44  67  98 140 187 236 288 345 412
#     4   9  18  36  68  97 128 171 222 279 347 416
#     4  12  25  47  72  95 136 189 240 294 354 409
#
# _framework density 24.711887000000001
#
# number of rings (size 3 to 8) (size 9 to 14) (size 15 to 20)
#    0.000    1.667    1.667    2.500    2.333    0.000 
#    6.000    0.833    0.000   34.000    0.000    0.000 
#    0.000    0.000    0.000    0.000    0.000    0.000 
#
# Total GULP energy -66972.167226 kJ/mol
# GULP energy per Si atom -5581.013935 kJ/mol
# Density = 2.465564 g / cm^3
# Si number density = 24.711887 Si / 1000 Ang^3
#
#
#
# Elastic Constant Matrix: (Units=GPa)
#
#
# Indices 1 2 3 4 5 6 
#
# 1 54.4218 17.1696 34.8558 5.9283 -8.5892 35.0803
# 2 17.1696 82.2518 37.1644 0.1628 -3.1498 16.5186
# 3 34.8558 37.1644 203.3339 -33.8242 -20.8492 18.7111
# 4 5.9283 0.1628 -33.8242 52.5327 -1.6457 -20.3151
# 5 -8.5892 -3.1498 -20.8492 -1.6457 39.2345 -8.0990
# 6 35.0803 16.5186 18.7111 -20.3151 -8.0990 52.5718
#
#
#
# Elastic Compliance Matrix: (Units=1/GPa)
#
#
# Indices 1 2 3 4 5 6 
#
# 1 0.063616 0.003373 -0.013236 -0.036698 -0.005486 -0.053825
# 2 0.003373 0.014720 -0.003728 -0.006061 -0.002008 -0.008201
# 3 -0.013236 -0.003728 0.009291 0.012358 0.004779 0.012208
# 4 -0.036698 -0.006061 0.012358 0.047550 0.008649 0.041702
# 5 -0.005486 -0.002008 0.004779 0.008649 0.029180 0.010429
# 6 -0.053825 -0.008201 0.012208 0.041702 0.010429 0.070891
#
#
# Mechanical properties :
#
#
# Convention : Reuss Voigt Hill
#
# Bulk Modulus (GPa) = 16.54397 57.59854 37.07125
# Shear Modulus (GPa) = 17.69421 45.58898 31.64159
#
# Velocity S-wave (km/s) = 2.67876 4.29980 3.58218
# Velocity P-wave (km/s) = 4.03447 6.92890 5.66950
#
# Compressibility (1/GPa) = 0.06044500
#
# Stress axis : x y z
#
# Youngs Moduli (GPa) = 15.71942 67.93358 107.63527
#
# Poissons Ratio (x) = -0.22916 1.42464
# Poissons Ratio (y) = -0.05303 0.40129
# Poissons Ratio (z) = 0.20806 0.25327
#
# Static dielectric constant tensor:
#      x y z
#    x 2.202840 -0.086450 -0.131830 
#    y -0.086450 2.074630 -0.032160 
#    z -0.131830 -0.032160 2.078370 
# 
# From -- ./inp_files/324208.got.cif
#   From: 2010.05.17/outbox.cif.g08.bks.cpg/sg2_163_cif.got.tgz:324208.got - 2010.06.03 11:33:40.
