data_PCOD9017074
_publ_section_title
;
Structure prediction by ZEFSAII (Michael W. Deem and Ramdas Pophale) SiO2 
 PCOD9017074
Probable space group: P -1
;
_chemical_formula_sum "Si O2"
_cell_formula_units_Z 15
_cell_length_a 15.489511
_cell_length_b 7.768313
_cell_length_c 13.006952
_cell_angle_alpha 116.965243
_cell_angle_beta 25.270032
_cell_angle_gamma 108.600331
_cell_volume 578.159520
_symmetry_space_group_name_H-M "P -1"
_symmetry_group_IT_number 2
_symmetry_cell_setting 'triclinic'
loop_
_space_group_symop_operation_xyz
x,y,z
-x,-y,-z
loop_
_atom_site_type_symbol
_atom_site_label
_atom_site_fract_x
_atom_site_fract_y
_atom_site_fract_z
Si Si1 0.291141 0.100030 0.810846
Si Si2 0.511200 0.364657 0.795431
Si Si3 0.260938 0.197005 0.169009
Si Si4 0.066210 0.251232 0.615266
Si Si5 0.418805 0.740745 0.859695
Si Si6 0.500000 0.500000 0.500000
Si Si7 0.055707 0.906543 0.673632
Si Si8 0.912666 0.590625 0.012190
O O1 0.374339 0.255517 0.836655
O O2 0.125350 0.186668 0.922928
O O3 0.500000 0.000000 0.500000
O O4 0.149437 0.996662 0.008583
O O5 0.509316 0.577576 0.805635
O O6 0.747590 0.234743 0.520637
O O7 0.384874 0.352596 0.033798
O O8 0.815761 0.775913 0.625041
O O9 0.411776 0.974587 0.939275
O O10 0.054037 0.204865 0.324182
O O11 0.136241 0.079130 0.577216
O O12 0.826619 0.246317 0.858110
O O13 0.051073 0.460944 0.741401
O O14 0.514812 0.658960 0.623763
O O15 0.679446 0.563467 0.258975
O O16 0.000000 0.500000 0.000000
#
# Coordination Sequence:
#
# PCOD9017074 Si02
#       8
#     2   2   2   2   2   1   2   2
#     4  11  26  44  67 100 143 183 230 295 356 416
#     4  11  24  44  68 107 142 182 240 293 350 418
#     4  10  24  47  72  98 146 191 233 296 353 415
#     4  10  22  48  69  98 142 185 233 296 354 413
#     4  10  21  42  71 100 140 196 229 293 358 408
#     4  10  22  40  66  96 146 178 234 292 346 410
#     4  10  24  43  69 104 135 181 237 286 349 424
#     4  11  26  43  71 102 130 189 231 286 356 430
#
# _framework density 25.944396000000001
#
# number of rings (size 3 to 8) (size 9 to 14) (size 15 to 20)
#    0.000    1.600    2.667    1.600   11.200    1.600 
#    2.400    5.333    0.000    0.000    0.000    0.000 
#    0.000    0.000    0.000    0.000    0.000    0.000 
#
# Total GULP energy -83595.415060 kJ/mol
# GULP energy per Si atom -5573.027671 kJ/mol
# Density = 2.588535 g / cm^3
# Si number density = 25.944396 Si / 1000 Ang^3
#
#
#
# Elastic Constant Matrix: (Units=GPa)
#
#
# Indices 1 2 3 4 5 6 
#
# 1 101.0468 57.0345 80.8817 4.1683 25.5122 -30.9238
# 2 57.0345 55.8486 53.5769 7.3930 -7.6652 -24.6138
# 3 80.8817 53.5769 159.4681 -14.4816 13.8731 -24.4350
# 4 4.1683 7.3930 -14.4816 43.8060 -16.0114 -5.4597
# 5 25.5122 -7.6652 13.8731 -16.0114 62.9901 -1.7395
# 6 -30.9238 -24.6138 -24.4350 -5.4597 -1.7395 43.7831
#
#
#
# Elastic Compliance Matrix: (Units=1/GPa)
#
#
# Indices 1 2 3 4 5 6 
#
# 1 0.047344 -0.040831 -0.008404 -0.008863 -0.024444 0.003719
# 2 -0.040831 0.071315 -0.003838 0.001659 0.026769 0.010381
# 3 -0.008404 -0.003838 0.012142 0.006053 0.001788 -0.000491
# 4 -0.008863 0.001659 0.006053 0.029296 0.009963 0.002100
# 5 -0.024444 0.026769 0.001788 0.009963 0.031207 0.001265
# 6 0.003719 0.010381 -0.000491 0.002100 0.001265 0.031341
#
#
# Mechanical properties :
#
#
# Convention : Reuss Voigt Hill
#
# Bulk Modulus (GPa) = 40.55747 77.70553 59.13150
# Shear Modulus (GPa) = 14.83645 38.44052 26.63848
#
# Velocity S-wave (km/s) = 2.39394 3.85340 3.20777
# Velocity P-wave (km/s) = 4.82780 7.05791 6.04656
#
# Compressibility (1/GPa) = 0.02465637
#
# Stress axis : x y z
#
# Youngs Moduli (GPa) = 21.12180 14.02230 82.36180
#
# Poissons Ratio (x) = 0.57254 0.69213
# Poissons Ratio (y) = 0.86242 0.31611
# Poissons Ratio (z) = 0.17750 0.05382
#
# Static dielectric constant tensor:
#      x y z
#    x 2.162550 0.015520 -0.065810 
#    y 0.015520 2.080040 0.067610 
#    z -0.065810 0.067610 2.018390 
# 
# From -- ./inp_files/576919.got.cif
#   From: 2010.05.17/outbox.cif.g08.bks.cpg/sg2_289_cif.got.tgz:576919.got - 2010.06.03 11:33:40.
