data_PCOD9017313
_publ_section_title
;
Structure prediction by ZEFSAII (Michael W. Deem and Ramdas Pophale) SiO2 
 PCOD9017313
Probable space group: P -1
;
_chemical_formula_sum "Si O2"
_cell_formula_units_Z 14
_cell_length_a 8.747212
_cell_length_b 18.230241
_cell_length_c 9.942046
_cell_angle_alpha 38.595645
_cell_angle_beta 99.651834
_cell_angle_gamma 130.222726
_cell_volume 533.582785
_symmetry_space_group_name_H-M "P -1"
_symmetry_group_IT_number 2
_symmetry_cell_setting 'triclinic'
loop_
_space_group_symop_operation_xyz
x,y,z
-x,-y,-z
loop_
_atom_site_type_symbol
_atom_site_label
_atom_site_fract_x
_atom_site_fract_y
_atom_site_fract_z
Si Si1 0.197732 0.291493 0.402312
Si Si2 0.213576 0.894978 0.604074
Si Si3 0.608006 0.915249 0.041498
Si Si4 0.056104 0.681144 0.341373
Si Si5 0.814572 0.439473 0.289186
Si Si6 0.445084 0.264314 0.258672
Si Si7 0.529638 0.633398 0.401555
O O1 0.286819 0.248377 0.366671
O O2 0.282209 0.284602 0.563074
O O3 0.907526 0.160953 0.484442
O O4 0.398605 0.535380 0.089335
O O5 0.500000 0.000000 0.500000
O O6 0.263665 0.052894 0.455817
O O7 0.971220 0.663668 0.974781
O O8 0.341216 0.827830 0.090593
O O9 0.466606 0.761450 0.372875
O O10 0.672887 0.843170 0.064714
O O11 0.853819 0.151926 0.794355
O O12 0.990443 0.535794 0.647677
O O13 0.803311 0.539626 0.405127
O O14 0.686016 0.341588 0.262013
O O15 0.500000 0.500000 0.500000
#
# Coordination Sequence:
#
# PCOD9017313 Si02
#       7
#     2   2   2   2   2   2   2
#     4  10  23  46  64  99 134 174 237 266 327 416
#     4  11  25  41  70 104 132 174 218 286 354 386
#     4   9  20  43  67  98 128 177 232 269 314 405
#     4   9  21  41  69  94 131 180 226 271 323 394
#     4   9  20  41  70 100 131 167 232 275 321 406
#     4  10  21  42  73  95 126 181 220 286 328 392
#     4  12  25  40  66 101 144 177 209 284 343 398
#
# _framework density 26.237729000000002
#
# number of rings (size 3 to 8) (size 9 to 14) (size 15 to 20)
#    0.857    1.143    1.429    0.857    0.000    8.571 
#    0.000    0.000    0.000    0.000    0.000    0.000 
#    0.000    0.000    0.000    0.000    0.000    0.000 
#
# Total GULP energy -78080.663544 kJ/mol
# GULP energy per Si atom -5577.190253 kJ/mol
# Density = 2.617801 g / cm^3
# Si number density = 26.237729 Si / 1000 Ang^3
#
#
#
# Elastic Constant Matrix: (Units=GPa)
#
#
# Indices 1 2 3 4 5 6 
#
# 1 133.6193 55.7879 44.8810 -17.3717 18.6167 20.9754
# 2 55.7879 118.3371 59.8377 -42.0047 11.9040 28.2450
# 3 44.8810 59.8377 135.0464 -30.7801 39.4762 6.8711
# 4 -17.3717 -42.0047 -30.7801 51.0566 -15.2427 12.7470
# 5 18.6167 11.9040 39.4762 -15.2427 38.8638 -24.3495
# 6 20.9754 28.2450 6.8711 12.7470 -24.3495 47.4988
#
#
#
# Elastic Compliance Matrix: (Units=1/GPa)
#
#
# Indices 1 2 3 4 5 6 
#
# 1 0.011719 -0.000300 0.002369 0.004185 -0.015226 -0.014268
# 2 -0.000300 0.026651 0.001868 0.025018 -0.021106 -0.033519
# 3 0.002369 0.001868 0.018355 0.009968 -0.031131 -0.023446
# 4 0.004185 0.025018 0.009968 0.050535 -0.029244 -0.046720
# 5 -0.015226 -0.021106 -0.031131 -0.029244 0.117050 0.091629
# 6 -0.014268 -0.033519 -0.023446 -0.046720 0.091629 0.110188
#
#
# Mechanical properties :
#
#
# Convention : Reuss Voigt Hill
#
# Bulk Modulus (GPa) = 15.48028 78.66844 47.07436
# Shear Modulus (GPa) = 14.36139 42.58358 28.47249
#
# Velocity S-wave (km/s) = 2.34210 4.03301 3.29777
# Velocity P-wave (km/s) = 3.63686 7.19270 5.69919
#
# Compressibility (1/GPa) = 0.06459832
#
# Stress axis : x y z
#
# Youngs Moduli (GPa) = 85.33448 37.52220 54.48135
#
# Poissons Ratio (x) = 0.01124 -0.12905
# Poissons Ratio (y) = 0.02557 -0.10176
# Poissons Ratio (z) = -0.20214 -0.07008
#
# Static dielectric constant tensor:
#      x y z
#    x 2.374470 -0.188530 -0.102070 
#    y -0.188530 2.094950 0.047020 
#    z -0.102070 0.047020 2.251400 
# 
# From -- ./inp_files/402845.got.cif
#   From: 2010.05.17/outbox.cif.g08.bks.cpg/sg2_202_cif.got.tgz:402845.got - 2010.06.03 11:33:40.
