data_PCOD9017182
_publ_section_title
;
Structure prediction by ZEFSAII (Michael W. Deem and Ramdas Pophale) SiO2 
 PCOD9017182
Probable space group: P -1
;
_chemical_formula_sum "Si O2"
_cell_formula_units_Z 13
_cell_length_a 9.015602
_cell_length_b 8.904141
_cell_length_c 9.527882
_cell_angle_alpha 122.543250
_cell_angle_beta 75.214282
_cell_angle_gamma 122.430634
_cell_volume 543.615033
_symmetry_space_group_name_H-M "P -1"
_symmetry_group_IT_number 2
_symmetry_cell_setting 'triclinic'
loop_
_space_group_symop_operation_xyz
x,y,z
-x,-y,-z
loop_
_atom_site_type_symbol
_atom_site_label
_atom_site_fract_x
_atom_site_fract_y
_atom_site_fract_z
Si Si1 0.424789 0.110693 0.672816
Si Si2 0.413960 0.837070 0.785110
Si Si3 0.055054 0.503686 0.825764
Si Si4 0.124572 0.194283 0.761310
Si Si5 0.739729 0.555893 0.875537
Si Si6 0.245851 0.138914 0.198882
Si Si7 0.500000 0.500000 0.500000
O O1 0.565276 0.349354 0.776384
O O2 0.500000 0.000000 0.500000
O O3 0.399478 0.001480 0.774346
O O4 0.245849 0.095218 0.648034
O O5 0.429081 0.668482 0.598142
O O6 0.239235 0.698299 0.845010
O O7 0.401570 0.079920 0.133510
O O8 0.076293 0.303201 0.704035
O O9 0.901856 0.515341 0.784291
O O10 0.000000 0.500000 0.000000
O O11 0.944135 0.041678 0.805402
O O12 0.244756 0.378471 0.932594
O O13 0.757142 0.750207 0.886626
O O14 0.682741 0.678207 0.614175
#
# Coordination Sequence:
#
# PCOD9017182 Si02
#       7
#     2   2   2   2   2   2   1
#     4  12  26  43  69 107 139 188 238 286 353 420
#     4  10  22  43  68  99 142 182 234 288 344 418
#     4  10  23  43  68 101 139 185 232 283 348 411
#     4  11  24  43  68 102 143 185 233 290 350 418
#     4  11  23  44  67 103 143 183 237 286 352 415
#     4  10  21  42  72 100 135 186 233 284 353 413
#     4   8  22  40  70  92 140 176 232 270 364 392
#
# _framework density 23.913979999999999
#
# number of rings (size 3 to 8) (size 9 to 14) (size 15 to 20)
#    0.923    0.615    0.000    4.615    2.154    3.692 
#    0.000   12.308    0.000    0.000    0.000    0.000 
#    0.000    0.000    0.000    0.000    0.000    0.000 
#
# Total GULP energy -72427.678882 kJ/mol
# GULP energy per Si atom -5571.359914 kJ/mol
# Density = 2.385955 g / cm^3
# Si number density = 23.913980 Si / 1000 Ang^3
#
#
#
# Elastic Constant Matrix: (Units=GPa)
#
#
# Indices 1 2 3 4 5 6 
#
# 1 228.6587 67.1554 18.8852 -6.8973 -0.3998 -12.6707
# 2 67.1554 130.9251 17.4109 -7.6648 5.2058 -0.5191
# 3 18.8852 17.4109 35.3701 5.2291 -2.8247 3.9722
# 4 -6.8973 -7.6648 5.2291 33.8741 2.9704 6.1259
# 5 -0.3998 5.2058 -2.8247 2.9704 21.6171 2.9292
# 6 -12.6707 -0.5191 3.9722 6.1259 2.9292 45.8435
#
#
#
# Elastic Compliance Matrix: (Units=1/GPa)
#
#
# Indices 1 2 3 4 5 6 
#
# 1 0.005354 -0.002465 -0.001883 0.000531 0.000166 0.001533
# 2 -0.002465 0.009731 -0.004087 0.002682 -0.003242 -0.000368
# 3 -0.001883 -0.004087 0.033104 -0.006453 0.006567 -0.002992
# 4 0.000531 0.002682 -0.006453 0.032297 -0.005480 -0.003229
# 5 0.000166 -0.003242 0.006567 -0.005480 0.049056 -0.002962
# 6 0.001533 -0.000368 -0.002992 -0.003229 -0.002962 0.023113
#
#
# Mechanical properties :
#
#
# Convention : Reuss Voigt Hill
#
# Bulk Modulus (GPa) = 31.93049 66.87296 49.40173
# Shear Modulus (GPa) = 27.78318 39.70042 33.74180
#
# Velocity S-wave (km/s) = 3.41221 4.07889 3.76036
# Velocity P-wave (km/s) = 5.37638 7.08575 6.28941
#
# Compressibility (1/GPa) = 0.03131803
#
# Stress axis : x y z
#
# Youngs Moduli (GPa) = 186.77025 102.76954 30.20753
#
# Poissons Ratio (x) = 0.25337 0.05687
# Poissons Ratio (y) = 0.46046 0.12347
# Poissons Ratio (z) = 0.35163 0.42007
#
# Static dielectric constant tensor:
#      x y z
#    x 1.958330 -0.047520 -0.041960 
#    y -0.047520 1.862940 -0.028970 
#    z -0.041960 -0.028970 2.004650 
# 
# From -- ./inp_files/147481.got.cif
#   From: 2010.05.17/outbox.cif.g08.bks.cpg/sg2_74_cif.got.tgz:147481.got - 2010.06.03 11:33:40.
