data_PCOD9017530
_publ_section_title
;
Structure prediction by ZEFSAII (Michael W. Deem and Ramdas Pophale) SiO2 
 PCOD9017530
Probable space group: P -1
;
_chemical_formula_sum "Si O2"
_cell_formula_units_Z 12
_cell_length_a 16.207053
_cell_length_b 17.359733
_cell_length_c 5.404015
_cell_angle_alpha 59.957861
_cell_angle_beta 65.524970
_cell_angle_gamma 24.304388
_cell_volume 537.940381
_symmetry_space_group_name_H-M "P -1"
_symmetry_group_IT_number 2
_symmetry_cell_setting 'triclinic'
loop_
_space_group_symop_operation_xyz
x,y,z
-x,-y,-z
loop_
_atom_site_type_symbol
_atom_site_label
_atom_site_fract_x
_atom_site_fract_y
_atom_site_fract_z
Si Si1 0.484598 0.756633 0.419883
Si Si2 0.750511 0.983716 0.208671
Si Si3 0.752041 0.683830 0.262365
Si Si4 0.636426 0.323593 0.429341
Si Si5 0.772224 0.754717 0.622097
Si Si6 0.016308 0.909293 0.919859
O O1 0.364050 0.880970 0.622734
O O2 0.682484 0.643604 0.375528
O O3 0.497941 0.638839 0.568799
O O4 0.369199 0.892651 0.097397
O O5 0.773707 0.858429 0.410647
O O6 0.955161 0.863090 0.142914
O O7 0.678145 0.785629 0.455014
O O8 0.992848 0.478654 0.294336
O O9 0.685702 0.798914 0.921407
O O10 0.500000 0.500000 0.500000
O O11 0.758375 0.280371 0.161711
O O12 0.830463 0.102133 0.662819
O O13 0.000000 0.000000 0.000000
#
# Coordination Sequence:
#
# PCOD9017530 Si02
#       6
#     2   2   2   2   2   2
#     4  11  23  41  63  95 127 162 218 265 312 390
#     4  11  23  40  65  93 127 169 210 260 329 375
#     4  10  22  41  61  90 128 160 212 264 308 390
#     4  10  23  43  64  96 129 173 217 266 328 384
#     4  10  22  41  61  90 125 168 206 257 327 376
#     4  10  21  43  64  91 135 167 214 273 316 393
#
# _framework density 22.307306000000001
#
# number of rings (size 3 to 8) (size 9 to 14) (size 15 to 20)
#    0.000    1.667    1.667    2.000    0.000    6.000 
#   15.000    0.000    0.000    0.000    0.000    0.000 
#    0.000    0.000    0.000    0.000    0.000    0.000 
#
# Total GULP energy -67026.382853 kJ/mol
# GULP energy per Si atom -5585.531904 kJ/mol
# Density = 2.225653 g / cm^3
# Si number density = 22.307306 Si / 1000 Ang^3
#
#
#
# Elastic Constant Matrix: (Units=GPa)
#
#
# Indices 1 2 3 4 5 6 
#
# 1 177.8022 26.2842 26.9205 14.0463 -6.9862 -10.2258
# 2 26.2842 82.4193 43.4905 19.6724 1.3571 8.1205
# 3 26.9205 43.4905 132.9452 20.6474 10.1553 14.2677
# 4 14.0463 19.6724 20.6474 39.0417 4.6599 -0.3568
# 5 -6.9862 1.3571 10.1553 4.6599 35.6697 12.1318
# 6 -10.2258 8.1205 14.2677 -0.3568 12.1318 49.4620
#
#
#
# Elastic Compliance Matrix: (Units=1/GPa)
#
#
# Indices 1 2 3 4 5 6 
#
# 1 0.006185 -0.001399 -0.000855 -0.001194 0.001167 0.001460
# 2 -0.001399 0.016290 -0.004036 -0.005805 0.001789 -0.002280
# 3 -0.000855 -0.004036 0.009766 -0.002626 -0.001802 -0.001908
# 4 -0.001194 -0.005805 -0.002626 0.030886 -0.004227 0.002723
# 5 0.001167 0.001789 -0.001802 -0.004227 0.031762 -0.007353
# 6 0.001460 -0.002280 -0.001908 0.002723 -0.007353 0.023267
#
#
# Mechanical properties :
#
#
# Convention : Reuss Voigt Hill
#
# Bulk Modulus (GPa) = 50.86658 65.17300 58.01979
# Shear Modulus (GPa) = 36.41960 44.59944 40.50952
#
# Velocity S-wave (km/s) = 4.04497 4.47623 4.26605
# Velocity P-wave (km/s) = 6.68340 7.48297 7.09446
#
# Compressibility (1/GPa) = 0.01965927
#
# Stress axis : x y z
#
# Youngs Moduli (GPa) = 161.68944 61.38861 102.40082
#
# Poissons Ratio (x) = 0.08590 0.08756
# Poissons Ratio (y) = 0.22625 0.41329
# Poissons Ratio (z) = 0.13826 0.24776
#
# Static dielectric constant tensor:
#      x y z
#    x 1.819200 -0.037610 0.010580 
#    y -0.037610 1.794940 -0.008640 
#    z 0.010580 -0.008640 1.884350 
# 
# From -- ./inp_files/97690.got.cif
#   From: 2010.05.17/outbox.cif.g08.bks.cpg/sg2_49_cif.got.tgz:97690.got - 2010.06.03 11:33:40.
