data_PCOD9017888
_publ_section_title
;
Structure prediction by ZEFSAII (Michael W. Deem and Ramdas Pophale) SiO2 
 PCOD9017888
Probable space group: P -1
;
_chemical_formula_sum "Si O2"
_cell_formula_units_Z 13
_cell_length_a 5.098426
_cell_length_b 18.739729
_cell_length_c 9.626030
_cell_angle_alpha 37.214892
_cell_angle_beta 111.326248
_cell_angle_gamma 121.199435
_cell_volume 473.664708
_symmetry_space_group_name_H-M "P -1"
_symmetry_group_IT_number 2
_symmetry_cell_setting 'triclinic'
loop_
_space_group_symop_operation_xyz
x,y,z
-x,-y,-z
loop_
_atom_site_type_symbol
_atom_site_label
_atom_site_fract_x
_atom_site_fract_y
_atom_site_fract_z
Si Si1 0.222229 0.374872 0.082076
Si Si2 0.650858 0.680772 0.120924
Si Si3 0.370376 0.286912 0.502641
Si Si4 0.420560 0.055244 0.258561
Si Si5 0.000000 0.000000 0.000000
Si Si6 0.080703 0.465066 0.313188
Si Si7 0.265947 0.846076 0.098936
O O1 0.271682 0.349749 0.971398
O O2 0.235976 0.264275 0.356326
O O3 0.500000 0.500000 0.000000
O O4 0.944429 0.421156 0.967781
O O5 0.580979 0.806876 0.917354
O O6 0.352785 0.563731 0.306861
O O7 0.963306 0.715661 0.213841
O O8 0.193522 0.365497 0.415729
O O9 0.730430 0.384503 0.415342
O O10 0.406095 0.170149 0.779556
O O11 0.122723 0.988234 0.207269
O O12 0.500000 0.000000 0.500000
O O13 0.685256 0.083794 0.148340
O O14 0.186800 0.913003 0.108984
#
# Coordination Sequence:
#
# PCOD9017888 Si02
#       7
#     2   2   2   2   1   2   2
#     4  10  21  43  67 110 156 211 259 312 377 472
#     4  11  24  44  74 109 155 204 262 321 391 486
#     4  11  26  40  79 106 161 203 257 320 388 470
#     4  11  27  52  80 111 157 205 272 340 410 474
#     4  10  26  52  82 110 156 198 276 340 404 480
#     4  11  22  45  67 116 155 210 254 311 392 476
#     4  11  27  52  73 120 150 208 266 335 405 476
#
# _framework density 27.445575999999999
#
# number of rings (size 3 to 8) (size 9 to 14) (size 15 to 20)
#    0.000    1.231    3.077    1.846    8.615    3.692 
#    5.538    0.000    0.000    0.000    0.000    0.000 
#    0.000    0.000    0.000    0.000    0.000    0.000 
#
# Total GULP energy -72564.773199 kJ/mol
# GULP energy per Si atom -5581.905631 kJ/mol
# Density = 2.738311 g / cm^3
# Si number density = 27.445576 Si / 1000 Ang^3
#
#
#
# Elastic Constant Matrix: (Units=GPa)
#
#
# Indices 1 2 3 4 5 6 
#
# 1 163.9304 54.0169 46.8756 5.6381 21.4327 -28.1826
# 2 54.0169 163.6376 51.4404 20.4747 11.1697 -25.9249
# 3 46.8756 51.4404 196.6039 29.6672 27.8143 -8.7563
# 4 5.6381 20.4747 29.6672 37.9235 4.6131 1.5938
# 5 21.4327 11.1697 27.8143 4.6131 47.1012 0.1127
# 6 -28.1826 -25.9249 -8.7563 1.5938 0.1127 67.5667
#
#
#
# Elastic Compliance Matrix: (Units=1/GPa)
#
#
# Indices 1 2 3 4 5 6 
#
# 1 0.007692 -0.001767 -0.001028 0.000826 -0.002561 0.002382
# 2 -0.001767 0.007771 -0.001010 -0.003218 -0.000132 0.002190
# 3 -0.001028 -0.001010 0.006624 -0.004150 -0.002798 0.000145
# 4 0.000826 -0.003218 -0.004150 0.031349 -0.000227 -0.002167
# 5 -0.002561 -0.000132 -0.002798 -0.000227 0.024106 -0.001516
# 6 0.002382 0.002190 0.000145 -0.002167 -0.001516 0.016706
#
#
# Mechanical properties :
#
#
# Convention : Reuss Voigt Hill
#
# Bulk Modulus (GPa) = 69.07556 92.09308 80.58432
# Shear Modulus (GPa) = 46.86746 55.30754 51.08750
#
# Velocity S-wave (km/s) = 4.13686 4.49394 4.31909
# Velocity P-wave (km/s) = 6.93116 7.78170 7.36871
#
# Compressibility (1/GPa) = 0.01447690
#
# Stress axis : x y z
#
# Youngs Moduli (GPa) = 129.99966 128.69125 150.96124
#
# Poissons Ratio (x) = 0.22744 0.15518
# Poissons Ratio (y) = 0.22975 0.15245
# Poissons Ratio (z) = 0.13363 0.12996
#
# Static dielectric constant tensor:
#      x y z
#    x 1.663570 -0.354880 0.373580 
#    y -0.354880 1.647680 0.339510 
#    z 0.373580 0.339510 2.078670 
# 
# From -- ./inp_files/138435.got.cif
#   From: 2010.05.17/outbox.cif.g08.bks.cpg/sg2_70_cif.got.tgz:138435.got - 2010.06.03 11:33:40.
