data_PCOD9017349
_publ_section_title
;
Structure prediction by ZEFSAII (Michael W. Deem and Ramdas Pophale) SiO2 
 PCOD9017349
Probable space group: P -1
;
_chemical_formula_sum "Si O2"
_cell_formula_units_Z 12
_cell_length_a 9.341595
_cell_length_b 14.857223
_cell_length_c 8.948003
_cell_angle_alpha 147.500461
_cell_angle_beta 76.112948
_cell_angle_gamma 90.033327
_cell_volume 597.291431
_symmetry_space_group_name_H-M "P -1"
_symmetry_group_IT_number 2
_symmetry_cell_setting 'triclinic'
loop_
_space_group_symop_operation_xyz
x,y,z
-x,-y,-z
loop_
_atom_site_type_symbol
_atom_site_label
_atom_site_fract_x
_atom_site_fract_y
_atom_site_fract_z
Si Si1 0.523781 0.313194 0.643367
Si Si2 0.908343 0.292562 0.795803
Si Si3 0.826696 0.657596 0.764112
Si Si4 0.213460 0.359650 0.910903
Si Si5 0.629390 0.529821 0.404607
Si Si6 0.122057 0.975126 0.797049
O O1 0.390013 0.245505 0.645664
O O2 0.473907 0.355769 0.545424
O O3 0.703560 0.174572 0.418099
O O4 0.500000 0.500000 0.000000
O O5 0.932664 0.105922 0.447360
O O6 0.074203 0.286931 0.813717
O O7 0.850361 0.449631 0.899509
O O8 0.769136 0.358704 0.048825
O O9 0.721480 0.628057 0.616042
O O10 0.000000 0.500000 0.500000
O O11 0.762021 0.633671 0.909303
O O12 0.852750 0.842652 0.993474
O O13 0.500000 0.500000 0.500000
O O14 0.000000 0.000000 0.000000
#
# Coordination Sequence:
#
# PCOD9017349 Si02
#       6
#     2   2   2   2   2   2
#     4  11  23  45  72  99 136 188 227 285 346 411
#     4  10  22  45  71 101 133 192 227 281 351 417
#     4  12  26  44  69 105 142 184 229 292 345 406
#     4  10  21  42  74  93 141 176 235 276 352 401
#     4  11  24  42  75 103 140 181 234 282 354 408
#     4  12  28  44  72 105 141 182 238 284 350 417
#
# _framework density 20.090696000000001
#
# number of rings (size 3 to 8) (size 9 to 14) (size 15 to 20)
#    0.000    1.000    5.000    2.000    7.000    2.000 
#    0.000    0.000    0.000    0.000    0.000    0.000 
#    0.000    0.000    0.000    0.000    0.000    0.000 
#
# Total GULP energy -67028.886365 kJ/mol
# GULP energy per Si atom -5585.740530 kJ/mol
# Density = 2.004497 g / cm^3
# Si number density = 20.090696 Si / 1000 Ang^3
#
#
#
# Elastic Constant Matrix: (Units=GPa)
#
#
# Indices 1 2 3 4 5 6 
#
# 1 123.6669 33.3750 59.5447 -1.6134 -7.2686 -1.0167
# 2 33.3750 102.0459 52.0047 -33.6698 -3.7812 5.7898
# 3 59.5447 52.0047 125.8340 -8.1911 5.8930 8.5765
# 4 -1.6134 -33.6698 -8.1911 32.1474 0.7155 -5.4207
# 5 -7.2686 -3.7812 5.8930 0.7155 48.7593 -12.6469
# 6 -1.0167 5.7898 8.5765 -5.4207 -12.6469 44.5421
#
#
#
# Elastic Compliance Matrix: (Units=1/GPa)
#
#
# Indices 1 2 3 4 5 6 
#
# 1 0.011090 -0.002004 -0.004834 -0.002515 0.002606 0.001878
# 2 -0.002004 0.020112 -0.006295 0.019573 0.002134 0.001540
# 3 -0.004834 -0.006295 0.012966 -0.004007 -0.003570 -0.003290
# 4 -0.002515 0.019573 -0.004007 0.051258 0.002179 0.005027
# 5 0.002606 0.002134 -0.003570 0.002179 0.023374 0.007371
# 6 0.001878 0.001540 -0.003290 0.005027 0.007371 0.025632
#
#
# Mechanical properties :
#
#
# Convention : Reuss Voigt Hill
#
# Bulk Modulus (GPa) = 55.85035 71.26618 63.55827
# Shear Modulus (GPa) = 28.30219 38.86460 33.58339
#
# Velocity S-wave (km/s) = 3.75737 4.40302 4.09294
# Velocity P-wave (km/s) = 6.83251 7.83569 7.35123
#
# Compressibility (1/GPa) = 0.01790499
#
# Stress axis : x y z
#
# Youngs Moduli (GPa) = 90.17073 49.72070 77.12276
#
# Poissons Ratio (x) = 0.09962 0.37278
# Poissons Ratio (y) = 0.18066 0.48547
# Poissons Ratio (z) = 0.43584 0.31298
#
# Static dielectric constant tensor:
#      x y z
#    x 1.752490 0.018590 0.044560 
#    y 0.018590 1.658430 0.048330 
#    z 0.044560 0.048330 1.717110 
# 
# From -- ./inp_files/152983.got.cif
#   From: 2010.05.17/outbox.cif.g08.bks.cpg/sg2_77_cif.got.tgz:152983.got - 2010.06.03 11:33:40.
