data_PCOD9017312
_publ_section_title
;
Structure prediction by ZEFSAII (Michael W. Deem and Ramdas Pophale) SiO2 
 PCOD9017312
Probable space group: P -1
;
_chemical_formula_sum "Si O2"
_cell_formula_units_Z 14
_cell_length_a 8.086197
_cell_length_b 14.205942
_cell_length_c 9.440804
_cell_angle_alpha 82.651295
_cell_angle_beta 56.167089
_cell_angle_gamma 44.409142
_cell_volume 558.355921
_symmetry_space_group_name_H-M "P -1"
_symmetry_group_IT_number 2
_symmetry_cell_setting 'triclinic'
loop_
_space_group_symop_operation_xyz
x,y,z
-x,-y,-z
loop_
_atom_site_type_symbol
_atom_site_label
_atom_site_fract_x
_atom_site_fract_y
_atom_site_fract_z
Si Si1 0.501976 0.005153 0.167785
Si Si2 0.409360 0.395055 0.974574
Si Si3 0.058484 0.885565 0.083559
Si Si4 0.645921 0.084169 0.510285
Si Si5 0.962423 0.347080 0.704383
Si Si6 0.539601 0.638749 0.362632
Si Si7 0.958622 0.352232 0.398629
O O1 0.854626 0.884179 0.091865
O O2 0.299920 0.175429 0.260166
O O3 0.339638 0.977868 0.336003
O O4 0.500000 0.000000 0.000000
O O5 0.691570 0.368713 0.833878
O O6 0.385407 0.364161 0.835472
O O7 0.102978 0.562229 0.148081
O O8 0.568440 0.271963 0.043081
O O9 0.920196 0.954810 0.294366
O O10 0.000000 0.000000 0.000000
O O11 0.599039 0.214699 0.527306
O O12 0.315319 0.175152 0.577289
O O13 0.922053 0.410855 0.560101
O O14 0.845377 0.471537 0.316660
O O15 0.276531 0.652359 0.495993
#
# Coordination Sequence:
#
# PCOD9017312 Si02
#       7
#     2   2   2   2   2   2   2
#     4  12  28  46  74 104 143 187 238 297 356 423
#     4  10  23  43  68 100 141 182 236 283 351 417
#     4  12  28  46  72 106 143 187 237 293 359 426
#     4  12  25  47  74 104 145 190 239 289 359 420
#     4  10  21  42  73  94 135 193 231 285 348 424
#     4  10  25  41  72 103 141 186 233 297 345 418
#     4  10  23  46  67 101 144 185 235 288 360 412
#
# _framework density 25.073613000000002
#
# number of rings (size 3 to 8) (size 9 to 14) (size 15 to 20)
#    0.000    1.143    2.857    2.143    8.000    4.571 
#    0.000    0.000    0.000    0.000    0.000    0.000 
#    0.000    0.000    0.000    0.000    0.000    0.000 
#
# Total GULP energy -78352.814656 kJ/mol
# GULP energy per Si atom -5596.629618 kJ/mol
# Density = 2.501654 g / cm^3
# Si number density = 25.073613 Si / 1000 Ang^3
#
#
#
# Elastic Constant Matrix: (Units=GPa)
#
#
# Indices 1 2 3 4 5 6 
#
# 1 75.2956 19.2196 20.4365 -6.9095 13.5163 4.9034
# 2 19.2196 133.4555 29.4057 -16.6838 10.5647 -8.0442
# 3 20.4365 29.4057 79.5577 -6.5998 28.9118 3.3952
# 4 -6.9095 -16.6838 -6.5998 54.9582 -4.9629 -4.4278
# 5 13.5163 10.5647 28.9118 -4.9629 44.9517 -0.7343
# 6 4.9034 -8.0442 3.3952 -4.4278 -0.7343 49.1424
#
#
#
# Elastic Compliance Matrix: (Units=1/GPa)
#
#
# Indices 1 2 3 4 5 6 
#
# 1 0.014897 -0.001443 -0.002192 0.000807 -0.002667 -0.001538
# 2 -0.001443 0.008716 -0.002951 0.002322 0.000573 0.001993
# 3 -0.002192 -0.002951 0.018022 -0.000070 -0.010274 -0.001669
# 4 0.000807 0.002322 -0.000070 0.019288 0.001420 0.002064
# 5 -0.002667 0.000573 -0.010274 0.001420 0.029705 0.001641
# 6 -0.001538 0.001993 -0.001669 0.002064 0.001641 0.021154
#
#
# Mechanical properties :
#
#
# Convention : Reuss Voigt Hill
#
# Bulk Modulus (GPa) = 35.13298 47.38139 41.25719
# Shear Modulus (GPa) = 37.19021 44.42692 40.80857
#
# Velocity S-wave (km/s) = 3.85546 4.21391 4.03867
# Velocity P-wave (km/s) = 5.81909 6.52794 6.18368
#
# Compressibility (1/GPa) = 0.02846328
#
# Stress axis : x y z
#
# Youngs Moduli (GPa) = 67.12694 114.72598 55.48633
#
# Poissons Ratio (x) = 0.16558 0.12161
# Poissons Ratio (y) = 0.09688 0.16377
# Poissons Ratio (z) = 0.14712 0.33861
#
# Static dielectric constant tensor:
#      x y z
#    x 2.059220 -0.001660 -0.077480 
#    y -0.001660 1.963880 -0.042990 
#    z -0.077480 -0.042990 1.953010 
# 
# From -- ./inp_files/189830.got.cif
#   From: 2010.05.17/outbox.cif.g08.bks.cpg/sg2_95_cif.got.tgz:189830.got - 2010.06.03 11:33:40.
