data_PCOD9017689
_publ_section_title
;
Structure prediction by ZEFSAII (Michael W. Deem and Ramdas Pophale) SiO2 
 PCOD9017689
Probable space group: P -1
;
_chemical_formula_sum "Si O2"
_cell_formula_units_Z 15
_cell_length_a 5.104900
_cell_length_b 12.376954
_cell_length_c 9.194535
_cell_angle_alpha 101.323257
_cell_angle_beta 78.408618
_cell_angle_gamma 96.684708
_cell_volume 556.220327
_symmetry_space_group_name_H-M "P -1"
_symmetry_group_IT_number 2
_symmetry_cell_setting 'triclinic'
loop_
_space_group_symop_operation_xyz
x,y,z
-x,-y,-z
loop_
_atom_site_type_symbol
_atom_site_label
_atom_site_fract_x
_atom_site_fract_y
_atom_site_fract_z
Si Si1 0.239477 0.127123 0.822910
Si Si2 0.462089 0.317536 0.040075
Si Si3 0.355046 0.555864 0.192994
Si Si4 0.772764 0.689957 0.355893
Si Si5 0.606227 0.313224 0.352835
Si Si6 0.871605 0.150520 0.470247
Si Si7 0.000000 0.500000 0.500000
Si Si8 0.731734 0.001978 0.708387
O O1 0.333143 0.204988 0.694166
O O2 0.437534 0.030118 0.795600
O O3 0.943270 0.074797 0.806539
O O4 0.278029 0.213406 0.973646
O O5 0.328436 0.433669 0.097154
O O6 0.563496 0.298522 0.184369
O O7 0.689223 0.353645 0.902913
O O8 0.653662 0.592297 0.236615
O O9 0.164341 0.550252 0.350616
O O10 0.652172 0.649772 0.517616
O O11 0.044891 0.755438 0.396866
O O12 0.681108 0.200961 0.390034
O O13 0.837462 0.406049 0.389245
O O14 0.757674 0.047757 0.551520
O O15 0.136983 0.114287 0.348566
#
# Coordination Sequence:
#
# PCOD9017689 Si02
#       8
#     2   2   2   2   2   2   1   2
#     4  10  21  43  65  99 129 187 225 291 335 421
#     4  10  23  41  66  91 145 179 227 273 359 411
#     4   9  21  44  63  98 130 184 224 284 339 424
#     4   9  20  38  65  89 138 164 232 275 347 394
#     4  11  23  38  59 100 130 177 218 287 337 417
#     4  10  22  37  66  99 127 174 228 294 337 408
#     4  10  24  38  66  98 130 170 232 278 344 396
#     4  10  22  40  71  95 135 175 242 285 348 394
#
# _framework density 26.967732999999999
#
# number of rings (size 3 to 8) (size 9 to 14) (size 15 to 20)
#    0.000    2.133    1.333    0.000    5.600    4.267 
#    0.000    1.333    0.000    0.000    0.000    0.000 
#    0.000    0.000    0.000    0.000    0.000    0.000 
#
# Total GULP energy -83663.477216 kJ/mol
# GULP energy per Si atom -5577.565148 kJ/mol
# Density = 2.690635 g / cm^3
# Si number density = 26.967733 Si / 1000 Ang^3
#
#
#
# Elastic Constant Matrix: (Units=GPa)
#
#
# Indices 1 2 3 4 5 6 
#
# 1 54.2372 -0.8698 32.0568 7.5450 23.2927 19.6609
# 2 -0.8698 38.2219 49.3697 28.1352 3.7012 1.1144
# 3 32.0568 49.3697 217.8962 -0.7584 29.1172 3.1860
# 4 7.5450 28.1352 -0.7584 55.4800 1.2040 2.8721
# 5 23.2927 3.7012 29.1172 1.2040 36.9433 8.6024
# 6 19.6609 1.1144 3.1860 2.8721 8.6024 28.2889
#
#
#
# Elastic Compliance Matrix: (Units=1/GPa)
#
#
# Indices 1 2 3 4 5 6 
#
# 1 0.045436 0.036843 -0.012626 -0.023428 -0.015947 -0.024380
# 2 0.036843 0.111798 -0.030116 -0.061035 -0.004251 -0.019129
# 3 -0.012626 -0.030116 0.013475 0.016836 -0.001893 0.007311
# 4 -0.023428 -0.061035 0.016836 0.051775 0.003490 0.010473
# 5 -0.015947 -0.004251 -0.001893 0.003490 0.039110 -0.000784
# 6 -0.024380 -0.019129 0.007311 0.010473 -0.000784 0.051399
#
#
# Mechanical properties :
#
#
# Convention : Reuss Voigt Hill
#
# Bulk Modulus (GPa) = 6.29281 52.38540 29.33910
# Shear Modulus (GPa) = 13.23587 39.46236 26.34911
#
# Velocity S-wave (km/s) = 2.21781 3.82948 3.12919
# Velocity P-wave (km/s) = 2.98275 6.24665 4.89476
#
# Compressibility (1/GPa) = 0.15891158
#
# Stress axis : x y z
#
# Youngs Moduli (GPa) = 22.00876 8.94472 74.21116
#
# Poissons Ratio (x) = -0.32955 0.93702
# Poissons Ratio (y) = -0.81087 2.23491
# Poissons Ratio (z) = 0.27789 0.26938
#
# Static dielectric constant tensor:
#      x y z
#    x 2.679890 -0.366200 -0.078080 
#    y -0.366200 2.292020 -0.014710 
#    z -0.078080 -0.014710 2.083830 
# 
# From -- ./inp_files/48209.got.cif
#   From: 2010.05.17/outbox.cif.g08.bks.cpg/sg2_25_cif.got.tgz:48209.got - 2010.06.03 11:33:40.
