data_PCOD9017010
_publ_section_title
;
Structure prediction by ZEFSAII (Michael W. Deem and Ramdas Pophale) SiO2 
 PCOD9017010
Probable space group: P -1
;
_chemical_formula_sum "Si O2"
_cell_formula_units_Z 14
_cell_length_a 5.164835
_cell_length_b 7.000369
_cell_length_c 25.435613
_cell_angle_alpha 129.030271
_cell_angle_beta 62.788863
_cell_angle_gamma 108.684565
_cell_volume 634.628905
_symmetry_space_group_name_H-M "P -1"
_symmetry_group_IT_number 2
_symmetry_cell_setting 'triclinic'
loop_
_space_group_symop_operation_xyz
x,y,z
-x,-y,-z
loop_
_atom_site_type_symbol
_atom_site_label
_atom_site_fract_x
_atom_site_fract_y
_atom_site_fract_z
Si Si1 0.228147 0.624577 0.253011
Si Si2 0.833600 0.322494 0.526389
Si Si3 0.137755 0.226414 0.787912
Si Si4 0.649495 0.917953 0.825201
Si Si5 0.254727 0.294560 0.903054
Si Si6 0.167340 0.260683 0.592350
Si Si7 0.646934 0.200245 0.983268
O O1 0.522706 0.798930 0.261742
O O2 0.050291 0.653438 0.220154
O O3 0.001529 0.662723 0.327045
O O4 0.358460 0.357243 0.202199
O O5 0.495813 0.372199 0.576228
O O6 0.000000 0.500000 0.500000
O O7 0.997014 0.335638 0.569091
O O8 0.831291 0.037599 0.458561
O O9 0.146426 0.370651 0.868160
O O10 0.948890 0.979295 0.777372
O O11 0.399588 0.034472 0.833966
O O12 0.612778 0.091117 0.909468
O O13 0.998533 0.238554 0.959078
O O14 0.450103 0.527761 0.946151
O O15 0.500000 0.000000 0.000000
#
# Coordination Sequence:
#
# PCOD9017010 Si02
#       7
#     2   2   2   2   2   2   2
#     4  12  26  42  69  96 137 174 213 265 334 376
#     4  10  21  42  70  95 135 171 214 262 316 359
#     4  11  25  44  64  93 132 175 214 271 323 394
#     4  11  25  42  66  94 132 168 220 272 328 405
#     4  10  22  44  62  93 128 161 226 273 321 396
#     4  10  23  41  64 103 130 168 222 261 301 395
#     4  10  22  39  65  92 120 170 215 275 336 382
#
# _framework density 22.060136
#
# number of rings (size 3 to 8) (size 9 to 14) (size 15 to 20)
#    0.000    1.429    1.429    2.571    4.000    2.857 
#    0.000    0.000    0.000    0.000    0.000    0.000 
#    0.000    0.000    0.000    0.000    0.000    0.000 
#
# Total GULP energy -78126.806099 kJ/mol
# GULP energy per Si atom -5580.486150 kJ/mol
# Density = 2.200993 g / cm^3
# Si number density = 22.060136 Si / 1000 Ang^3
#
#
#
# Elastic Constant Matrix: (Units=GPa)
#
#
# Indices 1 2 3 4 5 6 
#
# 1 119.2809 66.7565 30.4935 -13.9458 -39.9216 -0.3070
# 2 66.7565 126.2332 41.4085 -48.1595 12.1564 7.1625
# 3 30.4935 41.4085 74.8596 -27.5440 -19.8032 -6.6086
# 4 -13.9458 -48.1595 -27.5440 24.3818 17.7250 -9.6154
# 5 -39.9216 12.1564 -19.8032 17.7250 -1.2631 -13.6848
# 6 -0.3070 7.1625 -6.6086 -9.6154 -13.6848 29.9089
#
#
#
# Elastic Compliance Matrix: (Units=1/GPa)
#
#
# Indices 1 2 3 4 5 6 
#
# 1 0.006579 0.001779 -0.002059 0.009976 -0.007466 -0.001023
# 2 0.001779 0.009086 0.007934 0.019507 0.019641 0.014853
# 3 -0.002059 0.007934 0.039143 0.060498 0.015624 0.033326
# 4 0.009976 0.019507 0.060498 0.143682 0.057817 0.081445
# 5 -0.007466 0.019641 0.015624 0.057817 0.002132 0.018235
# 6 -0.001023 0.014853 0.033326 0.081445 0.018235 0.071758
#
#
# Mechanical properties :
#
#
# Convention : Reuss Voigt Hill
#
# Bulk Modulus (GPa) = 14.26199 66.41006 40.33603
# Shear Modulus (GPa) = 17.82880 22.71987 20.27434
#
# Velocity S-wave (km/s) = 2.84595 3.21270 3.03487
# Velocity P-wave (km/s) = 4.15672 6.62807 5.53217
#
# Compressibility (1/GPa) = 0.07011644
#
# Stress axis : x y z
#
# Youngs Moduli (GPa) = 151.99783 110.05632 25.54704
#
# Poissons Ratio (x) = -0.19580 0.05260
# Poissons Ratio (y) = -0.27042 -0.20268
# Poissons Ratio (z) = 0.31295 -0.87315
#
# Static dielectric constant tensor:
#      x y z
#    x 1.989210 -0.049950 -0.020200 
#    y -0.049950 1.806110 0.012710 
#    z -0.020200 0.012710 1.806750 
# 
# From -- ./inp_files/11713.got.cif
#   From: 2010.05.17/outbox.cif.g08.bks.cpg/sg2_6_cif.got.tgz:11713.got - 2010.06.03 11:33:40.
