data_PCOD9017695
_publ_section_title
;
Structure prediction by ZEFSAII (Michael W. Deem and Ramdas Pophale) SiO2 
 PCOD9017695
Probable space group: P -1
;
_chemical_formula_sum "Si O2"
_cell_formula_units_Z 15
_cell_length_a 19.414941
_cell_length_b 15.722582
_cell_length_c 9.159386
_cell_angle_alpha 129.442672
_cell_angle_beta 127.656005
_cell_angle_gamma 17.463337
_cell_volume 647.817576
_symmetry_space_group_name_H-M "P -1"
_symmetry_group_IT_number 2
_symmetry_cell_setting 'triclinic'
loop_
_space_group_symop_operation_xyz
x,y,z
-x,-y,-z
loop_
_atom_site_type_symbol
_atom_site_label
_atom_site_fract_x
_atom_site_fract_y
_atom_site_fract_z
Si Si1 0.641703 0.241176 0.312962
Si Si2 0.771384 0.807655 0.716369
Si Si3 0.624660 0.740645 0.514772
Si Si4 0.618446 0.025463 0.084470
Si Si5 0.000000 0.000000 0.500000
Si Si6 0.737680 0.728089 0.159189
Si Si7 0.944072 0.169109 0.299445
Si Si8 0.637184 0.394779 0.932138
O O1 0.500000 0.500000 0.500000
O O2 0.624947 0.144870 0.268295
O O3 0.524990 0.364531 0.138873
O O4 0.888684 0.006064 0.358841
O O5 0.747296 0.703015 0.560797
O O6 0.031430 0.542542 0.742792
O O7 0.568280 0.086005 0.652064
O O8 0.714005 0.907862 0.916683
O O9 0.816242 0.429337 0.466276
O O10 0.472081 0.968977 0.696077
O O11 0.764810 0.774880 0.105450
O O12 0.362500 0.272919 0.017283
O O13 0.051659 0.921053 0.658635
O O14 0.796546 0.296513 0.111265
O O15 0.198027 0.881632 0.246584
O O16 0.500000 0.500000 0.000000
#
# Coordination Sequence:
#
# PCOD9017695 Si02
#       8
#     2   2   2   2   1   2   2   2
#     4  12  26  45  68 103 144 185 236 292 349 427
#     4  10  21  43  65  99 134 175 230 283 343 419
#     4  10  23  40  67 100 136 174 229 284 346 414
#     4  10  24  42  65 101 137 176 232 289 344 420
#     4  12  26  44  72 104 140 186 236 288 356 420
#     4  10  22  42  71  98 133 185 228 285 352 409
#     4  11  25  44  69 104 140 187 231 290 351 424
#     4  11  24  46  68  97 145 186 237 283 350 420
#
# _framework density 23.154665999999999
#
# number of rings (size 3 to 8) (size 9 to 14) (size 15 to 20)
#    0.000    1.333    2.667    1.600    3.733    2.133 
#    0.000    5.333    0.000    0.000    0.000    0.000 
#    0.000    0.000    0.000    0.000    0.000    0.000 
#
# Total GULP energy -83579.396564 kJ/mol
# GULP energy per Si atom -5571.959771 kJ/mol
# Density = 2.310196 g / cm^3
# Si number density = 23.154666 Si / 1000 Ang^3
#
#
#
# Elastic Constant Matrix: (Units=GPa)
#
#
# Indices 1 2 3 4 5 6 
#
# 1 108.0015 45.3865 30.8668 11.0425 12.4635 1.1751
# 2 45.3865 98.5190 28.7103 -8.2977 16.5481 -3.7284
# 3 30.8668 28.7103 85.3658 -12.6147 4.3612 2.9622
# 4 11.0425 -8.2977 -12.6147 48.9370 0.5670 -1.7068
# 5 12.4635 16.5481 4.3612 0.5670 45.3111 -8.4103
# 6 1.1751 -3.7284 2.9622 -1.7068 -8.4103 20.4647
#
#
#
# Elastic Compliance Matrix: (Units=1/GPa)
#
#
# Indices 1 2 3 4 5 6 
#
# 1 0.013203 -0.005250 -0.003555 -0.004847 -0.001742 -0.002320
# 2 -0.005250 0.014108 -0.002306 0.003095 -0.003120 0.002181
# 3 -0.003555 -0.002306 0.014443 0.004066 0.000015 -0.001961
# 4 -0.004847 0.003095 0.004066 0.023177 -0.000079 0.002154
# 5 -0.001742 -0.003120 0.000015 -0.000079 0.025548 0.010022
# 6 -0.002320 0.002181 -0.001961 0.002154 0.010022 0.053978
#
#
# Mechanical properties :
#
#
# Convention : Reuss Voigt Hill
#
# Bulk Modulus (GPa) = 51.19399 55.75704 53.47551
# Shear Modulus (GPa) = 28.87013 35.40409 32.13711
#
# Velocity S-wave (km/s) = 3.53489 3.91452 3.72954
# Velocity P-wave (km/s) = 6.23042 6.67561 6.45686
#
# Compressibility (1/GPa) = 0.01953354
#
# Stress axis : x y z
#
# Youngs Moduli (GPa) = 75.73911 70.88139 69.23652
#
# Poissons Ratio (x) = 0.37212 0.24614
# Poissons Ratio (y) = 0.39762 0.15963
# Poissons Ratio (z) = 0.26926 0.16342
#
# Static dielectric constant tensor:
#      x y z
#    x 1.875960 -0.014370 -0.017830 
#    y -0.014370 1.939840 -0.008310 
#    z -0.017830 -0.008310 1.907010 
# 
# From -- ./inp_files/335771.got.cif
#   From: 2010.05.17/outbox.cif.g08.bks.cpg/sg2_168_cif.got.tgz:335771.got - 2010.06.03 11:33:40.
