data_PCOD9017966
_publ_section_title
;
Structure prediction by ZEFSAII (Michael W. Deem and Ramdas Pophale) SiO2 
 PCOD9017966
Probable space group: P -1
;
_chemical_formula_sum "Si O2"
_cell_formula_units_Z 16
_cell_length_a 7.830982
_cell_length_b 5.118971
_cell_length_c 22.888488
_cell_angle_alpha 100.850307
_cell_angle_beta 127.703286
_cell_angle_gamma 61.967385
_cell_volume 634.271205
_symmetry_space_group_name_H-M "P -1"
_symmetry_group_IT_number 2
_symmetry_cell_setting 'triclinic'
loop_
_space_group_symop_operation_xyz
x,y,z
-x,-y,-z
loop_
_atom_site_type_symbol
_atom_site_label
_atom_site_fract_x
_atom_site_fract_y
_atom_site_fract_z
Si Si1 0.451435 0.725200 0.459858
Si Si2 0.358776 0.238247 0.931620
Si Si3 0.376629 0.294048 0.645706
Si Si4 0.281403 0.766542 0.567508
Si Si5 0.135669 0.823427 0.963130
Si Si6 0.282955 0.767789 0.176315
Si Si7 0.452782 0.906112 0.822521
Si Si8 0.902329 0.955574 0.348784
O O1 0.601664 0.618276 0.417680
O O2 0.613598 0.348058 0.483932
O O3 0.500000 0.000000 0.500000
O O4 0.179047 0.836325 0.386648
O O5 0.140346 0.523465 0.925857
O O6 0.327843 0.078283 0.861930
O O7 0.583206 0.306825 0.964182
O O8 0.500000 0.000000 0.000000
O O9 0.595094 0.270111 0.734608
O O10 0.440468 0.938481 0.625314
O O11 0.149981 0.294048 0.638599
O O12 0.205693 0.733096 0.622123
O O13 0.000000 0.000000 0.500000
O O14 0.004084 0.048046 0.890532
O O15 0.000000 0.000000 0.000000
O O16 0.380193 0.445072 0.153361
O O17 0.394713 0.949580 0.170966
O O18 0.244054 0.952587 0.736250
#
# Coordination Sequence:
#
# PCOD9017966 Si02
#       8
#     2   2   2   2   2   2   2   2
#     4  12  28  43  66 103 136 173 221 269 331 407
#     4  11  26  43  63 101 135 181 231 275 344 403
#     4   9  19  41  67  94 129 170 219 268 325 391
#     4  10  21  43  67  96 131 170 220 266 322 399
#     4  11  24  42  65  90 137 180 226 281 334 403
#     4  11  21  40  70  98 127 182 223 279 340 392
#     4  11  23  43  71  98 135 175 233 278 340 402
#     4   9  24  44  71  92 136 175 215 278 333 386
#
# _framework density 25.2258
#
# number of rings (size 3 to 8) (size 9 to 14) (size 15 to 20)
#    0.750    0.750    2.500    1.500    5.250    3.000 
#    2.250    0.000    0.000    0.000    0.000    0.000 
#    0.000    0.000    0.000    0.000    0.000    0.000 
#
# Total GULP energy -89176.849278 kJ/mol
# GULP energy per Si atom -5573.553080 kJ/mol
# Density = 2.516839 g / cm^3
# Si number density = 25.225800 Si / 1000 Ang^3
#
#
#
# Elastic Constant Matrix: (Units=GPa)
#
#
# Indices 1 2 3 4 5 6 
#
# 1 103.6368 84.9866 40.5740 -1.4923 -8.4352 -9.2242
# 2 84.9866 217.2673 74.4507 17.3446 -19.5807 -16.9363
# 3 40.5740 74.4507 162.4960 11.2722 -20.0989 -22.6607
# 4 -1.4923 17.3446 11.2722 49.7591 -8.2144 -25.4124
# 5 -8.4352 -19.5807 -20.0989 -8.2144 43.9669 -0.5150
# 6 -9.2242 -16.9363 -22.6607 -25.4124 -0.5150 56.2916
#
#
#
# Elastic Compliance Matrix: (Units=1/GPa)
#
#
# Indices 1 2 3 4 5 6 
#
# 1 0.014908 -0.005547 -0.001080 0.003775 0.000626 0.002049
# 2 -0.005547 0.007676 -0.001901 -0.002488 0.001015 -0.000479
# 3 -0.001080 -0.001901 0.007978 0.000714 0.002760 0.002810
# 4 0.003775 -0.002488 0.000714 0.028482 0.005417 0.013065
# 5 0.000626 0.001015 0.002760 0.005417 0.025639 0.004199
# 6 0.002049 -0.000479 0.002810 0.013065 0.004199 0.025024
#
#
# Mechanical properties :
#
#
# Convention : Reuss Voigt Hill
#
# Bulk Modulus (GPa) = 74.02849 98.15809 86.09329
# Shear Modulus (GPa) = 38.09076 48.89611 43.49344
#
# Velocity S-wave (km/s) = 3.89008 4.40743 4.15681
# Velocity P-wave (km/s) = 7.04180 8.05586 7.56584
#
# Compressibility (1/GPa) = 0.01350831
#
# Stress axis : x y z
#
# Youngs Moduli (GPa) = 67.07806 130.26930 125.34146
#
# Poissons Ratio (x) = 0.72256 0.13534
# Poissons Ratio (y) = 0.37206 0.23824
# Poissons Ratio (z) = 0.07243 0.24760
#
# Static dielectric constant tensor:
#      x y z
#    x -1.170110 -0.752070 -1.381720 
#    y -0.752070 2.041470 -0.355210 
#    z -1.381720 -0.355210 1.516340 
# 
# From -- ./inp_files/605891.got.cif
#   From: 2010.05.17/outbox.cif.g08.bks.cpg/sg2_303_cif.got.tgz:605891.got - 2010.06.03 11:33:40.
