data_PCOD9017813
_publ_section_title
;
Structure prediction by ZEFSAII (Michael W. Deem and Ramdas Pophale) SiO2 
 PCOD9017813
Probable space group: P -1
;
_chemical_formula_sum "Si O2"
_cell_formula_units_Z 16
_cell_length_a 8.778185
_cell_length_b 24.644462
_cell_length_c 15.402733
_cell_angle_alpha 161.030652
_cell_angle_beta 48.241909
_cell_angle_gamma 131.499436
_cell_volume 800.566724
_symmetry_space_group_name_H-M "P -1"
_symmetry_group_IT_number 2
_symmetry_cell_setting 'triclinic'
loop_
_space_group_symop_operation_xyz
x,y,z
-x,-y,-z
loop_
_atom_site_type_symbol
_atom_site_label
_atom_site_fract_x
_atom_site_fract_y
_atom_site_fract_z
Si Si1 0.089573 0.778241 0.192661
Si Si2 0.604064 0.520593 0.856987
Si Si3 0.314898 0.114655 0.579688
Si Si4 0.193430 0.643088 0.625705
Si Si5 0.823402 0.487354 0.911626
Si Si6 0.761905 0.121452 0.342928
Si Si7 0.720627 0.452312 0.368893
Si Si8 0.001488 0.181946 0.165957
O O1 0.879846 0.850782 0.352989
O O2 0.253001 0.942276 0.394478
O O3 0.183459 0.673531 0.922338
O O4 0.014902 0.632013 0.068330
O O5 0.676738 0.419861 0.597251
O O6 0.730796 0.494327 0.858015
O O7 0.645063 0.720443 0.126118
O O8 0.364967 0.476509 0.902774
O O9 0.518260 0.111273 0.438692
O O10 0.305649 0.646398 0.679202
O O11 0.000000 0.500000 0.500000
O O12 0.108374 0.806614 0.867857
O O13 0.863043 0.295124 0.613314
O O14 0.836001 0.138278 0.240090
O O15 0.846260 0.957301 0.099190
O O16 0.500000 0.500000 0.500000
O O17 0.873314 0.630427 0.583128
#
# Coordination Sequence:
#
# PCOD9017813 Si02
#       8
#     2   2   2   2   2   2   2   2
#     4  10  18  32  51  84 110 150 191 222 294 332
#     4   9  16  29  52  85 104 143 192 229 283 311
#     4   9  18  29  52  81 115 145 188 239 267 341
#     4  10  19  34  56  86 117 143 192 243 274 336
#     4   9  15  28  52  81 110 142 188 234 264 351
#     4  10  17  30  52  85 114 142 193 230 270 333
#     4  11  22  37  58  83 117 152 186 236 295 344
#     4  10  19  31  54  85 112 150 191 233 274 335
#
# _framework density 19.985842999999999
#
# number of rings (size 3 to 8) (size 9 to 14) (size 15 to 20)
#    0.000    2.250    2.500    3.750    0.000    0.000 
#    0.000    0.000    0.000   39.000   19.500    0.000 
#    0.000    0.000    0.000    0.000    0.000    0.250 
#
# Total GULP energy -89173.099404 kJ/mol
# GULP energy per Si atom -5573.318713 kJ/mol
# Density = 1.994035 g / cm^3
# Si number density = 19.985843 Si / 1000 Ang^3
#
#
#
# Elastic Constant Matrix: (Units=GPa)
#
#
# Indices 1 2 3 4 5 6 
#
# 1 58.5407 25.9461 19.1273 -0.8643 -25.4934 -3.8698
# 2 25.9461 86.0844 36.3034 6.7934 -9.4034 10.0856
# 3 19.1273 36.3034 98.2001 13.8521 -28.3114 3.6717
# 4 -0.8643 6.7934 13.8521 38.4233 6.9458 -4.1437
# 5 -25.4934 -9.4034 -28.3114 6.9458 25.0764 4.6068
# 6 -3.8698 10.0856 3.6717 -4.1437 4.6068 24.2367
#
#
#
# Elastic Compliance Matrix: (Units=1/GPa)
#
#
# Indices 1 2 3 4 5 6 
#
# 1 0.044407 -0.011453 0.016702 -0.015357 0.065000 -0.005654
# 2 -0.011453 0.017491 -0.008349 0.001679 -0.014080 -0.004879
# 3 0.016702 -0.008349 0.028743 -0.019520 0.053872 -0.011790
# 4 -0.015357 0.001679 -0.019520 0.043733 -0.052299 0.017224
# 5 0.065000 -0.014080 0.053872 -0.052299 0.182520 -0.035558
# 6 -0.005654 -0.004879 -0.011790 0.017224 -0.035558 0.053877
#
#
# Mechanical properties :
#
#
# Convention : Reuss Voigt Hill
#
# Bulk Modulus (GPa) = 11.84277 45.06433 28.45355
# Shear Modulus (GPa) = 12.34213 28.31051 20.32632
#
# Velocity S-wave (km/s) = 2.48774 3.76776 3.19256
# Velocity P-wave (km/s) = 3.76699 6.44400 5.27804
#
# Compressibility (1/GPa) = 0.08443971
#
# Stress axis : x y z
#
# Youngs Moduli (GPa) = 22.51900 57.17355 34.79162
#
# Poissons Ratio (x) = 0.65483 -0.58109
# Poissons Ratio (y) = 0.25792 0.29047
# Poissons Ratio (z) = -0.37611 0.47733
#
# Static dielectric constant tensor:
#      x y z
#    x 1.742630 0.003910 -0.001710 
#    y 0.003910 1.732390 0.040510 
#    z -0.001710 0.040510 1.722450 
# 
# From -- ./inp_files/508752.got.cif
#   From: 2010.05.17/outbox.cif.g08.bks.cpg/sg2_255_cif.got.tgz:508752.got - 2010.06.03 11:33:40.
