data_PCOD9017974
_publ_section_title
;
Structure prediction by ZEFSAII (Michael W. Deem and Ramdas Pophale) SiO2 
 PCOD9017974
Probable space group: P -1
;
_chemical_formula_sum "Si O2"
_cell_formula_units_Z 14
_cell_length_a 5.753269
_cell_length_b 12.575605
_cell_length_c 10.485691
_cell_angle_alpha 118.656066
_cell_angle_beta 55.851223
_cell_angle_gamma 116.007231
_cell_volume 535.763454
_symmetry_space_group_name_H-M "P -1"
_symmetry_group_IT_number 2
_symmetry_cell_setting 'triclinic'
loop_
_space_group_symop_operation_xyz
x,y,z
-x,-y,-z
loop_
_atom_site_type_symbol
_atom_site_label
_atom_site_fract_x
_atom_site_fract_y
_atom_site_fract_z
Si Si1 0.004421 0.588863 0.670908
Si Si2 0.336383 0.049866 0.960362
Si Si3 0.867970 0.206331 0.444537
Si Si4 0.306339 0.233823 0.729813
Si Si5 0.848275 0.002185 0.681588
Si Si6 0.497796 0.331869 0.002334
Si Si7 0.909718 0.596913 0.279971
O O1 0.125649 0.725145 0.653557
O O2 0.000000 0.500000 0.500000
O O3 0.685174 0.584632 0.821419
O O4 0.169190 0.538143 0.707152
O O5 0.515697 0.000651 0.764746
O O6 0.433114 0.199443 0.017534
O O7 0.500000 0.000000 0.000000
O O8 0.000000 0.000000 0.000000
O O9 0.543976 0.160770 0.569982
O O10 0.989395 0.308776 0.577744
O O11 0.064565 0.107112 0.327863
O O12 0.319042 0.343193 0.686652
O O13 0.359769 0.294677 0.885155
O O14 0.002485 0.136108 0.767833
O O15 0.000000 0.000000 0.500000
O O16 0.828806 0.391660 0.896479
#
# Coordination Sequence:
#
# PCOD9017974 Si02
#       7
#     2   2   2   2   2   2   2
#     4  10  23  43  68  96 135 183 238 308 360 429
#     4  12  27  46  72 111 155 197 241 301 376 446
#     4  10  22  41  67 103 141 180 233 300 361 421
#     4  11  22  41  70 101 141 183 242 290 363 443
#     4  12  22  43  72 106 138 193 237 294 362 441
#     4  11  23  44  67  98 135 189 238 293 363 437
#     4  10  21  43  67  96 134 186 239 289 355 435
#
# _framework density 26.130935000000001
#
# number of rings (size 3 to 8) (size 9 to 14) (size 15 to 20)
#    0.000    1.143    2.857    3.429    0.000    3.429 
#    0.000    1.429    0.000    0.000    0.000    0.000 
#    0.000    0.000    0.000    0.000    0.000    0.000 
#
# Total GULP energy -78390.689479 kJ/mol
# GULP energy per Si atom -5599.334963 kJ/mol
# Density = 2.607146 g / cm^3
# Si number density = 26.130935 Si / 1000 Ang^3
#
#
#
# Elastic Constant Matrix: (Units=GPa)
#
#
# Indices 1 2 3 4 5 6 
#
# 1 97.3586 49.3881 42.8072 -3.1554 -15.1283 -8.7852
# 2 49.3881 162.9750 21.7194 -3.6000 -2.8280 -39.3247
# 3 42.8072 21.7194 153.7858 7.5248 -30.7671 -0.8890
# 4 -3.1554 -3.6000 7.5248 37.9380 -7.9257 3.2920
# 5 -15.1283 -2.8280 -30.7671 -7.9257 46.9922 -1.8522
# 6 -8.7852 -39.3247 -0.8890 3.2920 -1.8522 53.6403
#
#
#
# Elastic Compliance Matrix: (Units=1/GPa)
#
#
# Indices 1 2 3 4 5 6 
#
# 1 0.013947 -0.003910 -0.002898 0.001978 0.002665 -0.000659
# 2 -0.003910 0.008722 -0.000242 -0.000089 -0.000682 0.005732
# 3 -0.002898 -0.000242 0.008244 -0.000980 0.004273 -0.000308
# 4 0.001978 -0.000089 -0.000980 0.027789 0.004625 -0.001303
# 5 0.002665 -0.000682 0.004273 0.004625 0.025699 0.000611
# 6 -0.000659 0.005732 -0.000308 -0.001303 0.000611 0.022833
#
#
# Mechanical properties :
#
#
# Convention : Reuss Voigt Hill
#
# Bulk Modulus (GPa) = 59.47121 71.32764 65.39943
# Shear Modulus (GPa) = 39.38908 47.72774 43.55841
#
# Velocity S-wave (km/s) = 3.88670 4.27838 4.08723
# Velocity P-wave (km/s) = 6.55365 7.19455 6.88156
#
# Compressibility (1/GPa) = 0.01681486
#
# Stress axis : x y z
#
# Youngs Moduli (GPa) = 71.69831 114.64856 121.29466
#
# Poissons Ratio (x) = 0.44823 0.35145
# Poissons Ratio (y) = 0.28031 0.02941
# Poissons Ratio (z) = 0.20775 0.02780
#
# Static dielectric constant tensor:
#      x y z
#    x 2.042560 -0.029100 -0.003130 
#    y -0.029100 2.093760 -0.056360 
#    z -0.003130 -0.056360 2.159710 
# 
# From -- ./inp_files/364917.got.cif
#   From: 2010.05.17/outbox.cif.g08.bks.cpg/sg2_183_cif.got.tgz:364917.got - 2010.06.03 11:33:40.
