data_PCOD9017760
_publ_section_title
;
Structure prediction by ZEFSAII (Michael W. Deem and Ramdas Pophale) SiO2 
 PCOD9017760
Probable space group: P -1
;
_chemical_formula_sum "Si O2"
_cell_formula_units_Z 16
_cell_length_a 16.640516
_cell_length_b 17.978654
_cell_length_c 7.046193
_cell_angle_alpha 41.343062
_cell_angle_beta 124.182036
_cell_angle_gamma 148.781918
_cell_volume 701.629854
_symmetry_space_group_name_H-M "P -1"
_symmetry_group_IT_number 2
_symmetry_cell_setting 'triclinic'
loop_
_space_group_symop_operation_xyz
x,y,z
-x,-y,-z
loop_
_atom_site_type_symbol
_atom_site_label
_atom_site_fract_x
_atom_site_fract_y
_atom_site_fract_z
Si Si1 0.421270 0.023626 0.716939
Si Si2 0.870752 0.737281 0.527326
Si Si3 0.772731 0.951403 0.518234
Si Si4 0.261827 0.578086 0.798879
Si Si5 0.530146 0.623888 0.580168
Si Si6 0.659324 0.751867 0.126407
Si Si7 0.781649 0.531996 0.447787
Si Si8 0.815262 0.348446 0.098076
O O1 0.301741 0.859722 0.717194
O O2 0.312476 0.009836 0.721444
O O3 0.564298 0.223964 0.422384
O O4 0.500000 0.000000 0.000000
O O5 0.793721 0.788652 0.310467
O O6 0.888493 0.707069 0.392720
O O7 0.752627 0.544414 0.851036
O O8 0.039808 0.884499 0.571004
O O9 0.682383 0.768887 0.638007
O O10 0.734253 0.900898 0.785978
O O11 0.166495 0.457230 0.712767
O O12 0.196841 0.619944 0.762475
O O13 0.579508 0.731008 0.245261
O O14 0.468288 0.445804 0.771905
O O15 0.383674 0.551622 0.623705
O O16 0.756676 0.396317 0.794544
O O17 0.000000 0.500000 0.000000
#
# Coordination Sequence:
#
# PCOD9017760 Si02
#       8
#     2   2   2   2   2   2   2   2
#     4  12  24  44  68 100 129 174 228 269 320 391
#     4  10  25  43  66 101 138 167 220 270 330 396
#     4  12  24  43  67  99 133 172 218 279 324 384
#     4  11  23  43  72  89 132 178 214 268 330 380
#     4  10  22  40  68 100 129 167 229 260 324 401
#     4  10  24  41  69  96 135 176 212 269 335 388
#     4  10  21  43  66  92 134 173 217 267 325 388
#     4  11  24  44  65  99 132 169 221 274 325 390
#
# _framework density 22.804048000000002
#
# number of rings (size 3 to 8) (size 9 to 14) (size 15 to 20)
#    0.000    1.250    2.500    2.625    7.000    4.000 
#    4.500    0.000    0.000    0.000    0.000    0.000 
#    0.000    0.000    0.000    0.000    0.000    0.000 
#
# Total GULP energy -89429.333559 kJ/mol
# GULP energy per Si atom -5589.333347 kJ/mol
# Density = 2.275214 g / cm^3
# Si number density = 22.804048 Si / 1000 Ang^3
#
#
#
# Elastic Constant Matrix: (Units=GPa)
#
#
# Indices 1 2 3 4 5 6 
#
# 1 90.9370 50.9689 18.0972 4.9775 -5.6560 -0.8197
# 2 50.9689 123.7127 22.0839 9.3834 -5.5577 24.9758
# 3 18.0972 22.0839 82.9991 5.7126 -5.8463 6.0023
# 4 4.9775 9.3834 5.7126 18.2324 -7.1077 -14.8171
# 5 -5.6560 -5.5577 -5.8463 -7.1077 35.0742 12.2010
# 6 -0.8197 24.9758 6.0023 -14.8171 12.2010 33.4648
#
#
#
# Elastic Compliance Matrix: (Units=1/GPa)
#
#
# Indices 1 2 3 4 5 6 
#
# 1 0.016944 -0.010891 -0.003115 0.014277 -0.002273 0.016252
# 2 -0.010891 0.022437 0.001934 -0.035298 0.007379 -0.035678
# 3 -0.003115 0.001934 0.014015 -0.011709 0.003406 -0.010460
# 4 0.014277 -0.035298 -0.011709 0.148907 -0.009183 0.098073
# 5 -0.002273 0.007379 0.003406 -0.009183 0.036170 -0.023427
# 6 0.016252 -0.035678 -0.010460 0.098073 -0.023427 0.110749
#
#
# Mechanical properties :
#
#
# Convention : Reuss Voigt Hill
#
# Bulk Modulus (GPa) = 34.18421 53.32766 43.75593
# Shear Modulus (GPa) = 13.05084 31.12085 22.08584
#
# Velocity S-wave (km/s) = 2.39488 3.69820 3.11546
# Velocity P-wave (km/s) = 4.76133 6.45535 5.67194
#
# Compressibility (1/GPa) = 0.02925328
#
# Stress axis : x y z
#
# Youngs Moduli (GPa) = 59.01637 44.56977 71.35173
#
# Poissons Ratio (x) = 0.48541 0.22225
# Poissons Ratio (y) = 0.64275 -0.13802
# Poissons Ratio (z) = 0.18382 -0.08621
#
# Static dielectric constant tensor:
#      x y z
#    x 1.854110 -0.011610 0.001670 
#    y -0.011610 1.879650 0.017260 
#    z 0.001670 0.017260 1.861250 
# 
# From -- ./inp_files/111590.got.cif
#   From: 2010.05.17/outbox.cif.g08.bks.cpg/sg2_56_cif.got.tgz:111590.got - 2010.06.03 11:33:40.
