data_PCOD9017208
_publ_section_title
;
Structure prediction by ZEFSAII (Michael W. Deem and Ramdas Pophale) SiO2 
 PCOD9017208
Probable space group: P -1
;
_chemical_formula_sum "Si O2"
_cell_formula_units_Z 16
_cell_length_a 5.469517
_cell_length_b 26.271820
_cell_length_c 5.484352
_cell_angle_alpha 49.416179
_cell_angle_beta 78.411621
_cell_angle_gamma 87.075825
_cell_volume 582.931968
_symmetry_space_group_name_H-M "P -1"
_symmetry_group_IT_number 2
_symmetry_cell_setting 'triclinic'
loop_
_space_group_symop_operation_xyz
x,y,z
-x,-y,-z
loop_
_atom_site_type_symbol
_atom_site_label
_atom_site_fract_x
_atom_site_fract_y
_atom_site_fract_z
Si Si1 0.041561 0.542861 0.605160
Si Si2 0.683252 0.042157 0.021715
Si Si3 0.458173 0.677627 0.759404
Si Si4 0.857525 0.162359 0.878067
Si Si5 0.457228 0.218205 0.977177
Si Si6 0.863023 0.917378 0.564115
Si Si7 0.916135 0.709279 0.860866
Si Si8 0.520400 0.575466 0.654835
O O1 0.334545 0.571493 0.473689
O O2 0.000000 0.500000 0.500000
O O3 0.818465 0.591499 0.502010
O O4 0.000000 0.500000 0.000000
O O5 0.921197 0.066957 0.727920
O O6 0.640216 0.112243 0.943883
O O7 0.500000 0.000000 0.000000
O O8 0.741322 0.986767 0.383424
O O9 0.189583 0.683246 0.927204
O O10 0.408403 0.624181 0.718148
O O11 0.728881 0.664270 0.855357
O O12 0.522596 0.752055 0.393645
O O13 0.748051 0.204905 0.991132
O O14 0.029988 0.110500 0.122899
O O15 0.997938 0.217975 0.506447
O O16 0.320515 0.145761 0.292897
O O17 0.299633 0.271699 0.969232
O O18 0.500000 0.500000 0.000000
#
# Coordination Sequence:
#
# PCOD9017208 Si02
#       8
#     2   2   2   2   2   2   2   2
#     4  10  21  42  72 105 153 199 245 298 373 450
#     4  11  25  42  67 102 136 181 235 293 367 444
#     4  11  25  47  73 106 145 191 245 304 365 441
#     4  11  24  44  72  95 141 183 234 302 366 433
#     4  11  25  43  71 100 133 188 242 295 365 436
#     4  11  23  42  67  97 136 175 236 288 363 425
#     4  11  25  45  74 102 143 189 245 301 365 435
#     4  10  22  45  72 108 152 191 248 304 378 446
#
# _framework density 27.447457
#
# number of rings (size 3 to 8) (size 9 to 14) (size 15 to 20)
#    0.000    1.250    2.500    2.250    1.750    6.000 
#   13.500    0.000    0.000    0.000    0.000    0.000 
#    0.000    0.000    0.000    0.000    0.000    0.000 
#
# Total GULP energy -89422.512343 kJ/mol
# GULP energy per Si atom -5588.907021 kJ/mol
# Density = 2.738498 g / cm^3
# Si number density = 27.447457 Si / 1000 Ang^3
#
#
#
# Elastic Constant Matrix: (Units=GPa)
#
#
# Indices 1 2 3 4 5 6 
#
# 1 132.7487 37.6893 27.8270 6.0413 12.7044 -21.0854
# 2 37.6893 147.9694 3.0574 -0.4679 5.4537 -24.7806
# 3 27.8270 3.0574 108.1744 -14.1041 11.2711 -6.7452
# 4 6.0413 -0.4679 -14.1041 38.8315 -10.1835 -1.0371
# 5 12.7044 5.4537 11.2711 -10.1835 56.2744 4.6106
# 6 -21.0854 -24.7806 -6.7452 -1.0371 4.6106 41.4158
#
#
#
# Elastic Compliance Matrix: (Units=1/GPa)
#
#
# Indices 1 2 3 4 5 6 
#
# 1 0.009406 -0.001668 -0.002274 -0.002819 -0.002312 0.003607
# 2 -0.001668 0.007880 0.000601 0.000484 -0.000752 0.004059
# 3 -0.002274 0.000601 0.010503 0.003936 -0.001028 0.001125
# 4 -0.002819 0.000484 0.003936 0.028946 0.005068 -0.000344
# 5 -0.002312 -0.000752 -0.001028 0.005068 0.019805 -0.003873
# 6 0.003607 0.004059 0.001125 -0.000344 -0.003873 0.029016
#
#
# Mechanical properties :
#
#
# Convention : Reuss Voigt Hill
#
# Bulk Modulus (GPa) = 47.38142 58.44886 52.91514
# Shear Modulus (GPa) = 41.92007 48.65892 45.28950
#
# Velocity S-wave (km/s) = 3.91229 4.21503 4.06648
# Velocity P-wave (km/s) = 6.14069 6.71042 6.43187
#
# Compressibility (1/GPa) = 0.02110532
#
# Stress axis : x y z
#
# Youngs Moduli (GPa) = 106.31589 126.90760 95.21159
#
# Poissons Ratio (x) = 0.21174 0.21654
# Poissons Ratio (y) = 0.17738 -0.05723
# Poissons Ratio (z) = 0.24179 -0.07628
#
# Static dielectric constant tensor:
#      x y z
#    x 2.230290 0.006650 -0.034520 
#    y 0.006650 2.387500 0.256020 
#    z -0.034520 0.256020 2.554230 
# 
# From -- ./inp_files/14279.got.cif
#   From: 2010.05.17/outbox.cif.g08.bks.cpg/sg2_8_cif.got.tgz:14279.got - 2010.06.03 11:33:40.
