data_PCOD9017746
_publ_section_title
;
Structure prediction by ZEFSAII (Michael W. Deem and Ramdas Pophale) SiO2 
 PCOD9017746
Probable space group: P -1
;
_chemical_formula_sum "Si O2"
_cell_formula_units_Z 16
_cell_length_a 8.408024
_cell_length_b 13.097736
_cell_length_c 8.882969
_cell_angle_alpha 69.283163
_cell_angle_beta 129.396962
_cell_angle_gamma 95.234625
_cell_volume 694.950868
_symmetry_space_group_name_H-M "P -1"
_symmetry_group_IT_number 2
_symmetry_cell_setting 'triclinic'
loop_
_space_group_symop_operation_xyz
x,y,z
-x,-y,-z
loop_
_atom_site_type_symbol
_atom_site_label
_atom_site_fract_x
_atom_site_fract_y
_atom_site_fract_z
Si Si1 0.785295 0.275369 0.601370
Si Si2 0.901382 0.610931 0.694466
Si Si3 0.690911 0.410768 0.217420
Si Si4 0.789774 0.395831 0.838722
Si Si5 0.388377 0.748721 0.991211
Si Si6 0.845691 0.030354 0.119831
Si Si7 0.194677 0.195382 0.688052
Si Si8 0.684193 0.041570 0.681151
O O1 0.668803 0.385024 0.391044
O O2 0.845882 0.309403 0.783432
O O3 0.660561 0.174917 0.583962
O O4 0.990203 0.237938 0.642675
O O5 0.088817 0.558635 0.717788
O O6 0.807407 0.728978 0.501535
O O7 0.760187 0.520222 0.692721
O O8 0.022736 0.621890 0.917288
O O9 0.500000 0.500000 0.000000
O O10 0.679050 0.295147 0.184417
O O11 0.603535 0.356608 0.838176
O O12 0.773350 0.148985 0.091058
O O13 0.609060 0.785404 0.106292
O O14 0.802136 0.935054 0.258301
O O15 0.715553 0.019698 0.891802
O O16 0.089220 0.009353 0.229273
O O17 0.500000 0.000000 0.500000
#
# Coordination Sequence:
#
# PCOD9017746 Si02
#       8
#     2   2   2   2   2   2   2   2
#     4  10  22  44  66  97 130 178 231 281 341 413
#     4   9  22  44  64  96 129 180 228 282 348 400
#     4  10  24  42  62  98 135 177 228 278 341 410
#     4  10  21  43  66  90 139 166 229 288 335 404
#     4  11  23  43  65 101 138 177 224 284 342 403
#     4  10  22  46  69 101 143 176 231 291 335 414
#     4  10  23  41  70  94 135 178 222 276 348 404
#     4  10  22  44  71 105 136 182 228 284 353 405
#
# _framework density 23.023211
#
# number of rings (size 3 to 8) (size 9 to 14) (size 15 to 20)
#    0.000    2.000    1.250    0.375    5.250    1.500 
#   13.500    6.250    0.000    0.000    0.000    0.000 
#    0.000    0.000    0.000    0.000    0.000    0.000 
#
# Total GULP energy -89427.560668 kJ/mol
# GULP energy per Si atom -5589.222542 kJ/mol
# Density = 2.297081 g / cm^3
# Si number density = 23.023211 Si / 1000 Ang^3
#
#
#
# Elastic Constant Matrix: (Units=GPa)
#
#
# Indices 1 2 3 4 5 6 
#
# 1 49.4876 47.7501 34.3642 -4.9436 -5.7627 16.4600
# 2 47.7501 110.1571 21.4770 2.9576 -11.8715 14.5393
# 3 34.3642 21.4770 65.1365 3.6414 -10.9076 1.7668
# 4 -4.9436 2.9576 3.6414 39.5634 4.4569 -6.4286
# 5 -5.7627 -11.8715 -10.9076 4.4569 31.9171 -0.2213
# 6 16.4600 14.5393 1.7668 -6.4286 -0.2213 33.6360
#
#
#
# Elastic Compliance Matrix: (Units=1/GPa)
#
#
# Indices 1 2 3 4 5 6 
#
# 1 0.072184 -0.023454 -0.031772 0.011143 -0.008254 -0.021441
# 2 -0.023454 0.018252 0.007579 -0.005297 0.005900 0.002216
# 3 -0.031772 0.007579 0.031215 -0.006875 0.008775 0.009376
# 4 0.011143 -0.005297 -0.006875 0.028842 -0.006317 0.002669
# 5 -0.008254 0.005900 0.008775 -0.006317 0.035917 0.000057
# 6 -0.021441 0.002216 0.009376 0.002669 0.000057 0.039283
#
#
# Mechanical properties :
#
#
# Convention : Reuss Voigt Hill
#
# Bulk Modulus (GPa) = 37.93996 47.99597 42.96797
# Shear Modulus (GPa) = 15.16198 29.10262 22.13230
#
# Velocity S-wave (km/s) = 2.56901 3.55921 3.10385
# Velocity P-wave (km/s) = 5.03136 6.14676 5.61682
#
# Compressibility (1/GPa) = 0.02635743
#
# Stress axis : x y z
#
# Youngs Moduli (GPa) = 13.85354 54.78731 32.03593
#
# Poissons Ratio (x) = 1.28497 1.01786
# Poissons Ratio (y) = 0.32492 -0.24281
# Poissons Ratio (z) = 0.44016 -0.41525
#
# Static dielectric constant tensor:
#      x y z
#    x 1.848260 0.014940 -0.012530 
#    y 0.014940 1.856650 -0.037590 
#    z -0.012530 -0.037590 1.918650 
# 
# From -- ./inp_files/206569.got.cif
#   From: 2010.05.17/outbox.cif.g08.bks.cpg/sg2_104_cif.got.tgz:206569.got - 2010.06.03 11:33:40.
