data_PCOD9017798
_publ_section_title
;
Structure prediction by ZEFSAII (Michael W. Deem and Ramdas Pophale) SiO2 
 PCOD9017798
Probable space group: P -1
;
_chemical_formula_sum "Si O2"
_cell_formula_units_Z 16
_cell_length_a 17.639450
_cell_length_b 7.470482
_cell_length_c 7.703321
_cell_angle_alpha 56.966231
_cell_angle_beta 49.805663
_cell_angle_gamma 69.217789
_cell_volume 650.048316
_symmetry_space_group_name_H-M "P -1"
_symmetry_group_IT_number 2
_symmetry_cell_setting 'triclinic'
loop_
_space_group_symop_operation_xyz
x,y,z
-x,-y,-z
loop_
_atom_site_type_symbol
_atom_site_label
_atom_site_fract_x
_atom_site_fract_y
_atom_site_fract_z
Si Si1 0.927598 0.228016 0.367568
Si Si2 0.070442 0.952093 0.084302
Si Si3 0.224188 0.115399 0.205076
Si Si4 0.750088 0.827036 0.452921
Si Si5 0.443684 0.175913 0.873454
Si Si6 0.390772 0.504488 0.073616
Si Si7 0.415923 0.863060 0.604439
Si Si8 0.094008 0.522687 0.092279
O O1 0.987798 0.400965 0.300376
O O2 0.835273 0.097083 0.648034
O O3 0.895118 0.354075 0.172858
O O4 0.004677 0.041518 0.290756
O O5 0.098193 0.703623 0.141237
O O6 0.162925 0.109469 0.838414
O O7 0.000000 0.000000 0.000000
O O8 0.216186 0.133750 0.418842
O O9 0.174929 0.335625 0.095080
O O10 0.339309 0.095460 0.993518
O O11 0.662345 0.991770 0.454382
O O12 0.698713 0.596188 0.631701
O O13 0.405958 0.349759 0.970538
O O14 0.520826 0.256380 0.574413
O O15 0.500000 0.000000 0.000000
O O16 0.367448 0.723573 0.898529
O O17 0.500000 0.500000 0.000000
O O18 0.500000 0.000000 0.500000
#
# Coordination Sequence:
#
# PCOD9017798 Si02
#       8
#     2   2   2   2   2   2   2   2
#     4  10  22  45  65  96 142 172 224 285 339 410
#     4  10  21  43  66  94 138 175 218 280 338 405
#     4  11  22  40  68  96 134 174 233 277 334 420
#     4  11  23  41  67  96 136 174 225 283 339 408
#     4  11  23  43  68  99 135 184 226 283 348 403
#     4  11  23  44  66  97 135 175 225 279 339 412
#     4  12  24  46  69  95 138 178 224 295 347 404
#     4  10  22  40  67  95 129 180 219 277 342 397
#
# _framework density 24.613555000000002
#
# number of rings (size 3 to 8) (size 9 to 14) (size 15 to 20)
#    0.000    1.250    6.250    0.750    3.500    1.500 
#    2.250    6.250    0.000    0.000    0.000    0.000 
#    0.000    0.000    0.000    0.000    0.000    0.000 
#
# Total GULP energy -89530.088668 kJ/mol
# GULP energy per Si atom -5595.630542 kJ/mol
# Density = 2.455753 g / cm^3
# Si number density = 24.613555 Si / 1000 Ang^3
#
#
#
# Elastic Constant Matrix: (Units=GPa)
#
#
# Indices 1 2 3 4 5 6 
#
# 1 109.2174 29.8769 50.5780 -14.4792 -6.3632 -20.3480
# 2 29.8769 100.6755 52.2111 -20.6215 1.9709 -6.2080
# 3 50.5780 52.2111 156.6852 -18.1133 -21.6609 -12.7711
# 4 -14.4792 -20.6215 -18.1133 44.8427 0.3549 3.2649
# 5 -6.3632 1.9709 -21.6609 0.3549 46.5701 -5.5850
# 6 -20.3480 -6.2080 -12.7711 3.2649 -5.5850 40.8408
#
#
#
# Elastic Compliance Matrix: (Units=1/GPa)
#
#
# Indices 1 2 3 4 5 6 
#
# 1 0.012002 -0.001577 -0.002597 0.001733 0.001077 0.004937
# 2 -0.001577 0.013252 -0.003859 0.004097 -0.002683 -0.000672
# 3 -0.002597 -0.003859 0.009350 0.001016 0.004336 0.001555
# 4 0.001733 0.004097 0.001016 0.025163 0.000325 -0.000163
# 5 0.001077 -0.002683 0.004336 0.000325 0.024322 0.004785
# 6 0.004937 -0.000672 0.001555 -0.000163 0.004785 0.027996
#
#
# Mechanical properties :
#
#
# Convention : Reuss Voigt Hill
#
# Bulk Modulus (GPa) = 53.94054 70.21222 62.07638
# Shear Modulus (GPa) = 37.22100 42.04487 39.63293
#
# Velocity S-wave (km/s) = 3.89294 4.13752 4.01709
# Velocity P-wave (km/s) = 6.49378 7.17030 6.84041
#
# Compressibility (1/GPa) = 0.01853893
#
# Stress axis : x y z
#
# Youngs Moduli (GPa) = 83.31609 75.45832 106.94882
#
# Poissons Ratio (x) = 0.11896 0.27778
# Poissons Ratio (y) = 0.13135 0.41274
# Poissons Ratio (z) = 0.21640 0.29121
#
# Static dielectric constant tensor:
#      x y z
#    x -3.566730 -3.625690 6.456290 
#    y -3.625690 -0.506040 4.312490 
#    z 6.456290 4.312490 -5.566800 
# 
# From -- ./inp_files/328360.got.cif
#   From: 2010.05.17/outbox.cif.g08.bks.cpg/sg2_165_cif.got.tgz:328360.got - 2010.06.03 11:33:40.
