data_PCOD9017122
_publ_section_title
;
Structure prediction by ZEFSAII (Michael W. Deem and Ramdas Pophale) SiO2 
 PCOD9017122
Probable space group: P -1
;
_chemical_formula_sum "Si O2"
_cell_formula_units_Z 14
_cell_length_a 11.505664
_cell_length_b 12.968381
_cell_length_c 11.542627
_cell_angle_alpha 133.376666
_cell_angle_beta 41.716777
_cell_angle_gamma 144.114747
_cell_volume 656.770746
_symmetry_space_group_name_H-M "P -1"
_symmetry_group_IT_number 2
_symmetry_cell_setting 'triclinic'
loop_
_space_group_symop_operation_xyz
x,y,z
-x,-y,-z
loop_
_atom_site_type_symbol
_atom_site_label
_atom_site_fract_x
_atom_site_fract_y
_atom_site_fract_z
Si Si1 0.930616 0.093115 0.539542
Si Si2 0.038114 0.468115 0.816493
Si Si3 0.667836 0.468178 0.968043
Si Si4 0.553943 0.715557 0.245985
Si Si5 0.830362 0.082651 0.192222
Si Si6 0.829607 0.821404 0.819085
Si Si7 0.420132 0.777430 0.623025
O O1 0.998356 0.280672 0.683958
O O2 0.055312 0.132156 0.354377
O O3 0.665285 0.950793 0.609684
O O4 0.000000 0.000000 0.500000
O O5 0.279075 0.636176 0.721141
O O6 0.000000 0.500000 0.000000
O O7 0.857951 0.463739 0.871127
O O8 0.712927 0.658065 0.090678
O O9 0.433830 0.331815 0.104603
O O10 0.609803 0.398921 0.826173
O O11 0.445826 0.681038 0.423763
O O12 0.674858 0.919808 0.273829
O O13 0.715125 0.159726 0.282427
O O14 0.044774 0.221278 0.218107
O O15 0.863032 0.986732 0.989715
#
# Coordination Sequence:
#
# PCOD9017122 Si02
#       7
#     2   2   2   2   2   2   2
#     4  12  29  49  76 103 141 195 249 296 350 428
#     4  12  32  50  71 103 146 195 248 298 349 425
#     4  10  24  43  70 104 148 184 233 290 362 429
#     4  10  21  42  71 108 142 183 230 293 365 433
#     4  10  22  39  72 110 143 181 222 292 364 432
#     4  10  22  42  71 104 142 182 234 284 364 420
#     4  12  27  45  77 104 148 184 240 303 361 423
#
# _framework density 21.316417000000001
#
# number of rings (size 3 to 8) (size 9 to 14) (size 15 to 20)
#    0.000    1.143    1.429    3.000   16.000    1.714 
#    0.000    0.000    0.000    0.000    0.000    0.000 
#    0.000    0.000    0.000    0.000    0.000    0.000 
#
# Total GULP energy -78298.050505 kJ/mol
# GULP energy per Si atom -5592.717893 kJ/mol
# Density = 2.126790 g / cm^3
# Si number density = 21.316417 Si / 1000 Ang^3
#
#
#
# Elastic Constant Matrix: (Units=GPa)
#
#
# Indices 1 2 3 4 5 6 
#
# 1 63.1722 17.1328 23.5309 3.8505 -5.1480 -17.2806
# 2 17.1328 138.4936 41.8220 -29.8181 13.0448 -17.4172
# 3 23.5309 41.8220 119.8283 -9.6146 37.5918 -22.5709
# 4 3.8505 -29.8181 -9.6146 32.6273 -12.4901 -2.1493
# 5 -5.1480 13.0448 37.5918 -12.4901 38.3622 -5.6359
# 6 -17.2806 -17.4172 -22.5709 -2.1493 -5.6359 27.9887
#
#
#
# Elastic Compliance Matrix: (Units=1/GPa)
#
#
# Indices 1 2 3 4 5 6 
#
# 1 0.021624 -0.000816 -0.004942 -0.000426 0.009460 0.010730
# 2 -0.000816 0.010868 -0.002727 0.010815 0.003201 0.005536
# 3 -0.004942 -0.002727 0.015746 -0.002867 -0.015420 0.004624
# 4 -0.000426 0.010815 -0.002867 0.046514 0.015822 0.010913
# 5 0.009460 0.003201 -0.015420 0.015822 0.047415 0.006161
# 6 0.010730 0.005536 0.004624 0.010913 0.006161 0.051606
#
#
# Mechanical properties :
#
#
# Convention : Reuss Voigt Hill
#
# Bulk Modulus (GPa) = 31.98188 54.05172 43.01680
# Shear Modulus (GPa) = 22.60742 35.72954 29.16848
#
# Velocity S-wave (km/s) = 3.26016 4.09852 3.70314
# Velocity P-wave (km/s) = 5.40440 6.91441 6.20551
#
# Compressibility (1/GPa) = 0.03126770
#
# Stress axis : x y z
#
# Youngs Moduli (GPa) = 46.24495 92.01236 63.50818
#
# Poissons Ratio (x) = 0.07507 0.31389
# Poissons Ratio (y) = 0.03773 0.17317
# Poissons Ratio (z) = 0.22857 0.25090
#
# Static dielectric constant tensor:
#      x y z
#    x 1.741220 -0.006230 -0.019980 
#    y -0.006230 1.852910 -0.032920 
#    z -0.019980 -0.032920 1.761880 
# 
# From -- ./inp_files/431923.got.cif
#   From: 2010.05.17/outbox.cif.g08.bks.cpg/sg2_216_cif.got.tgz:431923.got - 2010.06.03 11:33:40.
