data_PCOD9017549
_publ_section_title
;
Structure prediction by ZEFSAII (Michael W. Deem and Ramdas Pophale) SiO2 
 PCOD9017549
Probable space group: P -1
;
_chemical_formula_sum "Si O2"
_cell_formula_units_Z 16
_cell_length_a 17.398949
_cell_length_b 9.354013
_cell_length_c 8.069210
_cell_angle_alpha 46.871736
_cell_angle_beta 135.471869
_cell_angle_gamma 118.338234
_cell_volume 671.917459
_symmetry_space_group_name_H-M "P -1"
_symmetry_group_IT_number 2
_symmetry_cell_setting 'triclinic'
loop_
_space_group_symop_operation_xyz
x,y,z
-x,-y,-z
loop_
_atom_site_type_symbol
_atom_site_label
_atom_site_fract_x
_atom_site_fract_y
_atom_site_fract_z
Si Si1 0.332597 0.899343 0.897991
Si Si2 0.253205 0.310619 0.339391
Si Si3 0.064266 0.408464 0.511595
Si Si4 0.116833 0.085417 0.084893
Si Si5 0.218564 0.739785 0.363735
Si Si6 0.552632 0.196045 0.498131
Si Si7 0.417205 0.516272 0.203893
Si Si8 0.858872 0.304527 0.060260
O O1 0.210763 0.823898 0.816510
O O2 0.325503 0.129890 0.663861
O O3 0.400970 0.863264 0.201067
O O4 0.385491 0.747047 0.965689
O O5 0.311829 0.403356 0.197181
O O6 0.143718 0.217567 0.177289
O O7 0.216032 0.496391 0.243035
O O8 0.117707 0.210856 0.820921
O O9 0.160223 0.549884 0.493650
O O10 0.000000 0.500000 0.500000
O O11 0.974823 0.361145 0.270475
O O12 0.204084 0.910646 0.340119
O O13 0.000000 0.000000 0.000000
O O14 0.343398 0.735552 0.501562
O O15 0.143875 0.795935 0.042698
O O16 0.471048 0.384480 0.247560
O O17 0.500000 0.000000 0.500000
O O18 0.500000 0.500000 0.500000
#
# Coordination Sequence:
#
# PCOD9017549 Si02
#       8
#     2   2   2   2   2   2   2   2
#     4   9  21  38  68  95 125 170 215 256 322 382
#     4  11  21  39  66  94 127 171 214 260 315 384
#     4  12  23  42  68  96 126 172 217 262 325 381
#     4  12  24  40  65  96 129 166 215 266 316 389
#     4  11  25  41  65  98 131 167 213 271 328 379
#     4  10  21  43  64  94 134 168 214 271 320 379
#     4   9  20  39  62  90 123 164 213 263 307 377
#     4  10  22  42  64  97 136 163 211 269 316 384
#
# _framework density 23.812446000000001
#
# number of rings (size 3 to 8) (size 9 to 14) (size 15 to 20)
#    0.000    1.500    2.500    2.625    0.000    4.500 
#    0.000    3.750    0.000   13.500    0.000    0.000 
#    0.000    0.000    0.000    0.000    0.000    0.000 
#
# Total GULP energy -89474.851632 kJ/mol
# GULP energy per Si atom -5592.178227 kJ/mol
# Density = 2.375825 g / cm^3
# Si number density = 23.812446 Si / 1000 Ang^3
#
#
#
# Elastic Constant Matrix: (Units=GPa)
#
#
# Indices 1 2 3 4 5 6 
#
# 1 97.3767 41.1446 10.3904 -3.2879 1.3758 10.7768
# 2 41.1446 120.7676 23.0678 -5.9572 5.4078 7.2140
# 3 10.3904 23.0678 102.1039 -14.4675 -3.5863 -4.8708
# 4 -3.2879 -5.9572 -14.4675 28.0639 1.8291 11.2537
# 5 1.3758 5.4078 -3.5863 1.8291 20.1712 2.6219
# 6 10.7768 7.2140 -4.8708 11.2537 2.6219 34.0522
#
#
#
# Elastic Compliance Matrix: (Units=1/GPa)
#
#
# Indices 1 2 3 4 5 6 
#
# 1 0.012421 -0.003872 -0.000273 0.002006 0.000461 -0.003848
# 2 -0.003872 0.010247 -0.001871 0.001542 -0.002759 -0.001510
# 3 -0.000273 -0.001871 0.011039 0.005034 0.001995 0.000245
# 4 0.002006 0.001542 0.005034 0.044899 -0.001784 -0.014943
# 5 0.000461 -0.002759 0.001995 -0.001784 0.051142 -0.002624
# 6 -0.003848 -0.001510 0.000245 -0.014943 -0.002624 0.036080
#
#
# Mechanical properties :
#
#
# Convention : Reuss Voigt Hill
#
# Bulk Modulus (GPa) = 46.13285 52.16153 49.14719
# Shear Modulus (GPa) = 27.01467 32.83381 29.92424
#
# Velocity S-wave (km/s) = 3.37185 3.71732 3.54879
# Velocity P-wave (km/s) = 5.88002 6.35431 6.12176
#
# Compressibility (1/GPa) = 0.02167653
#
# Stress axis : x y z
#
# Youngs Moduli (GPa) = 80.50570 97.59221 90.58406
#
# Poissons Ratio (x) = 0.37784 0.02468
# Poissons Ratio (y) = 0.31169 0.16952
# Poissons Ratio (z) = 0.02194 0.18264
#
# Static dielectric constant tensor:
#      x y z
#    x 1.798740 -0.083090 -0.086300 
#    y -0.083090 1.807210 -0.080690 
#    z -0.086300 -0.080690 1.871040 
# 
# From -- ./inp_files/327202.got.cif
#   From: 2010.05.17/outbox.cif.g08.bks.cpg/sg2_164_cif.got.tgz:327202.got - 2010.06.03 11:33:40.
