data_PCOD9017305
_publ_section_title
;
Structure prediction by ZEFSAII (Michael W. Deem and Ramdas Pophale) SiO2 
 PCOD9017305
Probable space group: P -1
;
_chemical_formula_sum "Si O2"
_cell_formula_units_Z 12
_cell_length_a 7.374758
_cell_length_b 5.468950
_cell_length_c 13.938795
_cell_angle_alpha 98.322253
_cell_angle_beta 53.365899
_cell_angle_gamma 103.591710
_cell_volume 438.488747
_symmetry_space_group_name_H-M "P -1"
_symmetry_group_IT_number 2
_symmetry_cell_setting 'triclinic'
loop_
_space_group_symop_operation_xyz
x,y,z
-x,-y,-z
loop_
_atom_site_type_symbol
_atom_site_label
_atom_site_fract_x
_atom_site_fract_y
_atom_site_fract_z
Si Si1 0.591543 0.293631 0.396727
Si Si2 0.207871 0.746384 0.067512
Si Si3 0.771997 0.110457 0.589943
Si Si4 0.914614 0.737620 0.801971
Si Si5 0.458137 0.070353 0.862042
Si Si6 0.451354 0.485612 0.254563
O O1 0.500000 0.500000 0.500000
O O2 0.413527 0.030424 0.434509
O O3 0.578946 0.376283 0.293733
O O4 0.853752 0.275004 0.330255
O O5 0.100471 0.464866 0.117528
O O6 0.436525 0.799472 0.066349
O O7 0.080477 0.975300 0.151446
O O8 0.286953 0.823202 0.938124
O O9 0.672630 0.036551 0.724713
O O10 0.747629 0.399373 0.617084
O O11 0.000000 0.000000 0.500000
O O12 0.696280 0.639499 0.796842
O O13 0.372330 0.277387 0.835084
#
# Coordination Sequence:
#
# PCOD9017305 Si02
#       6
#     2   2   2   2   2   2
#     4  12  27  43  70 104 138 191 242 297 355 426
#     4  10  21  42  73 110 142 186 238 290 350 435
#     4  10  22  43  68  98 138 184 234 288 354 416
#     4  11  25  44  74 108 143 185 239 289 361 422
#     4   8  20  41  71 103 140 189 232 291 359 416
#     4   9  23  45  66  98 145 181 236 292 359 412
#
# _framework density 27.366724000000001
#
# number of rings (size 3 to 8) (size 9 to 14) (size 15 to 20)
#    1.000    1.000    0.000    2.000    2.333   12.000 
#    0.000    5.000    0.000    0.000    0.000    0.000 
#    0.000    0.000    0.000    0.000    0.000    0.000 
#
# Total GULP energy -67002.492855 kJ/mol
# GULP energy per Si atom -5583.541071 kJ/mol
# Density = 2.730444 g / cm^3
# Si number density = 27.366724 Si / 1000 Ang^3
#
#
#
# Elastic Constant Matrix: (Units=GPa)
#
#
# Indices 1 2 3 4 5 6 
#
# 1 101.2301 25.1896 30.3305 6.7495 4.3064 7.4662
# 2 25.1896 109.3020 10.5822 -5.4747 4.9810 -23.6418
# 3 30.3305 10.5822 148.6387 16.7690 6.2323 2.2369
# 4 6.7495 -5.4747 16.7690 53.0604 -7.9764 6.3882
# 5 4.3064 4.9810 6.2323 -7.9764 41.9614 0.7852
# 6 7.4662 -23.6418 2.2369 6.3882 0.7852 27.4564
#
#
#
# Elastic Compliance Matrix: (Units=1/GPa)
#
#
# Indices 1 2 3 4 5 6 
#
# 1 0.011984 -0.003952 -0.001980 -0.000612 -0.000464 -0.006344
# 2 -0.003952 0.012764 -0.000261 0.000263 -0.001246 0.012061
# 3 -0.001980 -0.000261 0.007469 -0.002371 -0.001331 0.000295
# 4 -0.000612 0.000263 -0.002371 0.020898 0.004439 -0.004403
# 5 -0.000464 -0.001246 -0.001331 0.004439 0.025117 -0.002590
# 6 -0.006344 0.012061 0.000295 -0.004403 -0.002590 0.049606
#
#
# Mechanical properties :
#
#
# Convention : Reuss Voigt Hill
#
# Bulk Modulus (GPa) = 50.42712 54.59728 52.51220
# Shear Modulus (GPa) = 34.05197 44.03354 39.04276
#
# Velocity S-wave (km/s) = 3.53127 4.01561 3.78120
# Velocity P-wave (km/s) = 5.92393 6.44156 6.18816
#
# Compressibility (1/GPa) = 0.01983060
#
# Stress axis : x y z
#
# Youngs Moduli (GPa) = 83.44750 78.34723 133.88232
#
# Poissons Ratio (x) = 0.30962 0.26508
# Poissons Ratio (y) = 0.32977 0.03497
# Poissons Ratio (z) = 0.16522 0.02046
#
# Static dielectric constant tensor:
#      x y z
#    x 2.061990 -0.003620 -0.017360 
#    y -0.003620 2.629240 0.180990 
#    z -0.017360 0.180990 2.290710 
# 
# From -- ./inp_files/488611.got.cif
#   From: 2010.05.17/outbox.cif.g08.bks.cpg/sg2_245_cif.got.tgz:488611.got - 2010.06.03 11:33:40.
