data_PCOD9017629
_publ_section_title
;
Structure prediction by ZEFSAII (Michael W. Deem and Ramdas Pophale) SiO2 
 PCOD9017629
Probable space group: P -1
;
_chemical_formula_sum "Si O2"
_cell_formula_units_Z 16
_cell_length_a 8.396653
_cell_length_b 13.848269
_cell_length_c 24.500428
_cell_angle_alpha 30.402323
_cell_angle_beta 49.869435
_cell_angle_gamma 33.004740
_cell_volume 752.573198
_symmetry_space_group_name_H-M "P -1"
_symmetry_group_IT_number 2
_symmetry_cell_setting 'triclinic'
loop_
_space_group_symop_operation_xyz
x,y,z
-x,-y,-z
loop_
_atom_site_type_symbol
_atom_site_label
_atom_site_fract_x
_atom_site_fract_y
_atom_site_fract_z
Si Si1 0.821108 0.137869 0.806248
Si Si2 0.300723 0.816713 0.954572
Si Si3 0.993731 0.404767 0.989691
Si Si4 0.143662 0.546289 0.783896
Si Si5 0.269723 0.915926 0.447232
Si Si6 0.945689 0.355405 0.835093
Si Si7 0.507884 0.078584 0.399398
Si Si8 0.094288 0.655846 0.415154
O O1 0.474723 0.413859 0.764961
O O2 0.931320 0.205343 0.701959
O O3 0.045949 0.993221 0.878228
O O4 0.834083 0.911264 0.893478
O O5 0.636811 0.603431 0.959672
O O6 0.253279 0.657477 0.078183
O O7 0.219010 0.049561 0.898082
O O8 0.130168 0.449843 0.891453
O O9 0.000000 0.500000 0.000000
O O10 0.074755 0.433088 0.808034
O O11 0.881335 0.878385 0.671197
O O12 0.548272 0.591689 0.528093
O O13 0.402786 0.986037 0.424932
O O14 0.000000 0.000000 0.500000
O O15 0.728687 0.592938 0.721017
O O16 0.500000 0.000000 0.500000
O O17 0.854883 0.895534 0.395116
O O18 0.000000 0.500000 0.500000
#
# Coordination Sequence:
#
# PCOD9017629 Si02
#       8
#     2   2   2   2   2   2   2   2
#     4  12  24  43  72  94 133 177 225 271 340 396
#     4  11  25  40  69  96 131 173 222 271 326 401
#     4  12  27  43  65 101 139 169 223 273 334 396
#     4  11  24  43  68  93 136 179 213 277 335 396
#     4  10  21  43  65  92 126 171 221 266 328 390
#     4  10  23  42  65  95 136 171 222 268 334 392
#     4  10  23  40  66  93 131 167 217 272 327 385
#     4  10  23  41  68  97 130 170 225 270 331 392
#
# _framework density 21.260390999999998
#
# number of rings (size 3 to 8) (size 9 to 14) (size 15 to 20)
#    0.000    1.250    2.500    2.250   12.250    0.000 
#    2.250    0.625    0.000    0.000    0.000    0.000 
#    0.000    0.000    0.000    0.000    0.000    0.000 
#
# Total GULP energy -89500.334971 kJ/mol
# GULP energy per Si atom -5593.770936 kJ/mol
# Density = 2.121200 g / cm^3
# Si number density = 21.260391 Si / 1000 Ang^3
#
#
#
# Elastic Constant Matrix: (Units=GPa)
#
#
# Indices 1 2 3 4 5 6 
#
# 1 42.6736 -1.3530 12.2044 0.1390 17.2357 0.0875
# 2 -1.3530 99.3763 30.2159 12.4711 13.9599 -20.4833
# 3 12.2044 30.2159 145.5617 26.6620 20.8542 -2.6933
# 4 0.1390 12.4711 26.6620 44.1196 -2.3974 6.9144
# 5 17.2357 13.9599 20.8542 -2.3974 22.9740 2.6460
# 6 0.0875 -20.4833 -2.6933 6.9144 2.6460 24.7078
#
#
#
# Elastic Compliance Matrix: (Units=1/GPa)
#
#
# Indices 1 2 3 4 5 6 
#
# 1 0.039210 0.009581 0.002318 -0.008720 -0.039954 0.014776
# 2 0.009581 0.018774 0.000871 -0.010396 -0.022888 0.020985
# 3 0.002318 0.000871 0.009803 -0.007689 -0.012577 0.005281
# 4 -0.008720 -0.010396 -0.007689 0.035149 0.026045 -0.022051
# 5 -0.039954 -0.022888 -0.012577 0.026045 0.106019 -0.038846
# 6 0.014776 0.020985 0.005281 -0.022051 -0.038846 0.068724
#
#
# Mechanical properties :
#
#
# Convention : Reuss Voigt Hill
#
# Bulk Modulus (GPa) = 10.71493 41.08293 25.89893
# Shear Modulus (GPa) = 17.65251 34.79656 26.22453
#
# Velocity S-wave (km/s) = 2.88462 4.04999 3.51592
# Velocity P-wave (km/s) = 4.01815 6.42149 5.35635
#
# Compressibility (1/GPa) = 0.09332772
#
# Stress axis : x y z
#
# Youngs Moduli (GPa) = 25.50374 53.26647 102.01338
#
# Poissons Ratio (x) = -0.51036 -0.23649
# Poissons Ratio (y) = -0.24436 -0.08887
# Poissons Ratio (z) = -0.05912 -0.04641
#
# Static dielectric constant tensor:
#      x y z
#    x 1.785350 -0.015360 -0.013310 
#    y -0.015360 1.726400 -0.037240 
#    z -0.013310 -0.037240 1.752670 
# 
# From -- ./inp_files/179475.got.cif
#   From: 2010.05.17/outbox.cif.g08.bks.cpg/sg2_90_cif.got.tgz:179475.got - 2010.06.03 11:33:40.
