data_PCOD9017403
_publ_section_title
;
Structure prediction by ZEFSAII (Michael W. Deem and Ramdas Pophale) SiO2 
 PCOD9017403
Probable space group: P -1
;
_chemical_formula_sum "Si O2"
_cell_formula_units_Z 16
_cell_length_a 14.719112
_cell_length_b 12.301232
_cell_length_c 11.514967
_cell_angle_alpha 136.660670
_cell_angle_beta 36.690098
_cell_angle_gamma 151.410642
_cell_volume 594.148955
_symmetry_space_group_name_H-M "P -1"
_symmetry_group_IT_number 2
_symmetry_cell_setting 'triclinic'
loop_
_space_group_symop_operation_xyz
x,y,z
-x,-y,-z
loop_
_atom_site_type_symbol
_atom_site_label
_atom_site_fract_x
_atom_site_fract_y
_atom_site_fract_z
Si Si1 0.796500 0.827408 0.487476
Si Si2 0.285698 0.837381 0.511976
Si Si3 0.883594 0.447226 0.941020
Si Si4 0.820884 0.503246 0.472742
Si Si5 0.404826 0.686046 0.075214
Si Si6 0.888339 0.060610 0.935203
Si Si7 0.886349 0.759612 0.819764
Si Si8 0.596470 0.340359 0.355741
O O1 0.661282 0.574886 0.475289
O O2 0.627384 0.834740 0.623370
O O3 0.000000 0.000000 0.500000
O O4 0.905013 0.851019 0.275467
O O5 0.140618 0.604384 0.555264
O O6 0.354423 0.800513 0.295678
O O7 0.126393 0.864308 0.672124
O O8 0.500000 0.000000 0.500000
O O9 0.685373 0.351930 0.988202
O O10 0.983494 0.362046 0.717476
O O11 0.781584 0.384634 0.125580
O O12 0.063590 0.717801 0.937291
O O13 0.813924 0.649288 0.676961
O O14 0.611468 0.313748 0.456768
O O15 0.281551 0.447635 0.079355
O O16 0.663687 0.865481 0.947009
O O17 0.873098 0.939641 0.970513
#
# Coordination Sequence:
#
# PCOD9017403 Si02
#       8
#     2   2   2   2   2   2   2   2
#     4  10  21  43  61  94 131 172 216 270 323 383
#     4  11  23  42  69  95 133 174 222 266 323 394
#     4  11  22  43  65  97 137 165 215 274 330 382
#     4  11  21  43  66  93 130 175 218 265 326 390
#     4  11  22  44  65  96 135 173 212 273 326 384
#     4  11  25  39  66  97 130 171 217 269 325 386
#     4  11  23  43  67  96 130 179 218 268 324 389
#     4  10  23  38  68  95 127 171 219 267 325 385
#
# _framework density 26.929272999999998
#
# number of rings (size 3 to 8) (size 9 to 14) (size 15 to 20)
#    0.000    1.250    2.500    3.750    1.750    2.500 
#    2.250    0.000    0.000    6.000    0.000    0.000 
#    0.000    0.000    0.000    0.000    0.000    0.000 
#
# Total GULP energy -89583.332082 kJ/mol
# GULP energy per Si atom -5598.958255 kJ/mol
# Density = 2.686798 g / cm^3
# Si number density = 26.929273 Si / 1000 Ang^3
#
#
#
# Elastic Constant Matrix: (Units=GPa)
#
#
# Indices 1 2 3 4 5 6 
#
# 1 139.2138 37.3282 11.2657 11.6996 3.9094 20.2858
# 2 37.3282 99.5817 4.8382 -5.2422 -14.0821 21.7745
# 3 11.2657 4.8382 87.7946 -1.3266 17.3385 6.0989
# 4 11.6996 -5.2422 -1.3266 33.0310 13.5091 -10.1146
# 5 3.9094 -14.0821 17.3385 13.5091 47.7393 -2.5274
# 6 20.2858 21.7745 6.0989 -10.1146 -2.5274 38.2442
#
#
#
# Elastic Compliance Matrix: (Units=1/GPa)
#
#
# Indices 1 2 3 4 5 6 
#
# 1 0.009028 -0.002637 -0.000764 -0.004996 -0.000064 -0.004491
# 2 -0.002637 0.012865 -0.000803 -0.000480 0.004139 -0.005652
# 3 -0.000764 -0.000803 0.012738 0.002695 -0.005607 -0.000827
# 4 -0.004996 -0.000480 0.002695 0.040617 -0.011544 0.012473
# 5 -0.000064 0.004139 -0.005607 -0.011544 0.027335 -0.002675
# 6 -0.004491 -0.005652 -0.000827 0.012473 -0.002675 0.035002
#
#
# Mechanical properties :
#
#
# Convention : Reuss Voigt Hill
#
# Bulk Modulus (GPa) = 38.13325 48.16157 43.14741
# Shear Modulus (GPa) = 32.31354 42.01342 37.16348
#
# Velocity S-wave (km/s) = 3.46777 3.95415 3.71892
# Velocity P-wave (km/s) = 5.49775 6.22658 5.87348
#
# Compressibility (1/GPa) = 0.02622383
#
# Stress axis : x y z
#
# Youngs Moduli (GPa) = 110.76360 77.72823 78.50557
#
# Poissons Ratio (x) = 0.20498 0.05999
# Poissons Ratio (y) = 0.29209 0.06301
# Poissons Ratio (z) = 0.08463 0.06239
#
# Static dielectric constant tensor:
#      x y z
#    x 2.171230 -0.046890 -0.038410 
#    y -0.046890 2.232790 0.078580 
#    z -0.038410 0.078580 2.121870 
# 
# From -- ./inp_files/455874.got.cif
#   From: 2010.05.17/outbox.cif.g08.bks.cpg/sg2_228_cif.got.tgz:455874.got - 2010.06.03 11:33:40.
