data_PCOD9017086
_publ_section_title
;
Structure prediction by ZEFSAII (Michael W. Deem and Ramdas Pophale) SiO2 
 PCOD9017086
Probable space group: P -1
;
_chemical_formula_sum "Si O2"
_cell_formula_units_Z 12
_cell_length_a 17.965823
_cell_length_b 11.616219
_cell_length_c 8.214213
_cell_angle_alpha 140.964979
_cell_angle_beta 145.731198
_cell_angle_gamma 30.362333
_cell_volume 475.530322
_symmetry_space_group_name_H-M "P -1"
_symmetry_group_IT_number 2
_symmetry_cell_setting 'triclinic'
loop_
_space_group_symop_operation_xyz
x,y,z
-x,-y,-z
loop_
_atom_site_type_symbol
_atom_site_label
_atom_site_fract_x
_atom_site_fract_y
_atom_site_fract_z
Si Si1 0.308950 0.095167 0.764243
Si Si2 0.719449 0.255156 0.523078
Si Si3 0.592400 0.496789 0.007006
Si Si4 0.816396 0.632645 0.496245
Si Si5 0.068106 0.787255 0.599914
Si Si6 0.875412 0.456055 0.904065
O O1 0.222367 0.244737 0.609453
O O2 0.304819 0.879551 0.534392
O O3 0.227075 0.266575 0.962572
O O4 0.500000 0.000000 0.000000
O O5 0.781493 0.410251 0.819789
O O6 0.543727 0.409324 0.278024
O O7 0.893398 0.030552 0.508043
O O8 0.650384 0.662085 0.288456
O O9 0.774277 0.237306 0.067937
O O10 0.500000 0.500000 0.000000
O O11 0.946203 0.347992 0.427753
O O12 0.926734 0.680595 0.852413
O O13 0.134338 0.625862 0.381046
#
# Coordination Sequence:
#
# PCOD9017086 Si02
#       6
#     2   2   2   2   2   2
#     4  12  25  48  67 100 146 184 226 293 341 410
#     4  12  24  45  76 100 139 189 227 282 356 405
#     4  10  21  42  71 101 141 173 228 289 336 406
#     4  10  23  45  69  98 146 178 230 292 338 408
#     4  10  23  45  72 102 141 177 228 292 342 398
#     4  12  25  44  74 102 136 183 240 279 343 421
#
# _framework density 25.234984000000001
#
# number of rings (size 3 to 8) (size 9 to 14) (size 15 to 20)
#    1.000    0.000    5.000    1.500    0.000    1.333 
#    6.000    2.500    0.000    0.000    0.000    0.000 
#    0.000    0.000    0.000    0.000    0.000    0.000 
#
# Total GULP energy -66818.909952 kJ/mol
# GULP energy per Si atom -5568.242496 kJ/mol
# Density = 2.517755 g / cm^3
# Si number density = 25.234984 Si / 1000 Ang^3
#
#
#
# Elastic Constant Matrix: (Units=GPa)
#
#
# Indices 1 2 3 4 5 6 
#
# 1 125.5833 39.5480 60.1906 -0.8684 27.9184 29.0630
# 2 39.5480 117.1758 53.6851 -16.7558 -11.6953 4.0604
# 3 60.1906 53.6851 151.9524 -23.1429 21.3068 0.6026
# 4 -0.8684 -16.7558 -23.1429 24.5159 7.7357 13.3583
# 5 27.9184 -11.6953 21.3068 7.7357 58.2013 2.1659
# 6 29.0630 4.0604 0.6026 13.3583 2.1659 53.2782
#
#
#
# Elastic Compliance Matrix: (Units=1/GPa)
#
#
# Indices 1 2 3 4 5 6 
#
# 1 0.013451 -0.003287 -0.003192 0.000881 -0.005800 -0.007036
# 2 -0.003287 0.012050 -0.002983 0.004018 0.004566 -0.000285
# 3 -0.003192 -0.002983 0.011025 0.009895 -0.004403 -0.000458
# 4 0.000881 0.004018 0.009895 0.065702 -0.011341 -0.016911
# 5 -0.005800 0.004566 -0.004403 -0.011341 0.023824 0.004740
# 6 -0.007036 -0.000285 -0.000458 -0.016911 0.004740 0.026682
#
#
# Mechanical properties :
#
#
# Convention : Reuss Voigt Hill
#
# Bulk Modulus (GPa) = 56.80287 77.95099 67.37693
# Shear Modulus (GPa) = 28.16502 43.28492 35.72497
#
# Velocity S-wave (km/s) = 3.34445 4.14608 3.76665
# Velocity P-wave (km/s) = 6.12146 7.34010 6.75830
#
# Compressibility (1/GPa) = 0.01760474
#
# Stress axis : x y z
#
# Youngs Moduli (GPa) = 74.34137 82.98570 90.70010
#
# Poissons Ratio (x) = 0.27275 0.28950
# Poissons Ratio (y) = 0.24434 0.27053
# Poissons Ratio (z) = 0.23728 0.24752
#
# Static dielectric constant tensor:
#      x y z
#    x 2.107910 -0.009900 0.067130 
#    y -0.009900 2.032590 0.012960 
#    z 0.067130 0.012960 2.088040 
# 
# From -- ./inp_files/231905.got.cif
#   From: 2010.05.17/outbox.cif.g08.bks.cpg/sg2_116_cif.got.tgz:231905.got - 2010.06.03 11:33:40.
