data_PCOD9017226
_publ_section_title
;
Structure prediction by ZEFSAII (Michael W. Deem and Ramdas Pophale) SiO2 
 PCOD9017226
Probable space group: P -1
;
_chemical_formula_sum "Si O2"
_cell_formula_units_Z 16
_cell_length_a 9.125742
_cell_length_b 7.765617
_cell_length_c 13.453584
_cell_angle_alpha 100.191656
_cell_angle_beta 122.644551
_cell_angle_gamma 61.066791
_cell_volume 698.022132
_symmetry_space_group_name_H-M "P -1"
_symmetry_group_IT_number 2
_symmetry_cell_setting 'triclinic'
loop_
_space_group_symop_operation_xyz
x,y,z
-x,-y,-z
loop_
_atom_site_type_symbol
_atom_site_label
_atom_site_fract_x
_atom_site_fract_y
_atom_site_fract_z
Si Si1 0.088084 0.194883 0.021878
Si Si2 0.377350 0.863588 0.233380
Si Si3 0.805750 0.412016 0.598923
Si Si4 0.948281 0.058473 0.762903
Si Si5 0.218780 0.358643 0.727843
Si Si6 0.479517 0.445434 0.327978
Si Si7 0.241807 0.426174 0.968252
Si Si8 0.345075 0.697758 0.809478
O O1 0.197034 0.312545 0.029156
O O2 0.246413 0.986331 0.104205
O O3 0.982963 0.156156 0.885373
O O4 0.922135 0.344237 0.053662
O O5 0.600792 0.814390 0.284205
O O6 0.402438 0.647153 0.254710
O O7 0.229888 0.992250 0.281615
O O8 0.643454 0.447311 0.461076
O O9 0.691451 0.554489 0.665600
O O10 0.880280 0.200270 0.657464
O O11 0.997118 0.413584 0.624949
O O12 0.164024 0.888430 0.803656
O O13 0.258441 0.545093 0.749502
O O14 0.228371 0.332506 0.848771
O O15 0.580966 0.272827 0.268161
O O16 0.462801 0.389916 0.060148
#
# Coordination Sequence:
#
# PCOD9017226 Si02
#       8
#     2   2   2   2   2   2   2   2
#     4  11  22  37  62  92 127 166 206 253 312 370
#     4  10  22  37  61  88 126 159 204 252 305 364
#     4  10  21  42  72  88 122 166 212 254 306 370
#     4  11  22  41  61  92 128 167 205 255 308 369
#     4  11  22  39  64  94 123 168 203 255 308 373
#     4   9  22  44  66  92 121 167 206 257 312 363
#     4  11  23  37  61  95 128 164 204 257 310 375
#     4  11  24  38  62  92 134 161 205 255 311 366
#
# _framework density 22.921907999999998
#
# number of rings (size 3 to 8) (size 9 to 14) (size 15 to 20)
#    0.000    1.500    1.250    4.500    3.500    4.500 
#    0.000    0.000    2.750    3.750    0.000    0.000 
#    0.000    0.000    0.000    0.000    0.000    0.000 
#
# Total GULP energy -89250.380994 kJ/mol
# GULP energy per Si atom -5578.148812 kJ/mol
# Density = 2.286974 g / cm^3
# Si number density = 22.921908 Si / 1000 Ang^3
#
#
#
# Elastic Constant Matrix: (Units=GPa)
#
#
# Indices 1 2 3 4 5 6 
#
# 1 146.2803 50.1467 33.7614 -12.4656 33.5778 -40.8570
# 2 50.1467 39.9103 28.6692 -18.0190 15.0886 -13.2352
# 3 33.7614 28.6692 71.6926 -22.2656 18.7522 -5.9259
# 4 -12.4656 -18.0190 -22.2656 21.6164 -8.1420 -1.8948
# 5 33.5778 15.0886 18.7522 -8.1420 33.6914 -13.8587
# 6 -40.8570 -13.2352 -5.9259 -1.8948 -13.8587 41.8361
#
#
#
# Elastic Compliance Matrix: (Units=1/GPa)
#
#
# Indices 1 2 3 4 5 6 
#
# 1 0.016346 -0.019489 -0.000418 -0.009107 -0.006593 0.007142
# 2 -0.019489 0.077769 -0.007231 0.048148 0.003499 0.007886
# 3 -0.000418 -0.007231 0.023328 0.015507 -0.005838 -0.000623
# 4 -0.009107 0.048148 0.015507 0.102539 0.010516 0.016663
# 5 -0.006593 0.003499 -0.005838 0.010516 0.044155 0.008944
# 6 0.007142 0.007886 -0.000623 0.016663 0.008944 0.037002
#
#
# Mechanical properties :
#
#
# Convention : Reuss Voigt Hill
#
# Bulk Modulus (GPa) = 15.83083 53.67086 34.75084
# Shear Modulus (GPa) = 13.28129 29.11586 21.19857
#
# Velocity S-wave (km/s) = 2.40971 3.56788 3.04438
# Velocity P-wave (km/s) = 3.82932 6.35913 5.24892
#
# Compressibility (1/GPa) = 0.06316788
#
# Stress axis : x y z
#
# Youngs Moduli (GPa) = 61.17809 12.85865 42.86632
#
# Poissons Ratio (x) = 0.25060 0.01790
# Poissons Ratio (y) = 1.19228 0.30998
# Poissons Ratio (z) = 0.02554 0.09298
#
# Static dielectric constant tensor:
#      x y z
#    x 2.000120 -0.040700 0.001220 
#    y -0.040700 1.927050 0.003690 
#    z 0.001220 0.003690 1.842330 
# 
# From -- ./inp_files/206072.got.cif
#   From: 2010.05.17/outbox.cif.g08.bks.cpg/sg2_104_cif.got.tgz:206072.got - 2010.06.03 11:33:40.
