data_PCOD9017047
_publ_section_title
;
Structure prediction by ZEFSAII (Michael W. Deem and Ramdas Pophale) SiO2 
 PCOD9017047
Probable space group: P -1
;
_chemical_formula_sum "Si O2"
_cell_formula_units_Z 16
_cell_length_a 9.450763
_cell_length_b 6.994843
_cell_length_c 21.255325
_cell_angle_alpha 34.338144
_cell_angle_beta 54.193135
_cell_angle_gamma 64.932141
_cell_volume 637.345655
_symmetry_space_group_name_H-M "P -1"
_symmetry_group_IT_number 2
_symmetry_cell_setting 'triclinic'
loop_
_space_group_symop_operation_xyz
x,y,z
-x,-y,-z
loop_
_atom_site_type_symbol
_atom_site_label
_atom_site_fract_x
_atom_site_fract_y
_atom_site_fract_z
Si Si1 0.150543 0.689075 0.672513
Si Si2 0.182383 0.667545 0.876445
Si Si3 0.577803 0.597801 0.022186
Si Si4 0.595228 0.483811 0.251789
Si Si5 0.754360 0.156041 0.748819
Si Si6 0.144066 0.249684 0.629776
Si Si7 0.315793 0.930204 0.434597
Si Si8 0.231749 0.386170 0.220253
O O1 0.296949 0.488147 0.719525
O O2 0.150254 0.002600 0.635949
O O3 0.955149 0.489105 0.775756
O O4 0.201464 0.839904 0.550724
O O5 0.328854 0.684543 0.888608
O O6 0.265461 0.438503 0.862751
O O7 0.156932 0.016671 0.751870
O O8 0.000000 0.500000 0.000000
O O9 0.405025 0.650887 0.091859
O O10 0.500000 0.500000 0.000000
O O11 0.726087 0.910620 0.883908
O O12 0.423374 0.671369 0.252487
O O13 0.506444 0.097325 0.362878
O O14 0.758052 0.914694 0.752241
O O15 0.948191 0.364920 0.645920
O O16 0.292926 0.571796 0.501734
O O17 0.246821 0.206031 0.331844
#
# Coordination Sequence:
#
# PCOD9017047 Si02
#       8
#     2   2   2   2   2   2   2   2
#     4  10  25  46  64 100 146 178 224 284 339 399
#     4  11  22  46  70  97 132 180 226 280 344 407
#     4  10  21  42  70  98 131 173 229 281 334 407
#     4  11  26  44  68 103 140 175 228 289 338 405
#     4  10  23  44  70 101 138 180 225 284 352 395
#     4  10  25  43  74 101 137 188 223 279 347 402
#     4  12  25  43  70 104 137 184 234 277 333 418
#     4  10  23  44  71  97 137 184 231 277 340 410
#
# _framework density 25.104116000000001
#
# number of rings (size 3 to 8) (size 9 to 14) (size 15 to 20)
#    0.000    1.500    2.500    0.750    7.000    5.500 
#    2.250    0.625    0.000    0.000    0.000    0.000 
#    0.000    0.000    0.000    0.000    0.000    0.000 
#
# Total GULP energy -89501.782509 kJ/mol
# GULP energy per Si atom -5593.861407 kJ/mol
# Density = 2.504698 g / cm^3
# Si number density = 25.104116 Si / 1000 Ang^3
#
#
#
# Elastic Constant Matrix: (Units=GPa)
#
#
# Indices 1 2 3 4 5 6 
#
# 1 144.4412 20.6622 24.9908 11.6194 4.0615 -23.8111
# 2 20.6622 68.3298 2.0662 17.8915 5.6039 -15.3092
# 3 24.9908 2.0662 71.6998 20.5056 1.4469 -6.4436
# 4 11.6194 17.8915 20.5056 30.9579 1.0897 -2.6614
# 5 4.0615 5.6039 1.4469 1.0897 50.5620 3.6559
# 6 -23.8111 -15.3092 -6.4436 -2.6614 3.6559 44.6486
#
#
#
# Elastic Compliance Matrix: (Units=1/GPa)
#
#
# Indices 1 2 3 4 5 6 
#
# 1 0.008175 -0.001468 -0.002386 -0.000311 -0.000676 0.003549
# 2 -0.001468 0.019978 0.004321 -0.013249 -0.002375 0.006096
# 3 -0.002386 0.004321 0.018826 -0.013862 -0.000683 0.002156
# 4 -0.000311 -0.013249 -0.013862 0.048884 0.001118 -0.003887
# 5 -0.000676 -0.002375 -0.000683 0.001118 0.020298 -0.002869
# 6 0.003549 0.006096 0.002156 -0.003887 -0.002869 0.026694
#
#
# Mechanical properties :
#
#
# Convention : Reuss Voigt Hill
#
# Bulk Modulus (GPa) = 20.87095 42.21211 31.54153
# Shear Modulus (GPa) = 31.66724 41.01712 36.34218
#
# Velocity S-wave (km/s) = 3.55552 4.04651 3.80894
# Velocity P-wave (km/s) = 5.01871 6.21962 5.65116
#
# Compressibility (1/GPa) = 0.04791348
#
# Stress axis : x y z
#
# Youngs Moduli (GPa) = 122.32390 50.05553 53.11798
#
# Poissons Ratio (x) = 0.07348 0.12672
# Poissons Ratio (y) = 0.17956 -0.22951
# Poissons Ratio (z) = 0.29181 -0.21628
#
# Static dielectric constant tensor:
#      x y z
#    x 1.979420 0.013850 -0.013280 
#    y 0.013850 2.114670 -0.018140 
#    z -0.013280 -0.018140 1.961110 
# 
# From -- ./inp_files/176084.got.cif
#   From: 2010.05.17/outbox.cif.g08.bks.cpg/sg2_89_cif.got.tgz:176084.got - 2010.06.03 11:33:40.
