data_PCOD9017207
_publ_section_title
;
Structure prediction by ZEFSAII (Michael W. Deem and Ramdas Pophale) SiO2 
 PCOD9017207
Probable space group: P -1
;
_chemical_formula_sum "Si O2"
_cell_formula_units_Z 16
_cell_length_a 5.328978
_cell_length_b 21.355850
_cell_length_c 5.145356
_cell_angle_alpha 78.890918
_cell_angle_beta 91.247428
_cell_angle_gamma 82.617028
_cell_volume 569.178749
_symmetry_space_group_name_H-M "P -1"
_symmetry_group_IT_number 2
_symmetry_cell_setting 'triclinic'
loop_
_space_group_symop_operation_xyz
x,y,z
-x,-y,-z
loop_
_atom_site_type_symbol
_atom_site_label
_atom_site_fract_x
_atom_site_fract_y
_atom_site_fract_z
Si Si1 0.322761 0.318540 0.139580
Si Si2 0.189177 0.534177 0.288421
Si Si3 0.744049 0.214714 0.040804
Si Si4 0.166508 0.040368 0.799378
Si Si5 0.937278 0.714659 0.341153
Si Si6 0.169106 0.163351 0.480965
Si Si7 0.440766 0.914068 0.814293
Si Si8 0.655170 0.423974 0.250817
O O1 0.513797 0.251996 0.170447
O O2 0.118099 0.318788 0.364202
O O3 0.502130 0.371810 0.162424
O O4 0.184216 0.323223 0.857356
O O5 0.441578 0.484834 0.265310
O O6 0.245641 0.590757 0.442239
O O7 0.000000 0.500000 0.500000
O O8 0.137450 0.559690 0.971962
O O9 0.707235 0.142046 0.032034
O O10 0.993760 0.205056 0.234692
O O11 0.801224 0.262295 0.769641
O O12 0.025578 0.104019 0.613337
O O13 0.291705 0.982241 0.667245
O O14 0.368373 0.067283 0.974243
O O15 0.000000 0.000000 0.000000
O O16 0.784263 0.787303 0.330359
O O17 0.408444 0.122572 0.388546
#
# Coordination Sequence:
#
# PCOD9017207 Si02
#       8
#     2   2   2   2   2   2   2   2
#     4  12  27  47  72 104 149 188 241 292 348 416
#     4  10  21  42  72 105 147 188 235 293 348 399
#     4  12  26  45  71  98 140 189 232 290 358 425
#     4  11  25  44  68 100 133 175 234 288 364 432
#     4  12  26  48  68 103 140 189 237 292 351 420
#     4  12  24  45  68  98 136 180 235 286 359 426
#     4  11  24  45  67  98 135 181 223 299 354 432
#     4  10  23  42  69 107 142 190 239 288 344 413
#
# _framework density 28.110679999999999
#
# number of rings (size 3 to 8) (size 9 to 14) (size 15 to 20)
#    0.000    0.750    2.500    4.500    1.750    7.000 
#    2.250    0.000    0.000    0.000    0.000    0.000 
#    0.000    0.000    0.000    0.000    0.000    0.000 
#
# Total GULP energy -89608.598769 kJ/mol
# GULP energy per Si atom -5600.537423 kJ/mol
# Density = 2.804670 g / cm^3
# Si number density = 28.110680 Si / 1000 Ang^3
#
#
#
# Elastic Constant Matrix: (Units=GPa)
#
#
# Indices 1 2 3 4 5 6 
#
# 1 76.4747 29.4024 53.5829 9.3099 -21.4970 10.9057
# 2 29.4024 154.0366 63.8167 23.2611 -5.6183 25.1843
# 3 53.5829 63.8167 195.7401 11.3946 -26.1367 8.5189
# 4 9.3099 23.2611 11.3946 58.1293 -0.1386 -2.8673
# 5 -21.4970 -5.6183 -26.1367 -0.1386 58.3848 -0.4252
# 6 10.9057 25.1843 8.5189 -2.8673 -0.4252 72.1607
#
#
#
# Elastic Compliance Matrix: (Units=1/GPa)
#
#
# Indices 1 2 3 4 5 6 
#
# 1 0.017962 -0.001129 -0.003718 -0.001780 0.004822 -0.001924
# 2 -0.001129 0.008492 -0.002260 -0.002906 -0.000637 -0.002646
# 3 -0.003718 -0.002260 0.007041 0.000150 0.001570 0.000535
# 4 -0.001780 -0.002906 0.000150 0.018719 -0.000809 0.002005
# 5 0.004822 -0.000637 0.001570 -0.000809 0.019539 -0.000609
# 6 -0.001924 -0.002646 0.000535 0.002005 -0.000609 0.015085
#
#
# Mechanical properties :
#
#
# Convention : Reuss Voigt Hill
#
# Bulk Modulus (GPa) = 51.86490 79.98394 65.92442
# Shear Modulus (GPa) = 46.52129 56.36492 51.44310
#
# Velocity S-wave (km/s) = 4.07250 4.48270 4.28251
# Velocity P-wave (km/s) = 6.37212 7.43692 6.92502
#
# Compressibility (1/GPa) = 0.01928086
#
# Stress axis : x y z
#
# Youngs Moduli (GPa) = 55.67422 117.75649 142.02496
#
# Poissons Ratio (x) = 0.13297 0.52798
# Poissons Ratio (y) = 0.06287 0.32101
# Poissons Ratio (z) = 0.20697 0.26616
#
# Static dielectric constant tensor:
#      x y z
#    x 2.291020 -0.060340 -0.010750 
#    y -0.060340 2.258990 -0.095540 
#    z -0.010750 -0.095540 2.279830 
# 
# From -- ./inp_files/12328.got.cif
#   From: 2010.05.17/outbox.cif.g08.bks.cpg/sg2_7_cif.got.tgz:12328.got - 2010.06.03 11:33:40.
