data_PCOD9017844
_publ_section_title
;
Structure prediction by ZEFSAII (Michael W. Deem and Ramdas Pophale) SiO2 
 PCOD9017844
Probable space group: P -1
;
_chemical_formula_sum "Si O2"
_cell_formula_units_Z 16
_cell_length_a 17.963712
_cell_length_b 8.718092
_cell_length_c 11.823643
_cell_angle_alpha 101.056175
_cell_angle_beta 39.430543
_cell_angle_gamma 71.970902
_cell_volume 783.751784
_symmetry_space_group_name_H-M "P -1"
_symmetry_group_IT_number 2
_symmetry_cell_setting 'triclinic'
loop_
_space_group_symop_operation_xyz
x,y,z
-x,-y,-z
loop_
_atom_site_type_symbol
_atom_site_label
_atom_site_fract_x
_atom_site_fract_y
_atom_site_fract_z
Si Si1 0.523395 0.112633 0.824950
Si Si2 0.734442 0.224709 0.551630
Si Si3 0.308370 0.364364 0.332368
Si Si4 0.677515 0.465890 0.206611
Si Si5 0.731114 0.190343 0.291422
Si Si6 0.629201 0.817224 0.225466
Si Si7 0.085829 0.215028 0.154735
Si Si8 0.946971 0.018113 0.691454
O O1 0.626541 0.179216 0.717183
O O2 0.467080 0.153440 0.767026
O O3 0.607882 0.860963 0.725498
O O4 0.369114 0.279777 0.119965
O O5 0.656193 0.480948 0.669728
O O6 0.781451 0.140775 0.355040
O O7 0.899965 0.077616 0.417706
O O8 0.104699 0.541175 0.613014
O O9 0.728138 0.360294 0.256623
O O10 0.469707 0.666181 0.466315
O O11 0.740909 0.574580 0.119704
O O12 0.768119 0.268580 0.979041
O O13 0.855724 0.964157 0.036319
O O14 0.500000 0.000000 0.500000
O O15 0.759610 0.817509 0.029719
O O16 0.073845 0.143200 0.279795
O O17 0.000000 0.000000 0.500000
#
# Coordination Sequence:
#
# PCOD9017844 Si02
#       8
#     2   2   2   2   2   2   2   2
#     4  11  25  45  65 101 130 175 229 265 334 404
#     4  11  23  44  71  94 136 173 222 279 328 395
#     4  10  26  43  66  93 134 175 219 278 332 387
#     4  10  22  38  66  93 130 170 216 269 329 386
#     4  10  21  43  66  98 128 171 228 271 332 395
#     4  12  24  42  66  97 134 171 219 277 329 393
#     4  10  23  44  66  96 133 171 220 276 331 394
#     4  10  25  42  66 100 128 173 224 266 335 400
#
# _framework density 20.414625999999998
#
# number of rings (size 3 to 8) (size 9 to 14) (size 15 to 20)
#    0.000    1.500    2.500    0.375    7.000    8.000 
#    0.000    1.250    0.000    0.000    0.000    0.000 
#    0.000    0.000    0.000    0.000    0.000    0.000 
#
# Total GULP energy -89169.306865 kJ/mol
# GULP energy per Si atom -5573.081679 kJ/mol
# Density = 2.036816 g / cm^3
# Si number density = 20.414626 Si / 1000 Ang^3
#
#
#
# Elastic Constant Matrix: (Units=GPa)
#
#
# Indices 1 2 3 4 5 6 
#
# 1 54.7632 36.5047 35.4755 -16.8940 -5.6917 -4.6377
# 2 36.5047 110.1293 43.2180 -14.5107 -1.3836 -0.7856
# 3 35.4755 43.2180 114.1202 -9.4690 0.4798 -9.4498
# 4 -16.8940 -14.5107 -9.4690 40.1871 3.5824 6.6490
# 5 -5.6917 -1.3836 0.4798 3.5824 26.6890 -15.3352
# 6 -4.6377 -0.7856 -9.4498 6.6490 -15.3352 35.0993
#
#
#
# Elastic Compliance Matrix: (Units=1/GPa)
#
#
# Indices 1 2 3 4 5 6 
#
# 1 0.029809 -0.006459 -0.005896 0.007476 0.007449 0.004045
# 2 -0.006459 0.012508 -0.002796 0.001825 -0.002516 -0.002771
# 3 -0.005896 -0.002796 0.011771 -0.001135 -0.000001 0.002542
# 4 0.007476 0.001825 -0.001135 0.030385 -0.007024 -0.008102
# 5 0.007449 -0.002516 -0.000001 -0.007024 0.054966 0.026274
# 6 0.004045 -0.002771 0.002542 -0.008102 0.026274 0.042661
#
#
# Mechanical properties :
#
#
# Convention : Reuss Voigt Hill
#
# Bulk Modulus (GPa) = 42.04573 56.60101 49.32337
# Shear Modulus (GPa) = 22.69310 31.31603 27.00457
#
# Velocity S-wave (km/s) = 3.33770 3.92088 3.64098
# Velocity P-wave (km/s) = 5.95770 6.94864 6.47217
#
# Compressibility (1/GPa) = 0.02378363
#
# Stress axis : x y z
#
# Youngs Moduli (GPa) = 33.54704 79.95049 84.95544
#
# Poissons Ratio (x) = 0.51643 0.50092
# Poissons Ratio (y) = 0.21669 0.23756
# Poissons Ratio (z) = 0.19780 0.22356
#
# Static dielectric constant tensor:
#      x y z
#    x 1.691040 0.318680 0.220580 
#    y 0.318680 0.266040 -1.552530 
#    z 0.220580 -1.552530 0.197930 
# 
# From -- ./inp_files/217053.got.cif
#   From: 2010.05.17/outbox.cif.g08.bks.cpg/sg2_109_cif.got.tgz:217053.got - 2010.06.03 11:33:40.
