data_PCOD9017658
_publ_section_title
;
Structure prediction by ZEFSAII (Michael W. Deem and Ramdas Pophale) SiO2 
 PCOD9017658
Probable space group: P -1
;
_chemical_formula_sum "Si O2"
_cell_formula_units_Z 14
_cell_length_a 27.332750
_cell_length_b 6.954087
_cell_length_c 14.485694
_cell_angle_alpha 45.343882
_cell_angle_beta 19.118414
_cell_angle_gamma 48.185037
_cell_volume 641.432126
_symmetry_space_group_name_H-M "P -1"
_symmetry_group_IT_number 2
_symmetry_cell_setting 'triclinic'
loop_
_space_group_symop_operation_xyz
x,y,z
-x,-y,-z
loop_
_atom_site_type_symbol
_atom_site_label
_atom_site_fract_x
_atom_site_fract_y
_atom_site_fract_z
Si Si1 0.864966 0.118430 0.259613
Si Si2 0.666448 0.008833 0.157312
Si Si3 0.008584 0.157439 0.706530
Si Si4 0.967795 0.244909 0.543639
Si Si5 0.575062 0.860091 0.826052
Si Si6 0.551477 0.249661 0.103845
Si Si7 0.773254 0.712827 0.234409
O O1 0.864182 0.435606 0.172716
O O2 0.718682 0.038181 0.491591
O O3 0.869260 0.971209 0.400706
O O4 0.000000 0.000000 0.000000
O O5 0.744237 0.769690 0.157991
O O6 0.500000 0.000000 0.500000
O O7 0.637378 0.044322 0.088255
O O8 0.786947 0.246657 0.882007
O O9 0.045903 0.183709 0.522788
O O10 0.980717 0.466397 0.681976
O O11 0.867348 0.958696 0.025741
O O12 0.000000 0.000000 0.500000
O O13 0.470007 0.853355 0.926466
O O14 0.620070 0.549247 0.873772
O O15 0.500000 0.000000 0.000000
O O16 0.385581 0.300475 0.426039
#
# Coordination Sequence:
#
# PCOD9017658 Si02
#       7
#     2   2   2   2   2   2   2
#     4  12  25  40  67  95 129 174 217 264 326 380
#     4   9  20  40  68  90 126 167 205 259 320 377
#     4  10  23  40  64  95 131 165 208 263 324 375
#     4  10  22  42  67  96 127 165 215 263 313 384
#     4  11  23  41  65  94 131 165 218 264 313 389
#     4  10  21  43  67  91 128 172 209 267 324 377
#     4  10  21  43  65  95 133 166 217 270 314 388
#
# _framework density 21.826160000000002
#
# number of rings (size 3 to 8) (size 9 to 14) (size 15 to 20)
#    0.000    1.714    1.429    2.143    4.000    1.143 
#    0.000    0.714    0.000    0.000    0.000    0.000 
#    0.000    0.000    0.000    0.000    0.000    0.000 
#
# Total GULP energy -78111.515544 kJ/mol
# GULP energy per Si atom -5579.393967 kJ/mol
# Density = 2.177648 g / cm^3
# Si number density = 21.826160 Si / 1000 Ang^3
#
#
#
# Elastic Constant Matrix: (Units=GPa)
#
#
# Indices 1 2 3 4 5 6 
#
# 1 153.9360 60.4183 -12.7670 4.3556 1.4547 -7.8430
# 2 60.4183 134.2004 31.7371 -20.7613 1.8405 7.9942
# 3 -12.7670 31.7371 76.6127 -12.0712 -2.8862 16.3541
# 4 4.3556 -20.7613 -12.0712 33.3262 3.1567 3.7275
# 5 1.4547 1.8405 -2.8862 3.1567 22.9999 -3.8521
# 6 -7.8430 7.9942 16.3541 3.7275 -3.8521 34.1421
#
#
#
# Elastic Compliance Matrix: (Units=1/GPa)
#
#
# Indices 1 2 3 4 5 6 
#
# 1 0.009139 -0.005555 0.002640 -0.004119 0.001219 0.002723
# 2 -0.005555 0.012354 -0.004271 0.007499 -0.002747 -0.003251
# 3 0.002640 -0.004271 0.017444 0.004051 0.000615 -0.007122
# 4 -0.004119 0.007499 0.004051 0.038392 -0.006707 -0.009590
# 5 0.001219 -0.002747 0.000615 -0.006707 0.045711 0.006518
# 6 0.002723 -0.003251 -0.007122 -0.009590 0.006518 0.035870
#
#
# Mechanical properties :
#
#
# Convention : Reuss Voigt Hill
#
# Bulk Modulus (GPa) = 40.70976 58.16956 49.43966
# Shear Modulus (GPa) = 27.55279 37.11768 32.33523
#
# Velocity S-wave (km/s) = 3.55685 4.12831 3.85319
# Velocity P-wave (km/s) = 5.96326 7.03087 6.51896
#
# Compressibility (1/GPa) = 0.02456414
#
# Stress axis : x y z
#
# Youngs Moduli (GPa) = 109.41920 80.94524 57.32736
#
# Poissons Ratio (x) = 0.44965 -0.15134
# Poissons Ratio (y) = 0.60782 0.24486
# Poissons Ratio (z) = -0.28885 0.34574
#
# Static dielectric constant tensor:
#      x y z
#    x 1.800600 -0.019720 -0.004160 
#    y -0.019720 1.774180 -0.019990 
#    z -0.004160 -0.019990 1.787030 
# 
# From -- ./inp_files/543636.got.cif
#   From: 2010.05.17/outbox.cif.g08.bks.cpg/sg2_272_cif.got.tgz:543636.got - 2010.06.03 11:33:40.
