data_PCOD9017869
_publ_section_title
;
Structure prediction by ZEFSAII (Michael W. Deem and Ramdas Pophale) SiO2 
 PCOD9017869
Probable space group: P -1
;
_chemical_formula_sum "Si O2"
_cell_formula_units_Z 13
_cell_length_a 11.767671
_cell_length_b 9.094710
_cell_length_c 5.226156
_cell_angle_alpha 103.643067
_cell_angle_beta 74.968904
_cell_angle_gamma 110.725014
_cell_volume 498.759300
_symmetry_space_group_name_H-M "P -1"
_symmetry_group_IT_number 2
_symmetry_cell_setting 'triclinic'
loop_
_space_group_symop_operation_xyz
x,y,z
-x,-y,-z
loop_
_atom_site_type_symbol
_atom_site_label
_atom_site_fract_x
_atom_site_fract_y
_atom_site_fract_z
Si Si1 0.374187 0.427191 0.282166
Si Si2 0.500000 0.000000 0.500000
Si Si3 0.564205 0.290234 0.252678
Si Si4 0.975988 0.783526 0.976345
Si Si5 0.847483 0.857895 0.570815
Si Si6 0.196520 0.554162 0.100572
Si Si7 0.793854 0.148834 0.468354
O O1 0.477512 0.343645 0.117637
O O2 0.434421 0.591139 0.464468
O O3 0.275289 0.295006 0.458141
O O4 0.288349 0.466232 0.135121
O O5 0.504113 0.888367 0.701283
O O6 0.351322 0.902069 0.523613
O O7 0.707666 0.334637 0.110652
O O8 0.901470 0.836826 0.809314
O O9 0.922429 0.592136 0.957523
O O10 0.116669 0.841140 0.822435
O O11 0.942704 0.846172 0.289693
O O12 0.812546 0.015274 0.593781
O O13 0.163940 0.676044 0.360377
#
# Coordination Sequence:
#
# PCOD9017869 Si02
#       7
#     2   1   2   2   2   2   2
#     4  10  21  43  67 102 143 196 249 294 367 455
#     4  12  26  44  68 106 152 188 242 314 382 430
#     4  11  22  43  68  99 147 192 249 298 372 451
#     4  11  26  49  80 107 150 203 255 306 378 453
#     4  11  24  49  76 112 146 202 254 308 376 451
#     4  11  24  44  72 109 142 198 248 314 376 443
#     4  12  26  48  68 115 151 191 253 316 379 446
#
# _framework density 26.064679000000002
#
# number of rings (size 3 to 8) (size 9 to 14) (size 15 to 20)
#    0.000    0.923    4.615    1.846    0.000    3.077 
#    5.538    3.077    0.000    0.000    0.000    0.000 
#    0.000    0.000    0.000    0.000    0.000    0.000 
#
# Total GULP energy -72567.141349 kJ/mol
# GULP energy per Si atom -5582.087796 kJ/mol
# Density = 2.600535 g / cm^3
# Si number density = 26.064679 Si / 1000 Ang^3
#
#
#
# Elastic Constant Matrix: (Units=GPa)
#
#
# Indices 1 2 3 4 5 6 
#
# 1 87.7105 39.6043 9.9313 10.0361 9.7775 -15.0529
# 2 39.6043 138.0815 28.5443 -26.7556 -16.6576 7.3134
# 3 9.9313 28.5443 92.6209 -8.7299 -5.5097 -7.8833
# 4 10.0361 -26.7556 -8.7299 33.6460 4.2708 -3.1289
# 5 9.7775 -16.6576 -5.5097 4.2708 33.1164 -11.8529
# 6 -15.0529 7.3134 -7.8833 -3.1289 -11.8529 49.5758
#
#
#
# Elastic Compliance Matrix: (Units=1/GPa)
#
#
# Indices 1 2 3 4 5 6 
#
# 1 0.017767 -0.008070 -0.000437 -0.010609 -0.006471 0.004299
# 2 -0.008070 0.013019 -0.001925 0.011234 0.006279 -0.002466
# 3 -0.000437 -0.001925 0.011929 0.001701 0.001857 0.002599
# 4 -0.010609 0.011234 0.001701 0.041736 0.003256 -0.001195
# 5 -0.006471 0.006279 0.001857 0.003256 0.037509 0.006578
# 6 0.004299 -0.002466 0.002599 -0.001195 0.006578 0.023751
#
#
# Mechanical properties :
#
#
# Convention : Reuss Voigt Hill
#
# Bulk Modulus (GPa) = 45.76063 52.73028 49.24546
# Shear Modulus (GPa) = 28.75901 39.28984 34.02443
#
# Velocity S-wave (km/s) = 3.32531 3.88673 3.61693
# Velocity P-wave (km/s) = 5.68667 6.35742 6.03138
#
# Compressibility (1/GPa) = 0.02185284
#
# Stress axis : x y z
#
# Youngs Moduli (GPa) = 56.28292 76.80788 83.83135
#
# Poissons Ratio (x) = 0.61981 0.03665
# Poissons Ratio (y) = 0.45418 0.16134
# Poissons Ratio (z) = 0.02460 0.14783
#
# Static dielectric constant tensor:
#      x y z
#    x 2.082380 -0.028240 0.033660 
#    y -0.028240 2.066020 -0.007450 
#    z 0.033660 -0.007450 2.044140 
# 
# From -- ./inp_files/59626.got.cif
#   From: 2010.05.17/outbox.cif.g08.bks.cpg/sg2_30_cif.got.tgz:59626.got - 2010.06.03 11:33:40.
