data_PCOD9017957
_publ_section_title
;
Structure prediction by ZEFSAII (Michael W. Deem and Ramdas Pophale) SiO2 
 PCOD9017957
Probable space group: P -1
;
_chemical_formula_sum "Si O2"
_cell_formula_units_Z 16
_cell_length_a 8.941294
_cell_length_b 16.857496
_cell_length_c 8.824135
_cell_angle_alpha 78.454552
_cell_angle_beta 130.290552
_cell_angle_gamma 130.327809
_cell_volume 716.831539
_symmetry_space_group_name_H-M "P -1"
_symmetry_group_IT_number 2
_symmetry_cell_setting 'triclinic'
loop_
_space_group_symop_operation_xyz
x,y,z
-x,-y,-z
loop_
_atom_site_type_symbol
_atom_site_label
_atom_site_fract_x
_atom_site_fract_y
_atom_site_fract_z
Si Si1 0.707370 0.773828 0.023473
Si Si2 0.771455 0.379277 0.475893
Si Si3 0.556203 0.894580 0.956303
Si Si4 0.826985 0.640617 0.319002
Si Si5 0.025481 0.237071 0.310719
Si Si6 0.472613 0.433651 0.364200
Si Si7 0.686313 0.979077 0.677376
Si Si8 0.101419 0.081259 0.394765
O O1 0.745786 0.697442 0.153162
O O2 0.005914 0.898664 0.140097
O O3 0.497437 0.707177 0.771876
O O4 0.572424 0.803052 0.032900
O O5 0.661733 0.408367 0.521785
O O6 0.000000 0.500000 0.500000
O O7 0.936187 0.342901 0.615930
O O8 0.296885 0.858832 0.877095
O O9 0.559462 0.906599 0.773542
O O10 0.834191 0.014093 0.143405
O O11 0.934081 0.699692 0.532603
O O12 0.574519 0.509781 0.251989
O O13 0.163676 0.315442 0.223249
O O14 0.166794 0.190560 0.444641
O O15 0.500000 0.500000 0.500000
O O16 0.500000 0.000000 0.500000
O O17 0.698379 0.914702 0.578224
O O18 0.000000 0.000000 0.500000
#
# Coordination Sequence:
#
# PCOD9017957 Si02
#       8
#     2   2   2   2   2   2   2   2
#     4  11  22  39  72  93 129 170 221 274 328 388
#     4  10  22  41  70  90 128 167 221 268 336 390
#     4  11  23  42  64  93 134 181 225 269 328 411
#     4  10  21  43  67  96 126 169 222 270 334 404
#     4  11  21  38  67  87 134 176 209 276 341 377
#     4   9  22  39  64  94 125 166 213 272 334 393
#     4  11  25  42  67 100 136 178 234 274 326 409
#     4  11  23  39  62  96 136 174 223 277 333 395
#
# _framework density 22.320447999999999
#
# number of rings (size 3 to 8) (size 9 to 14) (size 15 to 20)
#    0.000    1.500    1.250    4.875    3.500    2.000 
#    0.000    0.625   11.000    0.000    0.000    0.000 
#    0.000    0.000    0.000    0.000    0.000    0.000 
#
# Total GULP energy -89300.646345 kJ/mol
# GULP energy per Si atom -5581.290397 kJ/mol
# Density = 2.226965 g / cm^3
# Si number density = 22.320448 Si / 1000 Ang^3
#
#
#
# Elastic Constant Matrix: (Units=GPa)
#
#
# Indices 1 2 3 4 5 6 
#
# 1 180.9199 48.3823 29.8645 -16.3249 31.7404 -13.1013
# 2 48.3823 91.1772 13.5170 -23.6492 16.0939 4.1117
# 3 29.8645 13.5170 49.5978 -17.2812 20.4959 -2.5247
# 4 -16.3249 -23.6492 -17.2812 35.5905 -7.9881 4.1453
# 5 31.7404 16.0939 20.4959 -7.9881 30.3464 -3.6097
# 6 -13.1013 4.1117 -2.5247 4.1453 -3.6097 48.5150
#
#
#
# Elastic Compliance Matrix: (Units=1/GPa)
#
#
# Indices 1 2 3 4 5 6 
#
# 1 0.007634 -0.003203 -0.001851 -0.000882 -0.005038 0.001937
# 2 -0.003203 0.015739 0.002794 0.009661 -0.004724 -0.003231
# 3 -0.001851 0.002794 0.032464 0.012845 -0.018270 -0.001504
# 4 -0.000882 0.009661 0.012845 0.040196 -0.002775 -0.004029
# 5 -0.005038 -0.004724 -0.018270 -0.002775 0.052603 0.002240
# 6 0.001937 -0.003231 -0.001504 -0.004029 0.002240 0.021842
#
#
# Mechanical properties :
#
#
# Convention : Reuss Voigt Hill
#
# Bulk Modulus (GPa) = 19.48711 56.13583 37.81147
# Shear Modulus (GPa) = 26.02767 38.21912 32.12340
#
# Velocity S-wave (km/s) = 3.41851 4.14247 3.79778
# Velocity P-wave (km/s) = 4.93267 6.93431 6.01730
#
# Compressibility (1/GPa) = 0.05131597
#
# Stress axis : x y z
#
# Youngs Moduli (GPa) = 130.99380 63.53713 30.80334
#
# Poissons Ratio (x) = 0.20354 0.05700
# Poissons Ratio (y) = 0.41963 -0.08605
# Poissons Ratio (z) = 0.24241 -0.17750
#
# Static dielectric constant tensor:
#      x y z
#    x 1.884020 -0.020430 -0.054590 
#    y -0.020430 1.933230 0.005450 
#    z -0.054590 0.005450 1.918970 
# 
# From -- ./inp_files/214961.got.cif
#   From: 2010.05.17/outbox.cif.g08.bks.cpg/sg2_108_cif.got.tgz:214961.got - 2010.06.03 11:33:40.
