data_PCOD9017101
_publ_section_title
;
Structure prediction by ZEFSAII (Michael W. Deem and Ramdas Pophale) SiO2 
 PCOD9017101
Probable space group: P -1
;
_chemical_formula_sum "Si O2"
_cell_formula_units_Z 16
_cell_length_a 5.334590
_cell_length_b 21.708182
_cell_length_c 18.177219
_cell_angle_alpha 18.648598
_cell_angle_beta 83.081165
_cell_angle_gamma 82.497572
_cell_volume 667.303789
_symmetry_space_group_name_H-M "P -1"
_symmetry_group_IT_number 2
_symmetry_cell_setting 'triclinic'
loop_
_space_group_symop_operation_xyz
x,y,z
-x,-y,-z
loop_
_atom_site_type_symbol
_atom_site_label
_atom_site_fract_x
_atom_site_fract_y
_atom_site_fract_z
Si Si1 0.697294 0.175420 0.656747
Si Si2 0.823432 0.982411 0.098398
Si Si3 0.711660 0.841202 0.931944
Si Si4 0.225848 0.551734 0.878303
Si Si5 0.626838 0.196308 0.294775
Si Si6 0.031593 0.641852 0.017371
Si Si7 0.619321 0.459871 0.756659
Si Si8 0.046320 0.627820 0.282979
O O1 0.625422 0.400029 0.400528
O O2 0.460021 0.094709 0.804601
O O3 0.978597 0.135650 0.722083
O O4 0.685086 0.059866 0.711447
O O5 0.798950 0.196643 0.890402
O O6 0.000000 0.000000 0.000000
O O7 0.451775 0.759045 0.006661
O O8 0.894370 0.776162 0.932042
O O9 0.814377 0.727007 0.131626
O O10 0.308423 0.756914 0.675154
O O11 0.123203 0.516456 0.840685
O O12 0.442046 0.381996 0.071933
O O13 0.000000 0.500000 0.000000
O O14 0.500000 0.000000 0.500000
O O15 0.864785 0.220537 0.205323
O O16 0.252959 0.528010 0.183251
O O17 0.801688 0.500630 0.636686
O O18 0.000000 0.500000 0.500000
#
# Coordination Sequence:
#
# PCOD9017101 Si02
#       8
#     2   2   2   2   2   2   2   2
#     4  11  25  43  65  94 133 180 230 293 350 417
#     4  11  23  42  64  99 135 171 232 299 354 425
#     4  10  23  44  61  91 136 174 229 287 336 423
#     4   9  20  41  66  97 139 168 217 272 334 406
#     4  10  21  42  71 103 137 174 220 276 342 409
#     4  10  22  42  67  96 135 183 226 278 344 415
#     4  11  23  42  67  88 134 179 230 283 346 416
#     4  10  22  39  65  94 128 176 227 290 353 409
#
# _framework density 23.977087999999998
#
# number of rings (size 3 to 8) (size 9 to 14) (size 15 to 20)
#    0.000    1.750    1.250    1.875    5.250    3.500 
#    0.000   16.250    0.000    0.000    0.000    0.000 
#    0.000    0.000    0.000    0.000    0.000    0.000 
#
# Total GULP energy -89370.073892 kJ/mol
# GULP energy per Si atom -5585.629618 kJ/mol
# Density = 2.392251 g / cm^3
# Si number density = 23.977088 Si / 1000 Ang^3
#
#
#
# Elastic Constant Matrix: (Units=GPa)
#
#
# Indices 1 2 3 4 5 6 
#
# 1 47.4102 21.9802 2.7075 -0.4616 -14.3691 -7.3087
# 2 21.9802 134.5644 40.9576 -8.7704 -12.8891 2.1116
# 3 2.7075 40.9576 64.4743 -24.1253 -17.5498 3.9574
# 4 -0.4616 -8.7704 -24.1253 43.9615 2.4844 -7.5004
# 5 -14.3691 -12.8891 -17.5498 2.4844 34.5365 -7.7977
# 6 -7.3087 2.1116 3.9574 -7.5004 -7.7977 46.5978
#
#
#
# Elastic Compliance Matrix: (Units=1/GPa)
#
#
# Indices 1 2 3 4 5 6 
#
# 1 0.028866 -0.005334 0.007153 0.003552 0.015035 0.007249
# 2 -0.005334 0.010307 -0.007809 -0.002390 -0.002494 -0.001443
# 3 0.007153 -0.007809 0.029372 0.014445 0.014803 0.003783
# 4 0.003552 -0.002390 0.014445 0.030790 0.006967 0.005560
# 5 0.015035 -0.002494 0.014803 0.006967 0.043470 0.009610
# 6 0.007249 -0.001443 0.003783 0.005560 0.009610 0.024844
#
#
# Mechanical properties :
#
#
# Convention : Reuss Voigt Hill
#
# Bulk Modulus (GPa) = 17.67841 41.97105 29.82473
# Shear Modulus (GPa) = 25.19074 37.07272 31.13173
#
# Velocity S-wave (km/s) = 3.24484 3.93641 3.60723
# Velocity P-wave (km/s) = 4.62901 6.18086 5.46034
#
# Compressibility (1/GPa) = 0.05656617
#
# Stress axis : x y z
#
# Youngs Moduli (GPa) = 34.64253 97.01792 34.04566
#
# Poissons Ratio (x) = 0.51754 -0.24353
# Poissons Ratio (y) = 0.18480 0.26585
# Poissons Ratio (z) = -0.24780 0.75757
#
# Static dielectric constant tensor:
#      x y z
#    x 2.105010 -0.128520 -0.087540 
#    y -0.128520 2.030020 0.094300 
#    z -0.087540 0.094300 1.945640 
# 
# From -- ./inp_files/52690.got.cif
#   From: 2010.05.17/outbox.cif.g08.bks.cpg/sg2_27_cif.got.tgz:52690.got - 2010.06.03 11:33:40.
