data_PCOD9017238
_publ_section_title
;
Structure prediction by ZEFSAII (Michael W. Deem and Ramdas Pophale) SiO2 
 PCOD9017238
Probable space group: P -1
;
_chemical_formula_sum "Si O2"
_cell_formula_units_Z 12
_cell_length_a 8.778109
_cell_length_b 12.067721
_cell_length_c 12.790453
_cell_angle_alpha 48.972720
_cell_angle_beta 32.184670
_cell_angle_gamma 37.834467
_cell_volume 442.376208
_symmetry_space_group_name_H-M "P -1"
_symmetry_group_IT_number 2
_symmetry_cell_setting 'triclinic'
loop_
_space_group_symop_operation_xyz
x,y,z
-x,-y,-z
loop_
_atom_site_type_symbol
_atom_site_label
_atom_site_fract_x
_atom_site_fract_y
_atom_site_fract_z
Si Si1 0.512195 0.959535 0.711165
Si Si2 0.877771 0.117997 0.841148
Si Si3 0.802709 0.585937 0.670969
Si Si4 0.138731 0.753405 0.828216
Si Si5 0.365243 0.342204 0.834429
Si Si6 0.481347 0.294806 0.568460
O O1 0.625673 0.084029 0.609623
O O2 0.178268 0.101381 0.744594
O O3 0.739020 0.774106 0.627843
O O4 0.364073 0.904052 0.926114
O O5 0.635877 0.285617 0.804844
O O6 0.070487 0.946366 0.759710
O O7 0.410703 0.642097 0.835328
O O8 0.000000 0.500000 0.500000
O O9 0.064059 0.435236 0.696802
O O10 0.316674 0.679421 0.657240
O O11 0.763844 0.786770 0.033348
O O12 0.517677 0.343979 0.633847
O O13 0.000000 0.500000 0.000000
#
# Coordination Sequence:
#
# PCOD9017238 Si02
#       6
#     2   2   2   2   2   2
#     4  10  21  42  72  96 126 179 212 269 332 375
#     4  10  22  43  65  97 132 164 227 267 312 405
#     4   9  21  40  65 103 132 159 222 275 308 396
#     4  10  23  43  65  97 131 167 221 270 316 390
#     4  12  26  43  65  96 135 175 213 272 330 382
#     4  11  24  43  72  96 129 175 218 265 334 382
#
# _framework density 27.126231000000001
#
# number of rings (size 3 to 8) (size 9 to 14) (size 15 to 20)
#    0.000    1.667    1.667    1.500    2.333    8.000 
#    3.000    0.000    0.000    0.000    0.000    0.000 
#    0.000    0.000    0.000    0.000    0.000    0.000 
#
# Total GULP energy -67165.970819 kJ/mol
# GULP energy per Si atom -5597.164235 kJ/mol
# Density = 2.706449 g / cm^3
# Si number density = 27.126231 Si / 1000 Ang^3
#
#
#
# Elastic Constant Matrix: (Units=GPa)
#
#
# Indices 1 2 3 4 5 6 
#
# 1 125.2927 55.4958 50.5555 1.6363 26.6417 -13.4227
# 2 55.4958 118.8857 27.1101 13.3765 9.6027 9.6857
# 3 50.5555 27.1101 135.1619 6.9263 17.6311 -6.5565
# 4 1.6363 13.3765 6.9263 27.3708 11.7771 -0.2023
# 5 26.6417 9.6027 17.6311 11.7771 46.1436 -0.8907
# 6 -13.4227 9.6857 -6.5565 -0.2023 -0.8907 43.2163
#
#
#
# Elastic Compliance Matrix: (Units=1/GPa)
#
#
# Indices 1 2 3 4 5 6 
#
# 1 0.014048 -0.006394 -0.003114 0.006149 -0.007060 0.005207
# 2 -0.006394 0.012407 -0.000357 -0.006878 0.002909 -0.004793
# 3 -0.003114 -0.000357 0.008878 -0.001385 -0.001158 0.000429
# 4 0.006149 -0.006878 -0.001385 0.045564 -0.013158 0.003183
# 5 -0.007060 0.002909 -0.001158 -0.013158 0.028895 -0.002486
# 6 0.005207 -0.004793 0.000429 0.003183 -0.002486 0.025860
#
#
# Mechanical properties :
#
#
# Convention : Reuss Voigt Hill
#
# Bulk Modulus (GPa) = 64.08276 71.74035 67.91156
# Shear Modulus (GPa) = 31.13699 39.75805 35.44752
#
# Velocity S-wave (km/s) = 3.39168 3.83256 3.61884
# Velocity P-wave (km/s) = 6.24605 6.78888 6.52312
#
# Compressibility (1/GPa) = 0.01560482
#
# Stress axis : x y z
#
# Youngs Moduli (GPa) = 71.18325 80.60214 112.64303
#
# Poissons Ratio (x) = 0.51533 0.35075
# Poissons Ratio (y) = 0.45511 0.04016
# Poissons Ratio (z) = 0.22165 0.02874
#
# Static dielectric constant tensor:
#      x y z
#    x 2.145100 0.045260 -0.073430 
#    y 0.045260 2.195040 -0.057830 
#    z -0.073430 -0.057830 2.168330 
# 
# From -- ./inp_files/165541.got.cif
#   From: 2010.05.17/outbox.cif.g08.bks.cpg/sg2_83_cif.got.tgz:165541.got - 2010.06.03 11:33:40.
