data_PCOD9017386
_publ_section_title
;
Structure prediction by ZEFSAII (Michael W. Deem and Ramdas Pophale) SiO2 
 PCOD9017386
Probable space group: P -1
;
_chemical_formula_sum "Si O2"
_cell_formula_units_Z 12
_cell_length_a 9.612241
_cell_length_b 11.880813
_cell_length_c 11.966562
_cell_angle_alpha 142.778439
_cell_angle_beta 37.930749
_cell_angle_gamma 122.550419
_cell_volume 493.025442
_symmetry_space_group_name_H-M "P -1"
_symmetry_group_IT_number 2
_symmetry_cell_setting 'triclinic'
loop_
_space_group_symop_operation_xyz
x,y,z
-x,-y,-z
loop_
_atom_site_type_symbol
_atom_site_label
_atom_site_fract_x
_atom_site_fract_y
_atom_site_fract_z
Si Si1 0.011769 0.836983 0.270921
Si Si2 0.140618 0.198211 0.116254
Si Si3 0.343036 0.920069 0.949263
Si Si4 0.206756 0.431762 0.929222
Si Si5 0.808349 0.374574 0.293552
Si Si6 0.692185 0.448175 0.670749
O O1 0.109199 0.923344 0.169523
O O2 0.802292 0.745105 0.287597
O O3 0.182624 0.637659 0.047985
O O4 0.000000 0.000000 0.500000
O O5 0.271487 0.366305 0.144203
O O6 0.995738 0.189303 0.087696
O O7 0.927644 0.283004 0.404729
O O8 0.318165 0.037739 0.943742
O O9 0.391105 0.701004 0.703324
O O10 0.500000 0.000000 0.000000
O O11 0.455390 0.389910 0.798230
O O12 0.976679 0.458974 0.174299
O O13 0.706853 0.489366 0.559570
#
# Coordination Sequence:
#
# PCOD9017386 Si02
#       6
#     2   2   2   2   2   2
#     4  10  24  38  59  92 131 162 204 255 308 377
#     4   9  20  39  60  93 120 155 215 249 302 382
#     4  11  22  38  61  92 124 164 203 251 317 370
#     4  10  21  43  60  92 126 161 211 254 309 369
#     4   9  21  39  64  90 119 164 203 262 301 362
#     4   9  20  38  64  87 119 162 203 256 310 352
#
# _framework density 24.339514000000001
#
# number of rings (size 3 to 8) (size 9 to 14) (size 15 to 20)
#    1.000    1.333    0.000    1.500    4.667    0.667 
#    0.000    8.333    0.000    0.000    0.000    0.000 
#    0.000    0.000    0.000    0.000    0.000    0.000 
#
# Total GULP energy -66818.314761 kJ/mol
# GULP energy per Si atom -5568.192897 kJ/mol
# Density = 2.428412 g / cm^3
# Si number density = 24.339514 Si / 1000 Ang^3
#
#
#
# Elastic Constant Matrix: (Units=GPa)
#
#
# Indices 1 2 3 4 5 6 
#
# 1 117.5376 48.7345 24.1862 11.7486 23.2829 37.0547
# 2 48.7345 85.8265 46.7204 0.7343 1.6970 12.4645
# 3 24.1862 46.7204 55.3850 -2.9641 10.2032 12.5692
# 4 11.7486 0.7343 -2.9641 36.6947 4.0755 2.3473
# 5 23.2829 1.6970 10.2032 4.0755 36.6064 -1.3137
# 6 37.0547 12.4645 12.5692 2.3473 -1.3137 61.4579
#
#
#
# Elastic Compliance Matrix: (Units=1/GPa)
#
#
# Indices 1 2 3 4 5 6 
#
# 1 0.018310 -0.012514 0.007111 -0.002937 -0.013084 -0.010124
# 2 -0.012514 0.030999 -0.024748 -0.000561 0.013721 0.006634
# 3 0.007111 -0.024748 0.040698 0.003735 -0.015424 -0.008064
# 4 -0.002937 -0.000561 0.003735 0.028768 -0.002351 -0.000028
# 5 -0.013084 0.013721 -0.015424 -0.002351 0.039895 0.009203
# 6 -0.010124 0.006634 -0.008064 -0.000028 0.009203 0.022877
#
#
# Mechanical properties :
#
#
# Convention : Reuss Voigt Hill
#
# Bulk Modulus (GPa) = 33.66401 55.33680 44.50040
# Shear Modulus (GPa) = 19.86104 36.22567 28.04336
#
# Velocity S-wave (km/s) = 2.85967 3.86210 3.39805
# Velocity P-wave (km/s) = 4.97641 6.53242 5.80677
#
# Compressibility (1/GPa) = 0.02970532
#
# Stress axis : x y z
#
# Youngs Moduli (GPa) = 54.61447 32.25930 24.57139
#
# Poissons Ratio (x) = 0.40369 -0.17472
# Poissons Ratio (y) = 0.68343 0.60809
# Poissons Ratio (z) = -0.38836 0.79835
#
# Static dielectric constant tensor:
#      x y z
#    x 2.011050 -0.014870 -0.017990 
#    y -0.014870 1.949150 0.059780 
#    z -0.017990 0.059780 1.999000 
# 
# From -- ./inp_files/388485.got.cif
#   From: 2010.05.17/outbox.cif.g08.bks.cpg/sg2_195_cif.got.tgz:388485.got - 2010.06.03 11:33:40.
