data_PCOD9017655
_publ_section_title
;
Structure prediction by ZEFSAII (Michael W. Deem and Ramdas Pophale) SiO2 
 PCOD9017655
Probable space group: P -1
;
_chemical_formula_sum "Si O2"
_cell_formula_units_Z 16
_cell_length_a 16.849392
_cell_length_b 9.515430
_cell_length_c 10.550996
_cell_angle_alpha 87.462312
_cell_angle_beta 71.022824
_cell_angle_gamma 34.163286
_cell_volume 813.849020
_symmetry_space_group_name_H-M "P -1"
_symmetry_group_IT_number 2
_symmetry_cell_setting 'triclinic'
loop_
_space_group_symop_operation_xyz
x,y,z
-x,-y,-z
loop_
_atom_site_type_symbol
_atom_site_label
_atom_site_fract_x
_atom_site_fract_y
_atom_site_fract_z
Si Si1 0.971095 0.190520 0.675644
Si Si2 0.343111 0.183672 0.162183
Si Si3 0.680041 0.611353 0.349637
Si Si4 0.688694 0.103021 0.826474
Si Si5 0.991602 0.845204 0.644471
Si Si6 0.325193 0.701934 0.648562
Si Si7 0.497535 0.899212 0.692078
Si Si8 0.569677 0.312062 0.164184
O O1 0.831259 0.492188 0.796743
O O2 0.977753 0.194387 0.519913
O O3 0.920081 0.099272 0.719409
O O4 0.157277 0.951037 0.641241
O O5 0.375426 0.197175 0.285241
O O6 0.334867 0.027665 0.177426
O O7 0.500000 0.000000 0.000000
O O8 0.668599 0.470980 0.307681
O O9 0.547765 0.798870 0.525420
O O10 0.845675 0.401295 0.347864
O O11 0.652093 0.775244 0.257224
O O12 0.580065 0.359950 0.780790
O O13 0.874340 0.883694 0.723645
O O14 0.642950 0.203689 0.990813
O O15 0.500000 0.500000 0.500000
O O16 0.312164 0.810062 0.779087
O O17 0.480946 0.773509 0.772215
#
# Coordination Sequence:
#
# PCOD9017655 Si02
#       8
#     2   2   2   2   2   2   2   2
#     4  10  23  40  70  96 131 170 214 271 324 380
#     4  12  24  43  65  98 133 173 214 266 325 387
#     4  10  22  39  66  97 126 167 210 272 327 376
#     4  11  25  40  66  92 128 174 217 267 324 385
#     4  10  21  43  65  95 129 166 220 269 322 383
#     4  11  21  40  67  99 128 169 218 267 323 384
#     4  11  21  41  65  92 130 166 215 266 325 381
#     4  11  23  42  63  93 127 172 220 263 318 394
#
# _framework density 19.659666000000001
#
# number of rings (size 3 to 8) (size 9 to 14) (size 15 to 20)
#    0.000    1.250    3.750    2.250    3.500    1.500 
#    2.250    2.500    0.000    0.000    0.000    0.000 
#    0.000    0.000    0.000    0.000    0.000    0.000 
#
# Total GULP energy -89194.792109 kJ/mol
# GULP energy per Si atom -5574.674507 kJ/mol
# Density = 1.961492 g / cm^3
# Si number density = 19.659666 Si / 1000 Ang^3
#
#
#
# Elastic Constant Matrix: (Units=GPa)
#
#
# Indices 1 2 3 4 5 6 
#
# 1 145.0522 52.3147 21.4088 -2.0327 -6.8059 7.2724
# 2 52.3147 121.1574 22.6111 -0.3678 -13.1531 13.6018
# 3 21.4088 22.6111 35.6011 -0.6950 -4.8573 11.0936
# 4 -2.0327 -0.3678 -0.6950 24.1575 1.6543 1.7101
# 5 -6.8059 -13.1531 -4.8573 1.6543 35.3147 -9.4551
# 6 7.2724 13.6018 11.0936 1.7101 -9.4551 30.1283
#
#
#
# Elastic Compliance Matrix: (Units=1/GPa)
#
#
# Indices 1 2 3 4 5 6 
#
# 1 0.008481 -0.003095 -0.003283 0.000520 0.000161 0.000580
# 2 -0.003095 0.010825 -0.004113 -0.000245 0.002382 -0.001864
# 3 -0.003283 -0.004113 0.036033 0.001469 -0.000156 -0.010751
# 4 0.000520 -0.000245 0.001469 0.041937 -0.002773 -0.003806
# 5 0.000161 0.002382 -0.000156 -0.002773 0.031772 0.009071
# 6 0.000580 -0.001864 -0.010751 -0.003806 0.009071 0.040914
#
#
# Mechanical properties :
#
#
# Convention : Reuss Voigt Hill
#
# Bulk Modulus (GPa) = 29.10624 54.94221 42.02423
# Shear Modulus (GPa) = 24.70419 31.61852 28.16136
#
# Velocity S-wave (km/s) = 3.54869 4.01470 3.78887
# Velocity P-wave (km/s) = 5.62389 7.03547 6.36891
#
# Compressibility (1/GPa) = 0.03435689
#
# Stress axis : x y z
#
# Youngs Moduli (GPa) = 117.91502 92.37945 27.75270
#
# Poissons Ratio (x) = 0.28595 0.09110
# Poissons Ratio (y) = 0.36499 0.11414
# Poissons Ratio (z) = 0.38707 0.37993
#
# Static dielectric constant tensor:
#      x y z
#    x 1.667650 0.017780 -0.002220 
#    y 0.017780 1.776700 0.026840 
#    z -0.002220 0.026840 1.699620 
# 
# From -- ./inp_files/404855.got.cif
#   From: 2010.05.17/outbox.cif.g08.bks.cpg/sg2_203_cif.got.tgz:404855.got - 2010.06.03 11:33:40.
