data_PCOD9017121
_publ_section_title
;
Structure prediction by ZEFSAII (Michael W. Deem and Ramdas Pophale) SiO2 
 PCOD9017121
Probable space group: P -1
;
_chemical_formula_sum "Si O2"
_cell_formula_units_Z 15
_cell_length_a 19.870725
_cell_length_b 8.968362
_cell_length_c 6.700235
_cell_angle_alpha 97.943002
_cell_angle_beta 105.378181
_cell_angle_gamma 137.349602
_cell_volume 670.905403
_symmetry_space_group_name_H-M "P -1"
_symmetry_group_IT_number 2
_symmetry_cell_setting 'triclinic'
loop_
_space_group_symop_operation_xyz
x,y,z
-x,-y,-z
loop_
_atom_site_type_symbol
_atom_site_label
_atom_site_fract_x
_atom_site_fract_y
_atom_site_fract_z
Si Si1 0.000000 0.000000 0.000000
Si Si2 0.973685 0.626293 0.073799
Si Si3 0.230210 0.359724 0.979655
Si Si4 0.398826 0.892599 0.038014
Si Si5 0.545701 0.326249 0.531174
Si Si6 0.238467 0.863441 0.978466
Si Si7 0.367748 0.235756 0.515812
Si Si8 0.165764 0.948863 0.617699
O O1 0.994357 0.181129 0.013129
O O2 0.892899 0.811078 0.045463
O O3 0.053154 0.787853 0.363558
O O4 0.836438 0.378081 0.983830
O O5 0.000000 0.500000 0.000000
O O6 0.293997 0.590940 0.929793
O O7 0.328974 0.505791 0.254928
O O8 0.210025 0.175585 0.801958
O O9 0.465582 0.056421 0.324786
O O10 0.332274 0.931141 0.937007
O O11 0.500000 0.000000 0.000000
O O12 0.467585 0.281440 0.623719
O O13 0.572210 0.496955 0.412814
O O14 0.151974 0.801670 0.752573
O O15 0.305719 0.091150 0.226305
O O16 0.268104 0.068095 0.572307
#
# Coordination Sequence:
#
# PCOD9017121 Si02
#       8
#     1   2   2   2   2   2   2   2
#     4  12  28  50  80 106 156 200 248 324 368 450
#     4  12  25  51  76 109 148 200 252 309 377 442
#     4  12  25  47  69 110 145 193 250 302 382 441
#     4  11  25  45  68 107 149 196 245 306 373 454
#     4  10  22  43  70 100 151 188 242 312 369 443
#     4  11  23  47  70 109 147 191 254 306 375 449
#     4  10  21  42  71 108 140 189 246 308 375 441
#     4  12  25  43  78 106 144 197 249 311 375 453
#
# _framework density 22.357844
#
# number of rings (size 3 to 8) (size 9 to 14) (size 15 to 20)
#    0.000    0.800    4.000    3.200    1.867    1.067 
#    7.200    0.000    0.000    0.000    0.000    0.000 
#    0.000    0.000    0.000    0.000    0.000    0.000 
#
# Total GULP energy -83564.653437 kJ/mol
# GULP energy per Si atom -5570.976896 kJ/mol
# Density = 2.230696 g / cm^3
# Si number density = 22.357844 Si / 1000 Ang^3
#
#
#
# Elastic Constant Matrix: (Units=GPa)
#
#
# Indices 1 2 3 4 5 6 
#
# 1 94.7279 13.9879 5.5514 -6.2673 -21.6684 8.3772
# 2 13.9879 108.5225 9.0625 9.3467 -6.8683 -3.5111
# 3 5.5514 9.0625 45.3999 13.1440 1.0102 -12.2856
# 4 -6.2673 9.3467 13.1440 21.7222 1.8881 -5.0923
# 5 -21.6684 -6.8683 1.0102 1.8881 21.0893 -1.3781
# 6 8.3772 -3.5111 -12.2856 -5.0923 -1.3781 49.3176
#
#
#
# Elastic Compliance Matrix: (Units=1/GPa)
#
#
# Indices 1 2 3 4 5 6 
#
# 1 0.014885 -0.001212 -0.004215 0.005481 0.014434 -0.002696
# 2 -0.001212 0.009964 -0.000497 -0.004455 0.002448 0.000400
# 3 -0.004215 -0.000497 0.029291 -0.016947 -0.003979 0.006116
# 4 0.005481 -0.004455 -0.016947 0.059985 -0.000332 0.000715
# 5 0.014434 0.002448 -0.003979 -0.000332 0.063165 -0.001538
# 6 -0.002696 0.000400 0.006116 0.000715 -0.001538 0.022318
#
#
# Mechanical properties :
#
#
# Convention : Reuss Voigt Hill
#
# Bulk Modulus (GPa) = 23.64580 33.98378 28.81479
# Shear Modulus (GPa) = 22.16750 33.09571 27.63161
#
# Velocity S-wave (km/s) = 3.15220 3.85161 3.51932
# Velocity P-wave (km/s) = 4.88339 5.91716 5.42496
#
# Compressibility (1/GPa) = 0.04229081
#
# Stress axis : x y z
#
# Youngs Moduli (GPa) = 67.18008 100.36052 34.14000
#
# Poissons Ratio (x) = 0.12167 0.14392
# Poissons Ratio (y) = 0.08144 0.01697
# Poissons Ratio (z) = 0.28320 0.04989
#
# Static dielectric constant tensor:
#      x y z
#    x 1.887040 -0.031420 0.024840 
#    y -0.031420 1.832650 -0.012080 
#    z 0.024840 -0.012080 1.804900 
# 
# From -- ./inp_files/117174.got.cif
#   From: 2010.05.17/outbox.cif.g08.bks.cpg/sg2_59_cif.got.tgz:117174.got - 2010.06.03 11:33:40.
