data_PCOD9017599
_publ_section_title
;
Structure prediction by ZEFSAII (Michael W. Deem and Ramdas Pophale) SiO2 
 PCOD9017599
Probable space group: P -1
;
_chemical_formula_sum "Si O2"
_cell_formula_units_Z 16
_cell_length_a 5.205639
_cell_length_b 15.484782
_cell_length_c 9.253453
_cell_angle_alpha 69.369217
_cell_angle_beta 74.112937
_cell_angle_gamma 104.426440
_cell_volume 619.949136
_symmetry_space_group_name_H-M "P -1"
_symmetry_group_IT_number 2
_symmetry_cell_setting 'triclinic'
loop_
_space_group_symop_operation_xyz
x,y,z
-x,-y,-z
loop_
_atom_site_type_symbol
_atom_site_label
_atom_site_fract_x
_atom_site_fract_y
_atom_site_fract_z
Si Si1 0.913091 0.550151 0.271883
Si Si2 0.979908 0.907669 0.460129
Si Si3 0.759716 0.210810 0.667939
Si Si4 0.559332 0.370818 0.630666
Si Si5 0.628380 0.165493 0.045214
Si Si6 0.189631 0.636422 0.901119
Si Si7 0.031987 0.966337 0.853992
Si Si8 0.809349 0.692080 0.687145
O O1 0.701583 0.445404 0.433124
O O2 0.477823 0.625551 0.803686
O O3 0.199387 0.591344 0.302263
O O4 0.011135 0.550923 0.092622
O O5 0.248444 0.883285 0.369942
O O6 0.818520 0.805110 0.629966
O O7 0.852385 0.934872 0.319534
O O8 0.000000 0.000000 0.500000
O O9 0.522414 0.259312 0.661843
O O10 0.760728 0.186323 0.850150
O O11 0.044869 0.298910 0.499916
O O12 0.274222 0.381877 0.725065
O O13 0.703135 0.267068 0.062603
O O14 0.288292 0.103408 0.110570
O O15 0.769976 0.097315 0.143305
O O16 0.006408 0.663913 0.788295
O O17 0.000000 0.000000 0.000000
#
# Coordination Sequence:
#
# PCOD9017599 Si02
#       8
#     2   2   2   2   2   2   2   2
#     4  10  22  38  74  99 138 171 216 278 329 412
#     4  10  22  45  64  91 132 185 219 272 342 398
#     4  10  24  43  67 100 136 176 222 284 336 398
#     4  10  21  43  65 108 133 170 220 274 343 389
#     4  12  25  40  69  95 128 169 229 287 325 390
#     4  12  22  44  64 100 130 177 224 267 335 398
#     4  12  25  43  63  96 126 167 232 285 329 380
#     4  10  26  41  64  94 138 177 219 271 338 403
#
# _framework density 25.808568000000001
#
# number of rings (size 3 to 8) (size 9 to 14) (size 15 to 20)
#    0.750    0.500    2.500    3.375    1.750    4.000 
#    0.000    3.750    0.000    0.000    0.000    0.000 
#    0.000    0.000    0.000    0.000    0.000    0.000 
#
# Total GULP energy -89584.046302 kJ/mol
# GULP energy per Si atom -5599.002894 kJ/mol
# Density = 2.574983 g / cm^3
# Si number density = 25.808568 Si / 1000 Ang^3
#
#
#
# Elastic Constant Matrix: (Units=GPa)
#
#
# Indices 1 2 3 4 5 6 
#
# 1 181.3932 24.9583 67.5606 6.8149 2.7655 -1.9047
# 2 24.9583 80.3551 12.7736 15.4397 7.5883 -11.0017
# 3 67.5606 12.7736 182.9294 14.2180 -1.0580 -7.2578
# 4 6.8149 15.4397 14.2180 47.2623 -7.5982 1.0851
# 5 2.7655 7.5883 -1.0580 -7.5982 24.6105 -3.7280
# 6 -1.9047 -11.0017 -7.2578 1.0851 -3.7280 42.6657
#
#
#
# Elastic Compliance Matrix: (Units=1/GPa)
#
#
# Indices 1 2 3 4 5 6 
#
# 1 0.006630 -0.001798 -0.002373 0.000313 -0.000288 -0.000604
# 2 -0.001798 0.015089 0.000160 -0.005711 -0.005679 0.003487
# 3 -0.002373 0.000160 0.006506 -0.001669 0.000148 0.001097
# 4 0.000313 -0.005711 -0.001669 0.024985 0.009128 -0.001580
# 5 -0.000288 -0.005679 0.000148 0.009128 0.045589 0.002299
# 6 -0.000604 0.003487 0.001097 -0.001580 0.002299 0.024738
#
#
# Mechanical properties :
#
#
# Convention : Reuss Voigt Hill
#
# Bulk Modulus (GPa) = 49.49860 72.80698 61.15279
# Shear Modulus (GPa) = 36.15481 45.53338 40.84410
#
# Velocity S-wave (km/s) = 3.74690 4.20488 3.98248
# Velocity P-wave (km/s) = 6.15953 7.20044 6.70023
#
# Compressibility (1/GPa) = 0.02020259
#
# Stress axis : x y z
#
# Youngs Moduli (GPa) = 150.81917 66.27451 153.70408
#
# Poissons Ratio (x) = 0.11915 0.36477
# Poissons Ratio (y) = 0.27115 -0.02455
# Poissons Ratio (z) = 0.35793 -0.01059
#
# Static dielectric constant tensor:
#      x y z
#    x 2.026890 0.058710 -0.032360 
#    y 0.058710 2.033850 0.002790 
#    z -0.032360 0.002790 2.023660 
# 
# From -- ./inp_files/141133.got.cif
#   From: 2010.05.17/outbox.cif.g08.bks.cpg/sg2_71_cif.got.tgz:141133.got - 2010.06.03 11:33:40.
