data_PCOD9017453
_publ_section_title
;
Structure prediction by ZEFSAII (Michael W. Deem and Ramdas Pophale) SiO2 
 PCOD9017453
Probable space group: P -1
;
_chemical_formula_sum "Si O2"
_cell_formula_units_Z 16
_cell_length_a 12.741144
_cell_length_b 8.630108
_cell_length_c 8.323216
_cell_angle_alpha 51.728870
_cell_angle_beta 74.773628
_cell_angle_gamma 94.896802
_cell_volume 655.074310
_symmetry_space_group_name_H-M "P -1"
_symmetry_group_IT_number 2
_symmetry_cell_setting 'triclinic'
loop_
_space_group_symop_operation_xyz
x,y,z
-x,-y,-z
loop_
_atom_site_type_symbol
_atom_site_label
_atom_site_fract_x
_atom_site_fract_y
_atom_site_fract_z
Si Si1 0.659341 0.183023 0.208336
Si Si2 0.230387 0.162815 0.618229
Si Si3 0.636880 0.619839 0.894623
Si Si4 0.584564 0.011021 0.710271
Si Si5 0.939599 0.585321 0.109124
Si Si6 0.970787 0.001086 0.699120
Si Si7 0.735684 0.414234 0.531967
Si Si8 0.898759 0.305692 0.734394
O O1 0.624798 0.098998 0.457711
O O2 0.741018 0.046689 0.215354
O O3 0.550918 0.098508 0.187320
O O4 0.687529 0.435232 0.044196
O O5 0.301451 0.274282 0.361669
O O6 0.267459 0.350890 0.611183
O O7 0.095318 0.101170 0.670649
O O8 0.638285 0.830315 0.855509
O O9 0.500000 0.500000 0.000000
O O10 0.624325 0.219295 0.666574
O O11 0.833167 0.426614 0.348331
O O12 0.042022 0.700490 0.116761
O O13 0.000000 0.500000 0.000000
O O14 0.904744 0.765920 0.924832
O O15 0.000000 0.000000 0.500000
O O16 0.893739 0.124149 0.728833
O O17 0.785831 0.368777 0.712526
O O18 0.000000 0.500000 0.500000
#
# Coordination Sequence:
#
# PCOD9017453 Si02
#       8
#     2   2   2   2   2   2   2   2
#     4   9  20  41  66  98 131 170 229 283 333 411
#     4  11  24  40  66  97 140 176 225 280 345 402
#     4   9  20  42  68  96 127 173 226 280 339 406
#     4   9  20  41  69  95 132 176 222 281 340 406
#     4  11  25  42  68  95 134 179 233 280 343 408
#     4  12  25  42  65  98 137 184 225 280 345 408
#     4  11  24  44  63 102 138 180 225 284 349 405
#     4  10  21  43  63  90 141 173 222 290 328 400
#
# _framework density 24.424709
#
# number of rings (size 3 to 8) (size 9 to 14) (size 15 to 20)
#    0.000    1.750    2.500    2.625    7.000    2.500 
#    0.000    2.500    0.000    0.000    0.000    0.000 
#    0.000    0.000    0.000    0.000    0.000    0.000 
#
# Total GULP energy -89296.916389 kJ/mol
# GULP energy per Si atom -5581.057274 kJ/mol
# Density = 2.436912 g / cm^3
# Si number density = 24.424709 Si / 1000 Ang^3
#
#
#
# Elastic Constant Matrix: (Units=GPa)
#
#
# Indices 1 2 3 4 5 6 
#
# 1 76.7993 36.8980 17.9881 -24.0943 0.9609 -0.8457
# 2 36.8980 110.3796 16.2733 -33.5624 15.4942 -12.3128
# 3 17.9881 16.2733 97.1439 -29.6821 8.7204 -9.2543
# 4 -24.0943 -33.5624 -29.6821 46.8743 -6.7408 2.7698
# 5 0.9609 15.4942 8.7204 -6.7408 38.6611 -13.4092
# 6 -0.8457 -12.3128 -9.2543 2.7698 -13.4092 48.7894
#
#
#
# Elastic Compliance Matrix: (Units=1/GPa)
#
#
# Indices 1 2 3 4 5 6 
#
# 1 0.016967 -0.004277 -0.001055 0.005351 0.002229 -0.000677
# 2 -0.004277 0.013323 0.001401 0.007600 -0.003472 0.002168
# 3 -0.001055 0.001401 0.013155 0.008482 -0.001336 0.001982
# 4 0.005351 0.007600 0.008482 0.035023 0.001747 0.002111
# 5 0.002229 -0.003472 -0.001336 0.001747 0.030282 0.007132
# 6 -0.000677 0.002168 0.001982 0.002111 0.007132 0.023248
#
#
# Mechanical properties :
#
#
# Convention : Reuss Voigt Hill
#
# Bulk Modulus (GPa) = 28.10408 47.40461 37.75435
# Shear Modulus (GPa) = 32.95523 41.07586 37.01555
#
# Velocity S-wave (km/s) = 3.67721 4.10534 3.89716
# Velocity P-wave (km/s) = 5.43696 6.47475 5.97842
#
# Compressibility (1/GPa) = 0.03558202
#
# Stress axis : x y z
#
# Youngs Moduli (GPa) = 58.93966 75.05676 76.01711
#
# Poissons Ratio (x) = 0.32105 0.08017
# Poissons Ratio (y) = 0.25211 -0.10648
# Poissons Ratio (z) = 0.06216 -0.10513
#
# Static dielectric constant tensor:
#      x y z
#    x 1.983510 -0.061050 0.038690 
#    y -0.061050 2.071070 -0.001930 
#    z 0.038690 -0.001930 1.976090 
# 
# From -- ./inp_files/294014.got.cif
#   From: 2010.05.17/outbox.cif.g08.bks.cpg/sg2_148_cif.got.tgz:294014.got - 2010.06.03 11:33:40.
