data_PCOD9017904
_publ_section_title
;
Structure prediction by ZEFSAII (Michael W. Deem and Ramdas Pophale) SiO2 
 PCOD9017904
Probable space group: P -1
;
_chemical_formula_sum "Si O2"
_cell_formula_units_Z 14
_cell_length_a 8.343710
_cell_length_b 8.451613
_cell_length_c 11.954070
_cell_angle_alpha 87.368437
_cell_angle_beta 88.528051
_cell_angle_gamma 134.064033
_cell_volume 603.139180
_symmetry_space_group_name_H-M "P -1"
_symmetry_group_IT_number 2
_symmetry_cell_setting 'triclinic'
loop_
_space_group_symop_operation_xyz
x,y,z
-x,-y,-z
loop_
_atom_site_type_symbol
_atom_site_label
_atom_site_fract_x
_atom_site_fract_y
_atom_site_fract_z
Si Si1 0.871860 0.801267 0.422198
Si Si2 0.329207 0.765797 0.768444
Si Si3 0.552866 0.827864 0.308414
Si Si4 0.749857 0.382560 0.481702
Si Si5 0.185480 0.379837 0.920487
Si Si6 0.339191 0.452619 0.161587
Si Si7 0.823202 0.999149 0.786136
O O1 0.709012 0.796772 0.352373
O O2 0.746186 0.570205 0.490054
O O3 0.046864 0.848570 0.329436
O O4 0.000000 0.000000 0.500000
O O5 0.308279 0.693359 0.643061
O O6 0.183640 0.550319 0.855447
O O7 0.301001 0.934889 0.760105
O O8 0.582419 0.912265 0.800721
O O9 0.422692 0.806100 0.419279
O O10 0.373625 0.624993 0.235639
O O11 0.000000 0.500000 0.500000
O O12 0.410204 0.441053 0.874489
O O13 0.972117 0.137393 0.887362
O O14 0.214988 0.412125 0.051059
O O15 0.215620 0.215156 0.222877
#
# Coordination Sequence:
#
# PCOD9017904 Si02
#       7
#     2   2   2   2   2   2   2
#     4  12  22  38  64  96 128 164 215 268 313 374
#     4  11  24  41  64  93 131 170 215 256 319 391
#     4  12  24  41  62 100 130 164 216 267 312 378
#     4  12  24  43  66  91 132 173 209 261 325 383
#     4  10  21  43  67  91 130 173 212 258 324 377
#     4  10  22  40  67  98 125 167 218 267 309 378
#     4  11  20  42  65  93 126 171 213 256 325 379
#
# _framework density 23.211888999999999
#
# number of rings (size 3 to 8) (size 9 to 14) (size 15 to 20)
#    0.000    0.857    2.857    5.571    0.000    0.571 
#    0.000    0.714    0.000    0.000    0.000    0.000 
#    0.000    0.000    0.000    0.000    0.000    0.000 
#
# Total GULP energy -78403.492454 kJ/mol
# GULP energy per Si atom -5600.249461 kJ/mol
# Density = 2.315906 g / cm^3
# Si number density = 23.211889 Si / 1000 Ang^3
#
#
#
# Elastic Constant Matrix: (Units=GPa)
#
#
# Indices 1 2 3 4 5 6 
#
# 1 54.2794 11.0664 -2.0392 0.4434 17.3248 -7.3756
# 2 11.0664 104.3573 26.2648 24.7183 15.3265 -21.6348
# 3 -2.0392 26.2648 93.3578 25.7070 16.5124 -10.7294
# 4 0.4434 24.7183 25.7070 48.5932 5.7255 9.6487
# 5 17.3248 15.3265 16.5124 5.7255 22.5127 -5.6206
# 6 -7.3756 -21.6348 -10.7294 9.6487 -5.6206 42.4449
#
#
#
# Elastic Compliance Matrix: (Units=1/GPa)
#
#
# Indices 1 2 3 4 5 6 
#
# 1 0.026471 0.000186 0.005299 -0.001021 -0.023332 0.003177
# 2 0.000186 0.014028 0.000319 -0.008298 -0.005722 0.008392
# 3 0.005299 0.000319 0.015795 -0.008141 -0.012493 0.005273
# 4 -0.001021 -0.008298 -0.008141 0.031692 0.000966 -0.013542
# 5 -0.023332 -0.005722 -0.012493 0.000966 0.075086 -0.000406
# 6 0.003177 0.008392 0.005273 -0.013542 -0.000406 0.032747
#
#
# Mechanical properties :
#
#
# Convention : Reuss Voigt Hill
#
# Bulk Modulus (GPa) = 14.72690 35.84209 25.28449
# Shear Modulus (GPa) = 24.17271 37.15700 30.66485
#
# Velocity S-wave (km/s) = 3.23056 4.00531 3.63861
# Velocity P-wave (km/s) = 4.50263 6.07164 5.34502
#
# Compressibility (1/GPa) = 0.06790297
#
# Stress axis : x y z
#
# Youngs Moduli (GPa) = 37.77690 71.28514 63.31142
#
# Poissons Ratio (x) = -0.01329 -0.33548
# Poissons Ratio (y) = -0.00704 -0.02020
# Poissons Ratio (z) = -0.20017 -0.02275
#
# Static dielectric constant tensor:
#      x y z
#    x 1.883960 -0.010710 -0.013610 
#    y -0.010710 1.858940 -0.016570 
#    z -0.013610 -0.016570 1.830730 
# 
# From -- ./inp_files/27792.got.cif
#   From: 2010.05.17/outbox.cif.g08.bks.cpg/sg2_14_cif.got.tgz:27792.got - 2010.06.03 11:33:40.
