data_PCOD9017517
_publ_section_title
;
Structure prediction by ZEFSAII (Michael W. Deem and Ramdas Pophale) SiO2 
 PCOD9017517
Probable space group: P -1
;
_chemical_formula_sum "Si O2"
_cell_formula_units_Z 14
_cell_length_a 21.396747
_cell_length_b 14.344349
_cell_length_c 7.797649
_cell_angle_alpha 135.513958
_cell_angle_beta 141.682297
_cell_angle_gamma 22.321447
_cell_volume 562.803109
_symmetry_space_group_name_H-M "P -1"
_symmetry_group_IT_number 2
_symmetry_cell_setting 'triclinic'
loop_
_space_group_symop_operation_xyz
x,y,z
-x,-y,-z
loop_
_atom_site_type_symbol
_atom_site_label
_atom_site_fract_x
_atom_site_fract_y
_atom_site_fract_z
Si Si1 0.498686 0.796870 0.286528
Si Si2 0.019888 0.834979 0.238557
Si Si3 0.666560 0.425003 0.631075
Si Si4 0.809282 0.973716 0.274573
Si Si5 0.639058 0.876173 0.291001
Si Si6 0.696968 0.103459 0.693363
Si Si7 0.829433 0.413632 0.250945
O O1 0.425914 0.762886 0.217660
O O2 0.703098 0.551562 0.331606
O O3 0.469386 0.959070 0.552870
O O4 0.356127 0.945519 0.013165
O O5 0.227630 0.594015 0.300102
O O6 0.939829 0.820737 0.184366
O O7 0.000000 0.000000 0.500000
O O8 0.879043 0.984702 0.970946
O O9 0.715359 0.222886 0.413144
O O10 0.446894 0.692087 0.493210
O O11 0.760947 0.361100 0.928706
O O12 0.956250 0.807040 0.526209
O O13 0.764502 0.612524 0.262218
O O14 0.746390 0.893552 0.499328
O O15 0.500000 0.000000 0.000000
#
# Coordination Sequence:
#
# PCOD9017517 Si02
#       7
#     2   2   2   2   2   2   2
#     4   9  22  40  61  90 117 159 201 245 306 349
#     4   9  20  39  61  89 119 157 205 246 292 355
#     4  11  22  37  62  91 124 160 198 246 300 356
#     4  10  23  38  59  93 122 155 203 243 303 359
#     4  10  21  43  64  88 116 158 212 245 296 357
#     4   9  20  40  61  86 119 157 206 244 295 344
#     4  12  22  39  62  86 128 159 191 252 299 359
#
# _framework density 24.875482999999999
#
# number of rings (size 3 to 8) (size 9 to 14) (size 15 to 20)
#    0.857    1.143    1.429    1.714    0.000    9.714 
#    0.000    0.714    0.000    0.000    0.000    0.000 
#    0.000    0.000    0.000    0.000    0.000    0.000 
#
# Total GULP energy -78277.181857 kJ/mol
# GULP energy per Si atom -5591.227275 kJ/mol
# Density = 2.481887 g / cm^3
# Si number density = 24.875483 Si / 1000 Ang^3
#
#
#
# Elastic Constant Matrix: (Units=GPa)
#
#
# Indices 1 2 3 4 5 6 
#
# 1 62.3057 9.2915 14.9958 -4.1109 0.3863 -5.5617
# 2 9.2915 47.6497 46.4128 -6.8953 5.3749 6.0191
# 3 14.9958 46.4128 200.1238 -9.1480 -11.3210 1.3464
# 4 -4.1109 -6.8953 -9.1480 50.6887 -2.1477 -2.5901
# 5 0.3863 5.3749 -11.3210 -2.1477 36.5644 -8.0745
# 6 -5.5617 6.0191 1.3464 -2.5901 -8.0745 27.4817
#
#
#
# Elastic Compliance Matrix: (Units=1/GPa)
#
#
# Indices 1 2 3 4 5 6 
#
# 1 0.017165 -0.003593 -0.000356 0.001141 0.001360 0.004786
# 2 -0.003593 0.031327 -0.007352 0.001773 -0.008874 -0.009669
# 3 -0.000356 -0.007352 0.006950 0.000506 0.003787 0.002358
# 4 0.001141 0.001773 0.000506 0.020332 0.001563 0.002193
# 5 0.001360 -0.008874 0.003787 0.001563 0.032493 0.011728
# 6 0.004786 -0.009669 0.002358 0.002193 0.011728 0.043011
#
#
# Mechanical properties :
#
#
# Convention : Reuss Voigt Hill
#
# Bulk Modulus (GPa) = 30.45043 50.16441 40.30742
# Shear Modulus (GPa) = 27.05209 38.90558 32.97883
#
# Velocity S-wave (km/s) = 3.30130 3.95905 3.64504
# Velocity P-wave (km/s) = 5.17679 6.41161 5.82700
#
# Compressibility (1/GPa) = 0.03284026
#
# Stress axis : x y z
#
# Youngs Moduli (GPa) = 58.25645 31.92089 143.88075
#
# Poissons Ratio (x) = 0.11470 0.05122
# Poissons Ratio (y) = 0.20933 1.05783
# Poissons Ratio (z) = 0.02074 0.23469
#
# Static dielectric constant tensor:
#      x y z
#    x 2.123150 -0.020260 -0.052510 
#    y -0.020260 1.958750 -0.039550 
#    z -0.052510 -0.039550 1.961050 
# 
# From -- ./inp_files/357630.got.cif
#   From: 2010.05.17/outbox.cif.g08.bks.cpg/sg2_179_cif.got.tgz:357630.got - 2010.06.03 11:33:40.
