data_PCOD9017126
_publ_section_title
;
Structure prediction by ZEFSAII (Michael W. Deem and Ramdas Pophale) SiO2 
 PCOD9017126
Probable space group: P -1
;
_chemical_formula_sum "Si O2"
_cell_formula_units_Z 14
_cell_length_a 11.792965
_cell_length_b 14.690104
_cell_length_c 20.033161
_cell_angle_alpha 21.036342
_cell_angle_beta 30.793978
_cell_angle_gamma 29.116422
_cell_volume 586.986937
_symmetry_space_group_name_H-M "P -1"
_symmetry_group_IT_number 2
_symmetry_cell_setting 'triclinic'
loop_
_space_group_symop_operation_xyz
x,y,z
-x,-y,-z
loop_
_atom_site_type_symbol
_atom_site_label
_atom_site_fract_x
_atom_site_fract_y
_atom_site_fract_z
Si Si1 0.460503 0.389326 0.935616
Si Si2 0.916237 0.325820 0.816939
Si Si3 0.343751 0.963889 0.041740
Si Si4 0.818213 0.440692 0.276604
Si Si5 0.156673 0.846290 0.675375
Si Si6 0.735551 0.379542 0.580965
Si Si7 0.250448 0.256496 0.267616
O O1 0.705160 0.433355 0.795772
O O2 0.516088 0.139604 0.026257
O O3 0.271965 0.655645 0.811265
O O4 0.391616 0.293752 0.106521
O O5 0.805565 0.485012 0.832361
O O6 0.140576 0.406379 0.633795
O O7 0.000000 0.000000 0.000000
O O8 0.268749 0.723352 0.270793
O O9 0.500000 0.000000 0.000000
O O10 0.152830 0.271476 0.921338
O O11 0.874599 0.343689 0.238214
O O12 0.538513 0.497555 0.391197
O O13 0.007767 0.244188 0.366451
O O14 0.330624 0.987447 0.458794
O O15 0.912510 0.098471 0.647698
#
# Coordination Sequence:
#
# PCOD9017126 Si02
#       7
#     2   2   2   2   2   2   2
#     4  12  25  47  78 104 155 200 239 316 363 444
#     4  11  27  49  73 106 146 206 251 299 373 439
#     4  10  21  42  71 110 141 187 242 298 373 433
#     4  11  23  46  72 110 151 187 244 312 370 433
#     4  11  25  45  72 113 145 196 243 304 380 433
#     4  10  24  44  73 109 146 188 255 299 363 454
#     4  11  27  46  74 113 146 197 251 306 373 445
#
# _framework density 23.850615999999999
#
# number of rings (size 3 to 8) (size 9 to 14) (size 15 to 20)
#    0.000    1.143    2.857    2.571    6.000    6.286 
#    0.000    2.857    0.000    0.000    0.000    0.000 
#    0.000    0.000    0.000    0.000    0.000    0.000 
#
# Total GULP energy -78282.453964 kJ/mol
# GULP energy per Si atom -5591.603855 kJ/mol
# Density = 2.379633 g / cm^3
# Si number density = 23.850616 Si / 1000 Ang^3
#
#
#
# Elastic Constant Matrix: (Units=GPa)
#
#
# Indices 1 2 3 4 5 6 
#
# 1 109.6158 37.9661 31.4515 6.1727 -11.2358 9.1772
# 2 37.9661 86.6639 46.8219 3.9919 -14.7540 14.4446
# 3 31.4515 46.8219 140.4706 1.5985 5.2260 16.4309
# 4 6.1727 3.9919 1.5985 38.6348 10.3753 -3.7265
# 5 -11.2358 -14.7540 5.2260 10.3753 34.9567 4.9544
# 6 9.1772 14.4446 16.4309 -3.7265 4.9544 50.3440
#
#
#
# Elastic Compliance Matrix: (Units=1/GPa)
#
#
# Indices 1 2 3 4 5 6 
#
# 1 0.011233 -0.003321 -0.001369 -0.002388 0.003285 -0.001148
# 2 -0.003321 0.018199 -0.005134 -0.003995 0.009153 -0.004137
# 3 -0.001369 -0.005134 0.009375 0.001445 -0.004323 -0.000805
# 4 -0.002388 -0.003995 0.001445 0.030370 -0.012331 0.004572
# 5 0.003285 0.009153 -0.004323 -0.012331 0.038759 -0.006541
# 6 -0.001148 -0.004137 -0.000805 0.004572 -0.006541 0.022505
#
#
# Mechanical properties :
#
#
# Convention : Reuss Voigt Hill
#
# Bulk Modulus (GPa) = 52.19124 63.24768 57.71946
# Shear Modulus (GPa) = 31.95388 39.48782 35.72085
#
# Velocity S-wave (km/s) = 3.66423 4.07336 3.87420
# Velocity P-wave (km/s) = 6.31127 6.97846 6.65323
#
# Compressibility (1/GPa) = 0.01916030
#
# Stress axis : x y z
#
# Youngs Moduli (GPa) = 89.02298 54.94768 106.66467
#
# Poissons Ratio (x) = 0.18247 0.14602
# Poissons Ratio (y) = 0.29563 0.54759
# Poissons Ratio (z) = 0.12187 0.28209
#
# Static dielectric constant tensor:
#      x y z
#    x 1.885510 -0.028680 0.031350 
#    y -0.028680 1.990850 0.009730 
#    z 0.031350 0.009730 2.011910 
# 
# From -- ./inp_files/595565.got.cif
#   From: 2010.05.17/outbox.cif.g08.bks.cpg/sg2_298_cif.got.tgz:595565.got - 2010.06.03 11:33:40.
