data_PCOD9017777
_publ_section_title
;
Structure prediction by ZEFSAII (Michael W. Deem and Ramdas Pophale) SiO2 
 PCOD9017777
Probable space group: P -1
;
_chemical_formula_sum "Si O2"
_cell_formula_units_Z 14
_cell_length_a 17.860131
_cell_length_b 17.911957
_cell_length_c 9.662375
_cell_angle_alpha 141.005521
_cell_angle_beta 38.566724
_cell_angle_gamma 161.881024
_cell_volume 589.960312
_symmetry_space_group_name_H-M "P -1"
_symmetry_group_IT_number 2
_symmetry_cell_setting 'triclinic'
loop_
_space_group_symop_operation_xyz
x,y,z
-x,-y,-z
loop_
_atom_site_type_symbol
_atom_site_label
_atom_site_fract_x
_atom_site_fract_y
_atom_site_fract_z
Si Si1 0.332102 0.291730 0.329606
Si Si2 0.287997 0.777127 0.180194
Si Si3 0.158039 0.437221 0.396894
Si Si4 0.344415 0.390763 0.927464
Si Si5 0.431751 0.780766 0.725602
Si Si6 0.162738 0.024398 0.455145
Si Si7 0.707896 0.280359 0.621507
O O1 0.500000 0.500000 0.500000
O O2 0.484919 0.391620 0.116860
O O3 0.214702 0.090882 0.310885
O O4 0.129810 0.213195 0.459873
O O5 0.324990 0.718826 0.168872
O O6 0.080563 0.691900 0.404434
O O7 0.514942 0.058324 0.214709
O O8 0.244325 0.660371 0.940928
O O9 0.320923 0.580585 0.505879
O O10 0.318101 0.646681 0.354571
O O11 0.121131 0.278870 0.149936
O O12 0.249330 0.201364 0.695250
O O13 0.500000 0.500000 0.000000
O O14 0.685699 0.958118 0.686535
O O15 0.000000 0.500000 0.500000
O O16 0.500000 0.000000 0.500000
#
# Coordination Sequence:
#
# PCOD9017777 Si02
#       7
#     2   2   2   2   2   2   2
#     4   9  22  43  62  91 129 169 222 265 332 405
#     4  10  24  40  62  96 126 173 227 273 342 400
#     4  11  23  41  64  93 136 174 216 279 339 407
#     4  11  23  39  63  99 130 170 218 275 336 402
#     4  11  22  40  66  92 128 172 221 282 334 408
#     4  10  22  42  66  93 130 173 219 275 331 406
#     4  10  21  43  66  93 135 175 230 285 339 410
#
# _framework density 23.730409999999999
#
# number of rings (size 3 to 8) (size 9 to 14) (size 15 to 20)
#    0.000    1.714    2.857    0.429    4.000    1.714 
#    0.000    2.857    0.000    0.000    0.000    0.000 
#    0.000    0.000    0.000    0.000    0.000    0.000 
#
# Total GULP energy -78020.280034 kJ/mol
# GULP energy per Si atom -5572.877145 kJ/mol
# Density = 2.367640 g / cm^3
# Si number density = 23.730410 Si / 1000 Ang^3
#
#
#
# Elastic Constant Matrix: (Units=GPa)
#
#
# Indices 1 2 3 4 5 6 
#
# 1 98.9562 21.2922 54.1379 -8.0873 37.7967 -4.7350
# 2 21.2922 62.0090 31.8562 -8.8888 15.7840 4.5014
# 3 54.1379 31.8562 158.0015 -31.7664 16.6398 -0.8542
# 4 -8.0873 -8.8888 -31.7664 24.4977 -6.7964 4.3014
# 5 37.7967 15.7840 16.6398 -6.7964 39.1777 -10.7134
# 6 -4.7350 4.5014 -0.8542 4.3014 -10.7134 40.9959
#
#
#
# Elastic Compliance Matrix: (Units=1/GPa)
#
#
# Indices 1 2 3 4 5 6 
#
# 1 0.019742 0.000268 -0.006128 -0.006015 -0.018137 -0.001986
# 2 0.000268 0.020224 -0.002896 0.002246 -0.008042 -0.004587
# 3 -0.006128 -0.002896 0.011068 0.012574 0.004475 -0.000309
# 4 -0.006015 0.002246 0.012574 0.059141 0.008546 -0.004651
# 5 -0.018137 -0.008042 0.004475 0.008546 0.048779 0.010732
# 6 -0.001986 -0.004587 -0.000309 -0.004651 0.010732 0.027953
#
#
# Mechanical properties :
#
#
# Convention : Reuss Voigt Hill
#
# Bulk Modulus (GPa) = 29.83158 59.28214 44.55686
# Shear Modulus (GPa) = 23.19190 35.04631 29.11911
#
# Velocity S-wave (km/s) = 3.12958 3.84715 3.50677
# Velocity P-wave (km/s) = 5.06531 6.69103 5.93411
#
# Compressibility (1/GPa) = 0.03352153
#
# Stress axis : x y z
#
# Youngs Moduli (GPa) = 50.65463 49.44583 90.35290
#
# Poissons Ratio (x) = -0.01326 0.55372
# Poissons Ratio (y) = -0.01359 0.26165
# Poissons Ratio (z) = 0.31043 0.14319
#
# Static dielectric constant tensor:
#      x y z
#    x 1.959970 -0.038440 -0.019670 
#    y -0.038440 1.948350 0.021340 
#    z -0.019670 0.021340 1.919840 
# 
# From -- ./inp_files/47918.got.cif
#   From: 2010.05.17/outbox.cif.g08.bks.cpg/sg2_24_cif.got.tgz:47918.got - 2010.06.03 11:33:40.
