data_PCOD9017547
_publ_section_title
;
Structure prediction by ZEFSAII (Michael W. Deem and Ramdas Pophale) SiO2 
 PCOD9017547
Probable space group: P -1
;
_chemical_formula_sum "Si O2"
_cell_formula_units_Z 14
_cell_length_a 9.100101
_cell_length_b 9.296119
_cell_length_c 11.144342
_cell_angle_alpha 115.865585
_cell_angle_beta 71.156423
_cell_angle_gamma 62.193022
_cell_volume 562.723798
_symmetry_space_group_name_H-M "P -1"
_symmetry_group_IT_number 2
_symmetry_cell_setting 'triclinic'
loop_
_space_group_symop_operation_xyz
x,y,z
-x,-y,-z
loop_
_atom_site_type_symbol
_atom_site_label
_atom_site_fract_x
_atom_site_fract_y
_atom_site_fract_z
Si Si1 0.411346 0.923397 0.411351
Si Si2 0.271298 0.747921 0.113250
Si Si3 0.501605 0.667497 0.791927
Si Si4 0.128416 0.843755 0.545245
Si Si5 0.117906 0.571658 0.948216
Si Si6 0.245487 0.307174 0.422910
Si Si7 0.808614 0.345633 0.280964
O O1 0.264628 0.905717 0.516362
O O2 0.625456 0.667266 0.219674
O O3 0.500000 0.000000 0.500000
O O4 0.290996 0.108457 0.403969
O O5 0.500000 0.500000 0.000000
O O6 0.356544 0.790960 0.994265
O O7 0.118562 0.716851 0.092444
O O8 0.130622 0.927651 0.323492
O O9 0.735683 0.398297 0.643427
O O10 0.571412 0.782879 0.757255
O O11 0.364283 0.649322 0.733501
O O12 0.110166 0.804018 0.676120
O O13 0.042716 0.700827 0.886579
O O14 0.000000 0.500000 0.000000
O O15 0.275616 0.426866 0.556289
O O16 0.000000 0.500000 0.500000
#
# Coordination Sequence:
#
# PCOD9017547 Si02
#       7
#     2   2   2   2   2   2   2
#     4  12  21  40  69  98 127 181 218 266 339 389
#     4  11  26  41  63  98 130 173 222 273 325 392
#     4  10  22  45  65  92 132 173 221 265 325 408
#     4  11  22  40  72  90 127 177 218 270 328 390
#     4  11  24  40  65  99 135 167 225 279 318 402
#     4  11  24  37  66 101 131 169 219 279 334 382
#     4  10  21  43  64  94 131 174 222 266 329 399
#
# _framework density 24.878992
#
# number of rings (size 3 to 8) (size 9 to 14) (size 15 to 20)
#    0.000    1.143    4.286    3.429    2.000    6.286 
#    0.000    0.000    0.000    6.000    0.000    0.000 
#    0.000    0.000    0.000    0.000    0.000    0.000 
#
# Total GULP energy -78298.441769 kJ/mol
# GULP energy per Si atom -5592.745841 kJ/mol
# Density = 2.482237 g / cm^3
# Si number density = 24.878992 Si / 1000 Ang^3
#
#
#
# Elastic Constant Matrix: (Units=GPa)
#
#
# Indices 1 2 3 4 5 6 
#
# 1 89.7234 36.7187 34.0162 -25.7359 -14.1879 40.6987
# 2 36.7187 136.4014 4.7979 -13.8904 -20.3248 29.7884
# 3 34.0162 4.7979 133.3013 3.4844 -28.7183 16.3197
# 4 -25.7359 -13.8904 3.4844 41.9724 8.9753 -10.4003
# 5 -14.1879 -20.3248 -28.7183 8.9753 41.7021 -5.8256
# 6 40.6987 29.7884 16.3197 -10.4003 -5.8256 51.3835
#
#
#
# Elastic Compliance Matrix: (Units=1/GPa)
#
#
# Indices 1 2 3 4 5 6 
#
# 1 0.022559 -0.002039 -0.004428 0.010340 -0.000443 -0.013236
# 2 -0.002039 0.009304 0.001623 -0.000211 0.004468 -0.003830
# 3 -0.004428 0.001623 0.010392 -0.004832 0.007358 -0.000878
# 4 0.010340 -0.000211 -0.004832 0.031746 -0.006869 -0.000886
# 5 -0.000443 0.004468 0.007358 -0.006869 0.032229 -0.002313
# 6 -0.013236 -0.003830 -0.000878 -0.000886 -0.002313 0.032003
#
#
# Mechanical properties :
#
#
# Convention : Reuss Voigt Hill
#
# Bulk Modulus (GPa) = 30.70802 56.72133 43.71467
# Shear Modulus (GPa) = 31.49043 45.93783 38.71413
#
# Velocity S-wave (km/s) = 3.56159 4.30170 3.94902
# Velocity P-wave (km/s) = 5.41137 6.89356 6.19694
#
# Compressibility (1/GPa) = 0.03256478
#
# Stress axis : x y z
#
# Youngs Moduli (GPa) = 44.32886 107.48075 96.22331
#
# Poissons Ratio (x) = 0.21919 0.42612
# Poissons Ratio (y) = 0.09040 -0.15613
# Poissons Ratio (z) = 0.19631 -0.17440
#
# Static dielectric constant tensor:
#      x y z
#    x 2.089840 -0.147500 -0.098840 
#    y -0.147500 2.151760 0.044010 
#    z -0.098840 0.044010 2.089090 
# 
# From -- ./inp_files/382902.got.cif
#   From: 2010.05.17/outbox.cif.g08.bks.cpg/sg2_192_cif.got.tgz:382902.got - 2010.06.03 11:33:40.
