data_PCOD9017345
_publ_section_title
;
Structure prediction by ZEFSAII (Michael W. Deem and Ramdas Pophale) SiO2 
 PCOD9017345
Probable space group: P -1
;
_chemical_formula_sum "Si O2"
_cell_formula_units_Z 16
_cell_length_a 10.317652
_cell_length_b 9.549353
_cell_length_c 18.149988
_cell_angle_alpha 136.769235
_cell_angle_beta 147.936690
_cell_angle_gamma 60.103757
_cell_volume 614.390519
_symmetry_space_group_name_H-M "P -1"
_symmetry_group_IT_number 2
_symmetry_cell_setting 'triclinic'
loop_
_space_group_symop_operation_xyz
x,y,z
-x,-y,-z
loop_
_atom_site_type_symbol
_atom_site_label
_atom_site_fract_x
_atom_site_fract_y
_atom_site_fract_z
Si Si1 0.422853 0.111627 0.713444
Si Si2 0.925479 0.679083 0.297856
Si Si3 0.305342 0.485558 0.469237
Si Si4 0.681515 0.853619 0.535503
Si Si5 0.776951 0.830015 0.133690
Si Si6 0.977317 0.130366 0.965773
Si Si7 0.537461 0.931802 0.847630
Si Si8 0.259759 0.458408 0.131806
O O1 0.688588 0.122610 0.802942
O O2 0.267925 0.280214 0.717635
O O3 0.188213 0.890157 0.500196
O O4 0.533781 0.089973 0.839409
O O5 0.037852 0.493244 0.306852
O O6 0.797768 0.680651 0.156898
O O7 0.500000 0.500000 0.500000
O O8 0.286742 0.267712 0.420757
O O9 0.393163 0.693433 0.648806
O O10 0.522229 0.652120 0.332908
O O11 0.500000 0.000000 0.500000
O O12 0.942848 0.002400 0.683942
O O13 0.612467 0.985031 0.132024
O O14 0.690756 0.686070 0.965432
O O15 0.174421 0.046605 0.980089
O O16 0.161406 0.379579 0.138876
O O17 0.000000 0.000000 0.000000
O O18 0.000000 0.500000 0.000000
#
# Coordination Sequence:
#
# PCOD9017345 Si02
#       8
#     2   2   2   2   2   2   2   2
#     4   8  17  36  72 110 140 195 246 313 385 446
#     4   9  19  40  72 111 142 192 256 311 377 452
#     4  11  23  42  75 109 147 196 259 321 369 454
#     4  12  26  49  75 112 152 208 258 315 391 451
#     4  11  25  46  79 107 158 205 247 317 394 463
#     4  10  21  42  74 107 151 194 248 322 381 443
#     4   9  20  43  71 109 151 198 248 323 386 452
#     4  12  27  48  73 112 151 203 261 310 383 471
#
# _framework density 26.042068
#
# number of rings (size 3 to 8) (size 9 to 14) (size 15 to 20)
#    0.000    1.750    2.500    1.500    1.750    4.000 
#    0.000    0.000   13.750    7.500    0.000    0.000 
#    0.000    0.000    0.000    0.000    0.000    0.000 
#
# Total GULP energy -89193.714666 kJ/mol
# GULP energy per Si atom -5574.607167 kJ/mol
# Density = 2.598280 g / cm^3
# Si number density = 26.042068 Si / 1000 Ang^3
#
#
#
# Elastic Constant Matrix: (Units=GPa)
#
#
# Indices 1 2 3 4 5 6 
#
# 1 153.7327 64.4586 58.4589 -0.0008 6.1051 -31.5540
# 2 64.4586 148.7151 15.3700 -24.4828 -2.0792 3.6173
# 3 58.4589 15.3700 135.7739 15.9780 -0.6050 -13.2264
# 4 -0.0008 -24.4828 15.9780 43.4112 -11.2378 3.9242
# 5 6.1051 -2.0792 -0.6050 -11.2378 49.2867 -17.3281
# 6 -31.5540 3.6173 -13.2264 3.9242 -17.3281 52.8966
#
#
#
# Elastic Compliance Matrix: (Units=1/GPa)
#
#
# Indices 1 2 3 4 5 6 
#
# 1 0.011191 -0.005004 -0.003381 -0.002123 0.000116 0.006368
# 2 -0.005004 0.010057 -0.000095 0.006349 0.001159 -0.003788
# 3 -0.003381 -0.000095 0.009303 -0.003550 -0.000087 0.000550
# 4 -0.002123 0.006349 -0.003550 0.029806 0.006324 -0.002728
# 5 0.000116 0.001159 -0.000087 0.006324 0.024399 0.007492
# 6 0.006368 -0.003788 0.000550 -0.002728 0.007492 0.025757
#
#
# Mechanical properties :
#
#
# Convention : Reuss Voigt Hill
#
# Bulk Modulus (GPa) = 73.58298 79.42186 76.50242
# Shear Modulus (GPa) = 37.87808 49.11452 43.49630
#
# Velocity S-wave (km/s) = 3.81792 4.34749 4.09128
# Velocity P-wave (km/s) = 6.91029 7.46757 7.19433
#
# Compressibility (1/GPa) = 0.01359010
#
# Stress axis : x y z
#
# Youngs Moduli (GPa) = 89.35660 99.43817 107.49499
#
# Poissons Ratio (x) = 0.49758 0.36347
# Poissons Ratio (y) = 0.44714 0.01020
# Poissons Ratio (z) = 0.30214 0.00943
#
# Static dielectric constant tensor:
#      x y z
#    x 2.043960 0.101670 0.086230 
#    y 0.101670 2.242480 -0.028460 
#    z 0.086230 -0.028460 1.925670 
# 
# From -- ./inp_files/593689.got.cif
#   From: 2010.05.17/outbox.cif.g08.bks.cpg/sg2_297_cif.got.tgz:593689.got - 2010.06.03 11:33:40.
