data_PCOD9017952
_publ_section_title
;
Structure prediction by ZEFSAII (Michael W. Deem and Ramdas Pophale) SiO2 
 PCOD9017952
Probable space group: P -1
;
_chemical_formula_sum "Si O2"
_cell_formula_units_Z 14
_cell_length_a 13.347987
_cell_length_b 9.510089
_cell_length_c 11.424426
_cell_angle_alpha 140.713664
_cell_angle_beta 123.338279
_cell_angle_gamma 44.224789
_cell_volume 640.432405
_symmetry_space_group_name_H-M "P -1"
_symmetry_group_IT_number 2
_symmetry_cell_setting 'triclinic'
loop_
_space_group_symop_operation_xyz
x,y,z
-x,-y,-z
loop_
_atom_site_type_symbol
_atom_site_label
_atom_site_fract_x
_atom_site_fract_y
_atom_site_fract_z
Si Si1 0.664904 0.489510 0.982263
Si Si2 0.488880 0.247226 0.721202
Si Si3 0.146280 0.473885 0.298933
Si Si4 0.800120 0.328412 0.315855
Si Si5 0.333860 0.212002 0.026703
Si Si6 0.048395 0.699489 0.823847
Si Si7 0.916189 0.803432 0.189794
O O1 0.547667 0.725129 0.145450
O O2 0.676076 0.546766 0.891967
O O3 0.809303 0.441514 0.097954
O O4 0.628105 0.265087 0.816437
O O5 0.353219 0.523600 0.754599
O O6 0.500000 0.000000 0.500000
O O7 0.224694 0.531221 0.486007
O O8 0.066972 0.351573 0.233149
O O9 0.018990 0.744157 0.327650
O O10 0.260252 0.289078 0.155182
O O11 0.900681 0.373169 0.324479
O O12 0.888373 0.017347 0.210527
O O13 0.243818 0.120628 0.836832
O O14 0.500000 0.000000 0.000000
O O15 0.000000 0.000000 0.000000
O O16 0.000000 0.500000 0.000000
#
# Coordination Sequence:
#
# PCOD9017952 Si02
#       7
#     2   2   2   2   2   2   2
#     4  10  23  44  66 100 134 183 232 286 340 414
#     4  10  24  45  71  98 143 181 231 289 348 413
#     4  11  24  42  67 100 140 177 224 294 339 409
#     4  11  24  42  67 106 134 175 236 287 345 408
#     4  11  23  41  69  95 135 184 232 273 347 415
#     4  11  23  41  70  97 132 183 233 278 344 414
#     4  10  21  43  67  95 136 178 226 277 346 417
#
# _framework density 21.860233000000001
#
# number of rings (size 3 to 8) (size 9 to 14) (size 15 to 20)
#    0.000    1.429    1.429    3.429    6.000    1.143 
#    2.571    1.429    0.000    0.000    0.000    0.000 
#    0.000    0.000    0.000    0.000    0.000    0.000 
#
# Total GULP energy -78029.355442 kJ/mol
# GULP energy per Si atom -5573.525389 kJ/mol
# Density = 2.181048 g / cm^3
# Si number density = 21.860233 Si / 1000 Ang^3
#
#
#
# Elastic Constant Matrix: (Units=GPa)
#
#
# Indices 1 2 3 4 5 6 
#
# 1 128.2612 38.0974 19.0731 0.2093 0.2919 7.9526
# 2 38.0974 97.7159 2.8993 -2.3073 -2.6919 8.7434
# 3 19.0731 2.8993 80.6330 -3.6888 -4.3476 11.7086
# 4 0.2093 -2.3073 -3.6888 30.3710 6.5138 5.3889
# 5 0.2919 -2.6919 -4.3476 6.5138 24.9992 -1.9963
# 6 7.9526 8.7434 11.7086 5.3889 -1.9963 35.0917
#
#
#
# Elastic Compliance Matrix: (Units=1/GPa)
#
#
# Indices 1 2 3 4 5 6 
#
# 1 0.009172 -0.003498 -0.002024 -0.000310 -0.000797 -0.000529
# 2 -0.003498 0.011860 0.000888 0.001297 0.000927 -0.002605
# 3 -0.002024 0.000888 0.013701 0.002226 0.001556 -0.004587
# 4 -0.000310 0.001297 0.002226 0.036624 -0.009585 -0.007165
# 5 -0.000797 0.000927 0.001556 -0.009585 0.043146 0.003357
# 6 -0.000529 -0.002605 -0.004587 -0.007165 0.003357 0.032088
#
#
# Mechanical properties :
#
#
# Convention : Reuss Voigt Hill
#
# Bulk Modulus (GPa) = 39.26796 47.41666 43.34231
# Shear Modulus (GPa) = 30.42366 34.52839 32.47603
#
# Velocity S-wave (km/s) = 3.73464 3.97861 3.85856
# Velocity P-wave (km/s) = 6.04971 6.54551 6.30249
#
# Compressibility (1/GPa) = 0.02546605
#
# Stress axis : x y z
#
# Youngs Moduli (GPa) = 109.03184 84.31481 72.99002
#
# Poissons Ratio (x) = 0.29491 0.14773
# Poissons Ratio (y) = 0.38136 -0.06485
# Poissons Ratio (z) = 0.22068 -0.07491
#
# Static dielectric constant tensor:
#      x y z
#    x 1.785160 0.039520 -0.008850 
#    y 0.039520 1.768780 0.001250 
#    z -0.008850 0.001250 1.840800 
# 
# From -- ./inp_files/420191.got.cif
#   From: 2010.05.17/outbox.cif.g08.bks.cpg/sg2_211_cif.got.tgz:420191.got - 2010.06.03 11:33:40.
