data_PCOD9017951
_publ_section_title
;
Structure prediction by ZEFSAII (Michael W. Deem and Ramdas Pophale) SiO2 
 PCOD9017951
Probable space group: P -1
;
_chemical_formula_sum "Si O2"
_cell_formula_units_Z 16
_cell_length_a 9.573093
_cell_length_b 10.660677
_cell_length_c 17.620563
_cell_angle_alpha 45.491871
_cell_angle_beta 143.781322
_cell_angle_gamma 119.571596
_cell_volume 746.599262
_symmetry_space_group_name_H-M "P -1"
_symmetry_group_IT_number 2
_symmetry_cell_setting 'triclinic'
loop_
_space_group_symop_operation_xyz
x,y,z
-x,-y,-z
loop_
_atom_site_type_symbol
_atom_site_label
_atom_site_fract_x
_atom_site_fract_y
_atom_site_fract_z
Si Si1 0.298554 0.740796 0.520012
Si Si2 0.027092 0.097647 0.316624
Si Si3 0.741374 0.335337 0.726870
Si Si4 0.950679 0.707025 0.260520
Si Si5 0.574917 0.180763 0.988109
Si Si6 0.061085 0.872891 0.958074
Si Si7 0.789537 0.669726 0.834399
Si Si8 0.381581 0.266605 0.473985
O O1 0.862963 0.106397 0.566314
O O2 0.518098 0.645964 0.708203
O O3 0.433721 0.819662 0.474071
O O4 0.112438 0.645184 0.431376
O O5 0.137806 0.209683 0.252899
O O6 0.148058 0.172519 0.411219
O O7 0.745728 0.139329 0.154609
O O8 0.853031 0.180592 0.897766
O O9 0.521432 0.274494 0.610890
O O10 0.674123 0.522572 0.661898
O O11 0.923516 0.379381 0.723007
O O12 0.674520 0.693330 0.156488
O O13 0.959978 0.918970 0.159558
O O14 0.736418 0.226142 0.969647
O O15 0.500000 0.000000 0.000000
O O16 0.824260 0.788100 0.873321
O O17 0.000000 0.500000 0.000000
#
# Coordination Sequence:
#
# PCOD9017951 Si02
#       8
#     2   2   2   2   2   2   2   2
#     4  10  17  30  53  75 100 130 176 214 256 303
#     4  10  17  31  55  76  98 135 180 214 249 309
#     4  10  20  33  49  75 110 137 168 210 265 311
#     4  10  19  33  52  77 102 140 177 206 255 316
#     4   9  17  32  53  79 100 131 178 219 252 299
#     4  10  18  30  51  77 104 131 170 220 258 298
#     4  10  18  27  47  78 107 124 160 222 269 294
#     4   9  19  31  50  73 105 140 172 209 259 316
#
# _framework density 21.430505
#
# number of rings (size 3 to 8) (size 9 to 14) (size 15 to 20)
#    0.000    2.250    3.750    3.375    1.750    0.000 
#    0.000    0.625    0.000   23.250    0.000    0.000 
#    0.000    0.000    0.000    0.000    0.000    0.000 
#
# Total GULP energy -89070.241450 kJ/mol
# GULP energy per Si atom -5566.890091 kJ/mol
# Density = 2.138173 g / cm^3
# Si number density = 21.430505 Si / 1000 Ang^3
#
#
#
# Elastic Constant Matrix: (Units=GPa)
#
#
# Indices 1 2 3 4 5 6 
#
# 1 34.4786 14.5139 27.3957 12.7565 10.9874 -2.1354
# 2 14.5139 54.7255 23.2168 20.1554 -0.2211 -3.0128
# 3 27.3957 23.2168 138.1690 31.3158 18.8649 0.6995
# 4 12.7565 20.1554 31.3158 39.3536 5.1271 0.2300
# 5 10.9874 -0.2211 18.8649 5.1271 31.1464 1.1362
# 6 -2.1354 -3.0128 0.6995 0.2300 1.1362 15.6210
#
#
#
# Elastic Compliance Matrix: (Units=1/GPa)
#
#
# Indices 1 2 3 4 5 6 
#
# 1 0.041161 -0.007040 -0.004367 -0.004817 -0.011328 0.005359
# 2 -0.007040 0.024537 -0.001135 -0.010037 0.004865 0.003615
# 3 -0.004367 -0.001135 0.010042 -0.005519 -0.003608 -0.000922
# 4 -0.004817 -0.010037 -0.005519 0.036645 -0.000959 -0.002817
# 5 -0.011328 0.004865 -0.003608 -0.000959 0.038598 -0.003242
# 6 0.005359 0.003615 -0.000922 -0.002817 -0.003242 0.065765
#
#
# Mechanical properties :
#
#
# Convention : Reuss Voigt Hill
#
# Bulk Modulus (GPa) = 19.74117 39.73622 29.73869
# Shear Modulus (GPa) = 19.32605 28.04066 23.68336
#
# Velocity S-wave (km/s) = 3.00626 3.62117 3.32795
# Velocity P-wave (km/s) = 4.61322 6.00550 5.35480
#
# Compressibility (1/GPa) = 0.05065556
#
# Stress axis : x y z
#
# Youngs Moduli (GPa) = 24.29481 40.75515 99.57990
#
# Poissons Ratio (x) = 0.28693 0.43487
# Poissons Ratio (y) = 0.17104 0.11301
# Poissons Ratio (z) = 0.10610 0.04625
#
# Static dielectric constant tensor:
#      x y z
#    x 1.803620 -0.035700 0.028810 
#    y -0.035700 1.880610 0.073780 
#    z 0.028810 0.073780 1.919240 
# 
# From -- ./inp_files/594445.got.cif
#   From: 2010.05.17/outbox.cif.g08.bks.cpg/sg2_298_cif.got.tgz:594445.got - 2010.06.03 11:33:40.
