data_PCOD9017871
_publ_section_title
;
Structure prediction by ZEFSAII (Michael W. Deem and Ramdas Pophale) SiO2 
 PCOD9017871
Probable space group: P -1
;
_chemical_formula_sum "Si O2"
_cell_formula_units_Z 14
_cell_length_a 18.055742
_cell_length_b 6.853611
_cell_length_c 8.846663
_cell_angle_alpha 53.574469
_cell_angle_beta 139.720923
_cell_angle_gamma 136.686200
_cell_volume 483.673382
_symmetry_space_group_name_H-M "P -1"
_symmetry_group_IT_number 2
_symmetry_cell_setting 'triclinic'
loop_
_space_group_symop_operation_xyz
x,y,z
-x,-y,-z
loop_
_atom_site_type_symbol
_atom_site_label
_atom_site_fract_x
_atom_site_fract_y
_atom_site_fract_z
Si Si1 0.410737 0.893188 0.564902
Si Si2 0.098212 0.405501 0.577211
Si Si3 0.280869 0.374468 0.081544
Si Si4 0.944421 0.254531 0.898551
Si Si5 0.804816 0.973677 0.271864
Si Si6 0.500000 0.500000 0.500000
Si Si7 0.768789 0.425001 0.818285
Si Si8 0.500000 0.500000 0.000000
O O1 0.271704 0.660589 0.376220
O O2 0.466281 0.748717 0.822290
O O3 0.500000 0.000000 0.500000
O O4 0.413502 0.149530 0.536647
O O5 0.100139 0.635466 0.363704
O O6 0.144739 0.209962 0.655337
O O7 0.210330 0.525060 0.827910
O O8 0.941144 0.192072 0.477432
O O9 0.425588 0.448407 0.220897
O O10 0.332895 0.512056 0.271010
O O11 0.166549 0.047514 0.069632
O O12 0.000000 0.500000 0.000000
O O13 0.087695 0.285410 0.071688
O O14 0.656959 0.739595 0.202576
O O15 0.781089 0.176372 0.029235
#
# Coordination Sequence:
#
# PCOD9017871 Si02
#       8
#     2   2   2   2   2   1   2   1
#     4  12  25  50  70 106 148 196 243 312 374 454
#     4  10  24  43  69 102 144 186 246 301 368 435
#     4  12  25  45  70 105 143 196 243 305 367 453
#     4  11  24  44  73 107 137 192 246 305 364 451
#     4  10  21  43  67 103 136 189 234 305 361 442
#     4  12  26  48  76 102 152 196 242 306 384 434
#     4  11  24  47  72  99 149 188 243 308 373 430
#     4  12  26  40  78 108 144 190 252 304 380 438
#
# _framework density 28.945152
#
# number of rings (size 3 to 8) (size 9 to 14) (size 15 to 20)
#    0.000    0.857    2.857    4.714    6.000    2.286 
#    5.143    1.429    0.000    0.000    0.000    0.000 
#    0.000    0.000    0.000    0.000    0.000    0.000 
#
# Total GULP energy -77992.911068 kJ/mol
# GULP energy per Si atom -5570.922219 kJ/mol
# Density = 2.887927 g / cm^3
# Si number density = 28.945152 Si / 1000 Ang^3
#
#
#
# Elastic Constant Matrix: (Units=GPa)
#
#
# Indices 1 2 3 4 5 6 
#
# 1 91.6702 33.3280 22.1089 6.5148 10.7411 -3.3575
# 2 33.3280 121.1247 73.7768 17.1683 3.2013 16.9031
# 3 22.1089 73.7768 247.1989 2.7699 24.6725 7.8974
# 4 6.5148 17.1683 2.7699 75.3937 2.9659 20.7614
# 5 10.7411 3.2013 24.6725 2.9659 41.5071 9.9760
# 6 -3.3575 16.9031 7.8974 20.7614 9.9760 63.0374
#
#
#
# Elastic Compliance Matrix: (Units=1/GPa)
#
#
# Indices 1 2 3 4 5 6 
#
# 1 0.012827 -0.003859 0.000307 -0.000791 -0.003757 0.002534
# 2 -0.003859 0.011942 -0.003399 -0.001570 0.002913 -0.002926
# 3 0.000307 -0.003399 0.005323 0.000513 -0.003160 0.000592
# 4 -0.000791 -0.001570 0.000513 0.014939 0.000063 -0.004616
# 5 -0.003757 0.002913 -0.003160 0.000063 0.027922 -0.005025
# 6 0.002534 -0.002926 0.000592 -0.004616 -0.005025 0.019024
#
#
# Mechanical properties :
#
#
# Convention : Reuss Voigt Hill
#
# Bulk Modulus (GPa) = 61.76194 79.82461 70.79327
# Shear Modulus (GPa) = 44.93437 58.03965 51.48701
#
# Velocity S-wave (km/s) = 3.94432 4.48276 4.22213
# Velocity P-wave (km/s) = 6.49057 7.37775 6.94834
#
# Compressibility (1/GPa) = 0.01619120
#
# Stress axis : x y z
#
# Youngs Moduli (GPa) = 77.96224 83.74088 187.86719
#
# Poissons Ratio (x) = 0.32314 -0.05774
# Poissons Ratio (y) = 0.30084 0.63848
# Poissons Ratio (z) = -0.02396 0.28460
#
# Static dielectric constant tensor:
#      x y z
#    x 3.590570 -0.022380 1.306330 
#    y -0.022380 2.155890 0.410590 
#    z 1.306330 0.410590 3.301240 
# 
# From -- ./inp_files/476309.got.cif
#   From: 2010.05.17/outbox.cif.g08.bks.cpg/sg2_239_cif.got.tgz:476309.got - 2010.06.03 11:33:40.
