data_PCOD9017239
_publ_section_title
;
Structure prediction by ZEFSAII (Michael W. Deem and Ramdas Pophale) SiO2 
 PCOD9017239
Probable space group: P -1
;
_chemical_formula_sum "Si O2"
_cell_formula_units_Z 14
_cell_length_a 15.207326
_cell_length_b 29.741842
_cell_length_c 15.608674
_cell_angle_alpha 162.072312
_cell_angle_beta 18.678085
_cell_angle_gamma 163.556924
_cell_volume 563.930521
_symmetry_space_group_name_H-M "P -1"
_symmetry_group_IT_number 2
_symmetry_cell_setting 'triclinic'
loop_
_space_group_symop_operation_xyz
x,y,z
-x,-y,-z
loop_
_atom_site_type_symbol
_atom_site_label
_atom_site_fract_x
_atom_site_fract_y
_atom_site_fract_z
Si Si1 0.269797 0.214043 0.655511
Si Si2 0.214914 0.702419 0.806574
Si Si3 0.344496 0.013389 0.941197
Si Si4 0.594711 0.516757 0.663032
Si Si5 0.084343 0.715208 0.221331
Si Si6 0.396775 0.219684 0.744177
Si Si7 0.868853 0.614166 0.410080
O O1 0.613063 0.274883 0.402193
O O2 0.312522 0.248928 0.779887
O O3 0.000000 0.000000 0.500000
O O4 0.123821 0.313106 0.924899
O O5 0.214458 0.551076 0.584506
O O6 0.458602 0.882163 0.964242
O O7 0.572714 0.146453 0.894737
O O8 0.364820 0.845265 0.605969
O O9 0.959214 0.942919 0.179415
O O10 0.811504 0.647403 0.619932
O O11 0.251476 0.337847 0.615706
O O12 0.491656 0.615303 0.998660
O O13 0.092726 0.761935 0.398574
O O14 0.028074 0.522534 0.924526
O O15 0.500000 0.500000 0.500000
#
# Coordination Sequence:
#
# PCOD9017239 Si02
#       7
#     2   2   2   2   2   2   2
#     4  12  23  42  65  98 131 179 228 279 322 393
#     4  12  23  41  72  91 129 181 238 264 319 404
#     4  12  23  43  68 101 127 185 223 273 324 412
#     4  11  25  43  66 102 135 175 218 284 338 392
#     4  10  21  42  72  96 129 174 231 265 321 417
#     4  12  28  41  67  99 145 170 221 284 347 372
#     4   9  20  39  71  98 127 169 227 270 326 396
#
# _framework density 24.825752999999999
#
# number of rings (size 3 to 8) (size 9 to 14) (size 15 to 20)
#    0.000    0.857    4.286    3.000    4.000    1.143 
#    0.000    1.429    0.000    0.000    0.000    0.000 
#    0.000    0.000    0.000    0.000    0.000    0.000 
#
# Total GULP energy -78445.664860 kJ/mol
# GULP energy per Si atom -5603.261776 kJ/mol
# Density = 2.476925 g / cm^3
# Si number density = 24.825753 Si / 1000 Ang^3
#
#
#
# Elastic Constant Matrix: (Units=GPa)
#
#
# Indices 1 2 3 4 5 6 
#
# 1 123.6969 35.7561 29.5600 7.6178 28.2804 -22.1875
# 2 35.7561 86.0516 14.0419 -5.6240 14.9389 -18.0004
# 3 29.5600 14.0419 115.9226 3.1908 18.9517 0.7908
# 4 7.6178 -5.6240 3.1908 37.3057 -3.4419 9.3789
# 5 28.2804 14.9389 18.9517 -3.4419 45.8306 -11.9768
# 6 -22.1875 -18.0004 0.7908 9.3789 -11.9768 29.0841
#
#
#
# Elastic Compliance Matrix: (Units=1/GPa)
#
#
# Indices 1 2 3 4 5 6 
#
# 1 0.011883 -0.002692 -0.001950 -0.004889 -0.004098 0.007342
# 2 -0.002692 0.014423 -0.000981 0.001180 -0.000944 0.006130
# 3 -0.001950 -0.000981 0.009848 0.000046 -0.003549 -0.003838
# 4 -0.004889 0.001180 0.000046 0.031246 0.001729 -0.012365
# 5 -0.004098 -0.000944 -0.003549 0.001729 0.028198 0.007440
# 6 0.007342 0.006130 -0.003838 -0.012365 0.007440 0.050934
#
#
# Mechanical properties :
#
#
# Convention : Reuss Voigt Hill
#
# Bulk Modulus (GPa) = 40.14608 53.82079 46.98343
# Shear Modulus (GPa) = 30.10627 38.86496 34.48562
#
# Velocity S-wave (km/s) = 3.48617 3.96094 3.73112
# Velocity P-wave (km/s) = 5.69304 6.53033 6.12601
#
# Compressibility (1/GPa) = 0.02490903
#
# Stress axis : x y z
#
# Youngs Moduli (GPa) = 84.15289 69.33450 101.54819
#
# Poissons Ratio (x) = 0.18665 0.19799
# Poissons Ratio (y) = 0.22654 0.09957
# Poissons Ratio (z) = 0.16407 0.06799
#
# Static dielectric constant tensor:
#      x y z
#    x 1.966030 -0.015950 -0.009130 
#    y -0.015950 2.030870 -0.013760 
#    z -0.009130 -0.013760 1.959850 
# 
# From -- ./inp_files/135631.got.cif
#   From: 2010.05.17/outbox.cif.g08.bks.cpg/sg2_68_cif.got.tgz:135631.got - 2010.06.03 11:33:40.
