data_PCOD9017690
_publ_section_title
;
Structure prediction by ZEFSAII (Michael W. Deem and Ramdas Pophale) SiO2 
 PCOD9017690
Probable space group: P -1
;
_chemical_formula_sum "Si O2"
_cell_formula_units_Z 16
_cell_length_a 8.339077
_cell_length_b 19.843366
_cell_length_c 15.561800
_cell_angle_alpha 21.435887
_cell_angle_beta 52.966839
_cell_angle_gamma 44.039749
_cell_volume 631.149587
_symmetry_space_group_name_H-M "P -1"
_symmetry_group_IT_number 2
_symmetry_cell_setting 'triclinic'
loop_
_space_group_symop_operation_xyz
x,y,z
-x,-y,-z
loop_
_atom_site_type_symbol
_atom_site_label
_atom_site_fract_x
_atom_site_fract_y
_atom_site_fract_z
Si Si1 0.004888 0.093214 0.718011
Si Si2 0.252815 0.116217 0.892034
Si Si3 0.775355 0.870957 0.758123
Si Si4 0.562852 0.618715 0.913443
Si Si5 0.253201 0.317144 0.374837
Si Si6 0.951240 0.956114 0.432552
Si Si7 0.524905 0.635311 0.100652
Si Si8 0.772838 0.535797 0.619138
O O1 0.046692 0.279405 0.512762
O O2 0.941008 0.136767 0.585675
O O3 0.267300 0.868356 0.904094
O O4 0.834427 0.051156 0.880213
O O5 0.275752 0.225962 0.668559
O O6 0.036335 0.334665 0.749091
O O7 0.500000 0.000000 0.000000
O O8 0.703175 0.697107 0.010178
O O9 0.915559 0.926952 0.714391
O O10 0.518024 0.098066 0.557837
O O11 0.926595 0.826139 0.674542
O O12 0.766489 0.625605 0.787060
O O13 0.326665 0.859756 0.712144
O O14 0.622574 0.548518 0.075805
O O15 0.500000 0.500000 0.000000
O O16 0.248767 0.480827 0.251918
O O17 0.425371 0.486760 0.340281
#
# Coordination Sequence:
#
# PCOD9017690 Si02
#       8
#     2   2   2   2   2   2   2   2
#     4   9  19  35  58  82 112 154 200 240 295 348
#     4  10  23  42  63  84 115 157 195 254 310 348
#     4   9  18  32  55  85 117 156 194 231 293 345
#     4  10  17  30  52  82 120 155 194 228 287 346
#     4  10  19  33  58  89 113 155 196 239 289 360
#     4   9  18  32  53  81 118 155 195 237 280 355
#     4   9  17  34  57  82 117 160 192 236 285 359
#     4  10  21  39  64  88 118 151 203 245 299 360
#
# _framework density 25.350566000000001
#
# number of rings (size 3 to 8) (size 9 to 14) (size 15 to 20)
#    0.000    2.500    1.250    0.750    1.750    3.500 
#    0.000    2.500    0.000    0.000    0.000    0.000 
#    0.000    0.000    0.000    0.000    0.000    0.000 
#
# Total GULP energy -89316.676958 kJ/mol
# GULP energy per Si atom -5582.292310 kJ/mol
# Density = 2.529287 g / cm^3
# Si number density = 25.350566 Si / 1000 Ang^3
#
#
#
# Elastic Constant Matrix: (Units=GPa)
#
#
# Indices 1 2 3 4 5 6 
#
# 1 84.1611 10.9147 42.2204 14.5856 -20.0761 -15.4971
# 2 10.9147 57.6463 3.7499 -1.8296 2.5254 -26.9852
# 3 42.2204 3.7499 99.4188 26.9046 -17.9943 -16.0077
# 4 14.5856 -1.8296 26.9046 30.1977 -13.2795 -0.9636
# 5 -20.0761 2.5254 -17.9943 -13.2795 46.0838 5.2699
# 6 -15.4971 -26.9852 -16.0077 -0.9636 5.2699 42.0999
#
#
#
# Elastic Compliance Matrix: (Units=1/GPa)
#
#
# Indices 1 2 3 4 5 6 
#
# 1 0.016586 -0.002034 -0.005477 -0.001153 0.004624 0.002114
# 2 -0.002034 0.025661 0.002068 -0.000309 -0.003508 0.016918
# 3 -0.005477 0.002068 0.016274 -0.011599 -0.000087 0.005243
# 4 -0.001153 -0.000309 -0.011599 0.047953 0.009388 -0.005110
# 5 0.004624 -0.003508 -0.000087 0.009388 0.027006 -0.003745
# 6 0.002114 0.016918 0.005243 -0.005110 -0.003745 0.037721
#
#
# Mechanical properties :
#
#
# Convention : Reuss Voigt Hill
#
# Bulk Modulus (GPa) = 20.99273 39.44402 30.21838
# Shear Modulus (GPa) = 25.25703 35.96567 30.61135
#
# Velocity S-wave (km/s) = 3.15986 3.77069 3.47871
# Velocity P-wave (km/s) = 4.64886 5.87798 5.29918
#
# Compressibility (1/GPa) = 0.04763554
#
# Stress axis : x y z
#
# Youngs Moduli (GPa) = 60.29309 38.96916 61.44786
#
# Poissons Ratio (x) = 0.07925 0.33658
# Poissons Ratio (y) = 0.12262 -0.12710
# Poissons Ratio (z) = 0.33025 -0.08060
#
# Static dielectric constant tensor:
#      x y z
#    x 1.993660 -0.020340 -0.011870 
#    y -0.020340 1.936750 0.018210 
#    z -0.011870 0.018210 2.223340 
# 
# From -- ./inp_files/188734.got.cif
#   From: 2010.05.17/outbox.cif.g08.bks.cpg/sg2_95_cif.got.tgz:188734.got - 2010.06.03 11:33:40.
