data_PCOD9017993
_publ_section_title
;
Structure prediction by ZEFSAII (Michael W. Deem and Ramdas Pophale) SiO2 
 PCOD9017993
Probable space group: P -1
;
_chemical_formula_sum "Si O2"
_cell_formula_units_Z 14
_cell_length_a 11.152174
_cell_length_b 20.529850
_cell_length_c 20.632345
_cell_angle_alpha 161.178859
_cell_angle_beta 149.173766
_cell_angle_gamma 22.301466
_cell_volume 572.712881
_symmetry_space_group_name_H-M "P -1"
_symmetry_group_IT_number 2
_symmetry_cell_setting 'triclinic'
loop_
_space_group_symop_operation_xyz
x,y,z
-x,-y,-z
loop_
_atom_site_type_symbol
_atom_site_label
_atom_site_fract_x
_atom_site_fract_y
_atom_site_fract_z
Si Si1 0.449932 0.153157 0.542205
Si Si2 0.654774 0.115210 0.965718
Si Si3 0.712786 0.628752 0.684875
Si Si4 0.593341 0.170547 0.398232
Si Si5 0.680378 0.186025 0.805798
Si Si6 0.613077 0.158186 0.136633
Si Si7 0.295461 0.666289 0.263792
O O1 0.697145 0.068538 0.633244
O O2 0.500800 0.288489 0.638282
O O3 0.091112 0.397405 0.632354
O O4 0.485604 0.892044 0.301138
O O5 0.576430 0.224381 0.106151
O O6 0.423029 0.364856 0.043480
O O7 0.625470 0.890051 0.737694
O O8 0.000000 0.000000 0.000000
O O9 0.609172 0.623015 0.703257
O O10 0.564023 0.633733 0.553148
O O11 0.581097 0.934061 0.909875
O O12 0.942388 0.874714 0.266928
O O13 0.673657 0.268958 0.587759
O O14 0.500000 0.500000 0.000000
O O15 0.023276 0.019540 0.838984
#
# Coordination Sequence:
#
# PCOD9017993 Si02
#       7
#     2   2   2   2   2   2   2
#     4  11  25  42  69 102 130 179 230 281 337 411
#     4  11  25  43  70 102 136 181 227 277 339 406
#     4  10  21  43  67  97 135 173 232 280 336 400
#     4  10  24  44  67  99 137 181 226 281 337 401
#     4  11  24  44  66  99 135 174 224 283 349 400
#     4  10  22  42  66  99 135 179 218 283 340 398
#     4  11  24  45  68  98 139 181 226 276 340 406
#
# _framework density 24.445059000000001
#
# number of rings (size 3 to 8) (size 9 to 14) (size 15 to 20)
#    0.000    1.429    1.429    3.000    4.000    1.714 
#   10.286    0.000    0.000    0.000    0.000    0.000 
#    0.000    0.000    0.000    0.000    0.000    0.000 
#
# Total GULP energy -78222.482573 kJ/mol
# GULP energy per Si atom -5587.320184 kJ/mol
# Density = 2.438942 g / cm^3
# Si number density = 24.445059 Si / 1000 Ang^3
#
#
#
# Elastic Constant Matrix: (Units=GPa)
#
#
# Indices 1 2 3 4 5 6 
#
# 1 129.6197 27.4900 26.1611 17.1119 27.7685 13.3334
# 2 27.4900 80.9630 -2.3329 -2.3116 0.1541 12.2775
# 3 26.1611 -2.3329 57.0464 -5.1236 11.7199 2.4375
# 4 17.1119 -2.3116 -5.1236 44.6670 11.8467 2.2045
# 5 27.7685 0.1541 11.7199 11.8467 39.5791 -6.0849
# 6 13.3334 12.2775 2.4375 2.2045 -6.0849 31.6493
#
#
#
# Elastic Compliance Matrix: (Units=1/GPa)
#
#
# Indices 1 2 3 4 5 6 
#
# 1 0.011556 -0.003479 -0.004194 -0.003138 -0.006565 -0.004239
# 2 -0.003479 0.014352 0.002563 0.002540 0.000183 -0.004441
# 3 -0.004194 0.002563 0.021291 0.005740 -0.005446 -0.002314
# 4 -0.003138 0.002540 0.005740 0.026684 -0.008035 -0.003509
# 5 -0.006565 0.000183 -0.005446 -0.008035 0.035503 0.010500
# 6 -0.004239 -0.004441 -0.002314 -0.003509 0.010500 0.037546
#
#
# Mechanical properties :
#
#
# Convention : Reuss Voigt Hill
#
# Bulk Modulus (GPa) = 27.04232 41.14060 34.09146
# Shear Modulus (GPa) = 29.50244 37.59980 33.55112
#
# Velocity S-wave (km/s) = 3.47780 3.92616 3.70876
# Velocity P-wave (km/s) = 5.21663 6.11714 5.68474
#
# Compressibility (1/GPa) = 0.03697907
#
# Stress axis : x y z
#
# Youngs Moduli (GPa) = 86.53737 69.67707 46.96846
#
# Poissons Ratio (x) = 0.24238 0.19697
# Poissons Ratio (y) = 0.30103 -0.12036
# Poissons Ratio (z) = 0.36291 -0.17855
#
# Static dielectric constant tensor:
#      x y z
#    x 1.995980 0.000500 0.022220 
#    y 0.000500 1.904040 0.014420 
#    z 0.022220 0.014420 2.048670 
# 
# From -- ./inp_files/263791.got.cif
#   From: 2010.05.17/outbox.cif.g08.bks.cpg/sg2_132_cif.got.tgz:263791.got - 2010.06.03 11:33:40.
