data_PCOD9017463
_publ_section_title
;
Structure prediction by ZEFSAII (Michael W. Deem and Ramdas Pophale) SiO2 
 PCOD9017463
Probable space group: P -1
;
_chemical_formula_sum "Si O2"
_cell_formula_units_Z 14
_cell_length_a 7.471876
_cell_length_b 11.224454
_cell_length_c 15.769849
_cell_angle_alpha 130.269135
_cell_angle_beta 135.517872
_cell_angle_gamma 40.172103
_cell_volume 582.631705
_symmetry_space_group_name_H-M "P -1"
_symmetry_group_IT_number 2
_symmetry_cell_setting 'triclinic'
loop_
_space_group_symop_operation_xyz
x,y,z
-x,-y,-z
loop_
_atom_site_type_symbol
_atom_site_label
_atom_site_fract_x
_atom_site_fract_y
_atom_site_fract_z
Si Si1 0.497423 0.043884 0.393515
Si Si2 0.512306 0.938030 0.794357
Si Si3 0.643296 0.572211 0.423897
Si Si4 0.809079 0.056316 0.047929
Si Si5 0.563683 0.548640 0.851335
Si Si6 0.960175 0.172117 0.407444
Si Si7 0.977736 0.673940 0.962745
O O1 0.445961 0.022133 0.268960
O O2 0.516211 0.226383 0.492875
O O3 0.217637 0.087538 0.380354
O O4 0.824165 0.867824 0.457151
O O5 0.818985 0.743510 0.847397
O O6 0.218254 0.928670 0.695410
O O7 0.485632 0.096281 0.920174
O O8 0.487761 0.581705 0.286066
O O9 0.000000 0.500000 0.500000
O O10 0.691524 0.394062 0.407732
O O11 0.749942 0.242553 0.153586
O O12 0.925309 0.875619 0.062704
O O13 0.000000 0.000000 0.000000
O O14 0.788403 0.595397 0.902490
O O15 0.681698 0.473057 0.951496
#
# Coordination Sequence:
#
# PCOD9017463 Si02
#       7
#     2   2   2   2   2   2   2
#     4  10  23  41  66  95 128 168 215 262 318 391
#     4  10  22  44  62  99 128 160 222 263 326 383
#     4  10  22  38  63  93 119 172 207 263 316 370
#     4  10  24  40  62  94 128 172 208 272 327 378
#     4  11  21  44  66  90 133 162 230 259 319 406
#     4  10  21  43  63  92 129 174 207 262 327 372
#     4   9  23  41  65  99 119 180 208 273 332 369
#
# _framework density 24.0289
#
# number of rings (size 3 to 8) (size 9 to 14) (size 15 to 20)
#    0.857    1.143    1.429    0.857    4.000    4.571 
#    7.714    0.000    0.000    0.000    0.000    0.000 
#    0.000    0.000    0.000    0.000    0.000    0.000 
#
# Total GULP energy -78043.269220 kJ/mol
# GULP energy per Si atom -5574.519230 kJ/mol
# Density = 2.397421 g / cm^3
# Si number density = 24.028900 Si / 1000 Ang^3
#
#
#
# Elastic Constant Matrix: (Units=GPa)
#
#
# Indices 1 2 3 4 5 6 
#
# 1 28.1854 -0.2499 -43.8116 6.7597 50.7183 42.8709
# 2 -0.2499 48.1245 28.0394 -22.5342 -8.9047 3.6437
# 3 -43.8116 28.0394 -1.7223 11.0442 77.9007 54.0354
# 4 6.7597 -22.5342 11.0442 33.2718 -29.9082 -29.7320
# 5 50.7183 -8.9047 77.9007 -29.9082 -46.8828 -49.5217
# 6 42.8709 3.6437 54.0354 -29.7320 -49.5217 -6.0369
#
#
#
# Elastic Compliance Matrix: (Units=1/GPa)
#
#
# Indices 1 2 3 4 5 6 
#
# 1 0.017177 0.007355 -0.004032 0.007820 0.006424 -0.000877
# 2 0.007355 0.028502 -0.004378 0.009873 -0.001094 -0.009407
# 3 -0.004032 -0.004378 0.013193 0.006072 0.005949 0.008113
# 4 0.007820 0.009873 0.006072 0.030533 -0.004393 0.001504
# 5 0.006424 -0.001094 0.005949 -0.004393 0.016709 -0.017225
# 6 -0.000877 -0.009407 0.008113 0.001504 -0.017225 0.028954
#
#
# Mechanical properties :
#
#
# Convention : Reuss Voigt Hill
#
# Bulk Modulus (GPa) = 17.61742 4.72705 11.17224
# Shear Modulus (GPa) = 32.03118 2.11107 17.07113
#
# Velocity S-wave (km/s) = 3.65503 0.93833 2.66830
# Velocity P-wave (km/s) = 5.01597 1.77354 3.76201
#
# Compressibility (1/GPa) = 0.05676199
#
# Stress axis : x y z
#
# Youngs Moduli (GPa) = 58.21704 35.08568 75.79755
#
# Poissons Ratio (x) = -0.25807 0.30561
# Poissons Ratio (y) = -0.42821 0.33187
# Poissons Ratio (z) = 0.23473 0.15362
#
# Static dielectric constant tensor:
#      x y z
#    x 1.971160 0.019830 0.031340 
#    y 0.019830 1.959360 0.008390 
#    z 0.031340 0.008390 1.928010 
# 
# From -- ./inp_files/558639.got.cif
#   From: 2010.05.17/outbox.cif.g08.bks.cpg/sg2_280_cif.got.tgz:558639.got - 2010.06.03 11:33:40.
