data_PCOD9017157
_publ_section_title
;
Structure prediction by ZEFSAII (Michael W. Deem and Ramdas Pophale) SiO2 
 PCOD9017157
Probable space group: P -1
;
_chemical_formula_sum "Si O2"
_cell_formula_units_Z 14
_cell_length_a 8.603454
_cell_length_b 11.110478
_cell_length_c 17.802824
_cell_angle_alpha 31.416646
_cell_angle_beta 128.567244
_cell_angle_gamma 136.352315
_cell_volume 612.176956
_symmetry_space_group_name_H-M "P -1"
_symmetry_group_IT_number 2
_symmetry_cell_setting 'triclinic'
loop_
_space_group_symop_operation_xyz
x,y,z
-x,-y,-z
loop_
_atom_site_type_symbol
_atom_site_label
_atom_site_fract_x
_atom_site_fract_y
_atom_site_fract_z
Si Si1 0.660582 0.679565 0.603064
Si Si2 0.084638 0.544887 0.299140
Si Si3 0.813726 0.056489 0.014303
Si Si4 0.591557 0.139413 0.372925
Si Si5 0.151286 0.150152 0.186845
Si Si6 0.845313 0.597504 0.446409
Si Si7 0.327482 0.599047 0.103157
O O1 0.827039 0.628020 0.628848
O O2 0.398303 0.472432 0.622219
O O3 0.714009 0.633320 0.728220
O O4 0.666049 0.954137 0.448608
O O5 0.139778 0.787615 0.132485
O O6 0.198365 0.558225 0.405977
O O7 0.819353 0.404305 0.310734
O O8 0.751417 0.213989 0.976331
O O9 0.031378 0.063453 0.115723
O O10 0.595708 0.781279 0.080199
O O11 0.394026 0.162388 0.258627
O O12 0.500000 0.000000 0.500000
O O13 0.202963 0.440507 0.075490
O O14 0.988289 0.912566 0.319686
O O15 0.000000 0.500000 0.500000
#
# Coordination Sequence:
#
# PCOD9017157 Si02
#       7
#     2   2   2   2   2   2   2
#     4  11  21  41  69 102 137 175 233 284 335 403
#     4  11  25  43  65 101 136 177 229 290 338 399
#     4  10  24  44  64 101 144 177 227 279 341 406
#     4  12  22  41  68  97 133 179 229 281 343 400
#     4  12  23  41  73  98 133 185 231 268 339 420
#     4  12  23  43  72 101 135 177 232 281 348 412
#     4  10  21  42  71  97 139 189 220 273 345 414
#
# _framework density 22.869205000000001
#
# number of rings (size 3 to 8) (size 9 to 14) (size 15 to 20)
#    0.000    0.857    5.714    1.286    0.000    1.714 
#    2.571    2.857    0.000    0.000    0.000    0.000 
#    0.000    0.000    0.000    0.000    0.000    0.000 
#
# Total GULP energy -78226.192711 kJ/mol
# GULP energy per Si atom -5587.585194 kJ/mol
# Density = 2.281715 g / cm^3
# Si number density = 22.869205 Si / 1000 Ang^3
#
#
#
# Elastic Constant Matrix: (Units=GPa)
#
#
# Indices 1 2 3 4 5 6 
#
# 1 76.1765 11.7818 27.9652 -0.7383 -7.3267 11.7181
# 2 11.7818 105.8434 4.4116 -2.1336 -6.5597 6.1759
# 3 27.9652 4.4116 58.5749 11.7767 -1.7618 -14.9504
# 4 -0.7383 -2.1336 11.7767 39.4492 -3.2031 5.8812
# 5 -7.3267 -6.5597 -1.7618 -3.2031 33.9275 9.6662
# 6 11.7181 6.1759 -14.9504 5.8812 9.6662 29.5191
#
#
#
# Elastic Compliance Matrix: (Units=1/GPa)
#
#
# Indices 1 2 3 4 5 6 
#
# 1 0.027901 0.000862 -0.023460 0.013367 0.014985 -0.030708
# 2 0.000862 0.010115 -0.003079 0.002667 0.003893 -0.005824
# 3 -0.023460 -0.003079 0.042774 -0.020951 -0.017223 0.041435
# 4 0.013367 0.002667 -0.020951 0.037379 0.013962 -0.028494
# 5 0.014985 0.003893 -0.017223 0.013962 0.043114 -0.032386
# 6 -0.030708 -0.005824 0.041435 -0.028494 -0.032386 0.084552
#
#
# Mechanical properties :
#
#
# Convention : Reuss Voigt Hill
#
# Bulk Modulus (GPa) = 33.97151 36.54580 35.25866
# Shear Modulus (GPa) = 16.28652 33.67490 24.98071
#
# Velocity S-wave (km/s) = 2.67153 3.84148 3.30863
# Velocity P-wave (km/s) = 4.93994 5.97419 5.48152
#
# Compressibility (1/GPa) = 0.02943643
#
# Stress axis : x y z
#
# Youngs Moduli (GPa) = 35.84086 98.86163 23.37849
#
# Poissons Ratio (x) = -0.08522 0.54846
# Poissons Ratio (y) = -0.03089 0.07198
# Poissons Ratio (z) = 0.84083 0.30439
#
# Static dielectric constant tensor:
#      x y z
#    x 1.909590 -0.044610 0.042020 
#    y -0.044610 1.873870 -0.013730 
#    z 0.042020 -0.013730 1.855720 
# 
# From -- ./inp_files/281823.got.cif
#   From: 2010.05.17/outbox.cif.g08.bks.cpg/sg2_141_cif.got.tgz:281823.got - 2010.06.03 11:33:40.
