data_PCOD9017399
_publ_section_title
;
Structure prediction by ZEFSAII (Michael W. Deem and Ramdas Pophale) SiO2 
 PCOD9017399
Probable space group: P -1
;
_chemical_formula_sum "Si O2"
_cell_formula_units_Z 14
_cell_length_a 7.720149
_cell_length_b 7.115865
_cell_length_c 20.712359
_cell_angle_alpha 45.205460
_cell_angle_beta 77.671679
_cell_angle_gamma 58.872492
_cell_volume 669.589282
_symmetry_space_group_name_H-M "P -1"
_symmetry_group_IT_number 2
_symmetry_cell_setting 'triclinic'
loop_
_space_group_symop_operation_xyz
x,y,z
-x,-y,-z
loop_
_atom_site_type_symbol
_atom_site_label
_atom_site_fract_x
_atom_site_fract_y
_atom_site_fract_z
Si Si1 0.531825 0.957401 0.584280
Si Si2 0.885489 0.297691 0.891209
Si Si3 0.508837 0.340216 0.971067
Si Si4 0.156922 0.987781 0.672939
Si Si5 0.776537 0.592586 0.129768
Si Si6 0.911379 0.970902 0.581997
Si Si7 0.933981 0.355476 0.729727
O O1 0.323637 0.064445 0.614306
O O2 0.691822 0.588070 0.673783
O O3 0.665612 0.103356 0.562737
O O4 0.500000 0.000000 0.500000
O O5 0.643960 0.423452 0.892433
O O6 0.944592 0.209503 0.833387
O O7 0.984359 0.499113 0.857180
O O8 0.000000 0.000000 0.000000
O O9 0.292031 0.446182 0.926932
O O10 0.500000 0.500000 0.000000
O O11 0.630612 0.965488 0.062761
O O12 0.260712 0.619936 0.767425
O O13 0.981993 0.093611 0.605934
O O14 0.057226 0.141230 0.712069
O O15 0.006576 0.601907 0.674434
O O16 0.000000 0.000000 0.500000
#
# Coordination Sequence:
#
# PCOD9017399 Si02
#       7
#     2   2   2   2   2   2   2
#     4  10  22  42  67  95 129 167 210 273 321 381
#     4  10  21  43  61  90 132 164 218 268 312 378
#     4  10  23  41  61  93 128 161 221 268 307 386
#     4  12  22  43  68  91 135 170 210 265 334 379
#     4  10  22  39  62  91 122 172 210 254 327 373
#     4  10  22  43  65  96 130 162 220 265 314 404
#     4  10  24  43  62  99 131 166 221 271 314 393
#
# _framework density 20.908339000000002
#
# number of rings (size 3 to 8) (size 9 to 14) (size 15 to 20)
#    0.857    0.857    2.857    0.857    4.000    2.857 
#   10.286    1.429    0.000    0.000    0.000    0.000 
#    0.000    0.000    0.000    0.000    0.000    0.000 
#
# Total GULP energy -78052.216875 kJ/mol
# GULP energy per Si atom -5575.158348 kJ/mol
# Density = 2.086075 g / cm^3
# Si number density = 20.908339 Si / 1000 Ang^3
#
#
#
# Elastic Constant Matrix: (Units=GPa)
#
#
# Indices 1 2 3 4 5 6 
#
# 1 141.7378 49.1234 40.6910 30.8686 -2.5080 11.9438
# 2 49.1234 101.3045 43.0256 42.1369 1.6745 9.8346
# 3 40.6910 43.0256 126.9360 42.5998 -0.0192 0.6949
# 4 30.8686 42.1369 42.5998 40.0584 -0.6241 2.4215
# 5 -2.5080 1.6745 -0.0192 -0.6241 37.9445 8.4117
# 6 11.9438 9.8346 0.6949 2.4215 8.4117 19.4515
#
#
#
# Elastic Compliance Matrix: (Units=1/GPa)
#
#
# Indices 1 2 3 4 5 6 
#
# 1 0.009308 -0.002199 -0.001071 -0.003397 0.001741 -0.004895
# 2 -0.002199 0.018971 0.000488 -0.018418 0.000041 -0.005984
# 3 -0.001071 0.000488 0.012413 -0.013015 -0.000721 0.001899
# 4 -0.003397 -0.018418 -0.013015 0.060563 0.000685 0.004028
# 5 0.001741 0.000041 -0.000721 0.000685 0.029568 -0.013936
# 6 -0.004895 -0.005984 0.001899 0.004028 -0.013936 0.062899
#
#
# Mechanical properties :
#
#
# Convention : Reuss Voigt Hill
#
# Bulk Modulus (GPa) = 28.46663 70.62871 49.54767
# Shear Modulus (GPa) = 23.69717 35.30010 29.49863
#
# Velocity S-wave (km/s) = 3.37023 4.11338 3.76021
# Velocity P-wave (km/s) = 5.36555 7.51088 6.52696
#
# Compressibility (1/GPa) = 0.03512885
#
# Stress axis : x y z
#
# Youngs Moduli (GPa) = 107.43203 52.71137 80.55948
#
# Poissons Ratio (x) = 0.11592 0.08630
# Poissons Ratio (y) = 0.23625 -0.03935
# Poissons Ratio (z) = 0.11509 -0.02575
#
# Static dielectric constant tensor:
#      x y z
#    x 1.811860 0.003150 0.009210 
#    y 0.003150 1.757810 -0.050870 
#    z 0.009210 -0.050870 1.759960 
# 
# From -- ./inp_files/553255.got.cif
#   From: 2010.05.17/outbox.cif.g08.bks.cpg/sg2_277_cif.got.tgz:553255.got - 2010.06.03 11:33:40.
