data_PCOD9017243
_publ_section_title
;
Structure prediction by ZEFSAII (Michael W. Deem and Ramdas Pophale) SiO2 
 PCOD9017243
Probable space group: P -1
;
_chemical_formula_sum "Si O2"
_cell_formula_units_Z 16
_cell_length_a 12.996976
_cell_length_b 6.468088
_cell_length_c 11.786043
_cell_angle_alpha 101.025745
_cell_angle_beta 99.190969
_cell_angle_gamma 48.681583
_cell_volume 729.654354
_symmetry_space_group_name_H-M "P -1"
_symmetry_group_IT_number 2
_symmetry_cell_setting 'triclinic'
loop_
_space_group_symop_operation_xyz
x,y,z
-x,-y,-z
loop_
_atom_site_type_symbol
_atom_site_label
_atom_site_fract_x
_atom_site_fract_y
_atom_site_fract_z
Si Si1 0.597379 0.074666 0.512768
Si Si2 0.142342 0.202836 0.080631
Si Si3 0.166613 0.491930 0.936153
Si Si4 0.118359 0.502166 0.485062
Si Si5 0.302658 0.629624 0.151163
Si Si6 0.193187 0.679238 0.734108
Si Si7 0.444314 0.628247 0.691688
Si Si8 0.922825 0.281691 0.742419
O O1 0.535972 0.338968 0.607552
O O2 0.602764 0.146605 0.390492
O O3 0.500000 0.000000 0.500000
O O4 0.746822 0.809903 0.551914
O O5 0.105892 0.456251 0.175925
O O6 0.999323 0.261557 0.057091
O O7 0.262077 0.911884 0.127437
O O8 0.184403 0.238786 0.969069
O O9 0.210549 0.483330 0.815443
O O10 0.253245 0.536098 0.034398
O O11 0.157607 0.604331 0.604778
O O12 0.071723 0.691011 0.387208
O O13 0.000000 0.500000 0.500000
O O14 0.456443 0.405846 0.198874
O O15 0.202537 0.704677 0.245739
O O16 0.320934 0.662350 0.730577
O O17 0.062744 0.992329 0.777259
#
# Coordination Sequence:
#
# PCOD9017243 Si02
#       8
#     2   2   2   2   2   2   2   2
#     4  11  23  47  68  92 134 181 221 257 329 408
#     4  10  21  42  72  97 124 177 221 275 330 379
#     4  10  23  40  68  97 132 172 221 275 326 385
#     4  12  25  42  70 102 132 171 219 277 334 390
#     4  11  23  43  69  97 127 174 229 266 317 399
#     4  12  25  44  62 101 142 170 213 280 336 384
#     4  11  26  42  68  95 135 179 214 269 331 394
#     4  11  24  40  70  98 130 166 223 276 324 392
#
# _framework density 21.928193
#
# number of rings (size 3 to 8) (size 9 to 14) (size 15 to 20)
#    0.000    1.000    2.500    3.750    7.000    1.500 
#    0.000    0.625    0.000    0.000    0.000    0.000 
#    0.000    0.000    0.000    0.000    0.000    0.000 
#
# Total GULP energy -89552.132098 kJ/mol
# GULP energy per Si atom -5597.008256 kJ/mol
# Density = 2.187828 g / cm^3
# Si number density = 21.928193 Si / 1000 Ang^3
#
#
#
# Elastic Constant Matrix: (Units=GPa)
#
#
# Indices 1 2 3 4 5 6 
#
# 1 144.0152 20.1884 37.4890 -17.4721 -15.8832 -3.7868
# 2 20.1884 45.6641 4.8952 -10.1167 -6.3598 12.9176
# 3 37.4890 4.8952 99.3790 -27.2293 -7.5911 23.4662
# 4 -17.4721 -10.1167 -27.2293 37.7802 12.5711 -5.9278
# 5 -15.8832 -6.3598 -7.5911 12.5711 38.1579 -8.7424
# 6 -3.7868 12.9176 23.4662 -5.9278 -8.7424 29.6105
#
#
#
# Elastic Compliance Matrix: (Units=1/GPa)
#
#
# Indices 1 2 3 4 5 6 
#
# 1 0.009868 -0.006060 -0.005626 -0.001132 0.004521 0.009472
# 2 -0.006060 0.030763 0.007532 0.008915 -0.003266 -0.019344
# 3 -0.005626 0.007532 0.019020 0.012075 -0.005468 -0.018275
# 4 -0.001132 0.008915 0.012075 0.039490 -0.011689 -0.009149
# 5 0.004521 -0.003266 -0.005468 -0.011689 0.033489 0.013884
# 6 0.009472 -0.019344 -0.018275 -0.009149 0.013884 0.060173
#
#
# Mechanical properties :
#
#
# Convention : Reuss Voigt Hill
#
# Bulk Modulus (GPa) = 19.47687 46.02262 32.74974
# Shear Modulus (GPa) = 22.91216 36.20877 29.56047
#
# Velocity S-wave (km/s) = 3.23596 4.06796 3.67557
# Velocity P-wave (km/s) = 4.78156 6.56489 5.74287
#
# Compressibility (1/GPa) = 0.05134296
#
# Stress axis : x y z
#
# Youngs Moduli (GPa) = 101.33699 32.50627 52.57656
#
# Poissons Ratio (x) = 0.19700 0.29577
# Poissons Ratio (y) = 0.61414 -0.39599
# Poissons Ratio (z) = 0.57007 -0.24483
#
# Static dielectric constant tensor:
#      x y z
#    x 1.765220 0.017440 0.001450 
#    y 0.017440 1.789840 0.016600 
#    z 0.001450 0.016600 1.818060 
# 
# From -- ./inp_files/109747.got.cif
#   From: 2010.05.17/outbox.cif.g08.bks.cpg/sg2_55_cif.got.tgz:109747.got - 2010.06.03 11:33:40.
