data_PCOD9017641
_publ_section_title
;
Structure prediction by ZEFSAII (Michael W. Deem and Ramdas Pophale) SiO2 
 PCOD9017641
Probable space group: P -1
;
_chemical_formula_sum "Si O2"
_cell_formula_units_Z 14
_cell_length_a 9.432829
_cell_length_b 16.248271
_cell_length_c 12.323945
_cell_angle_alpha 41.760832
_cell_angle_beta 130.308281
_cell_angle_gamma 149.948013
_cell_volume 629.994408
_symmetry_space_group_name_H-M "P -1"
_symmetry_group_IT_number 2
_symmetry_cell_setting 'triclinic'
loop_
_space_group_symop_operation_xyz
x,y,z
-x,-y,-z
loop_
_atom_site_type_symbol
_atom_site_label
_atom_site_fract_x
_atom_site_fract_y
_atom_site_fract_z
Si Si1 0.237275 0.942121 0.876808
Si Si2 0.271022 0.406076 0.657992
Si Si3 0.902170 0.066706 0.957532
Si Si4 0.662838 0.830417 0.486114
Si Si5 0.150180 0.616803 0.574128
Si Si6 0.591096 0.328859 0.916129
Si Si7 0.109217 0.467861 0.927040
O O1 0.374809 0.106742 0.701259
O O2 0.070817 0.926468 0.907211
O O3 0.019995 0.733426 0.927328
O O4 0.500000 0.000000 0.000000
O O5 0.521582 0.625465 0.598803
O O6 0.414993 0.349454 0.749578
O O7 0.068275 0.265334 0.796910
O O8 0.046709 0.364445 0.511192
O O9 0.566883 0.882510 0.954123
O O10 0.000000 0.000000 0.000000
O O11 0.475920 0.797810 0.521534
O O12 0.000000 0.000000 0.500000
O O13 0.151326 0.523725 0.767413
O O14 0.000000 0.500000 0.500000
O O15 0.882490 0.451710 0.878519
O O16 0.631817 0.390755 0.000100
#
# Coordination Sequence:
#
# PCOD9017641 Si02
#       7
#     2   2   2   2   2   2   2
#     4  12  21  39  72  95 128 184 227 270 328 416
#     4  10  21  43  65  93 135 175 221 274 334 404
#     4  10  22  41  65  97 132 174 230 273 330 407
#     4  11  24  40  65 102 135 167 223 286 344 395
#     4  10  22  41  65  97 133 173 224 276 335 400
#     4  10  23  41  68 100 135 178 228 283 340 395
#     4  11  23  42  69  99 138 177 228 284 339 398
#
# _framework density 22.222418000000001
#
# number of rings (size 3 to 8) (size 9 to 14) (size 15 to 20)
#    0.000    1.429    1.429    5.143    0.000    2.857 
#    2.571    7.857    0.000    0.000    0.000    0.000 
#    0.000    0.000    0.000    0.000    0.000    0.000 
#
# Total GULP energy -78047.390270 kJ/mol
# GULP energy per Si atom -5574.813591 kJ/mol
# Density = 2.217184 g / cm^3
# Si number density = 22.222418 Si / 1000 Ang^3
#
#
#
# Elastic Constant Matrix: (Units=GPa)
#
#
# Indices 1 2 3 4 5 6 
#
# 1 84.6000 18.1067 21.5449 -1.4970 1.2778 -0.1682
# 2 18.1067 107.6584 33.1098 -23.7201 3.5055 1.8709
# 3 21.5449 33.1098 125.3901 -27.4953 -7.4352 -7.1544
# 4 -1.4970 -23.7201 -27.4953 32.3599 1.8006 0.3611
# 5 1.2778 3.5055 -7.4352 1.8006 32.3981 3.2914
# 6 -0.1682 1.8709 -7.1544 0.3611 3.2914 41.8988
#
#
#
# Elastic Compliance Matrix: (Units=1/GPa)
#
#
# Indices 1 2 3 4 5 6 
#
# 1 0.012811 -0.002040 -0.002336 -0.002850 -0.000644 -0.000181
# 2 -0.002040 0.011753 -0.001238 0.007578 -0.001829 -0.000666
# 3 -0.002336 -0.001238 0.010652 0.007902 0.002065 0.001634
# 4 -0.002850 0.007578 0.007902 0.043108 -0.001365 0.000735
# 5 -0.000644 -0.001829 0.002065 -0.001365 0.031848 -0.002058
# 6 -0.000181 -0.000666 0.001634 0.000735 -0.002058 0.024330
#
#
# Mechanical properties :
#
#
# Convention : Reuss Voigt Hill
#
# Bulk Modulus (GPa) = 41.68606 51.46348 46.57477
# Shear Modulus (GPa) = 32.52554 37.65715 35.09135
#
# Velocity S-wave (km/s) = 3.82990 4.12097 3.97810
# Velocity P-wave (km/s) = 6.19329 6.77139 6.48878
#
# Compressibility (1/GPa) = 0.02398883
#
# Stress axis : x y z
#
# Youngs Moduli (GPa) = 78.05945 85.08305 93.88123
#
# Poissons Ratio (x) = 0.17356 0.21930
# Poissons Ratio (y) = 0.15924 0.11619
# Poissons Ratio (z) = 0.18234 0.10530
#
# Static dielectric constant tensor:
#      x y z
#    x 1.931530 0.029330 0.013080 
#    y 0.029330 1.892960 0.019790 
#    z 0.013080 0.019790 1.770750 
# 
# From -- ./inp_files/398645.got.cif
#   From: 2010.05.17/outbox.cif.g08.bks.cpg/sg2_200_cif.got.tgz:398645.got - 2010.06.03 11:33:40.
