data_PCOD9017124
_publ_section_title
;
Structure prediction by ZEFSAII (Michael W. Deem and Ramdas Pophale) SiO2 
 PCOD9017124
Probable space group: P -1
;
_chemical_formula_sum "Si O2"
_cell_formula_units_Z 10
_cell_length_a 6.731139
_cell_length_b 13.885159
_cell_length_c 16.134310
_cell_angle_alpha 21.669116
_cell_angle_beta 45.983353
_cell_angle_gamma 44.349083
_cell_volume 386.531941
_symmetry_space_group_name_H-M "P -1"
_symmetry_group_IT_number 2
_symmetry_cell_setting 'triclinic'
loop_
_space_group_symop_operation_xyz
x,y,z
-x,-y,-z
loop_
_atom_site_type_symbol
_atom_site_label
_atom_site_fract_x
_atom_site_fract_y
_atom_site_fract_z
Si Si1 0.944109 0.462598 0.951022
Si Si2 0.495393 0.397642 0.386062
Si Si3 0.376357 0.917177 0.730734
Si Si4 0.522780 0.194699 0.714378
Si Si5 0.891645 0.049071 0.884558
O O1 0.690249 0.719247 0.791756
O O2 0.241689 0.477390 0.810814
O O3 0.813540 0.205823 0.179300
O O4 0.000000 0.500000 0.000000
O O5 0.596932 0.189734 0.600123
O O6 0.230243 0.640314 0.299456
O O7 0.402500 0.225222 0.476909
O O8 0.213124 0.916118 0.867595
O O9 0.500000 0.500000 0.500000
O O10 0.728840 0.042923 0.848639
O O11 0.226353 0.121239 0.877165
#
# Coordination Sequence:
#
# PCOD9017124 Si02
#       5
#     2   2   2   2   2
#     4  11  27  50  70 100 146 190 234 293 344 421
#     4  11  24  45  73 105 142 185 233 293 354 413
#     4  11  25  46  73 106 135 188 242 280 358 421
#     4   9  19  38  70 103 147 181 219 291 355 406
#     4  10  21  42  71 109 141 178 233 295 351 414
#
# _framework density 25.871082999999999
#
# number of rings (size 3 to 8) (size 9 to 14) (size 15 to 20)
#    0.000    1.600    0.000    4.800    5.600    1.600 
#   14.400    0.000    0.000    0.000    0.000    0.000 
#    0.000    0.000    0.000    0.000    0.000    0.000 
#
# Total GULP energy -55873.513090 kJ/mol
# GULP energy per Si atom -5587.351309 kJ/mol
# Density = 2.581220 g / cm^3
# Si number density = 25.871083 Si / 1000 Ang^3
#
#
#
# Elastic Constant Matrix: (Units=GPa)
#
#
# Indices 1 2 3 4 5 6 
#
# 1 125.5873 41.5591 57.0428 -6.0109 -31.5848 30.0939
# 2 41.5591 108.5580 37.1426 -12.5265 -25.5045 -0.7552
# 3 57.0428 37.1426 124.4816 -6.0342 -43.5744 13.4388
# 4 -6.0109 -12.5265 -6.0342 52.6699 19.6773 -10.4738
# 5 -31.5848 -25.5045 -43.5744 19.6773 57.6673 -4.6411
# 6 30.0939 -0.7552 13.4388 -10.4738 -4.6411 40.8669
#
#
#
# Elastic Compliance Matrix: (Units=1/GPa)
#
#
# Indices 1 2 3 4 5 6 
#
# 1 0.013608 -0.003720 -0.002889 -0.002997 0.003886 -0.009466
# 2 -0.003720 0.011868 -0.001682 0.002533 0.001424 0.004323
# 3 -0.002889 -0.001682 0.012755 -0.002653 0.008067 -0.001862
# 4 -0.002997 0.002533 -0.002653 0.024381 -0.010183 0.008218
# 5 0.003886 0.001424 0.008067 -0.010183 0.029285 -0.004772
# 6 -0.009466 0.004323 -0.001862 0.008218 -0.004772 0.033697
#
#
# Mechanical properties :
#
#
# Convention : Reuss Voigt Hill
#
# Bulk Modulus (GPa) = 46.18930 70.01289 58.10110
# Shear Modulus (GPa) = 33.46874 45.09965 39.28419
#
# Velocity S-wave (km/s) = 3.60067 4.17975 3.90097
# Velocity P-wave (km/s) = 5.93117 7.10033 6.54192
#
# Compressibility (1/GPa) = 0.02165003
#
# Stress axis : x y z
#
# Youngs Moduli (GPa) = 73.48689 84.25931 78.39865
#
# Poissons Ratio (x) = 0.31343 0.22649
# Poissons Ratio (y) = 0.27336 0.13186
# Poissons Ratio (z) = 0.21230 0.14172
#
# Static dielectric constant tensor:
#      x y z
#    x 2.168700 -0.040800 -0.031810 
#    y -0.040800 2.076560 -0.006050 
#    z -0.031810 -0.006050 2.011840 
# 
# From -- ./inp_files/63669.got.cif
#   From: 2010.05.17/outbox.cif.g08.bks.cpg/sg2_32_cif.got.tgz:63669.got - 2010.06.03 11:33:40.
