data_PCOD9017783
_publ_section_title
;
Structure prediction by ZEFSAII (Michael W. Deem and Ramdas Pophale) SiO2 
 PCOD9017783
Probable space group: P -1
;
_chemical_formula_sum "Si O2"
_cell_formula_units_Z 16
_cell_length_a 20.905270
_cell_length_b 5.218138
_cell_length_c 17.809672
_cell_angle_alpha 97.336805
_cell_angle_beta 159.682195
_cell_angle_gamma 80.435036
_cell_volume 662.965218
_symmetry_space_group_name_H-M "P -1"
_symmetry_group_IT_number 2
_symmetry_cell_setting 'triclinic'
loop_
_space_group_symop_operation_xyz
x,y,z
-x,-y,-z
loop_
_atom_site_type_symbol
_atom_site_label
_atom_site_fract_x
_atom_site_fract_y
_atom_site_fract_z
Si Si1 0.571104 0.060831 0.182056
Si Si2 0.886208 0.488354 0.797958
Si Si3 0.849133 0.342382 0.032045
Si Si4 0.052714 0.310365 0.734772
Si Si5 0.172370 0.906178 0.741470
Si Si6 0.508556 0.730451 0.455598
Si Si7 0.820570 0.112938 0.591767
Si Si8 0.250230 0.498627 0.697581
O O1 0.665289 0.794964 0.236236
O O2 0.643098 0.044777 0.347611
O O3 0.638706 0.301134 0.219994
O O4 0.352973 0.053460 0.937772
O O5 0.697448 0.679104 0.613206
O O6 0.809489 0.234753 0.667363
O O7 0.000000 0.500000 0.000000
O O8 0.043180 0.542670 0.913763
O O9 0.665905 0.255116 0.791873
O O10 0.798797 0.548123 0.052031
O O11 0.006798 0.115097 0.224652
O O12 0.890850 0.319353 0.619073
O O13 0.956239 0.466426 0.564087
O O14 0.105347 0.015505 0.753053
O O15 0.238802 0.615838 0.773218
O O16 0.000000 0.000000 0.500000
O O17 0.500000 0.500000 0.500000
O O18 0.500000 0.000000 0.500000
#
# Coordination Sequence:
#
# PCOD9017783 Si02
#       8
#     2   2   2   2   2   2   2   2
#     4  11  22  43  66  96 133 173 227 272 338 409
#     4  11  24  45  72  99 138 185 231 279 349 406
#     4  11  23  45  71  94 146 179 228 288 343 409
#     4   9  21  43  60  97 132 174 221 280 340 398
#     4  10  22  41  66  95 132 174 224 279 337 396
#     4  12  28  46  71 108 136 177 233 287 339 410
#     4  10  23  42  67  96 133 184 218 283 341 409
#     4  10  21  43  66  94 128 175 224 274 333 406
#
# _framework density 24.133994999999999
#
# number of rings (size 3 to 8) (size 9 to 14) (size 15 to 20)
#    0.000    1.500    2.500    1.500    5.250    1.000 
#    6.750    4.375    0.000    0.000    0.000    0.000 
#    0.000    0.000    0.000    0.000    0.000    0.000 
#
# Total GULP energy -89324.552155 kJ/mol
# GULP energy per Si atom -5582.784510 kJ/mol
# Density = 2.407906 g / cm^3
# Si number density = 24.133995 Si / 1000 Ang^3
#
#
#
# Elastic Constant Matrix: (Units=GPa)
#
#
# Indices 1 2 3 4 5 6 
#
# 1 85.5045 41.6268 48.3172 17.4156 -23.7457 -34.5735
# 2 41.6268 140.7186 48.3716 17.3210 -18.3115 -34.7823
# 3 48.3172 48.3716 188.4718 31.4907 -23.1959 -20.6485
# 4 17.4156 17.3210 31.4907 35.2547 -13.4989 -12.4437
# 5 -23.7457 -18.3115 -23.1959 -13.4989 42.5197 12.4332
# 6 -34.5735 -34.7823 -20.6485 -12.4437 12.4332 49.6211
#
#
#
# Elastic Compliance Matrix: (Units=1/GPa)
#
#
# Indices 1 2 3 4 5 6 
#
# 1 0.019772 -0.001628 -0.002724 -0.000875 0.005695 0.009855
# 2 -0.001628 0.009332 -0.001255 -0.000742 0.000880 0.004478
# 3 -0.002724 -0.001255 0.007031 -0.004456 0.000693 -0.001143
# 4 -0.000875 -0.000742 -0.004456 0.037578 0.007346 0.004599
# 5 0.005695 0.000880 0.000693 0.007346 0.030025 -0.000807
# 6 0.009855 0.004478 -0.001143 0.004599 -0.000807 0.031038
#
#
# Mechanical properties :
#
#
# Convention : Reuss Voigt Hill
#
# Bulk Modulus (GPa) = 40.12601 76.81402 58.47001
# Shear Modulus (GPa) = 32.40515 43.90439 38.15477
#
# Velocity S-wave (km/s) = 3.66829 4.26983 3.98044
# Velocity P-wave (km/s) = 5.88253 7.49705 6.73832
#
# Compressibility (1/GPa) = 0.02492149
#
# Stress axis : x y z
#
# Youngs Moduli (GPa) = 50.57703 107.15720 142.22927
#
# Poissons Ratio (x) = 0.17441 0.38746
# Poissons Ratio (y) = 0.08232 0.17847
# Poissons Ratio (z) = 0.13778 0.13446
#
# Static dielectric constant tensor:
#      x y z
#    x 1.994340 0.021770 -0.005600 
#    y 0.021770 1.997130 0.046020 
#    z -0.005600 0.046020 1.971150 
# 
# From -- ./inp_files/141179.got.cif
#   From: 2010.05.17/outbox.cif.g08.bks.cpg/sg2_71_cif.got.tgz:141179.got - 2010.06.03 11:33:40.
