data_PCOD9017723
_publ_section_title
;
Structure prediction by ZEFSAII (Michael W. Deem and Ramdas Pophale) SiO2 
 PCOD9017723
Probable space group: P -1
;
_chemical_formula_sum "Si O2"
_cell_formula_units_Z 14
_cell_length_a 12.971912
_cell_length_b 15.168574
_cell_length_c 5.394567
_cell_angle_alpha 122.666578
_cell_angle_beta 123.462339
_cell_angle_gamma 41.132122
_cell_volume 567.320521
_symmetry_space_group_name_H-M "P -1"
_symmetry_group_IT_number 2
_symmetry_cell_setting 'triclinic'
loop_
_space_group_symop_operation_xyz
x,y,z
-x,-y,-z
loop_
_atom_site_type_symbol
_atom_site_label
_atom_site_fract_x
_atom_site_fract_y
_atom_site_fract_z
Si Si1 0.417620 0.660015 0.181002
Si Si2 0.321137 0.130368 0.385492
Si Si3 0.105154 0.931237 0.282437
Si Si4 0.176769 0.116361 0.669551
Si Si5 0.901368 0.398438 0.773003
Si Si6 0.448254 0.407042 0.244032
Si Si7 0.851450 0.590100 0.622816
O O1 0.227385 0.766143 0.160716
O O2 0.500746 0.669508 0.541628
O O3 0.500000 0.500000 0.000000
O O4 0.453209 0.690357 0.006059
O O5 0.217855 0.152389 0.521779
O O6 0.290470 0.269098 0.488025
O O7 0.500000 0.000000 0.500000
O O8 0.265927 0.103928 0.019389
O O9 0.216543 0.973154 0.482090
O O10 0.000000 0.000000 0.500000
O O11 0.000000 0.000000 0.000000
O O12 0.981384 0.240803 0.629939
O O13 0.746567 0.490994 0.887954
O O14 0.832340 0.488457 0.569018
O O15 0.063835 0.376715 0.016734
O O16 0.500000 0.500000 0.500000
O O17 0.000000 0.500000 0.500000
#
# Coordination Sequence:
#
# PCOD9017723 Si02
#       7
#     2   2   2   2   2   2   2
#     4  10  24  43  65  98 137 177 238 284 349 412
#     4  11  24  46  72 100 145 179 229 305 362 425
#     4  12  27  46  72 100 146 193 237 292 353 433
#     4  11  25  44  70 106 137 190 243 280 367 431
#     4  10  23  40  71 100 140 187 234 301 346 431
#     4  10  23  41  67 100 138 178 232 287 355 407
#     4  10  21  43  66 103 133 181 245 284 360 424
#
# _framework density 24.677409000000001
#
# number of rings (size 3 to 8) (size 9 to 14) (size 15 to 20)
#    0.000    1.429    1.429    2.143   10.000    1.143 
#    2.571    0.000    0.000    0.000    0.000    0.000 
#    0.000    0.000    0.000    0.000    0.000    0.000 
#
# Total GULP energy -78116.110973 kJ/mol
# GULP energy per Si atom -5579.722212 kJ/mol
# Density = 2.462124 g / cm^3
# Si number density = 24.677409 Si / 1000 Ang^3
#
#
#
# Elastic Constant Matrix: (Units=GPa)
#
#
# Indices 1 2 3 4 5 6 
#
# 1 65.3561 32.0212 31.3949 -2.7625 -25.2911 0.3299
# 2 32.0212 188.4255 36.9895 -13.5923 -8.4238 -3.4825
# 3 31.3949 36.9895 131.2753 -15.6251 -32.5551 8.1987
# 4 -2.7625 -13.5923 -15.6251 39.1751 2.1066 -2.4899
# 5 -25.2911 -8.4238 -32.5551 2.1066 40.1377 1.9363
# 6 0.3299 -3.4825 8.1987 -2.4899 1.9363 38.4885
#
#
#
# Elastic Compliance Matrix: (Units=1/GPa)
#
#
# Indices 1 2 3 4 5 6 
#
# 1 0.022185 -0.003006 -0.001464 -0.000773 0.012241 -0.000816
# 2 -0.003006 0.006131 -0.001345 0.001545 -0.001831 0.001059
# 3 -0.001464 -0.001345 0.010731 0.003146 0.007458 -0.002567
# 4 -0.000773 0.001545 0.003146 0.027290 0.000899 0.001196
# 5 0.012241 -0.001831 0.007458 0.000899 0.038425 -0.003734
# 6 -0.000816 0.001059 -0.002567 0.001196 -0.003734 0.026897
#
#
# Mechanical properties :
#
#
# Convention : Reuss Voigt Hill
#
# Bulk Modulus (GPa) = 36.47388 65.09644 50.78516
# Shear Modulus (GPa) = 32.80227 42.53700 37.66964
#
# Velocity S-wave (km/s) = 3.64983 4.15628 3.91126
# Velocity P-wave (km/s) = 5.70737 7.03343 6.40481
#
# Compressibility (1/GPa) = 0.02741688
#
# Stress axis : x y z
#
# Youngs Moduli (GPa) = 45.07492 163.09991 93.18960
#
# Poissons Ratio (x) = 0.49034 0.13643
# Poissons Ratio (y) = 0.13551 0.12533
# Poissons Ratio (z) = 0.06599 0.21934
#
# Static dielectric constant tensor:
#      x y z
#    x 1.488830 0.113760 -0.045390 
#    y 0.113760 2.011540 0.108630 
#    z -0.045390 0.108630 2.003800 
# 
# From -- ./inp_files/99452.got.cif
#   From: 2010.05.17/outbox.cif.g08.bks.cpg/sg2_50_cif.got.tgz:99452.got - 2010.06.03 11:33:40.
