data_PCOD9017500
_publ_section_title
;
Structure prediction by ZEFSAII (Michael W. Deem and Ramdas Pophale) SiO2 
 PCOD9017500
Probable space group: P -1
;
_chemical_formula_sum "Si O2"
_cell_formula_units_Z 16
_cell_length_a 12.197110
_cell_length_b 11.721439
_cell_length_c 7.121986
_cell_angle_alpha 38.011249
_cell_angle_beta 96.719021
_cell_angle_gamma 106.757955
_cell_volume 589.830704
_symmetry_space_group_name_H-M "P -1"
_symmetry_group_IT_number 2
_symmetry_cell_setting 'triclinic'
loop_
_space_group_symop_operation_xyz
x,y,z
-x,-y,-z
loop_
_atom_site_type_symbol
_atom_site_label
_atom_site_fract_x
_atom_site_fract_y
_atom_site_fract_z
Si Si1 0.682585 0.548106 0.508034
Si Si2 0.842717 0.796367 0.763591
Si Si3 0.928855 0.808872 0.348902
Si Si4 0.479674 0.203916 0.861650
Si Si5 0.655793 0.428987 0.093537
Si Si6 0.013390 0.553982 0.215495
Si Si7 0.787277 0.152506 0.352175
Si Si8 0.559249 0.907202 0.414280
O O1 0.818148 0.675602 0.373553
O O2 0.613988 0.338607 0.672645
O O3 0.603534 0.674117 0.259182
O O4 0.657744 0.495141 0.792121
O O5 0.875631 0.854203 0.475872
O O6 0.850892 0.992797 0.624355
O O7 0.718517 0.625067 0.965776
O O8 0.928861 0.678092 0.992907
O O9 0.000651 0.657465 0.606492
O O10 0.000000 0.000000 0.000000
O O11 0.421651 0.097502 0.799210
O O12 0.486608 0.058962 0.215111
O O13 0.736258 0.284926 0.306002
O O14 0.525452 0.304839 0.278647
O O15 0.000000 0.500000 0.500000
O O16 0.136815 0.693779 0.983781
O O17 0.678082 0.004204 0.414857
#
# Coordination Sequence:
#
# PCOD9017500 Si02
#       8
#     2   2   2   2   2   2   2   2
#     4  10  21  43  63  97 139 179 225 285 341 405
#     4  11  26  47  71 102 138 187 237 289 352 418
#     4  11  23  44  72 100 141 185 232 292 351 412
#     4  10  22  39  66  96 141 175 231 279 335 416
#     4  11  24  45  70  99 140 184 229 285 344 418
#     4  12  26  48  73 102 141 182 236 299 353 418
#     4  12  24  46  72  99 146 179 235 290 344 421
#     4  11  23  42  67 101 137 186 225 280 348 408
#
# _framework density 27.126425999999999
#
# number of rings (size 3 to 8) (size 9 to 14) (size 15 to 20)
#    0.000    1.000    3.750    3.375    0.000    6.000 
#    4.500    0.000    0.000    0.000    0.000    0.000 
#    0.000    0.000    0.000    0.000    0.000    0.000 
#
# Total GULP energy -89658.558849 kJ/mol
# GULP energy per Si atom -5603.659928 kJ/mol
# Density = 2.706469 g / cm^3
# Si number density = 27.126426 Si / 1000 Ang^3
#
#
#
# Elastic Constant Matrix: (Units=GPa)
#
#
# Indices 1 2 3 4 5 6 
#
# 1 100.3013 23.7669 74.5677 -11.8542 5.7219 6.6825
# 2 23.7669 97.9110 37.1626 -31.3409 -1.7254 -3.7091
# 3 74.5677 37.1626 199.8201 -42.1447 -4.1153 4.0583
# 4 -11.8542 -31.3409 -42.1447 51.9962 -5.1385 -0.3784
# 5 5.7219 -1.7254 -4.1153 -5.1385 60.7410 -14.8906
# 6 6.6825 -3.7091 4.0583 -0.3784 -14.8906 40.9678
#
#
#
# Elastic Compliance Matrix: (Units=1/GPa)
#
#
# Indices 1 2 3 4 5 6 
#
# 1 0.014838 -0.002607 -0.005706 -0.003124 -0.002901 -0.003174
# 2 -0.002607 0.013420 0.000109 0.007786 0.001877 0.002384
# 3 -0.005706 0.000109 0.008337 0.005705 0.001789 0.000818
# 4 -0.003124 0.007786 0.005705 0.028236 0.003857 0.002312
# 5 -0.002901 0.001877 0.001789 0.003857 0.019059 0.007429
# 6 -0.003174 0.002384 0.000818 0.002312 0.007429 0.027784
#
#
# Mechanical properties :
#
#
# Convention : Reuss Voigt Hill
#
# Bulk Modulus (GPa) = 49.53551 74.33630 61.93591
# Shear Modulus (GPa) = 37.08917 48.24337 42.66627
#
# Velocity S-wave (km/s) = 3.70167 4.22176 3.97024
# Velocity P-wave (km/s) = 6.04735 7.15734 6.62563
#
# Compressibility (1/GPa) = 0.02018754
#
# Stress axis : x y z
#
# Youngs Moduli (GPa) = 67.39542 74.51325 119.94518
#
# Poissons Ratio (x) = 0.19426 0.68444
# Poissons Ratio (y) = 0.17571 -0.01313
# Poissons Ratio (z) = 0.38458 -0.00816
#
# Static dielectric constant tensor:
#      x y z
#    x 2.234090 -0.006750 0.074910 
#    y -0.006750 2.189360 -0.013870 
#    z 0.074910 -0.013870 2.125440 
# 
# From -- ./inp_files/271393.got.cif
#   From: 2010.05.17/outbox.cif.g08.bks.cpg/sg2_136_cif.got.tgz:271393.got - 2010.06.03 11:33:40.
