data_PCOD9017651
_publ_section_title
;
Structure prediction by ZEFSAII (Michael W. Deem and Ramdas Pophale) SiO2 
 PCOD9017651
Probable space group: P -1
;
_chemical_formula_sum "Si O2"
_cell_formula_units_Z 16
_cell_length_a 12.094866
_cell_length_b 11.800862
_cell_length_c 14.989172
_cell_angle_alpha 28.363973
_cell_angle_beta 59.556043
_cell_angle_gamma 77.334057
_cell_volume 729.912626
_symmetry_space_group_name_H-M "P -1"
_symmetry_group_IT_number 2
_symmetry_cell_setting 'triclinic'
loop_
_space_group_symop_operation_xyz
x,y,z
-x,-y,-z
loop_
_atom_site_type_symbol
_atom_site_label
_atom_site_fract_x
_atom_site_fract_y
_atom_site_fract_z
Si Si1 0.862269 0.180837 0.767528
Si Si2 0.364702 0.024136 0.141534
Si Si3 0.649283 0.455267 0.222025
Si Si4 0.676257 0.986494 0.302578
Si Si5 0.092531 0.438556 0.079596
Si Si6 0.824984 0.280640 0.406683
Si Si7 0.021697 0.920908 0.945348
Si Si8 0.417686 0.155327 0.760264
O O1 0.000000 0.500000 0.500000
O O2 0.766026 0.197773 0.716780
O O3 0.937450 0.998980 0.851928
O O4 0.751723 0.024517 0.004815
O O5 0.292850 0.967859 0.307838
O O6 0.493634 0.958113 0.142794
O O7 0.390351 0.315180 0.890186
O O8 0.474878 0.198845 0.445127
O O9 0.788238 0.609478 0.986651
O O10 0.722987 0.342502 0.339653
O O11 0.598887 0.946055 0.265039
O O12 0.789195 0.288370 0.096140
O O13 0.800923 0.911580 0.275345
O O14 0.000000 0.500000 0.000000
O O15 0.944684 0.223879 0.349532
O O16 0.934348 0.578226 0.210198
O O17 0.000000 0.000000 0.000000
O O18 0.500000 0.500000 0.500000
#
# Coordination Sequence:
#
# PCOD9017651 Si02
#       8
#     2   2   2   2   2   2   2   2
#     4  12  26  39  63 100 138 177 236 280 328 406
#     4  12  25  42  68  98 136 178 230 279 338 411
#     4  11  22  44  67  97 129 172 230 283 335 402
#     4  11  23  40  72  96 135 180 225 271 342 413
#     4   9  22  43  73  96 129 176 227 284 349 395
#     4  10  21  43  65  94 133 176 220 276 344 401
#     4  11  21  39  62  92 132 178 218 270 335 399
#     4  12  26  45  67  97 146 191 221 274 348 414
#
# _framework density 21.920432999999999
#
# number of rings (size 3 to 8) (size 9 to 14) (size 15 to 20)
#    0.000    1.000    3.750    3.000    5.250    0.500 
#    0.000    0.625    0.000    0.000    0.000    0.000 
#    0.000    0.000    0.000    0.000    0.000    0.000 
#
# Total GULP energy -89068.336627 kJ/mol
# GULP energy per Si atom -5566.771039 kJ/mol
# Density = 2.187054 g / cm^3
# Si number density = 21.920433 Si / 1000 Ang^3
#
#
#
# Elastic Constant Matrix: (Units=GPa)
#
#
# Indices 1 2 3 4 5 6 
#
# 1 141.8910 33.9113 26.3910 -1.7146 -21.1917 -19.5062
# 2 33.9113 56.0605 3.5120 6.7341 -2.5834 -9.7869
# 3 26.3910 3.5120 76.2334 14.0865 -15.6979 -15.2595
# 4 -1.7146 6.7341 14.0865 34.5759 -5.2734 -12.7316
# 5 -21.1917 -2.5834 -15.6979 -5.2734 38.4041 5.7677
# 6 -19.5062 -9.7869 -15.2595 -12.7316 5.7677 38.9177
#
#
#
# Elastic Compliance Matrix: (Units=1/GPa)
#
#
# Indices 1 2 3 4 5 6 
#
# 1 0.010027 -0.005651 -0.002478 0.004539 0.004239 0.003489
# 2 -0.005651 0.022005 0.001880 -0.004829 -0.001853 0.002134
# 3 -0.002478 0.001880 0.016403 -0.005311 0.004239 0.003297
# 4 0.004539 -0.004829 -0.005311 0.036627 0.003469 0.010446
# 5 0.004239 -0.001853 0.004239 0.003469 0.030472 -0.000060
# 6 0.003489 0.002134 0.003297 0.010446 -0.000060 0.032700
#
#
# Mechanical properties :
#
#
# Convention : Reuss Voigt Hill
#
# Bulk Modulus (GPa) = 27.82542 44.64595 36.23568
# Shear Modulus (GPa) = 28.95031 36.40425 32.67728
#
# Velocity S-wave (km/s) = 3.63809 4.07964 3.86518
# Velocity P-wave (km/s) = 5.51080 6.52708 6.04035
#
# Compressibility (1/GPa) = 0.03593837
#
# Stress axis : x y z
#
# Youngs Moduli (GPa) = 99.73353 45.44345 60.96378
#
# Poissons Ratio (x) = 0.25678 0.15108
# Poissons Ratio (y) = 0.56356 -0.11463
# Poissons Ratio (z) = 0.24715 -0.08545
#
# Static dielectric constant tensor:
#      x y z
#    x 1.868470 0.086830 0.066510 
#    y 0.086830 2.273100 0.237040 
#    z 0.066510 0.237040 1.934610 
# 
# From -- ./inp_files/312648.got.cif
#   From: 2010.05.17/outbox.cif.g08.bks.cpg/sg2_157_cif.got.tgz:312648.got - 2010.06.03 11:33:40.
