data_PCOD9017400
_publ_section_title
;
Structure prediction by ZEFSAII (Michael W. Deem and Ramdas Pophale) SiO2 
 PCOD9017400
Probable space group: P -1
;
_chemical_formula_sum "Si O2"
_cell_formula_units_Z 15
_cell_length_a 9.392767
_cell_length_b 22.422214
_cell_length_c 8.703629
_cell_angle_alpha 61.302081
_cell_angle_beta 74.902549
_cell_angle_gamma 27.965506
_cell_volume 691.749735
_symmetry_space_group_name_H-M "P -1"
_symmetry_group_IT_number 2
_symmetry_cell_setting 'triclinic'
loop_
_space_group_symop_operation_xyz
x,y,z
-x,-y,-z
loop_
_atom_site_type_symbol
_atom_site_label
_atom_site_fract_x
_atom_site_fract_y
_atom_site_fract_z
Si Si1 0.418684 0.777341 0.799650
Si Si2 0.016260 0.266629 0.069588
Si Si3 0.393071 0.433828 0.135128
Si Si4 0.500000 0.000000 0.500000
Si Si5 0.301328 0.429726 0.513113
Si Si6 0.821582 0.741379 0.275172
Si Si7 0.671214 0.054004 0.577648
Si Si8 0.625979 0.178928 0.893343
O O1 0.634913 0.622826 0.885069
O O2 0.452481 0.823583 0.609434
O O3 0.482652 0.774630 0.957121
O O4 0.028787 0.917440 0.722515
O O5 0.328560 0.113642 0.266136
O O6 0.714178 0.341627 0.101699
O O7 0.075193 0.246325 0.895659
O O8 0.897216 0.390849 0.002173
O O9 0.425737 0.396746 0.348879
O O10 0.689545 0.991049 0.518023
O O11 0.573962 0.276591 0.721509
O O12 0.000000 0.500000 0.500000
O O13 0.140186 0.565547 0.455324
O O14 0.606047 0.856154 0.335007
O O15 0.589985 0.783747 0.194076
O O16 0.000000 0.000000 0.000000
#
# Coordination Sequence:
#
# PCOD9017400 Si02
#       8
#     2   2   2   1   2   2   2   2
#     4  11  22  40  66  98 126 167 219 263 321 376
#     4  10  23  41  66  90 129 174 212 258 321 385
#     4  10  21  43  65  90 129 175 210 259 320 382
#     4  12  24  44  62 102 126 170 212 266 326 376
#     4   9  20  37  62  91 128 165 205 266 319 369
#     4  10  21  43  61  91 128 170 213 260 319 382
#     4  11  24  40  67  94 132 168 211 269 322 380
#     4  11  21  35  62  97 127 163 212 268 322 377
#
# _framework density 21.684145000000001
#
# number of rings (size 3 to 8) (size 9 to 14) (size 15 to 20)
#    0.000    1.600    2.667    2.400    1.867    2.667 
#    0.000    7.333    0.000    4.800    0.000    0.000 
#    0.000    0.000    0.000    0.000    0.000    0.000 
#
# Total GULP energy -83576.566386 kJ/mol
# GULP energy per Si atom -5571.771092 kJ/mol
# Density = 2.163479 g / cm^3
# Si number density = 21.684145 Si / 1000 Ang^3
#
#
#
# Elastic Constant Matrix: (Units=GPa)
#
#
# Indices 1 2 3 4 5 6 
#
# 1 53.0930 5.4278 8.7090 -7.5589 -9.6245 -3.2918
# 2 5.4278 72.6410 39.4504 2.5986 -17.5925 -9.8695
# 3 8.7090 39.4504 121.3662 -18.3706 -30.8491 -11.6050
# 4 -7.5589 2.5986 -18.3706 30.6662 -5.4516 -13.7957
# 5 -9.6245 -17.5925 -30.8491 -5.4516 26.4035 5.9997
# 6 -3.2918 -9.8695 -11.6050 -13.7957 5.9997 25.7640
#
#
#
# Elastic Compliance Matrix: (Units=1/GPa)
#
#
# Indices 1 2 3 4 5 6 
#
# 1 0.024371 -0.000260 0.006837 0.018665 0.017840 0.011934
# 2 -0.000260 0.017999 -0.004528 -0.002268 0.005617 0.002300
# 3 0.006837 -0.004528 0.022023 0.028066 0.026954 0.017811
# 4 0.018665 -0.002268 0.028066 0.084074 0.044342 0.048850
# 5 0.017840 0.005617 0.026954 0.044342 0.084054 0.020742
# 6 0.011934 0.002300 0.017811 0.048850 0.020742 0.070569
#
#
# Mechanical properties :
#
#
# Convention : Reuss Voigt Hill
#
# Bulk Modulus (GPa) = 14.60028 39.36383 26.98205
# Shear Modulus (GPa) = 15.53653 29.46760 22.50207
#
# Velocity S-wave (km/s) = 2.67964 3.69039 3.22486
# Velocity P-wave (km/s) = 4.04002 6.02921 5.13191
#
# Compressibility (1/GPa) = 0.06849185
#
# Stress axis : x y z
#
# Youngs Moduli (GPa) = 41.03198 55.56013 45.40670
#
# Poissons Ratio (x) = 0.01442 -0.31042
# Poissons Ratio (y) = 0.01065 0.20558
# Poissons Ratio (z) = -0.28052 0.25155
#
# Static dielectric constant tensor:
#      x y z
#    x 1.778410 0.004760 -0.031210 
#    y 0.004760 1.825350 -0.007860 
#    z -0.031210 -0.007860 1.774420 
# 
# From -- ./inp_files/221954.got.cif
#   From: 2010.05.17/outbox.cif.g08.bks.cpg/sg2_111_cif.got.tgz:221954.got - 2010.06.03 11:33:40.
