data_PCOD9017692
_publ_section_title
;
Structure prediction by ZEFSAII (Michael W. Deem and Ramdas Pophale) SiO2 
 PCOD9017692
Probable space group: P -1
;
_chemical_formula_sum "Si O2"
_cell_formula_units_Z 16
_cell_length_a 9.789369
_cell_length_b 13.826443
_cell_length_c 5.733985
_cell_angle_alpha 105.444741
_cell_angle_beta 90.699093
_cell_angle_gamma 85.044208
_cell_volume 745.236468
_symmetry_space_group_name_H-M "P -1"
_symmetry_group_IT_number 2
_symmetry_cell_setting 'triclinic'
loop_
_space_group_symop_operation_xyz
x,y,z
-x,-y,-z
loop_
_atom_site_type_symbol
_atom_site_label
_atom_site_fract_x
_atom_site_fract_y
_atom_site_fract_z
Si Si1 0.608052 0.990669 0.789171
Si Si2 0.793278 0.617635 0.614904
Si Si3 0.135194 0.224590 0.641069
Si Si4 0.426602 0.363594 0.012345
Si Si5 0.679163 0.455178 0.213657
Si Si6 0.067787 0.033312 0.270191
Si Si7 0.972169 0.391574 0.045640
Si Si8 0.577432 0.836277 0.350748
O O1 0.537509 0.079935 0.685315
O O2 0.770685 0.002947 0.791879
O O3 0.597781 0.874722 0.636225
O O4 0.500000 0.000000 0.000000
O O5 0.791704 0.690034 0.441968
O O6 0.697891 0.663037 0.847026
O O7 0.732529 0.513942 0.474015
O O8 0.946355 0.605668 0.708232
O O9 0.068572 0.152862 0.406616
O O10 0.263036 0.160757 0.732542
O O11 0.030998 0.291738 0.845292
O O12 0.550864 0.390770 0.196453
O O13 0.370981 0.459381 0.920413
O O14 0.469775 0.270977 0.785412
O O15 0.811154 0.391499 0.075238
O O16 0.000000 0.000000 0.500000
O O17 0.000000 0.000000 0.000000
O O18 0.000000 0.500000 0.000000
#
# Coordination Sequence:
#
# PCOD9017692 Si02
#       8
#     2   2   2   2   2   2   2   2
#     4  10  25  42  78 101 132 184 242 292 355 441
#     4  12  21  40  68  93 126 180 240 270 345 422
#     4  11  25  41  74  96 131 187 229 287 352 434
#     4  11  23  40  64  91 140 167 223 284 349 402
#     4  11  24  40  59  98 130 180 212 292 338 410
#     4  11  29  51  76 109 154 187 235 310 382 432
#     4  12  22  41  63  95 136 173 235 279 335 422
#     4  10  21  43  65  99 131 173 235 285 347 429
#
# _framework density 21.469695999999999
#
# number of rings (size 3 to 8) (size 9 to 14) (size 15 to 20)
#    0.000    1.000    5.000    0.750   10.500    1.000 
#    0.000    0.000    0.000    0.000    0.000    0.000 
#    0.000    0.000    0.000    0.000    0.000    0.000 
#
# Total GULP energy -89089.636297 kJ/mol
# GULP energy per Si atom -5568.102269 kJ/mol
# Density = 2.142083 g / cm^3
# Si number density = 21.469696 Si / 1000 Ang^3
#
#
#
# Elastic Constant Matrix: (Units=GPa)
#
#
# Indices 1 2 3 4 5 6 
#
# 1 118.6495 39.1144 49.9829 21.3053 0.3382 -19.3818
# 2 39.1144 46.1298 25.9205 23.8499 6.0787 -17.0469
# 3 49.9829 25.9205 109.6926 39.8853 2.1278 -7.9156
# 4 21.3053 23.8499 39.8853 43.7974 0.8135 -6.6547
# 5 0.3382 6.0787 2.1278 0.8135 43.2411 4.2290
# 6 -19.3818 -17.0469 -7.9156 -6.6547 4.2290 35.5936
#
#
#
# Elastic Compliance Matrix: (Units=1/GPa)
#
#
# Indices 1 2 3 4 5 6 
#
# 1 0.013484 -0.009965 -0.005023 0.003721 0.001277 0.001997
# 2 -0.009965 0.045051 0.002064 -0.019321 -0.007350 0.013870
# 3 -0.005023 0.002064 0.015603 -0.012970 -0.000714 -0.000617
# 4 0.003721 -0.019321 -0.012970 0.042937 0.002753 -0.002411
# 5 0.001277 -0.007350 -0.000714 0.002753 0.024661 -0.005399
# 6 0.001997 0.013870 -0.000617 -0.002411 -0.005399 0.035878
#
#
# Mechanical properties :
#
#
# Convention : Reuss Voigt Hill
#
# Bulk Modulus (GPa) = 20.70877 56.05640 38.38259
# Shear Modulus (GPa) = 22.77286 35.15668 28.96477
#
# Velocity S-wave (km/s) = 3.26037 4.05100 3.67699
# Velocity P-wave (km/s) = 4.88261 6.93159 5.99528
#
# Compressibility (1/GPa) = 0.04828871
#
# Stress axis : x y z
#
# Youngs Moduli (GPa) = 74.16387 22.19697 64.09045
#
# Poissons Ratio (x) = 0.22120 0.32193
# Poissons Ratio (y) = 0.73905 -0.13226
# Poissons Ratio (z) = 0.37253 -0.04581
#
# Static dielectric constant tensor:
#      x y z
#    x 1.605120 -0.234040 0.212750 
#    y -0.234040 1.708170 0.124370 
#    z 0.212750 0.124370 1.721010 
# 
# From -- ./inp_files/39820.got.cif
#   From: 2010.05.17/outbox.cif.g08.bks.cpg/sg2_20_cif.got.tgz:39820.got - 2010.06.03 11:33:40.
