data_PCOD9017584
_publ_section_title
;
Structure prediction by ZEFSAII (Michael W. Deem and Ramdas Pophale) SiO2 
 PCOD9017584
Probable space group: P -1
;
_chemical_formula_sum "Si O2"
_cell_formula_units_Z 16
_cell_length_a 8.409804
_cell_length_b 16.197556
_cell_length_c 8.924647
_cell_angle_alpha 44.778300
_cell_angle_beta 53.017143
_cell_angle_gamma 64.992452
_cell_volume 684.003550
_symmetry_space_group_name_H-M "P -1"
_symmetry_group_IT_number 2
_symmetry_cell_setting 'triclinic'
loop_
_space_group_symop_operation_xyz
x,y,z
-x,-y,-z
loop_
_atom_site_type_symbol
_atom_site_label
_atom_site_fract_x
_atom_site_fract_y
_atom_site_fract_z
Si Si1 0.711155 0.872135 0.641280
Si Si2 0.657876 0.906363 0.975618
Si Si3 0.531453 0.655097 0.855875
Si Si4 0.998167 0.691476 0.830373
Si Si5 0.901521 0.313351 0.887363
Si Si6 0.298202 0.501562 0.800514
Si Si7 0.654920 0.648025 0.449854
Si Si8 0.057583 0.939297 0.890802
O O1 0.576165 0.781249 0.742497
O O2 0.916067 0.798698 0.644295
O O3 0.646256 0.898614 0.812828
O O4 0.758767 0.989475 0.374226
O O5 0.625684 0.775309 0.226944
O O6 0.872869 0.943457 0.873490
O O7 0.500000 0.000000 0.000000
O O8 0.572629 0.659234 0.651782
O O9 0.307433 0.621755 0.076124
O O10 0.675945 0.561123 0.971355
O O11 0.153140 0.611731 0.756700
O O12 0.083225 0.730173 0.891820
O O13 0.813295 0.603024 0.088019
O O14 0.109200 0.376618 0.650636
O O15 0.895622 0.197410 0.938460
O O16 0.513721 0.552350 0.574472
O O17 0.000000 0.000000 0.000000
#
# Coordination Sequence:
#
# PCOD9017584 Si02
#       8
#     2   2   2   2   2   2   2   2
#     4  11  23  44  67  97 135 178 222 277 338 401
#     4  11  26  41  65 103 133 173 229 274 336 404
#     4  11  25  44  68  98 136 179 227 274 340 396
#     4  10  21  43  65 100 130 176 221 281 334 398
#     4  11  24  42  67  97 138 172 226 273 335 400
#     4  10  23  42  70  95 135 175 229 276 338 394
#     4  11  23  44  67 100 135 176 225 281 330 403
#     4  11  25  44  68 100 133 176 224 275 340 404
#
# _framework density 23.391693
#
# number of rings (size 3 to 8) (size 9 to 14) (size 15 to 20)
#    0.000    1.250    3.750    2.250    5.250    1.500 
#    0.000    0.000    0.000    0.000    0.000    0.000 
#    0.000    0.000    0.000    0.000    0.000    0.000 
#
# Total GULP energy -89504.631869 kJ/mol
# GULP energy per Si atom -5594.039492 kJ/mol
# Density = 2.333845 g / cm^3
# Si number density = 23.391693 Si / 1000 Ang^3
#
#
#
# Elastic Constant Matrix: (Units=GPa)
#
#
# Indices 1 2 3 4 5 6 
#
# 1 64.3301 31.6834 19.2581 8.3009 -14.2185 6.9978
# 2 31.6834 94.4192 15.8181 8.8952 11.5603 14.5358
# 3 19.2581 15.8181 99.8820 -0.1811 -10.5541 12.7429
# 4 8.3009 8.8952 -0.1811 34.0102 8.7715 -3.5267
# 5 -14.2185 11.5603 -10.5541 8.7715 30.5900 5.9188
# 6 6.9978 14.5358 12.7429 -3.5267 5.9188 52.7785
#
#
#
# Elastic Compliance Matrix: (Units=1/GPa)
#
#
# Indices 1 2 3 4 5 6 
#
# 1 0.026226 -0.009526 -0.001182 -0.009053 0.018609 -0.003260
# 2 -0.009526 0.015502 -0.001590 0.000918 -0.010837 -0.001346
# 3 -0.001182 -0.001590 0.011333 -0.000728 0.004696 -0.002717
# 4 -0.009053 0.000918 -0.000728 0.036100 -0.016193 0.005352
# 5 0.018609 -0.010837 0.004696 -0.016193 0.053182 -0.007662
# 6 -0.003260 -0.001346 -0.002717 0.005352 -0.007662 0.021623
#
#
# Mechanical properties :
#
#
# Convention : Reuss Voigt Hill
#
# Bulk Modulus (GPa) = 35.13158 43.57227 39.35193
# Shear Modulus (GPa) = 25.24609 36.26719 30.75664
#
# Velocity S-wave (km/s) = 3.28880 3.94182 3.63002
# Velocity P-wave (km/s) = 5.42891 6.27574 5.86762
#
# Compressibility (1/GPa) = 0.02846441
#
# Stress axis : x y z
#
# Youngs Moduli (GPa) = 38.12955 64.50926 88.23740
#
# Poissons Ratio (x) = 0.61452 0.10431
# Poissons Ratio (y) = 0.36323 0.14030
# Poissons Ratio (z) = 0.04508 0.10257
#
# Static dielectric constant tensor:
#      x y z
#    x 1.931630 0.013390 -0.030780 
#    y 0.013390 1.859900 0.005340 
#    z -0.030780 0.005340 1.859660 
# 
# From -- ./inp_files/214270.got.cif
#   From: 2010.05.17/outbox.cif.g08.bks.cpg/sg2_108_cif.got.tgz:214270.got - 2010.06.03 11:33:40.
