data_PCOD9017639
_publ_section_title
;
Structure prediction by ZEFSAII (Michael W. Deem and Ramdas Pophale) SiO2 
 PCOD9017639
Probable space group: P -1
;
_chemical_formula_sum "Si O2"
_cell_formula_units_Z 14
_cell_length_a 24.658665
_cell_length_b 9.660989
_cell_length_c 10.518341
_cell_angle_alpha 105.878101
_cell_angle_beta 33.334945
_cell_angle_gamma 132.718301
_cell_volume 695.530697
_symmetry_space_group_name_H-M "P -1"
_symmetry_group_IT_number 2
_symmetry_cell_setting 'triclinic'
loop_
_space_group_symop_operation_xyz
x,y,z
-x,-y,-z
loop_
_atom_site_type_symbol
_atom_site_label
_atom_site_fract_x
_atom_site_fract_y
_atom_site_fract_z
Si Si1 0.379026 0.266805 0.073503
Si Si2 0.485798 0.101961 0.917526
Si Si3 0.624807 0.607962 0.165405
Si Si4 0.007203 0.131932 0.132188
Si Si5 0.074971 0.432639 0.859486
Si Si6 0.953560 0.053342 0.805751
Si Si7 0.637144 0.356110 0.938795
O O1 0.173793 0.043944 0.476117
O O2 0.500000 0.500000 0.000000
O O3 0.436993 0.171436 0.938761
O O4 0.412887 0.368400 0.891734
O O5 0.701355 0.312148 0.540623
O O6 0.482729 0.166548 0.081393
O O7 0.349987 0.796803 0.093894
O O8 0.500000 0.500000 0.500000
O O9 0.588992 0.394236 0.161134
O O10 0.833251 0.909654 0.878265
O O11 0.113249 0.171751 0.043448
O O12 0.060195 0.341503 0.004731
O O13 0.000000 0.000000 0.000000
O O14 0.949479 0.179393 0.945560
O O15 0.000000 0.500000 0.000000
O O16 0.173140 0.334475 0.407898
#
# Coordination Sequence:
#
# PCOD9017639 Si02
#       7
#     2   2   2   2   2   2   2
#     4  12  23  42  67 100 133 175 236 274 330 405
#     4  10  23  40  69  99 134 167 230 278 339 382
#     4  12  27  40  69  97 136 183 222 277 340 406
#     4  10  22  38  67  97 129 175 221 282 319 397
#     4  10  23  39  68  98 134 176 222 278 330 403
#     4  10  22  43  62  95 134 173 225 268 345 387
#     4  10  21  43  65  93 132 177 212 289 327 402
#
# _framework density 20.128515
#
# number of rings (size 3 to 8) (size 9 to 14) (size 15 to 20)
#    0.000    1.429    2.857    2.143   14.000    0.000 
#    0.000    2.857    0.000    0.000    0.000    0.000 
#    0.000    0.000    0.000    0.000    0.000    0.000 
#
# Total GULP energy -77952.979960 kJ/mol
# GULP energy per Si atom -5568.069997 kJ/mol
# Density = 2.008270 g / cm^3
# Si number density = 20.128515 Si / 1000 Ang^3
#
#
#
# Elastic Constant Matrix: (Units=GPa)
#
#
# Indices 1 2 3 4 5 6 
#
# 1 135.2117 63.7202 26.3169 2.2619 14.6779 -16.5177
# 2 63.7202 119.9666 32.3693 11.4251 5.1128 -13.9413
# 3 26.3169 32.3693 66.1156 14.6218 15.2716 -2.3187
# 4 2.2619 11.4251 14.6218 28.1054 -2.6997 1.4225
# 5 14.6779 5.1128 15.2716 -2.6997 29.7259 5.0702
# 6 -16.5177 -13.9413 -2.3187 1.4225 5.0702 42.3870
#
#
#
# Elastic Compliance Matrix: (Units=1/GPa)
#
#
# Indices 1 2 3 4 5 6 
#
# 1 0.010776 -0.005040 -0.000952 0.001106 -0.004372 0.002975
# 2 -0.005040 0.012430 -0.003869 -0.002552 0.001803 0.001783
# 3 -0.000952 -0.003869 0.022679 -0.011351 -0.011783 0.001387
# 4 0.001106 -0.002552 -0.011351 0.043614 0.010321 -0.003727
# 5 -0.004372 0.001803 -0.011783 0.010321 0.043731 -0.007333
# 6 0.002975 0.001783 0.001387 -0.003727 -0.007333 0.026416
#
#
# Mechanical properties :
#
#
# Convention : Reuss Voigt Hill
#
# Bulk Modulus (GPa) = 38.22285 62.90075 50.56180
# Shear Modulus (GPa) = 26.58316 33.30282 29.94299
#
# Velocity S-wave (km/s) = 3.63805 4.07198 3.86111
# Velocity P-wave (km/s) = 6.05622 7.30927 6.71205
#
# Compressibility (1/GPa) = 0.02616236
#
# Stress axis : x y z
#
# Youngs Moduli (GPa) = 92.80037 80.45153 44.09348
#
# Poissons Ratio (x) = 0.40547 0.04199
# Poissons Ratio (y) = 0.46771 0.17059
# Poissons Ratio (z) = 0.08838 0.31126
#
# Static dielectric constant tensor:
#      x y z
#    x 1.743700 -0.023730 -0.019390 
#    y -0.023730 1.726450 -0.012100 
#    z -0.019390 -0.012100 1.805510 
# 
# From -- ./inp_files/151581.got.cif
#   From: 2010.05.17/outbox.cif.g08.bks.cpg/sg2_76_cif.got.tgz:151581.got - 2010.06.03 11:33:40.
