data_PCOD9017393
_publ_section_title
;
Structure prediction by ZEFSAII (Michael W. Deem and Ramdas Pophale) SiO2 
 PCOD9017393
Probable space group: P -1
;
_chemical_formula_sum "Si O2"
_cell_formula_units_Z 16
_cell_length_a 7.430370
_cell_length_b 14.779060
_cell_length_c 8.181536
_cell_angle_alpha 83.902659
_cell_angle_beta 59.601448
_cell_angle_gamma 68.479877
_cell_volume 717.373788
_symmetry_space_group_name_H-M "P -1"
_symmetry_group_IT_number 2
_symmetry_cell_setting 'triclinic'
loop_
_space_group_symop_operation_xyz
x,y,z
-x,-y,-z
loop_
_atom_site_type_symbol
_atom_site_label
_atom_site_fract_x
_atom_site_fract_y
_atom_site_fract_z
Si Si1 0.327033 0.284892 0.883213
Si Si2 0.087704 0.883048 0.954433
Si Si3 0.396568 0.466764 0.900645
Si Si4 0.788170 0.416974 0.526269
Si Si5 0.033531 0.428005 0.742834
Si Si6 0.990165 0.771890 0.726118
Si Si7 0.550090 0.883219 0.701866
Si Si8 0.634588 0.885656 0.283883
O O1 0.436931 0.352178 0.909915
O O2 0.235689 0.340368 0.744270
O O3 0.455396 0.174015 0.792220
O O4 0.123592 0.281674 0.087322
O O5 0.354584 0.848385 0.868935
O O6 0.065165 0.845135 0.788679
O O7 0.906512 0.852490 0.145861
O O8 0.000000 0.000000 0.000000
O O9 0.530543 0.477818 0.679027
O O10 0.500000 0.500000 0.000000
O O11 0.140103 0.530817 0.036290
O O12 0.891710 0.484610 0.367904
O O13 0.920966 0.397259 0.643856
O O14 0.825150 0.314954 0.440289
O O15 0.787308 0.831403 0.688438
O O16 0.573369 0.868728 0.498894
O O17 0.468074 0.000362 0.736254
#
# Coordination Sequence:
#
# PCOD9017393 Si02
#       8
#     2   2   2   2   2   2   2   2
#     4  11  22  40  62  90 125 159 207 258 311 367
#     4   9  21  41  63  91 126 164 209 254 313 372
#     4  10  22  40  61  87 124 162 206 253 316 368
#     4  10  22  40  63  91 120 161 211 253 308 372
#     4  10  21  43  61  83 128 160 197 264 312 362
#     4  11  23  41  65  97 126 165 215 257 304 379
#     4  10  21  44  66  88 133 165 203 261 318 361
#     4   9  21  41  65  93 123 165 208 259 310 375
#
# _framework density 22.303576
#
# number of rings (size 3 to 8) (size 9 to 14) (size 15 to 20)
#    0.000    2.000    1.250    1.125    1.750    5.000 
#   11.250    5.625    0.000    0.000    0.000    0.000 
#    0.000    0.000    0.000    0.000    0.000    0.000 
#
# Total GULP energy -89287.783269 kJ/mol
# GULP energy per Si atom -5580.486454 kJ/mol
# Density = 2.225281 g / cm^3
# Si number density = 22.303576 Si / 1000 Ang^3
#
#
#
# Elastic Constant Matrix: (Units=GPa)
#
#
# Indices 1 2 3 4 5 6 
#
# 1 58.1275 31.8805 6.3683 1.9289 11.3846 24.1264
# 2 31.8805 87.2749 43.2558 21.0335 12.5675 28.7742
# 3 6.3683 43.2558 81.4452 18.6405 1.3525 1.5877
# 4 1.9289 21.0335 18.6405 34.2744 2.1899 13.5436
# 5 11.3846 12.5675 1.3525 2.1899 28.3990 6.4725
# 6 24.1264 28.7742 1.5877 13.5436 6.4725 42.5580
#
#
#
# Elastic Compliance Matrix: (Units=1/GPa)
#
#
# Indices 1 2 3 4 5 6 
#
# 1 0.026898 -0.006960 0.000122 0.007870 -0.005533 -0.012210
# 2 -0.006960 0.024738 -0.011338 -0.004257 -0.004953 -0.010249
# 3 0.000122 -0.011338 0.019784 -0.007468 0.002587 0.008842
# 4 0.007870 -0.004257 -0.007468 0.041094 -0.000835 -0.014255
# 5 -0.005533 -0.004953 0.002587 -0.000835 0.039413 0.000660
# 6 -0.012210 -0.010249 0.008842 -0.014255 0.000660 0.041455
#
#
# Mechanical properties :
#
#
# Convention : Reuss Voigt Hill
#
# Bulk Modulus (GPa) = 28.51581 43.31741 35.91661
# Shear Modulus (GPa) = 20.71046 30.73580 25.72313
#
# Velocity S-wave (km/s) = 3.05055 3.71626 3.39974
# Velocity P-wave (km/s) = 5.02204 6.15451 5.61689
#
# Compressibility (1/GPa) = 0.03506827
#
# Stress axis : x y z
#
# Youngs Moduli (GPa) = 37.17740 40.42313 50.54553
#
# Poissons Ratio (x) = 0.28136 -0.00618
# Poissons Ratio (y) = 0.25877 0.57309
# Poissons Ratio (z) = -0.00455 0.45832
#
# Static dielectric constant tensor:
#      x y z
#    x 1.859120 0.022940 -0.033130 
#    y 0.022940 1.805710 0.017110 
#    z -0.033130 0.017110 1.849740 
# 
# From -- ./inp_files/206665.got.cif
#   From: 2010.05.17/outbox.cif.g08.bks.cpg/sg2_104_cif.got.tgz:206665.got - 2010.06.03 11:33:40.
