data_PCOD9017112
_publ_section_title
;
Structure prediction by ZEFSAII (Michael W. Deem and Ramdas Pophale) SiO2 
 PCOD9017112
Probable space group: P -1
;
_chemical_formula_sum "Si O2"
_cell_formula_units_Z 16
_cell_length_a 10.411591
_cell_length_b 19.288793
_cell_length_c 11.343220
_cell_angle_alpha 26.584444
_cell_angle_beta 47.300411
_cell_angle_gamma 37.320008
_cell_volume 613.463178
_symmetry_space_group_name_H-M "P -1"
_symmetry_group_IT_number 2
_symmetry_cell_setting 'triclinic'
loop_
_space_group_symop_operation_xyz
x,y,z
-x,-y,-z
loop_
_atom_site_type_symbol
_atom_site_label
_atom_site_fract_x
_atom_site_fract_y
_atom_site_fract_z
Si Si1 0.929835 0.383182 0.547675
Si Si2 0.037868 0.659088 0.676653
Si Si3 0.084983 0.804090 0.813303
Si Si4 0.651248 0.047021 0.777650
Si Si5 0.505791 0.467242 0.686802
Si Si6 0.410701 0.216722 0.227872
Si Si7 0.004789 0.027691 0.150047
Si Si8 0.332287 0.370779 0.308460
O O1 0.918161 0.427204 0.350086
O O2 0.686839 0.493515 0.580207
O O3 0.150330 0.153537 0.094947
O O4 0.003152 0.166958 0.846700
O O5 0.265753 0.577545 0.720246
O O6 0.961668 0.875541 0.375135
O O7 0.833698 0.676463 0.832335
O O8 0.258322 0.586369 0.008962
O O9 0.000000 0.000000 0.500000
O O10 0.143255 0.840713 0.849420
O O11 0.764572 0.081473 0.761165
O O12 0.529959 0.219725 0.498227
O O13 0.878668 0.607997 0.538752
O O14 0.500000 0.000000 0.000000
O O15 0.500000 0.500000 0.500000
O O16 0.556239 0.260768 0.995134
O O17 0.384002 0.279277 0.285672
O O18 0.500000 0.000000 0.500000
#
# Coordination Sequence:
#
# PCOD9017112 Si02
#       8
#     2   2   2   2   2   2   2   2
#     4  10  21  42  71 105 141 191 232 307 375 441
#     4  10  22  41  68 107 144 185 241 296 371 441
#     4  10  26  45  66 102 143 198 252 302 360 436
#     4  10  23  45  69 108 140 196 253 301 364 435
#     4  10  23  43  65 106 142 188 237 293 368 448
#     4  11  25  45  75 108 145 193 239 304 384 450
#     4  10  22  40  69 100 144 182 247 297 357 434
#     4  11  24  48  74 105 150 196 250 310 369 444
#
# _framework density 26.081436
#
# number of rings (size 3 to 8) (size 9 to 14) (size 15 to 20)
#    0.750    1.000    1.250    1.500    1.750    9.500 
#    6.750    0.000    0.000    0.000    0.000    0.000 
#    0.000    0.000    0.000    0.000    0.000    0.000 
#
# Total GULP energy -89253.969476 kJ/mol
# GULP energy per Si atom -5578.373092 kJ/mol
# Density = 2.602207 g / cm^3
# Si number density = 26.081436 Si / 1000 Ang^3
#
#
#
# Elastic Constant Matrix: (Units=GPa)
#
#
# Indices 1 2 3 4 5 6 
#
# 1 78.2125 42.7791 25.8561 8.6643 1.9830 -34.1423
# 2 42.7791 108.9410 36.1358 -18.8682 -0.9258 -22.7765
# 3 25.8561 36.1358 132.3080 18.4966 8.8700 -12.4712
# 4 8.6643 -18.8682 18.4966 39.9371 -10.0705 0.4047
# 5 1.9830 -0.9258 8.8700 -10.0705 50.4198 4.4852
# 6 -34.1423 -22.7765 -12.4712 0.4047 4.4852 62.2569
#
#
#
# Elastic Compliance Matrix: (Units=1/GPa)
#
#
# Indices 1 2 3 4 5 6 
#
# 1 0.023217 -0.009213 0.000720 -0.010899 -0.004265 0.009884
# 2 -0.009213 0.016687 -0.004918 0.013224 0.004204 -0.000322
# 3 0.000720 -0.004918 0.010233 -0.008144 -0.003631 0.000960
# 4 -0.010899 0.013224 -0.008144 0.040097 0.010450 -0.003784
# 5 -0.004265 0.004204 -0.003631 0.010450 0.023094 -0.003260
# 6 0.009884 -0.000322 0.000960 -0.003784 -0.003260 0.021817
#
#
# Mechanical properties :
#
#
# Convention : Reuss Voigt Hill
#
# Bulk Modulus (GPa) = 42.88921 58.77818 50.83369
# Shear Modulus (GPa) = 29.45694 44.83544 37.14619
#
# Velocity S-wave (km/s) = 3.36433 4.15065 3.77800
# Velocity P-wave (km/s) = 5.61887 6.74951 6.20997
#
# Compressibility (1/GPa) = 0.02331589
#
# Stress axis : x y z
#
# Youngs Moduli (GPa) = 43.07156 59.92608 97.72287
#
# Poissons Ratio (x) = 0.55212 -0.07041
# Poissons Ratio (y) = 0.39683 0.48059
# Poissons Ratio (z) = -0.03103 0.29471
#
# Static dielectric constant tensor:
#      x y z
#    x 2.135170 -0.047220 -0.063780 
#    y -0.047220 2.250190 -0.148610 
#    z -0.063780 -0.148610 2.516180 
# 
# From -- ./inp_files/438960.got.cif
#   From: 2010.05.17/outbox.cif.g08.bks.cpg/sg2_220_cif.got.tgz:438960.got - 2010.06.03 11:33:40.
