data_PCOD9017635
_publ_section_title
;
Structure prediction by ZEFSAII (Michael W. Deem and Ramdas Pophale) SiO2 
 PCOD9017635
Probable space group: P -1
;
_chemical_formula_sum "Si O2"
_cell_formula_units_Z 14
_cell_length_a 8.207938
_cell_length_b 12.270344
_cell_length_c 9.822511
_cell_angle_alpha 56.628260
_cell_angle_beta 102.846684
_cell_angle_gamma 126.601616
_cell_volume 654.953907
_symmetry_space_group_name_H-M "P -1"
_symmetry_group_IT_number 2
_symmetry_cell_setting 'triclinic'
loop_
_space_group_symop_operation_xyz
x,y,z
-x,-y,-z
loop_
_atom_site_type_symbol
_atom_site_label
_atom_site_fract_x
_atom_site_fract_y
_atom_site_fract_z
Si Si1 0.665421 0.921491 0.969979
Si Si2 0.097689 0.238085 0.932468
Si Si3 0.514119 0.263043 0.675977
Si Si4 0.909881 0.824191 0.439534
Si Si5 0.461045 0.007014 0.648018
Si Si6 0.883681 0.581183 0.438371
Si Si7 0.978018 0.832966 0.738731
O O1 0.559862 0.941832 0.807934
O O2 0.757014 0.821348 0.018941
O O3 0.503324 0.829701 0.126491
O O4 0.864447 0.090114 0.948710
O O5 0.163777 0.380770 0.743878
O O6 0.093516 0.271045 0.067891
O O7 0.293104 0.229062 0.642349
O O8 0.542308 0.180611 0.608005
O O9 0.684034 0.451116 0.576479
O O10 0.006515 0.748798 0.427879
O O11 0.859201 0.758114 0.628247
O O12 0.034047 0.015954 0.338181
O O13 0.500000 0.000000 0.500000
O O14 0.215024 0.906233 0.698645
O O15 0.000000 0.500000 0.500000
#
# Coordination Sequence:
#
# PCOD9017635 Si02
#       7
#     2   2   2   2   2   2   2
#     4  11  22  40  68  94 129 164 222 268 308 381
#     4  11  22  41  64  98 122 172 217 263 318 379
#     4  11  23  43  65  96 129 175 211 262 324 385
#     4  10  21  43  65  93 126 172 209 267 318 381
#     4  11  25  38  66  99 130 164 217 271 320 370
#     4  12  26  40  66  94 136 168 216 261 324 388
#     4  10  23  40  68  95 131 163 216 272 320 368
#
# _framework density 21.375548999999999
#
# number of rings (size 3 to 8) (size 9 to 14) (size 15 to 20)
#    0.000    1.143    4.286    2.571   12.000    0.000 
#    0.000    2.857    0.000    0.000    0.000    0.000 
#    0.000    0.000    0.000    0.000    0.000    0.000 
#
# Total GULP energy -78260.237373 kJ/mol
# GULP energy per Si atom -5590.016955 kJ/mol
# Density = 2.132690 g / cm^3
# Si number density = 21.375549 Si / 1000 Ang^3
#
#
#
# Elastic Constant Matrix: (Units=GPa)
#
#
# Indices 1 2 3 4 5 6 
#
# 1 68.1193 22.4730 35.9566 2.9900 10.4079 -29.3262
# 2 22.4730 41.8301 46.0655 10.6928 -2.0320 -19.8057
# 3 35.9566 46.0655 174.0265 22.9846 2.3158 -11.5265
# 4 2.9900 10.6928 22.9846 35.6690 -1.8668 -5.9762
# 5 10.4079 -2.0320 2.3158 -1.8668 43.6979 -0.5216
# 6 -29.3262 -19.8057 -11.5265 -5.9762 -0.5216 30.9544
#
#
#
# Elastic Compliance Matrix: (Units=1/GPa)
#
#
# Indices 1 2 3 4 5 6 
#
# 1 0.029749 0.001550 -0.005251 0.004799 -0.006196 0.028043
# 2 0.001550 0.050011 -0.011312 -0.002871 0.002776 0.028748
# 3 -0.005251 -0.011312 0.009737 -0.004016 -0.000075 -0.009364
# 4 0.004799 -0.002871 -0.004016 0.032354 0.000408 0.007468
# 5 -0.006196 0.002776 -0.000075 0.000408 0.024467 -0.003630
# 6 0.028043 0.028748 -0.009364 0.007468 -0.003630 0.075162
#
#
# Mechanical properties :
#
#
# Convention : Reuss Voigt Hill
#
# Bulk Modulus (GPa) = 16.81480 54.77401 35.79441
# Shear Modulus (GPa) = 18.42773 34.02965 26.22869
#
# Velocity S-wave (km/s) = 2.93933 3.99430 3.50672
# Velocity P-wave (km/s) = 4.40488 6.85221 5.76003
#
# Compressibility (1/GPa) = 0.05947140
#
# Stress axis : x y z
#
# Youngs Moduli (GPa) = 33.61401 19.99555 102.70380
#
# Poissons Ratio (x) = -0.03100 0.53931
# Poissons Ratio (y) = -0.05211 1.16180
# Poissons Ratio (z) = 0.17651 0.22619
#
# Static dielectric constant tensor:
#      x y z
#    x 1.835010 -0.011790 -0.027940 
#    y -0.011790 1.767700 0.005220 
#    z -0.027940 0.005220 1.789260 
# 
# From -- ./inp_files/175389.got.cif
#   From: 2010.05.17/outbox.cif.g08.bks.cpg/sg2_88_cif.got.tgz:175389.got - 2010.06.03 11:33:40.
