data_PCOD9017431
_publ_section_title
;
Structure prediction by ZEFSAII (Michael W. Deem and Ramdas Pophale) SiO2 
 PCOD9017431
Probable space group: P -1
;
_chemical_formula_sum "Si O2"
_cell_formula_units_Z 16
_cell_length_a 14.644918
_cell_length_b 8.897766
_cell_length_c 9.532013
_cell_angle_alpha 54.739619
_cell_angle_beta 98.915417
_cell_angle_gamma 62.905218
_cell_volume 738.776462
_symmetry_space_group_name_H-M "P -1"
_symmetry_group_IT_number 2
_symmetry_cell_setting 'triclinic'
loop_
_space_group_symop_operation_xyz
x,y,z
-x,-y,-z
loop_
_atom_site_type_symbol
_atom_site_label
_atom_site_fract_x
_atom_site_fract_y
_atom_site_fract_z
Si Si1 0.214686 0.189167 0.254165
Si Si2 0.198563 0.265303 0.522918
Si Si3 0.853229 0.054901 0.224013
Si Si4 0.426238 0.436881 0.095283
Si Si5 0.453763 0.031074 0.813499
Si Si6 0.483738 0.701920 0.483701
Si Si7 0.987117 0.256395 0.143838
Si Si8 0.017382 0.188938 0.870384
O O1 0.249821 0.220633 0.399837
O O2 0.118790 0.151508 0.288201
O O3 0.337091 0.954322 0.330475
O O4 0.135093 0.453764 0.011225
O O5 0.317574 0.119052 0.730766
O O6 0.097086 0.559272 0.371423
O O7 0.133002 0.155320 0.579528
O O8 0.953307 0.087319 0.248893
O O9 0.719738 0.321692 0.077922
O O10 0.861572 0.972673 0.109454
O O11 0.465942 0.377674 0.300781
O O12 0.458342 0.213061 0.133140
O O13 0.500000 0.500000 0.000000
O O14 0.445740 0.233806 0.619917
O O15 0.500000 0.000000 0.000000
O O16 0.500000 0.500000 0.500000
O O17 0.012614 0.276044 0.976086
O O18 0.000000 0.000000 0.000000
#
# Coordination Sequence:
#
# PCOD9017431 Si02
#       8
#     2   2   2   2   2   2   2   2
#     4  10  21  43  62  97 134 179 234 290 343 429
#     4  11  23  42  67  94 141 179 230 293 354 418
#     4  11  22  39  67  96 135 179 224 282 360 411
#     4  12  24  46  71 102 145 187 232 298 355 427
#     4  12  27  46  69 103 142 191 246 296 350 420
#     4  12  27  41  71 104 138 191 239 292 365 423
#     4   9  21  38  67  94 131 176 232 287 345 419
#     4   9  21  38  64  96 128 174 225 283 341 416
#
# _framework density 21.657429
#
# number of rings (size 3 to 8) (size 9 to 14) (size 15 to 20)
#    0.000    1.250    2.500    2.250    7.000    1.500 
#    0.000    3.750    0.000    0.000    0.000    0.000 
#    0.000    0.000    0.000    0.000    0.000    0.000 
#
# Total GULP energy -89244.113172 kJ/mol
# GULP energy per Si atom -5577.757073 kJ/mol
# Density = 2.160814 g / cm^3
# Si number density = 21.657429 Si / 1000 Ang^3
#
#
#
# Elastic Constant Matrix: (Units=GPa)
#
#
# Indices 1 2 3 4 5 6 
#
# 1 92.5344 19.6780 15.4636 -8.8939 -6.6349 -1.0148
# 2 19.6780 120.0171 18.1284 -5.3373 -6.3278 10.9674
# 3 15.4636 18.1284 48.4838 11.8855 -8.6721 6.1232
# 4 -8.8939 -5.3373 11.8855 40.1427 7.4305 -12.4649
# 5 -6.6349 -6.3278 -8.6721 7.4305 32.6584 4.8114
# 6 -1.0148 10.9674 6.1232 -12.4649 4.8114 20.3387
#
#
#
# Elastic Compliance Matrix: (Units=1/GPa)
#
#
# Indices 1 2 3 4 5 6 
#
# 1 0.013092 -0.001699 -0.007328 0.008368 -0.002933 0.009598
# 2 -0.001699 0.009459 -0.001772 -0.000683 0.001989 -0.005541
# 3 -0.007328 -0.001772 0.037145 -0.025831 0.018444 -0.030787
# 4 0.008368 -0.000683 -0.025831 0.053462 -0.024394 0.047099
# 5 -0.002933 0.001989 0.018444 -0.024394 0.045648 -0.032521
# 6 0.009598 -0.005541 -0.030787 0.047099 -0.032521 0.098462
#
#
# Mechanical properties :
#
#
# Convention : Reuss Voigt Hill
#
# Bulk Modulus (GPa) = 26.24893 40.84172 33.54532
# Shear Modulus (GPa) = 17.14875 32.47898 24.81387
#
# Velocity S-wave (km/s) = 2.81698 3.87676 3.38856
# Velocity P-wave (km/s) = 4.76727 6.24003 5.55270
#
# Compressibility (1/GPa) = 0.03809680
#
# Stress axis : x y z
#
# Youngs Moduli (GPa) = 76.38251 105.71663 26.92164
#
# Poissons Ratio (x) = 0.17964 0.19729
# Poissons Ratio (y) = 0.12979 0.04771
# Poissons Ratio (z) = 0.55976 0.18733
#
# Static dielectric constant tensor:
#      x y z
#    x 1.832870 0.016990 -0.091830 
#    y 0.016990 1.842090 0.050740 
#    z -0.091830 0.050740 2.256990 
# 
# From -- ./inp_files/297683.got.cif
#   From: 2010.05.17/outbox.cif.g08.bks.cpg/sg2_149_cif.got.tgz:297683.got - 2010.06.03 11:33:40.
