data_PCOD9017667
_publ_section_title
;
Structure prediction by ZEFSAII (Michael W. Deem and Ramdas Pophale) SiO2 
 PCOD9017667
Probable space group: P -1
;
_chemical_formula_sum "Si O2"
_cell_formula_units_Z 14
_cell_length_a 16.325075
_cell_length_b 5.402209
_cell_length_c 9.103348
_cell_angle_alpha 74.836363
_cell_angle_beta 59.305012
_cell_angle_gamma 51.405794
_cell_volume 537.638101
_symmetry_space_group_name_H-M "P -1"
_symmetry_group_IT_number 2
_symmetry_cell_setting 'triclinic'
loop_
_space_group_symop_operation_xyz
x,y,z
-x,-y,-z
loop_
_atom_site_type_symbol
_atom_site_label
_atom_site_fract_x
_atom_site_fract_y
_atom_site_fract_z
Si Si1 0.604748 0.790113 0.225111
Si Si2 0.237431 0.059349 0.855679
Si Si3 0.929893 0.941108 0.806685
Si Si4 0.398567 0.477660 0.440454
Si Si5 0.119783 0.395973 0.325771
Si Si6 0.462065 0.423027 0.897182
Si Si7 0.798517 0.592895 0.447265
O O1 0.734303 0.705655 0.137634
O O2 0.600954 0.559675 0.379398
O O3 0.572033 0.812088 0.081098
O O4 0.506230 0.130860 0.332985
O O5 0.246038 0.114594 0.667514
O O6 0.338306 0.737601 0.898024
O O7 0.114868 0.115499 0.993071
O O8 0.859660 0.870867 0.763731
O O9 0.067472 0.684210 0.682601
O O10 0.900652 0.288321 0.772186
O O11 0.433577 0.683671 0.298443
O O12 0.280362 0.533023 0.482456
O O13 0.205118 0.309978 0.397545
O O14 0.000000 0.500000 0.500000
O O15 0.500000 0.500000 0.000000
#
# Coordination Sequence:
#
# PCOD9017667 Si02
#       7
#     2   2   2   2   2   2   2
#     4   9  20  42  61  90 127 169 223 276 327 408
#     4  10  24  42  64  96 134 176 219 277 340 400
#     4  11  24  45  69 102 141 175 224 278 337 403
#     4   9  20  39  64  88 125 170 222 273 335 391
#     4  10  23  45  67  97 138 179 226 275 329 401
#     4  11  24  39  62  96 130 172 223 280 343 397
#     4  10  21  43  65  96 132 175 224 273 336 406
#
# _framework density 26.039819000000001
#
# number of rings (size 3 to 8) (size 9 to 14) (size 15 to 20)
#    0.000    2.000    0.000    3.429    4.000    3.429 
#   20.571    3.571    0.000    0.000    0.000    0.000 
#    0.000    0.000    0.000    0.000    0.000    0.000 
#
# Total GULP energy -78143.952199 kJ/mol
# GULP energy per Si atom -5581.710871 kJ/mol
# Density = 2.598055 g / cm^3
# Si number density = 26.039819 Si / 1000 Ang^3
#
#
#
# Elastic Constant Matrix: (Units=GPa)
#
#
# Indices 1 2 3 4 5 6 
#
# 1 124.0971 14.4106 23.2452 3.4979 -0.7450 1.4301
# 2 14.4106 82.0927 10.2792 7.4780 0.9464 -7.5187
# 3 23.2452 10.2792 57.0883 -2.3412 -20.7818 3.6385
# 4 3.4979 7.4780 -2.3412 23.9435 -1.2417 -4.2158
# 5 -0.7450 0.9464 -20.7818 -1.2417 54.9850 3.0482
# 6 1.4301 -7.5187 3.6385 -4.2158 3.0482 41.4954
#
#
#
# Elastic Compliance Matrix: (Units=1/GPa)
#
#
# Indices 1 2 3 4 5 6 
#
# 1 0.008961 -0.000927 -0.004049 -0.001519 -0.001418 -0.000172
# 2 -0.000927 0.013307 -0.002903 -0.003961 -0.001562 0.002410
# 3 -0.004049 -0.002903 0.023306 0.003769 0.009039 -0.002711
# 4 -0.001519 -0.003961 0.003769 0.044299 0.002287 0.003337
# 5 -0.001418 -0.001562 0.009039 0.002287 0.021795 -0.002395
# 6 -0.000172 0.002410 -0.002711 0.003337 -0.002395 0.025294
#
#
# Mechanical properties :
#
#
# Convention : Reuss Voigt Hill
#
# Bulk Modulus (GPa) = 33.54004 39.90534 36.72269
# Shear Modulus (GPa) = 30.73906 38.44096 34.59001
#
# Velocity S-wave (km/s) = 3.43952 3.84635 3.64861
# Velocity P-wave (km/s) = 5.35555 5.92317 5.64650
#
# Compressibility (1/GPa) = 0.02981511
#
# Stress axis : x y z
#
# Youngs Moduli (GPa) = 111.59965 75.14745 42.90726
#
# Poissons Ratio (x) = 0.06966 0.17374
# Poissons Ratio (y) = 0.10345 0.12457
# Poissons Ratio (z) = 0.45188 0.21817
#
# Static dielectric constant tensor:
#      x y z
#    x 2.135600 0.129710 0.013850 
#    y 0.129710 2.276650 -0.048880 
#    z 0.013850 -0.048880 2.098010 
# 
# From -- ./inp_files/323411.got.cif
#   From: 2010.05.17/outbox.cif.g08.bks.cpg/sg2_162_cif.got.tgz:323411.got - 2010.06.03 11:33:40.
