data_PCOD9017573
_publ_section_title
;
Structure prediction by ZEFSAII (Michael W. Deem and Ramdas Pophale) SiO2 
 PCOD9017573
Probable space group: P -1
;
_chemical_formula_sum "Si O2"
_cell_formula_units_Z 14
_cell_length_a 19.077841
_cell_length_b 10.512534
_cell_length_c 6.923555
_cell_angle_alpha 99.397669
_cell_angle_beta 100.646010
_cell_angle_gamma 146.414269
_cell_volume 613.113301
_symmetry_space_group_name_H-M "P -1"
_symmetry_group_IT_number 2
_symmetry_cell_setting 'triclinic'
loop_
_space_group_symop_operation_xyz
x,y,z
-x,-y,-z
loop_
_atom_site_type_symbol
_atom_site_label
_atom_site_fract_x
_atom_site_fract_y
_atom_site_fract_z
Si Si1 0.350132 0.297399 0.740366
Si Si2 0.604217 0.297444 0.645056
Si Si3 0.095624 0.267648 0.351610
Si Si4 0.637086 0.877218 0.638931
Si Si5 0.880855 0.408394 0.643447
Si Si6 0.220373 0.359750 0.811114
Si Si7 0.212157 0.873509 0.821642
O O1 0.363364 0.253671 0.523948
O O2 0.296522 0.358595 0.740710
O O3 0.215990 0.003449 0.715347
O O4 0.500000 0.500000 0.000000
O O5 0.762574 0.554043 0.663767
O O6 0.510011 0.272596 0.527987
O O7 0.652543 0.384587 0.913409
O O8 0.500000 0.000000 0.500000
O O9 0.066777 0.360728 0.269348
O O10 0.164179 0.373017 0.629946
O O11 0.932522 0.929758 0.213954
O O12 0.782028 0.196938 0.716735
O O13 0.665002 0.910973 0.890032
O O14 0.771052 0.212477 0.348532
O O15 0.039452 0.583058 0.747735
#
# Coordination Sequence:
#
# PCOD9017573 Si02
#       7
#     2   2   2   2   2   2   2
#     4  11  23  43  64  92 133 165 220 275 320 394
#     4  12  26  44  67 102 137 171 224 278 327 403
#     4  11  25  45  69  95 133 186 219 268 332 400
#     4  11  24  41  67 101 127 171 219 276 338 383
#     4  10  21  43  64  97 133 167 224 271 325 396
#     4  11  26  48  67  95 136 182 223 269 333 395
#     4  10  23  40  67  95 131 174 214 276 330 387
#
# _framework density 22.834278999999999
#
# number of rings (size 3 to 8) (size 9 to 14) (size 15 to 20)
#    0.000    1.143    4.286    0.857    4.000    2.286 
#    5.143    0.000    0.000    0.000    0.000    0.000 
#    0.000    0.000    0.000    0.000    0.000    0.000 
#
# Total GULP energy -78209.765498 kJ/mol
# GULP energy per Si atom -5586.411821 kJ/mol
# Density = 2.278231 g / cm^3
# Si number density = 22.834279 Si / 1000 Ang^3
#
#
#
# Elastic Constant Matrix: (Units=GPa)
#
#
# Indices 1 2 3 4 5 6 
#
# 1 46.1189 32.7675 9.5793 5.7354 -7.8766 3.0982
# 2 32.7675 60.7146 16.4215 -11.7157 -7.6301 5.4814
# 3 9.5793 16.4215 135.2559 13.0262 -8.0520 -8.5980
# 4 5.7354 -11.7157 13.0262 31.1638 1.7219 0.8499
# 5 -7.8766 -7.6301 -8.0520 1.7219 21.1851 0.2442
# 6 3.0982 5.4814 -8.5980 0.8499 0.2442 36.3599
#
#
#
# Elastic Compliance Matrix: (Units=1/GPa)
#
#
# Indices 1 2 3 4 5 6 
#
# 1 0.045055 -0.028006 0.002843 -0.020568 0.009400 0.001473
# 2 -0.028006 0.037458 -0.004977 0.021479 -0.000502 -0.004936
# 3 0.002843 -0.004977 0.008758 -0.006299 0.003074 0.002705
# 4 -0.020568 0.021479 -0.006299 0.047027 -0.006081 -0.004033
# 5 0.009400 -0.000502 0.003074 -0.006081 0.052182 -0.000207
# 6 0.001473 -0.004936 0.002705 -0.004033 -0.000207 0.028857
#
#
# Mechanical properties :
#
#
# Convention : Reuss Voigt Hill
#
# Bulk Modulus (GPa) = 32.26503 39.95844 36.11174
# Shear Modulus (GPa) = 17.24455 29.96317 23.60386
#
# Velocity S-wave (km/s) = 2.75108 3.62636 3.21861
# Velocity P-wave (km/s) = 4.92463 5.92210 5.44625
#
# Compressibility (1/GPa) = 0.03099331
#
# Stress axis : x y z
#
# Youngs Moduli (GPa) = 22.19508 26.69633 114.18381
#
# Poissons Ratio (x) = 0.74765 -0.32467
# Poissons Ratio (y) = 0.62159 0.56825
# Poissons Ratio (z) = -0.06311 0.13286
#
# Static dielectric constant tensor:
#      x y z
#    x 1.876460 0.016410 -0.034870 
#    y 0.016410 1.882980 0.015420 
#    z -0.034870 0.015420 1.850340 
# 
# From -- ./inp_files/118245.got.cif
#   From: 2010.05.17/outbox.cif.g08.bks.cpg/sg2_60_cif.got.tgz:118245.got - 2010.06.03 11:33:40.
