data_PCOD9017647
_publ_section_title
;
Structure prediction by ZEFSAII (Michael W. Deem and Ramdas Pophale) SiO2 
 PCOD9017647
Probable space group: P -1
;
_chemical_formula_sum "Si O2"
_cell_formula_units_Z 16
_cell_length_a 15.866014
_cell_length_b 5.340574
_cell_length_c 17.675128
_cell_angle_alpha 65.088720
_cell_angle_beta 30.328634
_cell_angle_gamma 78.301032
_cell_volume 642.236262
_symmetry_space_group_name_H-M "P -1"
_symmetry_group_IT_number 2
_symmetry_cell_setting 'triclinic'
loop_
_space_group_symop_operation_xyz
x,y,z
-x,-y,-z
loop_
_atom_site_type_symbol
_atom_site_label
_atom_site_fract_x
_atom_site_fract_y
_atom_site_fract_z
Si Si1 0.184758 0.451303 0.979679
Si Si2 0.748493 0.451807 0.634875
Si Si3 0.114417 0.845673 0.297027
Si Si4 0.462930 0.620252 0.614078
Si Si5 0.126141 0.776712 0.129471
Si Si6 0.771891 0.211994 0.321599
Si Si7 0.731108 0.346581 0.492614
Si Si8 0.449997 0.299328 0.991050
O O1 0.197739 0.631644 0.024359
O O2 0.978669 0.358868 0.122459
O O3 0.198258 0.129261 0.021413
O O4 0.331822 0.635922 0.782369
O O5 0.830263 0.288284 0.653885
O O6 0.722940 0.288296 0.595538
O O7 0.566549 0.459787 0.809108
O O8 0.904271 0.768805 0.469090
O O9 0.158828 0.718438 0.199744
O O10 0.239462 0.181934 0.157893
O O11 0.331440 0.566772 0.651007
O O12 0.548013 0.386304 0.606128
O O13 0.638249 0.910569 0.428417
O O14 0.910076 0.638874 0.307208
O O15 0.762152 0.146885 0.427358
O O16 0.500000 0.500000 0.000000
O O17 0.500000 0.000000 0.000000
#
# Coordination Sequence:
#
# PCOD9017647 Si02
#       8
#     2   2   2   2   2   2   2   2
#     4  11  24  43  66 100 131 174 216 270 324 394
#     4   9  20  40  63  93 126 170 219 260 321 383
#     4   9  20  41  65  92 129 175 213 263 320 379
#     4  11  23  40  68  95 125 176 215 269 336 391
#     4  10  23  43  67  95 138 170 219 270 323 381
#     4  10  23  44  63  95 134 166 218 273 328 396
#     4  10  21  43  65  94 131 171 217 276 323 387
#     4  10  22  40  60  91 123 161 210 263 308 366
#
# _framework density 24.912949000000001
#
# number of rings (size 3 to 8) (size 9 to 14) (size 15 to 20)
#    0.000    2.000    1.250    0.750    3.500    2.500 
#    4.500    5.625    0.000    0.000    0.000    0.000 
#    0.000    0.000    0.000    0.000    0.000    0.000 
#
# Total GULP energy -89328.104489 kJ/mol
# GULP energy per Si atom -5583.006531 kJ/mol
# Density = 2.485625 g / cm^3
# Si number density = 24.912949 Si / 1000 Ang^3
#
#
#
# Elastic Constant Matrix: (Units=GPa)
#
#
# Indices 1 2 3 4 5 6 
#
# 1 127.5083 33.8014 38.4902 8.3163 23.3650 2.8506
# 2 33.8014 108.8706 35.2412 7.3275 7.5032 21.8361
# 3 38.4902 35.2412 140.8378 12.2048 2.5197 21.3772
# 4 8.3163 7.3275 12.2048 24.1577 14.4725 3.4190
# 5 23.3650 7.5032 2.5197 14.4725 40.8495 6.3941
# 6 2.8506 21.8361 21.3772 3.4190 6.3941 37.1810
#
#
#
# Elastic Compliance Matrix: (Units=1/GPa)
#
#
# Indices 1 2 3 4 5 6 
#
# 1 0.010359 -0.002683 -0.002718 0.002055 -0.006505 0.003274
# 2 -0.002683 0.011636 -0.001130 -0.001814 0.001048 -0.005991
# 3 -0.002718 -0.001130 0.009181 -0.004897 0.003648 -0.004583
# 4 0.002055 -0.001814 -0.004897 0.055770 -0.020634 0.002143
# 5 -0.006505 0.001048 0.003648 -0.020634 0.036116 -0.006528
# 6 0.003274 -0.005991 -0.004583 0.002143 -0.006528 0.033724
#
#
# Mechanical properties :
#
#
# Convention : Reuss Voigt Hill
#
# Bulk Modulus (GPa) = 55.21149 65.80914 60.51032
# Shear Modulus (GPa) = 28.42748 38.41657 33.42202
#
# Velocity S-wave (km/s) = 3.38164 3.93113 3.66669
# Velocity P-wave (km/s) = 6.12023 6.86134 6.50136
#
# Compressibility (1/GPa) = 0.01811217
#
# Stress axis : x y z
#
# Youngs Moduli (GPa) = 96.53161 85.94242 108.92144
#
# Poissons Ratio (x) = 0.23058 0.29610
# Poissons Ratio (y) = 0.25899 0.12313
# Poissons Ratio (z) = 0.26242 0.09715
#
# Static dielectric constant tensor:
#      x y z
#    x 2.053680 -0.107360 0.020910 
#    y -0.107360 2.081430 -0.026300 
#    z 0.020910 -0.026300 2.045740 
# 
# From -- ./inp_files/525609.got.cif
#   From: 2010.05.17/outbox.cif.g08.bks.cpg/sg2_263_cif.got.tgz:525609.got - 2010.06.03 11:33:40.
