data_PCOD9017605
_publ_section_title
;
Structure prediction by ZEFSAII (Michael W. Deem and Ramdas Pophale) SiO2 
 PCOD9017605
Probable space group: P -1
;
_chemical_formula_sum "Si O2"
_cell_formula_units_Z 12
_cell_length_a 9.106333
_cell_length_b 9.501305
_cell_length_c 8.985190
_cell_angle_alpha 73.917232
_cell_angle_beta 59.733334
_cell_angle_gamma 76.168701
_cell_volume 640.519828
_symmetry_space_group_name_H-M "P -1"
_symmetry_group_IT_number 2
_symmetry_cell_setting 'triclinic'
loop_
_space_group_symop_operation_xyz
x,y,z
-x,-y,-z
loop_
_atom_site_type_symbol
_atom_site_label
_atom_site_fract_x
_atom_site_fract_y
_atom_site_fract_z
Si Si1 0.641842 0.872576 0.529146
Si Si2 0.858596 0.904152 0.155537
Si Si3 0.017625 0.433256 0.846053
Si Si4 0.547346 0.084201 0.096808
Si Si5 0.345134 0.465973 0.483688
Si Si6 0.662005 0.400779 0.875844
O O1 0.819330 0.905133 0.352570
O O2 0.611815 0.875609 0.720332
O O3 0.621743 0.707338 0.530170
O O4 0.500000 0.000000 0.500000
O O5 0.913614 0.738722 0.125748
O O6 0.684976 0.972083 0.146112
O O7 0.000000 0.000000 0.000000
O O8 0.165234 0.495985 0.654816
O O9 0.836028 0.441163 0.851864
O O10 0.000000 0.500000 0.000000
O O11 0.632304 0.231907 0.971993
O O12 0.500000 0.000000 0.000000
O O13 0.500000 0.500000 0.500000
O O14 0.335973 0.562336 0.310577
O O15 0.500000 0.500000 0.000000
#
# Coordination Sequence:
#
# PCOD9017605 Si02
#       6
#     2   2   2   2   2   2
#     4   9  21  39  63  88 127 161 211 257 316 382
#     4  10  21  43  65  88 128 169 210 261 327 377
#     4  11  25  42  66  96 131 170 220 270 322 390
#     4  11  24  41  65  96 129 167 216 266 324 389
#     4  11  24  41  68  95 129 173 217 265 335 384
#     4  12  24  42  66  93 136 171 218 275 322 384
#
# _framework density 18.734784999999999
#
# number of rings (size 3 to 8) (size 9 to 14) (size 15 to 20)
#    0.000    1.333    3.333    1.500    9.333    0.000 
#    0.000    0.833    0.000    0.000    0.000    0.000 
#    0.000    0.000    0.000    0.000    0.000    0.000 
#
# Total GULP energy -66963.346387 kJ/mol
# GULP energy per Si atom -5580.278866 kJ/mol
# Density = 1.869214 g / cm^3
# Si number density = 18.734785 Si / 1000 Ang^3
#
#
#
# Elastic Constant Matrix: (Units=GPa)
#
#
# Indices 1 2 3 4 5 6 
#
# 1 132.0229 34.5241 84.3107 14.6167 1.3681 6.3962
# 2 34.5241 74.1385 59.3868 17.3212 1.0131 -12.2506
# 3 84.3107 59.3868 213.1770 20.6345 -1.4789 15.3901
# 4 14.6167 17.3212 20.6345 37.7939 -1.4653 6.1862
# 5 1.3681 1.0131 -1.4789 -1.4653 33.5776 0.5603
# 6 6.3962 -12.2506 15.3901 6.1862 0.5603 26.8507
#
#
#
# Elastic Compliance Matrix: (Units=1/GPa)
#
#
# Indices 1 2 3 4 5 6 
#
# 1 0.010458 -0.002159 -0.003343 -0.001036 -0.000532 -0.001310
# 2 -0.002159 0.025018 -0.006447 -0.010122 -0.001693 0.017991
# 3 -0.003343 -0.006447 0.008236 0.000946 0.000853 -0.007101
# 4 -0.001036 -0.010122 0.000946 0.033122 0.002045 -0.012587
# 5 -0.000532 -0.001693 0.000853 0.002045 0.030019 -0.002232
# 6 -0.001310 0.017991 -0.007101 -0.012587 -0.002232 0.052781
#
#
# Mechanical properties :
#
#
# Convention : Reuss Voigt Hill
#
# Bulk Modulus (GPa) = 50.46851 86.19797 68.33324
# Shear Modulus (GPa) = 26.29698 35.71889 31.00793
#
# Velocity S-wave (km/s) = 3.75059 4.37115 4.07270
# Velocity P-wave (km/s) = 6.76408 8.46081 7.65957
#
# Compressibility (1/GPa) = 0.01981434
#
# Stress axis : x y z
#
# Youngs Moduli (GPa) = 95.62236 39.97071 121.41595
#
# Poissons Ratio (x) = 0.08629 0.40595
# Poissons Ratio (y) = 0.20644 0.78272
# Poissons Ratio (z) = 0.31971 0.25768
#
# Static dielectric constant tensor:
#      x y z
#    x 1.599040 -0.037660 -0.016270 
#    y -0.037660 1.605490 -0.004420 
#    z -0.016270 -0.004420 1.698580 
# 
# From -- ./inp_files/144593.got.cif
#   From: 2010.05.17/outbox.cif.g08.bks.cpg/sg2_73_cif.got.tgz:144593.got - 2010.06.03 11:33:40.
