data_PCOD9017921
_publ_section_title
;
Structure prediction by ZEFSAII (Michael W. Deem and Ramdas Pophale) SiO2 
 PCOD9017921
Probable space group: P -1
;
_chemical_formula_sum "Si O2"
_cell_formula_units_Z 16
_cell_length_a 13.541359
_cell_length_b 14.649185
_cell_length_c 8.400250
_cell_angle_alpha 70.376969
_cell_angle_beta 88.229042
_cell_angle_gamma 149.098009
_cell_volume 605.893492
_symmetry_space_group_name_H-M "P -1"
_symmetry_group_IT_number 2
_symmetry_cell_setting 'triclinic'
loop_
_space_group_symop_operation_xyz
x,y,z
-x,-y,-z
loop_
_atom_site_type_symbol
_atom_site_label
_atom_site_fract_x
_atom_site_fract_y
_atom_site_fract_z
Si Si1 0.866255 0.745480 0.751631
Si Si2 0.546642 0.173963 0.469235
Si Si3 0.566045 0.094021 0.177802
Si Si4 0.748710 0.944120 0.027947
Si Si5 0.803059 0.482425 0.793854
Si Si6 0.035915 0.668620 0.321477
Si Si7 0.405414 0.255492 0.494434
Si Si8 0.651946 0.651246 0.132566
O O1 0.917875 0.676750 0.771434
O O2 0.632773 0.562376 0.756292
O O3 0.757361 0.683134 0.962509
O O4 0.143344 0.043792 0.539193
O O5 0.490701 0.075302 0.361229
O O6 0.835495 0.424826 0.373678
O O7 0.512664 0.257393 0.404219
O O8 0.383731 0.971047 0.733872
O O9 0.789663 0.365521 0.944676
O O10 0.316383 0.875245 0.205099
O O11 0.493207 0.753746 0.069247
O O12 0.678581 0.858486 0.262781
O O13 0.818217 0.899501 0.989380
O O14 0.941117 0.204992 0.833726
O O15 0.922279 0.582313 0.554278
O O16 0.594933 0.517414 0.344165
#
# Coordination Sequence:
#
# PCOD9017921 Si02
#       8
#     2   2   2   2   2   2   2   2
#     4  10  23  39  66  94 126 173 215 272 328 392
#     4  11  24  45  69  99 137 169 221 276 325 392
#     4  10  24  45  67 101 133 173 219 271 328 395
#     4  10  24  40  63  94 130 167 219 269 322 389
#     4  10  21  43  67  93 133 171 216 269 327 392
#     4  11  23  45  68  97 134 180 213 272 333 384
#     4  12  23  40  64  96 127 171 217 273 325 389
#     4  10  23  43  62  92 130 172 218 269 328 392
#
# _framework density 26.407281000000001
#
# number of rings (size 3 to 8) (size 9 to 14) (size 15 to 20)
#    0.000    1.500    1.250    2.625    3.500    7.000 
#    2.250    1.875    0.000    0.000    0.000    0.000 
#    0.000    0.000    0.000    0.000    0.000    0.000 
#
# Total GULP energy -89560.210235 kJ/mol
# GULP energy per Si atom -5597.513140 kJ/mol
# Density = 2.634718 g / cm^3
# Si number density = 26.407281 Si / 1000 Ang^3
#
#
#
# Elastic Constant Matrix: (Units=GPa)
#
#
# Indices 1 2 3 4 5 6 
#
# 1 126.1470 23.1401 47.6309 -6.5067 15.6420 -9.2927
# 2 23.1401 88.1939 3.6334 -21.4262 -0.6677 -5.0471
# 3 47.6309 3.6334 91.2112 -21.1894 41.1767 -7.1255
# 4 -6.5067 -21.4262 -21.1894 39.9419 -8.3432 3.4608
# 5 15.6420 -0.6677 41.1767 -8.3432 43.3351 -11.0144
# 6 -9.2927 -5.0471 -7.1255 3.4608 -11.0144 26.7900
#
#
#
# Elastic Compliance Matrix: (Units=1/GPa)
#
#
# Indices 1 2 3 4 5 6 
#
# 1 0.011092 -0.003273 -0.007833 -0.003645 0.003460 0.003041
# 2 -0.003273 0.014281 0.003015 0.008723 0.000590 0.001473
# 3 -0.007833 0.003015 0.026894 0.010474 -0.022039 -0.005410
# 4 -0.003645 0.008723 0.010474 0.034361 -0.002469 -0.002289
# 5 0.003460 0.000590 -0.022039 -0.002469 0.046038 0.014696
# 6 0.003041 0.001473 -0.005410 -0.002289 0.014696 0.043559
#
#
# Mechanical properties :
#
#
# Convention : Reuss Voigt Hill
#
# Bulk Modulus (GPa) = 27.71174 50.48455 39.09815
# Shear Modulus (GPa) = 24.45763 37.42324 30.94044
#
# Velocity S-wave (km/s) = 3.04661 3.76860 3.42667
# Velocity P-wave (km/s) = 4.78461 6.17216 5.52214
#
# Compressibility (1/GPa) = 0.03608579
#
# Stress axis : x y z
#
# Youngs Moduli (GPa) = 90.15234 70.02239 37.18295
#
# Poissons Ratio (x) = 0.22918 0.29127
# Poissons Ratio (y) = 0.29507 -0.11212
# Poissons Ratio (z) = 0.70619 -0.21115
#
# Static dielectric constant tensor:
#      x y z
#    x 2.086710 0.017210 0.018480 
#    y 0.017210 2.104690 -0.023390 
#    z 0.018480 -0.023390 2.032000 
# 
# From -- ./inp_files/39231.got.cif
#   From: 2010.05.17/outbox.cif.g08.bks.cpg/sg2_20_cif.got.tgz:39231.got - 2010.06.03 11:33:40.
