data_PCOD9017014
_publ_section_title
;
Structure prediction by ZEFSAII (Michael W. Deem and Ramdas Pophale) SiO2 
 PCOD9017014
Probable space group: P -1
;
_chemical_formula_sum "Si O2"
_cell_formula_units_Z 15
_cell_length_a 14.177280
_cell_length_b 16.366370
_cell_length_c 9.261041
_cell_angle_alpha 151.373949
_cell_angle_beta 48.371959
_cell_angle_gamma 139.532853
_cell_volume 668.110640
_symmetry_space_group_name_H-M "P -1"
_symmetry_group_IT_number 2
_symmetry_cell_setting 'triclinic'
loop_
_space_group_symop_operation_xyz
x,y,z
-x,-y,-z
loop_
_atom_site_type_symbol
_atom_site_label
_atom_site_fract_x
_atom_site_fract_y
_atom_site_fract_z
Si Si1 0.009079 0.987299 0.300249
Si Si2 0.288797 0.584552 0.536255
Si Si3 0.661301 0.178935 0.648049
Si Si4 0.127877 0.204130 0.251688
Si Si5 0.721387 0.882867 0.261425
Si Si6 0.243438 0.868676 0.821580
Si Si7 0.481089 0.687883 0.785410
Si Si8 0.500000 0.500000 0.000000
O O1 0.848695 0.902507 0.266719
O O2 0.104479 0.187162 0.419707
O O3 0.092362 0.868281 0.992579
O O4 0.000000 0.000000 0.500000
O O5 0.145737 0.398587 0.461635
O O6 0.263623 0.749080 0.744946
O O7 0.400728 0.664898 0.679740
O O8 0.358201 0.498491 0.217607
O O9 0.747278 0.230757 0.491525
O O10 0.500000 0.000000 0.500000
O O11 0.734515 0.092716 0.547988
O O12 0.625393 0.324625 0.996333
O O13 0.264259 0.189287 0.026163
O O14 0.000000 0.000000 0.000000
O O15 0.568511 0.732145 0.250204
O O16 0.373825 0.097088 0.038776
O O17 0.500000 0.500000 0.500000
#
# Coordination Sequence:
#
# PCOD9017014 Si02
#       8
#     2   2   2   2   2   2   2   1
#     4  11  24  41  72  98 137 188 234 285 349 422
#     4  11  24  41  71 103 145 181 236 299 362 409
#     4  10  22  41  71 102 137 187 235 288 354 424
#     4   9  20  45  68  94 131 190 228 286 349 424
#     4  10  21  42  70  95 140 186 232 280 359 416
#     4  11  24  44  68 104 146 183 246 288 350 432
#     4  11  25  40  70 105 144 188 235 296 360 416
#     4  10  22  38  68 102 134 180 232 292 356 420
#
# _framework density 22.451370000000001
#
# number of rings (size 3 to 8) (size 9 to 14) (size 15 to 20)
#    0.000    1.600    1.333    2.800   11.200    0.000 
#    0.000    8.000    8.800    0.000    0.000    0.000 
#    0.000    0.000    0.000    0.000    0.000    0.000 
#
# Total GULP energy -83501.774301 kJ/mol
# GULP energy per Si atom -5566.784953 kJ/mol
# Density = 2.240027 g / cm^3
# Si number density = 22.451370 Si / 1000 Ang^3
#
#
#
# Elastic Constant Matrix: (Units=GPa)
#
#
# Indices 1 2 3 4 5 6 
#
# 1 128.4500 59.7117 50.9261 -0.1894 -8.9963 -32.0231
# 2 59.7117 176.1308 53.5526 3.6944 -8.0905 -28.2671
# 3 50.9261 53.5526 119.5213 -6.4821 -18.1941 -22.7371
# 4 -0.1894 3.6944 -6.4821 44.0984 -0.6348 -5.4639
# 5 -8.9963 -8.0905 -18.1941 -0.6348 27.7066 7.1085
# 6 -32.0231 -28.2671 -22.7371 -5.4639 7.1085 32.7166
#
#
#
# Elastic Compliance Matrix: (Units=1/GPa)
#
#
# Indices 1 2 3 4 5 6 
#
# 1 0.011731 -0.001896 -0.002612 0.000845 -0.000568 0.008294
# 2 -0.001896 0.007436 -0.002040 -0.000544 -0.000616 0.003195
# 3 -0.002612 -0.002040 0.011992 0.002399 0.005669 0.003184
# 4 0.000845 -0.000544 0.002399 0.023813 0.000738 0.005840
# 5 -0.000568 -0.000616 0.005669 0.000738 0.040990 -0.005931
# 6 0.008294 0.003195 0.003184 0.005840 -0.005931 0.045921
#
#
# Mechanical properties :
#
#
# Convention : Reuss Voigt Hill
#
# Bulk Modulus (GPa) = 55.35488 83.60922 69.48205
# Shear Modulus (GPa) = 31.05610 38.23178 34.64394
#
# Velocity S-wave (km/s) = 3.72326 4.13106 3.93245
# Velocity P-wave (km/s) = 6.57210 7.75082 7.18567
#
# Compressibility (1/GPa) = 0.01806525
#
# Stress axis : x y z
#
# Youngs Moduli (GPa) = 85.24405 134.47588 83.38640
#
# Poissons Ratio (x) = 0.25492 0.21780
# Poissons Ratio (y) = 0.16159 0.17008
# Poissons Ratio (z) = 0.22265 0.27428
#
# Static dielectric constant tensor:
#      x y z
#    x 1.879040 -0.005770 0.002570 
#    y -0.005770 1.891250 0.010280 
#    z 0.002570 0.010280 1.894940 
# 
# From -- ./inp_files/316169.got.cif
#   From: 2010.05.17/outbox.cif.g08.bks.cpg/sg2_159_cif.got.tgz:316169.got - 2010.06.03 11:33:40.
