data_PCOD9017759
_publ_section_title
;
Structure prediction by ZEFSAII (Michael W. Deem and Ramdas Pophale) SiO2 
 PCOD9017759
Probable space group: P -1
;
_chemical_formula_sum "Si O2"
_cell_formula_units_Z 14
_cell_length_a 13.679700
_cell_length_b 20.311184
_cell_length_c 11.959100
_cell_angle_alpha 23.115476
_cell_angle_beta 146.786044
_cell_angle_gamma 150.197335
_cell_volume 635.572850
_symmetry_space_group_name_H-M "P -1"
_symmetry_group_IT_number 2
_symmetry_cell_setting 'triclinic'
loop_
_space_group_symop_operation_xyz
x,y,z
-x,-y,-z
loop_
_atom_site_type_symbol
_atom_site_label
_atom_site_fract_x
_atom_site_fract_y
_atom_site_fract_z
Si Si1 0.237225 0.247866 0.700834
Si Si2 0.427742 0.131741 0.655574
Si Si3 0.163162 0.914972 0.533557
Si Si4 0.788151 0.496855 0.306727
Si Si5 0.320012 0.433548 0.155924
Si Si6 0.245721 0.238263 0.962272
Si Si7 0.309231 0.618370 0.075597
O O1 0.133578 0.192028 0.809874
O O2 0.288483 0.462796 0.389274
O O3 0.449054 0.240247 0.914634
O O4 0.067114 0.126054 0.639132
O O5 0.611860 0.305688 0.492900
O O6 0.325090 0.233867 0.473016
O O7 0.264459 0.001126 0.613105
O O8 0.500000 0.000000 0.000000
O O9 0.189891 0.731933 0.816697
O O10 0.279934 0.070838 0.307127
O O11 0.824504 0.675688 0.138559
O O12 0.000000 0.500000 0.500000
O O13 0.736561 0.531460 0.077365
O O14 0.548442 0.586730 0.148461
O O15 0.227858 0.498168 0.070000
#
# Coordination Sequence:
#
# PCOD9017759 Si02
#       7
#     2   2   2   2   2   2   2
#     4  10  24  42  64  96 134 173 218 270 341 393
#     4  11  25  44  68  97 135 177 225 280 337 391
#     4  12  23  42  67  97 130 172 223 273 331 393
#     4  11  23  42  70  95 135 179 225 272 343 403
#     4  10  21  47  64  91 135 176 215 273 341 391
#     4  10  21  43  66  92 130 174 218 271 324 405
#     4  10  25  42  67  94 134 174 219 274 329 404
#
# _framework density 22.027373999999998
#
# number of rings (size 3 to 8) (size 9 to 14) (size 15 to 20)
#    0.000    1.429    2.857    1.714   10.000    4.571 
#    0.000    1.429    0.000    0.000    0.000    0.000 
#    0.000    0.000    0.000    0.000    0.000    0.000 
#
# Total GULP energy -78107.658147 kJ/mol
# GULP energy per Si atom -5579.118439 kJ/mol
# Density = 2.197724 g / cm^3
# Si number density = 22.027374 Si / 1000 Ang^3
#
#
#
# Elastic Constant Matrix: (Units=GPa)
#
#
# Indices 1 2 3 4 5 6 
#
# 1 66.6969 30.7626 23.3718 2.3506 -7.6140 7.1073
# 2 30.7626 108.8544 27.1676 14.8146 -6.9116 6.8183
# 3 23.3718 27.1676 99.8584 -2.6429 -18.2795 1.1333
# 4 2.3506 14.8146 -2.6429 38.3151 -6.2934 2.3613
# 5 -7.6140 -6.9116 -18.2795 -6.2934 31.5120 19.4784
# 6 7.1073 6.8183 1.1333 2.3613 19.4784 -36.0029
#
#
#
# Elastic Compliance Matrix: (Units=1/GPa)
#
#
# Indices 1 2 3 4 5 6 
#
# 1 0.017821 -0.004497 -0.002962 0.000287 0.000043 0.002615
# 2 -0.004497 0.011595 -0.002424 -0.004573 -0.001078 0.000348
# 3 -0.002962 -0.002424 0.012336 0.002661 0.005049 0.002251
# 4 0.000287 -0.004573 0.002661 0.028512 0.004194 0.003413
# 5 0.000043 -0.001078 0.005049 0.004194 0.026324 0.014480
# 6 0.002615 0.000348 0.002251 0.003413 0.014480 -0.019065
#
#
# Mechanical properties :
#
#
# Convention : Reuss Voigt Hill
#
# Bulk Modulus (GPa) = 45.48507 48.66818 47.07662
# Shear Modulus (GPa) = 47.79276 19.70534 33.74905
#
# Velocity S-wave (km/s) = 4.66306 2.99420 3.91850
# Velocity P-wave (km/s) = 7.04885 5.83918 6.47234
#
# Compressibility (1/GPa) = 0.02198524
#
# Stress axis : x y z
#
# Youngs Moduli (GPa) = 56.11203 86.24664 81.06350
#
# Poissons Ratio (x) = 0.38788 0.24010
# Poissons Ratio (y) = 0.25236 0.19652
# Poissons Ratio (z) = 0.16620 0.20908
#
# Static dielectric constant tensor:
#      x y z
#    x 1.962790 -0.095530 -0.036610 
#    y -0.095530 1.993410 0.002650 
#    z -0.036610 0.002650 1.804380 
# 
# From -- ./inp_files/204138.got.cif
#   From: 2010.05.17/outbox.cif.g08.bks.cpg/sg2_103_cif.got.tgz:204138.got - 2010.06.03 11:33:40.
