data_PCOD9017241
_publ_section_title
;
Structure prediction by ZEFSAII (Michael W. Deem and Ramdas Pophale) SiO2 
 PCOD9017241
Probable space group: P -1
;
_chemical_formula_sum "Si O2"
_cell_formula_units_Z 14
_cell_length_a 7.898695
_cell_length_b 11.642966
_cell_length_c 7.349650
_cell_angle_alpha 67.969812
_cell_angle_beta 101.112340
_cell_angle_gamma 73.252027
_cell_volume 564.473955
_symmetry_space_group_name_H-M "P -1"
_symmetry_group_IT_number 2
_symmetry_cell_setting 'triclinic'
loop_
_space_group_symop_operation_xyz
x,y,z
-x,-y,-z
loop_
_atom_site_type_symbol
_atom_site_label
_atom_site_fract_x
_atom_site_fract_y
_atom_site_fract_z
Si Si1 0.474393 0.636903 0.304985
Si Si2 0.540055 0.684365 0.871040
Si Si3 0.123353 0.262251 0.923596
Si Si4 0.866785 0.542811 0.775792
Si Si5 0.875795 0.134859 0.990943
Si Si6 0.224803 0.950968 0.622786
Si Si7 0.261280 0.205889 0.602732
O O1 0.500000 0.500000 0.500000
O O2 0.501895 0.624365 0.093466
O O3 0.264785 0.746192 0.229273
O O4 0.600747 0.717781 0.355456
O O5 0.691704 0.742531 0.936856
O O6 0.662465 0.579808 0.803020
O O7 0.368198 0.805513 0.662381
O O8 0.182598 0.184406 0.792548
O O9 0.970230 0.411444 0.753265
O O10 0.017364 0.194651 0.068056
O O11 0.883921 0.671530 0.613950
O O12 0.000000 0.500000 0.000000
O O13 0.757042 0.098583 0.136016
O O14 0.000000 0.000000 0.000000
O O15 0.300502 0.071001 0.573054
O O16 0.000000 0.000000 0.500000
#
# Coordination Sequence:
#
# PCOD9017241 Si02
#       7
#     2   2   2   2   2   2   2
#     4  10  23  44  70 102 134 176 234 281 341 409
#     4   9  23  44  70  96 139 178 221 282 345 403
#     4  10  21  42  72  96 134 171 231 278 344 401
#     4  10  22  40  66  99 131 180 218 278 342 406
#     4  11  23  41  67 101 133 172 228 286 335 403
#     4  11  26  44  65 100 139 181 226 276 341 407
#     4  11  23  42  69  98 134 182 226 279 338 404
#
# _framework density 24.801855
#
# number of rings (size 3 to 8) (size 9 to 14) (size 15 to 20)
#    0.000    1.714    1.429    1.286    6.000    5.714 
#    0.000    6.429    0.000    0.000    0.000    0.000 
#    0.000    0.000    0.000    0.000    0.000    0.000 
#
# Total GULP energy -77940.142153 kJ/mol
# GULP energy per Si atom -5567.153011 kJ/mol
# Density = 2.474541 g / cm^3
# Si number density = 24.801855 Si / 1000 Ang^3
#
#
#
# Elastic Constant Matrix: (Units=GPa)
#
#
# Indices 1 2 3 4 5 6 
#
# 1 90.6018 48.8694 35.1966 -28.0281 5.7216 9.4721
# 2 48.8694 50.4912 23.2262 -6.5432 14.6229 3.5451
# 3 35.1966 23.2262 100.4088 -14.6605 8.2318 13.8008
# 4 -28.0281 -6.5432 -14.6605 40.5745 -5.6701 -6.2435
# 5 5.7216 14.6229 8.2318 -5.6701 41.3579 -16.1149
# 6 9.4721 3.5451 13.8008 -6.2435 -16.1149 45.3954
#
#
#
# Elastic Compliance Matrix: (Units=1/GPa)
#
#
# Indices 1 2 3 4 5 6 
#
# 1 0.036076 -0.034499 -0.003087 0.020372 0.011824 0.003104
# 2 -0.034499 0.057859 -0.001426 -0.018954 -0.020659 -0.006827
# 3 -0.003087 -0.001426 0.012294 0.001086 -0.002867 -0.003850
# 4 0.020372 -0.018954 0.001086 0.038610 0.011398 0.006255
# 5 0.011824 -0.020659 -0.002867 0.011398 0.037832 0.015015
# 6 0.003104 -0.006827 -0.003850 0.006255 0.015015 0.029275
#
#
# Mechanical properties :
#
#
# Convention : Reuss Voigt Hill
#
# Bulk Modulus (GPa) = 35.45592 50.67625 43.06609
# Shear Modulus (GPa) = 16.70165 34.41287 25.55726
#
# Velocity S-wave (km/s) = 2.59782 3.72897 3.21356
# Velocity P-wave (km/s) = 4.82959 6.24637 5.58310
#
# Compressibility (1/GPa) = 0.02820403
#
# Stress axis : x y z
#
# Youngs Moduli (GPa) = 27.71936 17.28349 81.33918
#
# Poissons Ratio (x) = 0.59627 0.25111
# Poissons Ratio (y) = 0.95630 0.11598
# Poissons Ratio (z) = 0.08558 0.02464
#
# Static dielectric constant tensor:
#      x y z
#    x 2.028080 -0.031860 0.073990 
#    y -0.031860 2.164170 -0.037040 
#    z 0.073990 -0.037040 1.992930 
# 
# From -- ./inp_files/175280.got.cif
#   From: 2010.05.17/outbox.cif.g08.bks.cpg/sg2_88_cif.got.tgz:175280.got - 2010.06.03 11:33:40.
