data_PCOD9017765
_publ_section_title
;
Structure prediction by ZEFSAII (Michael W. Deem and Ramdas Pophale) SiO2 
 PCOD9017765
Probable space group: P -1
;
_chemical_formula_sum "Si O2"
_cell_formula_units_Z 16
_cell_length_a 9.016910
_cell_length_b 20.483143
_cell_length_c 22.948806
_cell_angle_alpha 165.069135
_cell_angle_beta 147.234820
_cell_angle_gamma 33.494447
_cell_volume 584.000579
_symmetry_space_group_name_H-M "P -1"
_symmetry_group_IT_number 2
_symmetry_cell_setting 'triclinic'
loop_
_space_group_symop_operation_xyz
x,y,z
-x,-y,-z
loop_
_atom_site_type_symbol
_atom_site_label
_atom_site_fract_x
_atom_site_fract_y
_atom_site_fract_z
Si Si1 0.007990 0.785084 0.601510
Si Si2 0.471419 0.466356 0.752570
Si Si3 0.657250 0.872001 0.384481
Si Si4 0.358309 0.846919 0.869371
Si Si5 0.920687 0.791691 0.183258
Si Si6 0.503157 0.303628 0.490134
Si Si7 0.117075 0.269883 0.234712
Si Si8 0.118785 0.678613 0.023287
O O1 0.701897 0.721616 0.431486
O O2 0.059490 0.829351 0.725212
O O3 0.189573 0.501787 0.415789
O O4 0.060329 0.044564 0.812751
O O5 0.530812 0.336927 0.597295
O O6 0.726299 0.591499 0.970274
O O7 0.212338 0.694026 0.850936
O O8 0.421614 0.750866 0.167637
O O9 0.500000 0.000000 0.500000
O O10 0.867068 0.609626 0.244539
O O11 0.841259 0.070352 0.588058
O O12 0.546044 0.579775 0.716268
O O13 0.500000 0.000000 0.000000
O O14 0.286035 0.014852 0.046387
O O15 0.059606 0.664971 0.060888
O O16 0.701510 0.046629 0.316484
O O17 0.209863 0.295998 0.354186
#
# Coordination Sequence:
#
# PCOD9017765 Si02
#       8
#     2   2   2   2   2   2   2   2
#     4   9  24  39  62  86 126 162 205 255 312 358
#     4  10  23  41  58  90 126 170 211 252 304 371
#     4   9  21  40  66  95 120 155 198 258 316 377
#     4  11  25  37  58  91 129 167 214 258 305 361
#     4  11  23  36  67  91 124 159 212 254 311 371
#     4  11  23  37  60  87 123 171 215 246 304 358
#     4   9  23  40  58  84 127 173 205 252 303 355
#     4  10  21  43  66  93 122 156 204 257 318 371
#
# _framework density 27.397231999999999
#
# number of rings (size 3 to 8) (size 9 to 14) (size 15 to 20)
#    0.750    1.250    0.000    1.875    8.750    3.000 
#    0.000    0.625    0.000   10.500    0.000    0.000 
#    0.000    0.000    0.000    0.000    0.000    0.000 
#
# Total GULP energy -89217.548878 kJ/mol
# GULP energy per Si atom -5576.096805 kJ/mol
# Density = 2.733487 g / cm^3
# Si number density = 27.397232 Si / 1000 Ang^3
#
#
#
# Elastic Constant Matrix: (Units=GPa)
#
#
# Indices 1 2 3 4 5 6 
#
# 1 80.0904 7.4555 43.4338 9.0163 -0.9108 -3.5668
# 2 7.4555 74.8098 11.0509 -17.1069 -2.0156 -22.1581
# 3 43.4338 11.0509 177.5595 20.9290 34.6044 -13.7529
# 4 9.0163 -17.1069 20.9290 57.3680 -5.7784 9.0798
# 5 -0.9108 -2.0156 34.6044 -5.7784 53.5998 6.6897
# 6 -3.5668 -22.1581 -13.7529 9.0798 6.6897 41.2120
#
#
#
# Elastic Compliance Matrix: (Units=1/GPa)
#
#
# Indices 1 2 3 4 5 6 
#
# 1 0.014919 -0.001293 -0.004136 -0.000753 0.002930 -0.001094
# 2 -0.001293 0.016894 -0.000784 0.004382 0.000638 0.007641
# 3 -0.004136 -0.000784 0.008823 -0.004145 -0.006764 0.004176
# 4 -0.000753 0.004382 -0.004145 0.021711 0.005769 -0.004812
# 5 0.002930 0.000638 -0.006764 0.005769 0.024583 -0.006922
# 6 -0.001094 0.007641 0.004176 -0.004812 -0.006922 0.031855
#
#
# Mechanical properties :
#
#
# Convention : Reuss Voigt Hill
#
# Bulk Modulus (GPa) = 35.44990 50.70445 43.07718
# Shear Modulus (GPa) = 35.55817 48.47060 42.01438
#
# Velocity S-wave (km/s) = 3.60651 4.21072 3.92028
# Velocity P-wave (km/s) = 5.50544 6.49520 6.02069
#
# Compressibility (1/GPa) = 0.02820882
#
# Stress axis : x y z
#
# Youngs Moduli (GPa) = 67.03042 59.19134 113.34610
#
# Poissons Ratio (x) = 0.07654 0.46879
# Poissons Ratio (y) = 0.08668 0.08890
# Poissons Ratio (z) = 0.27723 0.04642
#
# Static dielectric constant tensor:
#      x y z
#    x 2.075740 -0.016880 0.116130 
#    y -0.016880 2.359360 -0.055670 
#    z 0.116130 -0.055670 2.267390 
# 
# From -- ./inp_files/564123.got.cif
#   From: 2010.05.17/outbox.cif.g08.bks.cpg/sg2_283_cif.got.tgz:564123.got - 2010.06.03 11:33:40.
