data_PCOD9017280
_publ_section_title
;
Structure prediction by ZEFSAII (Michael W. Deem and Ramdas Pophale) SiO2 
 PCOD9017280
Probable space group: P -1
;
_chemical_formula_sum "Si O2"
_cell_formula_units_Z 16
_cell_length_a 15.202010
_cell_length_b 9.934828
_cell_length_c 9.506495
_cell_angle_alpha 45.666136
_cell_angle_beta 141.627218
_cell_angle_gamma 124.634763
_cell_volume 636.840461
_symmetry_space_group_name_H-M "P -1"
_symmetry_group_IT_number 2
_symmetry_cell_setting 'triclinic'
loop_
_space_group_symop_operation_xyz
x,y,z
-x,-y,-z
loop_
_atom_site_type_symbol
_atom_site_label
_atom_site_fract_x
_atom_site_fract_y
_atom_site_fract_z
Si Si1 0.453782 0.692166 0.224345
Si Si2 0.160316 0.597764 0.025928
Si Si3 0.896094 0.130721 0.694671
Si Si4 0.162698 0.322509 0.774463
Si Si5 0.748252 0.824336 0.536464
Si Si6 0.543263 0.546307 0.860046
Si Si7 0.758359 0.349925 0.594917
Si Si8 0.904556 0.826976 0.453099
O O1 0.500000 0.500000 0.500000
O O2 0.294712 0.723035 0.046650
O O3 0.579145 0.834998 0.325433
O O4 0.452489 0.637614 0.098000
O O5 0.192840 0.378991 0.191359
O O6 0.843775 0.365394 0.837600
O O7 0.020722 0.666665 0.727573
O O8 0.787593 0.190630 0.634302
O O9 0.004300 0.303678 0.654816
O O10 0.823808 0.004007 0.574274
O O11 0.000000 0.000000 0.000000
O O12 0.201571 0.470378 0.588223
O O13 0.154358 0.136685 0.802156
O O14 0.300186 0.350146 0.025103
O O15 0.781151 0.804678 0.427390
O O16 0.500000 0.500000 0.000000
O O17 0.593877 0.344522 0.439703
O O18 0.000000 0.000000 0.500000
#
# Coordination Sequence:
#
# PCOD9017280 Si02
#       8
#     2   2   2   2   2   2   2   2
#     4  10  21  42  73 102 130 180 242 289 336 420
#     4  11  24  43  79  98 133 190 240 279 346 423
#     4  12  28  41  64 106 149 179 226 293 356 412
#     4  11  25  44  71  98 144 186 224 292 353 419
#     4  11  22  46  68 100 139 179 229 290 342 414
#     4  10  21  44  72 102 136 177 239 294 345 413
#     4  11  23  46  71 103 133 189 238 283 350 417
#     4  12  24  44  68 105 141 178 236 284 350 417
#
# _framework density 25.124033000000001
#
# number of rings (size 3 to 8) (size 9 to 14) (size 15 to 20)
#    0.000    1.000    5.000    2.250    5.250    2.000 
#    2.250    1.875    0.000    0.000    0.000    0.000 
#    0.000    0.000    0.000    0.000    0.000    0.000 
#
# Total GULP energy -89344.004823 kJ/mol
# GULP energy per Si atom -5584.000301 kJ/mol
# Density = 2.506685 g / cm^3
# Si number density = 25.124033 Si / 1000 Ang^3
#
#
#
# Elastic Constant Matrix: (Units=GPa)
#
#
# Indices 1 2 3 4 5 6 
#
# 1 137.5491 34.4476 27.4230 12.4422 11.0298 -6.1472
# 2 34.4476 113.0332 52.4195 33.0700 14.2433 -0.7073
# 3 27.4230 52.4195 94.0635 35.4668 11.7215 1.5946
# 4 12.4422 33.0700 35.4668 44.5838 9.9738 6.9432
# 5 11.0298 14.2433 11.7215 9.9738 43.7267 8.9802
# 6 -6.1472 -0.7073 1.5946 6.9432 8.9802 35.7557
#
#
#
# Elastic Compliance Matrix: (Units=1/GPa)
#
#
# Indices 1 2 3 4 5 6 
#
# 1 0.008151 -0.001701 -0.001299 0.000086 -0.001542 0.001796
# 2 -0.001701 0.013408 -0.004661 -0.005638 -0.001756 0.001716
# 3 -0.001299 -0.004661 0.017487 -0.010086 -0.000758 0.001053
# 4 0.000086 -0.005638 -0.010086 0.036105 -0.002477 -0.006036
# 5 -0.001542 -0.001756 -0.000758 -0.002477 0.025890 -0.006287
# 6 0.001796 0.001716 0.001053 -0.006036 -0.006287 0.031015
#
#
# Mechanical properties :
#
#
# Convention : Reuss Voigt Hill
#
# Bulk Modulus (GPa) = 42.15110 63.69176 52.92143
# Shear Modulus (GPa) = 32.19883 40.17028 36.18455
#
# Velocity S-wave (km/s) = 3.58382 4.00294 3.79916
# Velocity P-wave (km/s) = 5.82569 6.83891 6.35253
#
# Compressibility (1/GPa) = 0.02372417
#
# Stress axis : x y z
#
# Youngs Moduli (GPa) = 122.67882 74.58100 57.18696
#
# Poissons Ratio (x) = 0.12688 0.07428
# Poissons Ratio (y) = 0.20871 0.26654
# Poissons Ratio (z) = 0.15935 0.34761
#
# Static dielectric constant tensor:
#      x y z
#    x 2.140470 -0.060930 -0.055490 
#    y -0.060930 2.306310 -0.003620 
#    z -0.055490 -0.003620 1.957740 
# 
# From -- ./inp_files/464403.got.cif
#   From: 2010.05.17/outbox.cif.g08.bks.cpg/sg2_233_cif.got.tgz:464403.got - 2010.06.03 11:33:40.
