data_PCOD9017115
_publ_section_title
;
Structure prediction by ZEFSAII (Michael W. Deem and Ramdas Pophale) SiO2 
 PCOD9017115
Probable space group: P -1
;
_chemical_formula_sum "Si O2"
_cell_formula_units_Z 14
_cell_length_a 11.122229
_cell_length_b 8.755974
_cell_length_c 16.414283
_cell_angle_alpha 76.778567
_cell_angle_beta 20.619230
_cell_angle_gamma 75.276927
_cell_volume 544.248192
_symmetry_space_group_name_H-M "P -1"
_symmetry_group_IT_number 2
_symmetry_cell_setting 'triclinic'
loop_
_space_group_symop_operation_xyz
x,y,z
-x,-y,-z
loop_
_atom_site_type_symbol
_atom_site_label
_atom_site_fract_x
_atom_site_fract_y
_atom_site_fract_z
Si Si1 0.359541 0.484974 0.885452
Si Si2 0.277646 0.836267 0.927042
Si Si3 0.333932 0.055929 0.186123
Si Si4 0.501287 0.782233 0.457801
Si Si5 0.552514 0.482624 0.356063
Si Si6 0.542106 0.333355 0.950719
Si Si7 0.198077 0.093961 0.538940
O O1 0.410027 0.650406 0.876013
O O2 0.536585 0.487148 0.685208
O O3 0.469611 0.351827 0.897988
O O4 0.961114 0.479346 0.115503
O O5 0.416453 0.947780 0.894291
O O6 0.438823 0.872079 0.733071
O O7 0.871316 0.830581 0.190768
O O8 0.273328 0.239457 0.180544
O O9 0.996455 0.969739 0.409711
O O10 0.500000 0.000000 0.000000
O O11 0.401304 0.638387 0.482449
O O12 0.527068 0.686936 0.538222
O O13 0.257542 0.945865 0.581558
O O14 0.922016 0.235952 0.728255
O O15 0.500000 0.500000 0.000000
#
# Coordination Sequence:
#
# PCOD9017115 Si02
#       7
#     2   2   2   2   2   2   2
#     4  10  21  42  71 106 143 189 254 301 367 442
#     4  11  23  43  68 104 148 196 247 302 360 444
#     4  10  23  43  67 102 144 190 242 296 374 434
#     4  10  22  45  73 107 150 192 248 299 371 448
#     4   9  21  42  74 106 144 198 237 310 374 436
#     4  11  23  46  74 104 147 191 245 310 371 446
#     4  11  25  44  70 112 144 197 240 307 376 432
#
# _framework density 25.723558000000001
#
# number of rings (size 3 to 8) (size 9 to 14) (size 15 to 20)
#    0.000    1.714    1.429    1.714    0.000    6.286 
#    5.143   13.571    0.000    0.000    0.000    0.000 
#    0.000    0.000    0.000    0.000    0.000    0.000 
#
# Total GULP energy -78182.034483 kJ/mol
# GULP energy per Si atom -5584.431034 kJ/mol
# Density = 2.566501 g / cm^3
# Si number density = 25.723558 Si / 1000 Ang^3
#
#
#
# Elastic Constant Matrix: (Units=GPa)
#
#
# Indices 1 2 3 4 5 6 
#
# 1 111.4264 28.7832 28.1010 31.4375 -2.4159 -2.5928
# 2 28.7832 115.3492 37.8861 15.8169 0.7561 -13.7041
# 3 28.1010 37.8861 101.7305 0.6590 13.6733 0.2153
# 4 31.4375 15.8169 0.6590 29.8848 7.0241 -2.2679
# 5 -2.4159 0.7561 13.6733 7.0241 26.4819 -7.2202
# 6 -2.5928 -13.7041 0.2153 -2.2679 -7.2202 41.7349
#
#
#
# Elastic Compliance Matrix: (Units=1/GPa)
#
#
# Indices 1 2 3 4 5 6 
#
# 1 0.016009 0.000792 -0.005967 -0.019375 0.010203 0.001998
# 2 0.000792 0.011837 -0.005375 -0.008016 0.005875 0.004545
# 3 -0.005967 -0.005375 0.015052 0.011374 -0.012190 -0.003704
# 4 -0.019375 -0.008016 0.011374 0.063477 -0.025576 -0.004870
# 5 0.010203 0.005875 -0.012190 -0.025576 0.054510 0.010666
# 6 0.001998 0.004545 -0.003704 -0.004870 0.010666 0.027177
#
#
# Mechanical properties :
#
#
# Convention : Reuss Voigt Hill
#
# Bulk Modulus (GPa) = 45.87229 57.56073 51.71651
# Shear Modulus (GPa) = 23.10238 35.20271 29.15255
#
# Velocity S-wave (km/s) = 3.00009 3.70334 3.37011
# Velocity P-wave (km/s) = 5.46555 6.38056 5.94070
#
# Compressibility (1/GPa) = 0.02179965
#
# Stress axis : x y z
#
# Youngs Moduli (GPa) = 62.46585 84.47739 66.43479
#
# Poissons Ratio (x) = -0.06694 0.39643
# Poissons Ratio (y) = -0.04950 0.35706
# Poissons Ratio (z) = 0.37275 0.45404
#
# Static dielectric constant tensor:
#      x y z
#    x 2.118430 0.049150 -0.012720 
#    y 0.049150 2.100790 -0.060220 
#    z -0.012720 -0.060220 2.087590 
# 
# From -- ./inp_files/566672.got.cif
#   From: 2010.05.17/outbox.cif.g08.bks.cpg/sg2_284_cif.got.tgz:566672.got - 2010.06.03 11:33:40.
