data_PCOD9017356
_publ_section_title
;
Structure prediction by ZEFSAII (Michael W. Deem and Ramdas Pophale) SiO2 
 PCOD9017356
Probable space group: P -1
;
_chemical_formula_sum "Si O2"
_cell_formula_units_Z 16
_cell_length_a 8.958064
_cell_length_b 20.019598
_cell_length_c 9.547433
_cell_angle_alpha 154.110498
_cell_angle_beta 87.138501
_cell_angle_gamma 94.350681
_cell_volume 744.797692
_symmetry_space_group_name_H-M "P -1"
_symmetry_group_IT_number 2
_symmetry_cell_setting 'triclinic'
loop_
_space_group_symop_operation_xyz
x,y,z
-x,-y,-z
loop_
_atom_site_type_symbol
_atom_site_label
_atom_site_fract_x
_atom_site_fract_y
_atom_site_fract_z
Si Si1 0.729628 0.577673 0.659372
Si Si2 0.338049 0.407322 0.814412
Si Si3 0.490501 0.851675 0.816621
Si Si4 0.843237 0.023738 0.615879
Si Si5 0.900581 0.496000 0.216257
Si Si6 0.212204 0.686920 0.648682
Si Si7 0.130338 0.276229 0.818515
Si Si8 0.593183 0.886951 0.191768
O O1 0.797756 0.519953 0.403086
O O2 0.696548 0.434070 0.493436
O O3 0.859107 0.668084 0.915626
O O4 0.609488 0.706606 0.889556
O O5 0.386281 0.256779 0.449977
O O6 0.208572 0.475533 0.854560
O O7 0.257843 0.363906 0.882925
O O8 0.500000 0.500000 0.000000
O O9 0.325679 0.761739 0.667836
O O10 0.535724 0.894790 0.053513
O O11 0.500000 0.000000 0.000000
O O12 0.826671 0.897666 0.503532
O O13 0.749198 0.973202 0.387473
O O14 0.000000 0.000000 0.500000
O O15 0.820424 0.184216 0.991956
O O16 0.054037 0.609536 0.448072
O O17 0.969793 0.330544 0.882980
O O18 0.500000 0.000000 0.500000
#
# Coordination Sequence:
#
# PCOD9017356 Si02
#       8
#     2   2   2   2   2   2   2   2
#     4  10  21  42  74  99 136 170 231 292 343 399
#     4  12  26  47  67  99 140 183 230 279 340 418
#     4  12  27  49  65  97 148 186 230 282 341 410
#     4  11  22  41  68 104 137 170 231 283 345 403
#     4  11  22  45  71 102 136 174 233 283 349 409
#     4  11  22  43  71 103 134 182 226 287 343 404
#     4  10  22  42  68  99 139 178 222 283 337 414
#     4  11  23  46  68 100 138 184 227 289 345 404
#
# _framework density 21.482344000000001
#
# number of rings (size 3 to 8) (size 9 to 14) (size 15 to 20)
#    0.000    1.000    2.500    6.375    1.750    0.500 
#   11.250    1.250    0.000    0.000    0.000    0.000 
#    0.000    0.000    0.000    0.000    0.000    0.000 
#
# Total GULP energy -89156.719422 kJ/mol
# GULP energy per Si atom -5572.294964 kJ/mol
# Density = 2.143345 g / cm^3
# Si number density = 21.482344 Si / 1000 Ang^3
#
#
#
# Elastic Constant Matrix: (Units=GPa)
#
#
# Indices 1 2 3 4 5 6 
#
# 1 95.4096 37.4401 8.2048 -3.5051 10.0046 -14.4853
# 2 37.4401 129.3951 34.1209 5.6153 2.5418 -8.1686
# 3 8.2048 34.1209 92.3487 -6.6509 -14.3098 -12.5570
# 4 -3.5051 5.6153 -6.6509 31.6725 2.8746 -5.4003
# 5 10.0046 2.5418 -14.3098 2.8746 37.5371 -6.8688
# 6 -14.4853 -8.1686 -12.5570 -5.4003 -6.8688 42.1863
#
#
#
# Elastic Compliance Matrix: (Units=1/GPa)
#
#
# Indices 1 2 3 4 5 6 
#
# 1 0.012847 -0.003716 0.000595 0.003089 -0.002476 0.003861
# 2 -0.003716 0.009912 -0.003874 -0.003065 -0.001121 -0.001085
# 3 0.000595 -0.003874 0.014155 0.004052 0.006138 0.005186
# 4 0.003089 -0.003065 0.004052 0.034384 -0.000611 0.005975
# 5 -0.002476 -0.001121 0.006138 -0.000611 0.030805 0.005698
# 6 0.003861 -0.001085 0.005186 0.005975 0.005698 0.028056
#
#
# Mechanical properties :
#
#
# Convention : Reuss Voigt Hill
#
# Bulk Modulus (GPa) = 43.62041 52.96498 48.29269
# Shear Modulus (GPa) = 32.94017 38.10501 35.52259
#
# Velocity S-wave (km/s) = 3.92006 4.21620 4.07082
# Velocity P-wave (km/s) = 6.39050 6.95776 6.68015
#
# Compressibility (1/GPa) = 0.02292505
#
# Stress axis : x y z
#
# Youngs Moduli (GPa) = 77.83646 100.89176 70.64581
#
# Poissons Ratio (x) = 0.37492 -0.04207
# Poissons Ratio (y) = 0.28924 0.27368
# Poissons Ratio (z) = -0.04635 0.39085
#
# Static dielectric constant tensor:
#      x y z
#    x 1.824710 0.086570 0.032090 
#    y 0.086570 1.807760 0.052960 
#    z 0.032090 0.052960 1.792070 
# 
# From -- ./inp_files/219049.got.cif
#   From: 2010.05.17/outbox.cif.g08.bks.cpg/sg2_110_cif.got.tgz:219049.got - 2010.06.03 11:33:40.
