data_PCOD9017457
_publ_section_title
;
Structure prediction by ZEFSAII (Michael W. Deem and Ramdas Pophale) SiO2 
 PCOD9017457
Probable space group: P -1
;
_chemical_formula_sum "Si O2"
_cell_formula_units_Z 16
_cell_length_a 7.978268
_cell_length_b 15.395909
_cell_length_c 8.381222
_cell_angle_alpha 46.151950
_cell_angle_beta 126.164417
_cell_angle_gamma 107.269009
_cell_volume 588.214832
_symmetry_space_group_name_H-M "P -1"
_symmetry_group_IT_number 2
_symmetry_cell_setting 'triclinic'
loop_
_space_group_symop_operation_xyz
x,y,z
-x,-y,-z
loop_
_atom_site_type_symbol
_atom_site_label
_atom_site_fract_x
_atom_site_fract_y
_atom_site_fract_z
Si Si1 0.301869 0.798381 0.557451
Si Si2 0.910091 0.828027 0.789261
Si Si3 0.220824 0.500663 0.462304
Si Si4 0.492447 0.990766 0.264611
Si Si5 0.337615 0.348193 0.274349
Si Si6 0.961462 0.710327 0.279531
Si Si7 0.594036 0.175200 0.874593
Si Si8 0.316482 0.597537 0.052150
O O1 0.371812 0.929426 0.413694
O O2 0.489465 0.700228 0.702813
O O3 0.096717 0.793892 0.341935
O O4 0.262303 0.734876 0.781688
O O5 0.745225 0.946983 0.487054
O O6 0.849180 0.725775 0.765671
O O7 0.831434 0.794679 0.963875
O O8 0.157323 0.831862 0.941719
O O9 0.094486 0.605244 0.372483
O O10 0.253257 0.566772 0.232717
O O11 0.431366 0.443800 0.748337
O O12 0.127245 0.378386 0.537393
O O13 0.423322 0.916592 0.166704
O O14 0.470644 0.128903 0.013252
O O15 0.466970 0.302905 0.567322
O O16 0.250558 0.492386 0.038246
#
# Coordination Sequence:
#
# PCOD9017457 Si02
#       8
#     2   2   2   2   2   2   2   2
#     4  10  19  33  54  77 121 144 182 230 274 333
#     4  10  17  30  52  78 110 148 184 227 282 331
#     4  10  23  34  56  76 113 155 189 231 272 337
#     4   9  18  29  52  83 110 144 185 237 275 325
#     4  10  20  32  55  81 112 155 182 230 282 332
#     4  11  20  36  52  82 111 152 188 227 280 334
#     4   9  16  32  49  82 115 137 191 234 277 325
#     4  11  21  38  51  83 115 152 188 226 281 336
#
# _framework density 27.200946999999999
#
# number of rings (size 3 to 8) (size 9 to 14) (size 15 to 20)
#    0.000    2.250    3.750    2.250    3.500    0.500 
#    0.000    0.000    0.000    0.000    0.000   16.625 
#    3.750    0.125    0.000    0.000    0.000    0.125 
#
# Total GULP energy -89520.989249 kJ/mol
# GULP energy per Si atom -5595.061828 kJ/mol
# Density = 2.713904 g / cm^3
# Si number density = 27.200947 Si / 1000 Ang^3
#
#
#
# Elastic Constant Matrix: (Units=GPa)
#
#
# Indices 1 2 3 4 5 6 
#
# 1 52.1771 29.9008 34.5242 2.0991 -25.9937 8.4171
# 2 29.9008 121.6016 64.7652 0.0672 -3.8755 18.3607
# 3 34.5242 64.7652 162.9832 -5.1571 -16.5103 40.0123
# 4 2.0991 0.0672 -5.1571 40.8219 21.6963 -5.3487
# 5 -25.9937 -3.8755 -16.5103 21.6963 47.4447 -6.0286
# 6 8.4171 18.3607 40.0123 -5.3487 -6.0286 37.1196
#
#
#
# Elastic Compliance Matrix: (Units=1/GPa)
#
#
# Indices 1 2 3 4 5 6 
#
# 1 0.040398 -0.007231 -0.003402 -0.017577 0.028417 0.000166
# 2 -0.007231 0.011775 -0.003361 0.002743 -0.005560 -0.001069
# 3 -0.003402 -0.003361 0.010348 0.000213 0.000266 -0.008647
# 4 -0.017577 0.002743 0.000213 0.040456 -0.027351 0.003787
# 5 0.028417 -0.005560 0.000266 -0.027351 0.048793 0.000002
# 6 0.000166 -0.001069 -0.008647 0.003787 0.000002 0.037298
#
#
# Mechanical properties :
#
#
# Convention : Reuss Voigt Hill
#
# Bulk Modulus (GPa) = 28.95863 66.12692 47.54278
# Shear Modulus (GPa) = 21.87546 38.91535 30.39541
#
# Velocity S-wave (km/s) = 2.83895 3.78651 3.34644
# Velocity P-wave (km/s) = 4.62768 6.59395 5.69630
#
# Compressibility (1/GPa) = 0.03453202
#
# Stress axis : x y z
#
# Youngs Moduli (GPa) = 24.75371 84.92928 96.63342
#
# Poissons Ratio (x) = 0.61414 0.32876
# Poissons Ratio (y) = 0.17900 0.32479
# Poissons Ratio (z) = 0.08422 0.28545
#
# Static dielectric constant tensor:
#      x y z
#    x 2.223500 0.039210 -0.037800 
#    y 0.039210 2.180850 -0.010120 
#    z -0.037800 -0.010120 2.084180 
# 
# From -- ./inp_files/223076.got.cif
#   From: 2010.05.17/outbox.cif.g08.bks.cpg/sg2_112_cif.got.tgz:223076.got - 2010.06.03 11:33:40.
