data_PCOD9017145
_publ_section_title
;
Structure prediction by ZEFSAII (Michael W. Deem and Ramdas Pophale) SiO2 
 PCOD9017145
Probable space group: P -1
;
_chemical_formula_sum "Si O2"
_cell_formula_units_Z 16
_cell_length_a 7.544740
_cell_length_b 7.766487
_cell_length_c 19.113995
_cell_angle_alpha 129.016652
_cell_angle_beta 139.686086
_cell_angle_gamma 66.450999
_cell_volume 555.733051
_symmetry_space_group_name_H-M "P -1"
_symmetry_group_IT_number 2
_symmetry_cell_setting 'triclinic'
loop_
_space_group_symop_operation_xyz
x,y,z
-x,-y,-z
loop_
_atom_site_type_symbol
_atom_site_label
_atom_site_fract_x
_atom_site_fract_y
_atom_site_fract_z
Si Si1 0.892765 0.866590 0.864136
Si Si2 0.283938 0.502511 0.873585
Si Si3 0.073488 0.045298 0.811494
Si Si4 0.860697 0.355201 0.531008
Si Si5 0.563637 0.739490 0.497458
Si Si6 0.419718 0.696597 0.819431
Si Si7 0.351737 0.058530 0.707338
Si Si8 0.670038 0.330861 0.742288
O O1 0.031820 0.987660 0.866030
O O2 0.016693 0.630092 0.834443
O O3 0.580913 0.922878 0.774029
O O4 0.000000 0.000000 0.000000
O O5 0.454589 0.647304 0.898865
O O6 0.238102 0.245374 0.766532
O O7 0.500000 0.500000 0.000000
O O8 0.822078 0.895458 0.652599
O O9 0.348055 0.943265 0.848254
O O10 0.984392 0.285934 0.833340
O O11 0.661284 0.496994 0.466275
O O12 0.695799 0.278557 0.532582
O O13 0.138069 0.524664 0.671846
O O14 0.891615 0.136097 0.440584
O O15 0.469173 0.766445 0.396834
O O16 0.641115 0.589986 0.813864
O O17 0.504180 0.192699 0.721182
#
# Coordination Sequence:
#
# PCOD9017145 Si02
#       8
#     2   2   2   2   2   2   2   2
#     4  10  17  30  52  75 109 142 173 229 283 304
#     4  10  19  31  51  83 107 134 186 236 265 311
#     4   9  18  32  49  77 107 136 185 224 264 318
#     4  10  20  35  53  80 122 146 173 225 282 332
#     4  10  19  33  54  78 114 151 178 222 273 329
#     4   9  21  35  53  81 115 144 180 225 275 327
#     4  10  20  35  52  82 112 139 184 225 272 327
#     4  10  19  33  55  77 110 150 184 221 263 330
#
# _framework density 28.790800000000001
#
# number of rings (size 3 to 8) (size 9 to 14) (size 15 to 20)
#    0.000    2.250    3.750    0.375    1.750    4.000 
#    0.000    0.000    0.000    0.000    0.000   17.500 
#    0.000    0.000    0.000    0.000    0.000    0.000 
#
# Total GULP energy -89756.293194 kJ/mol
# GULP energy per Si atom -5609.768325 kJ/mol
# Density = 2.872527 g / cm^3
# Si number density = 28.790800 Si / 1000 Ang^3
#
#
#
# Elastic Constant Matrix: (Units=GPa)
#
#
# Indices 1 2 3 4 5 6 
#
# 1 130.2582 44.1032 38.6337 -8.5823 -15.3181 -32.1358
# 2 44.1032 271.0448 77.9304 -16.3337 -16.5660 -45.1912
# 3 38.6337 77.9304 155.6392 -10.5514 -17.0383 -5.2738
# 4 -8.5823 -16.3337 -10.5514 64.0406 6.4164 -2.6391
# 5 -15.3181 -16.5660 -17.0383 6.4164 46.8381 1.8329
# 6 -32.1358 -45.1912 -5.2738 -2.6391 1.8329 45.3738
#
#
#
# Elastic Compliance Matrix: (Units=1/GPa)
#
#
# Indices 1 2 3 4 5 6 
#
# 1 0.010385 0.000400 -0.002193 0.001212 0.002281 0.007476
# 2 0.000400 0.005329 -0.002424 0.001157 0.000766 0.005345
# 3 -0.002193 -0.002424 0.008258 0.000170 0.001526 -0.003059
# 4 0.001212 0.001157 0.000170 0.016376 -0.001495 0.003043
# 5 0.002281 0.000766 0.001526 -0.001495 0.023067 0.001537
# 6 0.007476 0.005345 -0.003059 0.003043 0.001537 0.032418
#
#
# Mechanical properties :
#
#
# Convention : Reuss Voigt Hill
#
# Bulk Modulus (GPa) = 64.35949 97.58632 80.97291
# Shear Modulus (GPa) = 45.68478 57.66883 51.67680
#
# Velocity S-wave (km/s) = 3.98777 4.48038 4.24123
# Velocity P-wave (km/s) = 6.60347 7.79318 7.22286
#
# Compressibility (1/GPa) = 0.01553772
#
# Stress axis : x y z
#
# Youngs Moduli (GPa) = 96.29556 187.64706 121.09344
#
# Poissons Ratio (x) = -0.07500 0.26551
# Poissons Ratio (y) = -0.03849 0.29355
# Poissons Ratio (z) = 0.21114 0.45489
#
# Static dielectric constant tensor:
#      x y z
#    x 2.297830 0.085750 -0.023580 
#    y 0.085750 2.280320 0.002810 
#    z -0.023580 0.002810 2.193730 
# 
# From -- ./inp_files/556619.got.cif
#   From: 2010.05.17/outbox.cif.g08.bks.cpg/sg2_279_cif.got.tgz:556619.got - 2010.06.03 11:33:40.
