data_PCOD9017232
_publ_section_title
;
Structure prediction by ZEFSAII (Michael W. Deem and Ramdas Pophale) SiO2 
 PCOD9017232
Probable space group: P -1
;
_chemical_formula_sum "Si O2"
_cell_formula_units_Z 16
_cell_length_a 16.222105
_cell_length_b 22.257431
_cell_length_c 8.276384
_cell_angle_alpha 47.350142
_cell_angle_beta 128.987278
_cell_angle_gamma 161.655125
_cell_volume 690.506959
_symmetry_space_group_name_H-M "P -1"
_symmetry_group_IT_number 2
_symmetry_cell_setting 'triclinic'
loop_
_space_group_symop_operation_xyz
x,y,z
-x,-y,-z
loop_
_atom_site_type_symbol
_atom_site_label
_atom_site_fract_x
_atom_site_fract_y
_atom_site_fract_z
Si Si1 0.865838 0.069321 0.094718
Si Si2 0.531830 0.985626 0.889492
Si Si3 0.525988 0.258453 0.061647
Si Si4 0.858837 0.352807 0.450480
Si Si5 0.775843 0.632696 0.262618
Si Si6 0.603839 0.665761 0.164380
Si Si7 0.975691 0.616897 0.705158
Si Si8 0.240500 0.262648 0.427681
O O1 0.663794 0.990817 0.061666
O O2 0.126486 0.296657 0.928699
O O3 0.970367 0.078327 0.335836
O O4 0.744609 0.206677 0.192723
O O5 0.729234 0.179733 0.674646
O O6 0.500000 0.000000 0.000000
O O7 0.631476 0.252283 0.288989
O O8 0.280605 0.065690 0.997815
O O9 0.462004 0.288601 0.046484
O O10 0.755251 0.447934 0.875729
O O11 0.044176 0.456879 0.340195
O O12 0.000000 0.500000 0.500000
O O13 0.772515 0.724065 0.155501
O O14 0.474107 0.394994 0.358553
O O15 0.948471 0.690362 0.472135
O O16 0.337419 0.424128 0.297222
O O17 0.742929 0.769159 0.322471
#
# Coordination Sequence:
#
# PCOD9017232 Si02
#       8
#     2   2   2   2   2   2   2   2
#     4  12  25  41  67 100 139 175 233 281 338 406
#     4  12  28  44  71 101 134 190 228 279 342 419
#     4  12  25  44  67 103 145 177 219 296 338 398
#     4  12  27  45  69 105 137 176 231 287 343 404
#     4  10  21  42  72  93 128 186 226 277 332 410
#     4   9  21  41  68  99 128 181 226 275 344 396
#     4  12  23  48  71  96 144 184 229 277 344 412
#     4   9  20  42  67  97 124 182 232 268 338 406
#
# _framework density 23.171382000000001
#
# number of rings (size 3 to 8) (size 9 to 14) (size 15 to 20)
#    0.750    0.250    3.750    2.625    7.000    1.000 
#    0.000    0.000    0.000    0.000    0.000    0.000 
#    0.000    0.000    0.000    0.000    0.000    0.000 
#
# Total GULP energy -89457.964578 kJ/mol
# GULP energy per Si atom -5591.122786 kJ/mol
# Density = 2.311864 g / cm^3
# Si number density = 23.171382 Si / 1000 Ang^3
#
#
#
# Elastic Constant Matrix: (Units=GPa)
#
#
# Indices 1 2 3 4 5 6 
#
# 1 121.1165 29.0789 12.6640 18.2728 4.9584 26.2554
# 2 29.0789 82.5470 17.8952 19.1790 -7.2019 12.9473
# 3 12.6640 17.8952 61.5800 22.5355 2.3948 8.2349
# 4 18.2728 19.1790 22.5355 35.5366 3.9415 0.5044
# 5 4.9584 -7.2019 2.3948 3.9415 34.4888 9.8434
# 6 26.2554 12.9473 8.2349 0.5044 9.8434 32.0453
#
#
#
# Elastic Compliance Matrix: (Units=1/GPa)
#
#
# Indices 1 2 3 4 5 6 
#
# 1 0.011326 -0.001288 0.001488 -0.006093 0.001400 -0.009476
# 2 -0.001288 0.016402 -0.000720 -0.008373 0.006704 -0.007314
# 3 0.001488 -0.000720 0.022373 -0.014659 0.001751 -0.006984
# 4 -0.006093 -0.008373 -0.014659 0.045902 -0.009163 0.014234
# 5 0.001400 0.006704 0.001751 -0.009163 0.035411 -0.015039
# 6 -0.009476 -0.007314 -0.006984 0.014234 -0.015039 0.048115
#
#
# Mechanical properties :
#
#
# Convention : Reuss Voigt Hill
#
# Bulk Modulus (GPa) = 20.38368 42.72444 31.55406
# Shear Modulus (GPa) = 25.39053 34.12118 29.75586
#
# Velocity S-wave (km/s) = 3.31383 3.84155 3.58741
# Velocity P-wave (km/s) = 4.84335 6.17699 5.55037
#
# Compressibility (1/GPa) = 0.04905886
#
# Stress axis : x y z
#
# Youngs Moduli (GPa) = 88.28976 60.96943 44.69710
#
# Poissons Ratio (x) = 0.07856 -0.06649
# Poissons Ratio (y) = 0.11376 0.03218
# Poissons Ratio (z) = -0.13133 0.04390
#
# Static dielectric constant tensor:
#      x y z
#    x 1.887640 -0.017750 -0.011350 
#    y -0.017750 1.902820 -0.049670 
#    z -0.011350 -0.049670 1.958020 
# 
# From -- ./inp_files/319809.got.cif
#   From: 2010.05.17/outbox.cif.g08.bks.cpg/sg2_160_cif.got.tgz:319809.got - 2010.06.03 11:33:40.
