data_PCOD9017090
_publ_section_title
;
Structure prediction by ZEFSAII (Michael W. Deem and Ramdas Pophale) SiO2 
 PCOD9017090
Probable space group: P -1
;
_chemical_formula_sum "Si O2"
_cell_formula_units_Z 16
_cell_length_a 14.156825
_cell_length_b 25.491316
_cell_length_c 6.876307
_cell_angle_alpha 49.887473
_cell_angle_beta 141.399169
_cell_angle_gamma 152.880068
_cell_volume 694.171354
_symmetry_space_group_name_H-M "P -1"
_symmetry_group_IT_number 2
_symmetry_cell_setting 'triclinic'
loop_
_space_group_symop_operation_xyz
x,y,z
-x,-y,-z
loop_
_atom_site_type_symbol
_atom_site_label
_atom_site_fract_x
_atom_site_fract_y
_atom_site_fract_z
Si Si1 0.442522 0.476247 0.234752
Si Si2 0.018133 0.219343 0.274711
Si Si3 0.709151 0.912873 0.689300
Si Si4 0.611818 0.096284 0.596505
Si Si5 0.445106 0.745383 0.330369
Si Si6 0.967769 0.302310 0.364814
Si Si7 0.723382 0.433140 0.229613
Si Si8 0.595974 0.748580 0.150770
O O1 0.500000 0.500000 0.500000
O O2 0.733013 0.577847 0.374846
O O3 0.757320 0.659434 0.779389
O O4 0.304396 0.498305 0.916718
O O5 0.127813 0.185695 0.587820
O O6 0.968340 0.246281 0.323560
O O7 0.780057 0.127002 0.968127
O O8 0.616903 0.948401 0.554033
O O9 0.621085 0.865983 0.438801
O O10 0.547485 0.796309 0.825874
O O11 0.000000 0.000000 0.000000
O O12 0.792572 0.211808 0.477790
O O13 0.500000 0.000000 0.500000
O O14 0.422063 0.668945 0.607177
O O15 0.564595 0.762680 0.282644
O O16 0.172512 0.682219 0.990220
O O17 0.000000 0.500000 0.500000
O O18 0.598815 0.379109 0.944219
#
# Coordination Sequence:
#
# PCOD9017090 Si02
#       8
#     2   2   2   2   2   2   2   2
#     4  10  21  42  71 101 143 186 223 284 344 412
#     4  11  25  46  70 101 146 182 231 285 351 411
#     4  11  27  48  70  98 140 182 235 299 350 414
#     4  12  29  46  73 105 133 182 242 291 353 418
#     4  11  25  44  69  98 143 183 229 286 350 410
#     4  11  23  47  70 101 144 178 230 287 350 420
#     4  11  23  40  68 102 143 184 229 280 337 415
#     4  11  25  44  67 104 136 184 231 277 349 426
#
# _framework density 23.049061999999999
#
# number of rings (size 3 to 8) (size 9 to 14) (size 15 to 20)
#    0.000    1.000    5.000    1.500    7.000    3.000 
#    0.000    0.000    0.000    0.000    0.000    0.000 
#    0.000    0.000    0.000    0.000    0.000    0.000 
#
# Total GULP energy -89443.379523 kJ/mol
# GULP energy per Si atom -5590.211220 kJ/mol
# Density = 2.299660 g / cm^3
# Si number density = 23.049062 Si / 1000 Ang^3
#
#
#
# Elastic Constant Matrix: (Units=GPa)
#
#
# Indices 1 2 3 4 5 6 
#
# 1 144.7499 17.3127 49.9047 12.0141 -0.7993 0.4006
# 2 17.3127 47.9471 3.1155 15.8593 3.0017 7.9419
# 3 49.9047 3.1155 106.5907 20.8179 19.9345 -2.6253
# 4 12.0141 15.8593 20.8179 41.2773 4.6045 3.4314
# 5 -0.7993 3.0017 19.9345 4.6045 47.7301 -3.1383
# 6 0.4006 7.9419 -2.6253 3.4314 -3.1383 31.0755
#
#
#
# Elastic Compliance Matrix: (Units=1/GPa)
#
#
# Indices 1 2 3 4 5 6 
#
# 1 0.008844 -0.003364 -0.004594 0.000744 0.002240 0.000502
# 2 -0.003364 0.026218 0.003054 -0.009907 -0.002390 -0.005546
# 3 -0.004594 0.003054 0.013663 -0.006179 -0.005342 0.000576
# 4 0.000744 -0.009907 -0.006179 0.031036 0.000129 -0.001414
# 5 0.002240 -0.002390 -0.005342 0.000129 0.023521 0.002492
# 6 0.000502 -0.005546 0.000576 -0.001414 0.002492 0.034047
#
#
# Mechanical properties :
#
#
# Convention : Reuss Voigt Hill
#
# Bulk Modulus (GPa) = 25.69629 48.88373 37.29001
# Shear Modulus (GPa) = 31.22855 39.28023 35.25439
#
# Velocity S-wave (km/s) = 3.68485 4.13268 3.91517
# Velocity P-wave (km/s) = 5.41081 6.63525 6.05407
#
# Compressibility (1/GPa) = 0.03891613
#
# Stress axis : x y z
#
# Youngs Moduli (GPa) = 113.07133 38.14217 73.18845
#
# Poissons Ratio (x) = 0.12832 0.33624
# Poissons Ratio (y) = 0.38040 -0.22351
# Poissons Ratio (z) = 0.51946 -0.11648
#
# Static dielectric constant tensor:
#      x y z
#    x 1.859690 0.004920 0.019150 
#    y 0.004920 1.998480 0.030500 
#    z 0.019150 0.030500 1.921910 
# 
# From -- ./inp_files/85041.got.cif
#   From: 2010.05.17/outbox.cif.g08.bks.cpg/sg2_43_cif.got.tgz:85041.got - 2010.06.03 11:33:40.
