data_PCOD9017137
_publ_section_title
;
Structure prediction by ZEFSAII (Michael W. Deem and Ramdas Pophale) SiO2 
 PCOD9017137
Probable space group: P -1
;
_chemical_formula_sum "Si O2"
_cell_formula_units_Z 14
_cell_length_a 7.979477
_cell_length_b 14.567203
_cell_length_c 9.442162
_cell_angle_alpha 135.723370
_cell_angle_beta 134.684154
_cell_angle_gamma 70.161944
_cell_volume 514.140864
_symmetry_space_group_name_H-M "P -1"
_symmetry_group_IT_number 2
_symmetry_cell_setting 'triclinic'
loop_
_space_group_symop_operation_xyz
x,y,z
-x,-y,-z
loop_
_atom_site_type_symbol
_atom_site_label
_atom_site_fract_x
_atom_site_fract_y
_atom_site_fract_z
Si Si1 0.222152 0.145349 0.818705
Si Si2 0.223567 0.448926 0.521272
Si Si3 0.399009 0.982627 0.081788
Si Si4 0.615908 0.192030 0.690090
Si Si5 0.707322 0.666806 0.179022
Si Si6 0.947895 0.864909 0.982568
Si Si7 0.986779 0.512703 0.834017
O O1 0.175635 0.253900 0.806351
O O2 0.498724 0.139552 0.944136
O O3 0.195590 0.177189 0.999798
O O4 0.000000 0.000000 0.500000
O O5 0.155225 0.282806 0.321624
O O6 0.000000 0.500000 0.500000
O O7 0.241854 0.488944 0.407411
O O8 0.473697 0.533779 0.845776
O O9 0.539891 0.109436 0.408286
O O10 0.124191 0.996261 0.941820
O O11 0.500000 0.000000 0.000000
O O12 0.398573 0.230401 0.682490
O O13 0.815204 0.339730 0.929790
O O14 0.762877 0.112655 0.787900
O O15 0.916162 0.610253 0.301115
O O16 0.000000 0.500000 0.000000
#
# Coordination Sequence:
#
# PCOD9017137 Si02
#       7
#     2   2   2   2   2   2   2
#     4  11  24  46  66  94 135 185 238 277 328 410
#     4  11  23  43  70 106 142 169 226 287 355 420
#     4  10  23  40  70  92 128 189 230 277 337 399
#     4  11  22  41  68  99 138 171 225 288 349 409
#     4  12  25  42  71 101 140 182 223 290 357 400
#     4  10  21  42  71  92 134 179 218 292 338 410
#     4  11  25  41  70 105 139 186 223 278 355 426
#
# _framework density 27.229893000000001
#
# number of rings (size 3 to 8) (size 9 to 14) (size 15 to 20)
#    0.000    1.143    4.286    3.000    2.000    5.143 
#    2.571    0.714    0.000    0.000    0.000    0.000 
#    0.000    0.000    0.000    0.000    0.000    0.000 
#
# Total GULP energy -78367.850483 kJ/mol
# GULP energy per Si atom -5597.703606 kJ/mol
# Density = 2.716792 g / cm^3
# Si number density = 27.229893 Si / 1000 Ang^3
#
#
#
# Elastic Constant Matrix: (Units=GPa)
#
#
# Indices 1 2 3 4 5 6 
#
# 1 126.2926 20.4572 19.1808 -0.1760 -16.8630 -30.3681
# 2 20.4572 128.9758 10.4857 -15.3956 13.7328 -44.9600
# 3 19.1808 10.4857 111.5137 0.0310 -15.7091 -12.9687
# 4 -0.1760 -15.3956 0.0310 45.1055 -0.8376 -4.7637
# 5 -16.8630 13.7328 -15.7091 -0.8376 44.4874 2.3212
# 6 -30.3681 -44.9600 -12.9687 -4.7637 2.3212 55.3479
#
#
#
# Elastic Compliance Matrix: (Units=1/GPa)
#
#
# Indices 1 2 3 4 5 6 
#
# 1 0.009660 0.000039 -0.000624 0.000650 0.003175 0.005108
# 2 0.000039 0.012718 -0.000585 0.005405 -0.004583 0.010873
# 3 -0.000624 -0.000585 0.009752 -0.000007 0.003318 0.001327
# 4 0.000650 0.005405 -0.000007 0.024725 -0.001321 0.006929
# 5 0.003175 -0.004583 0.003318 -0.001321 0.026370 -0.002423
# 6 0.005108 0.010873 0.001327 0.006929 -0.002423 0.030711
#
#
# Mechanical properties :
#
#
# Convention : Reuss Voigt Hill
#
# Bulk Modulus (GPa) = 33.57010 51.89217 42.73113
# Shear Modulus (GPa) = 39.61771 50.09869 44.85820
#
# Velocity S-wave (km/s) = 3.81850 4.29399 4.06321
# Velocity P-wave (km/s) = 5.63883 6.60930 6.14326
#
# Compressibility (1/GPa) = 0.02978841
#
# Stress axis : x y z
#
# Youngs Moduli (GPa) = 103.52235 78.62780 102.54638
#
# Poissons Ratio (x) = -0.00304 0.06399
# Poissons Ratio (y) = -0.00401 0.06002
# Poissons Ratio (z) = 0.06460 0.04602
#
# Static dielectric constant tensor:
#      x y z
#    x 2.146040 -0.028830 -0.012590 
#    y -0.028830 2.194950 -0.099090 
#    z -0.012590 -0.099090 2.191710 
# 
# From -- ./inp_files/204592.got.cif
#   From: 2010.05.17/outbox.cif.g08.bks.cpg/sg2_103_cif.got.tgz:204592.got - 2010.06.03 11:33:40.
