data_PCOD9017778
_publ_section_title
;
Structure prediction by ZEFSAII (Michael W. Deem and Ramdas Pophale) SiO2 
 PCOD9017778
Probable space group: P -1
;
_chemical_formula_sum "Si O2"
_cell_formula_units_Z 16
_cell_length_a 9.488946
_cell_length_b 9.072345
_cell_length_c 21.733446
_cell_angle_alpha 126.003878
_cell_angle_beta 35.502795
_cell_angle_gamma 138.287517
_cell_volume 722.026521
_symmetry_space_group_name_H-M "P -1"
_symmetry_group_IT_number 2
_symmetry_cell_setting 'triclinic'
loop_
_space_group_symop_operation_xyz
x,y,z
-x,-y,-z
loop_
_atom_site_type_symbol
_atom_site_label
_atom_site_fract_x
_atom_site_fract_y
_atom_site_fract_z
Si Si1 0.209681 0.266412 0.568614
Si Si2 0.643989 0.505656 0.303006
Si Si3 0.041666 0.948520 0.844153
Si Si4 0.883397 0.226375 0.102632
Si Si5 0.965647 0.198743 0.510969
Si Si6 0.458498 0.525234 0.890811
Si Si7 0.293715 0.841303 0.980020
Si Si8 0.534371 0.304590 0.695138
O O1 0.500000 0.500000 0.500000
O O2 0.174636 0.323081 0.664018
O O3 0.967058 0.199078 0.585410
O O4 0.218260 0.050760 0.511041
O O5 0.805914 0.390548 0.197603
O O6 0.604152 0.624104 0.289138
O O7 0.306417 0.321129 0.399319
O O8 0.747603 0.721080 0.871820
O O9 0.125325 0.921558 0.875888
O O10 0.312750 0.042542 0.724990
O O11 0.981499 0.140426 0.908081
O O12 0.654475 0.098690 0.096038
O O13 0.210741 0.368606 0.991071
O O14 0.830172 0.334010 0.574496
O O15 0.310862 0.632905 0.932984
O O16 0.573027 0.429636 0.776355
O O17 0.500000 0.000000 0.000000
#
# Coordination Sequence:
#
# PCOD9017778 Si02
#       8
#     2   2   2   2   2   2   2   2
#     4   9  22  45  69  98 132 174 224 284 343 396
#     4  11  25  44  70 102 134 185 225 280 344 405
#     4  11  26  40  66 102 134 184 230 280 336 402
#     4  12  23  44  68  99 144 174 233 282 337 413
#     4  10  24  45  71  98 137 177 230 281 342 409
#     4  11  24  45  66  99 140 184 222 282 346 405
#     4  10  21  43  66  93 137 180 221 275 338 405
#     4  12  25  43  69  99 141 179 228 285 336 407
#
# _framework density 22.159849000000001
#
# number of rings (size 3 to 8) (size 9 to 14) (size 15 to 20)
#    0.000    1.250    2.500    2.250    7.000    2.500 
#    4.500    0.000    0.000    0.000    0.000    0.000 
#    0.000    0.000    0.000    0.000    0.000    0.000 
#
# Total GULP energy -89243.569757 kJ/mol
# GULP energy per Si atom -5577.723110 kJ/mol
# Density = 2.210941 g / cm^3
# Si number density = 22.159849 Si / 1000 Ang^3
#
#
#
# Elastic Constant Matrix: (Units=GPa)
#
#
# Indices 1 2 3 4 5 6 
#
# 1 114.3765 44.7610 36.4006 9.5463 24.4299 -8.2931
# 2 44.7610 99.8311 52.5845 10.4876 8.5086 5.3460
# 3 36.4006 52.5845 96.9650 18.6435 13.5935 11.0050
# 4 9.5463 10.4876 18.6435 35.9389 -0.4108 11.0396
# 5 24.4299 8.5086 13.5935 -0.4108 29.1773 2.8552
# 6 -8.2931 5.3460 11.0050 11.0396 2.8552 40.7628
#
#
#
# Elastic Compliance Matrix: (Units=1/GPa)
#
#
# Indices 1 2 3 4 5 6 
#
# 1 0.013789 -0.004610 -0.001187 -0.003474 -0.010224 0.005387
# 2 -0.004610 0.015578 -0.007103 0.000852 0.002784 -0.001489
# 3 -0.001187 -0.007103 0.016553 -0.005659 -0.004538 -0.001929
# 4 -0.003474 0.000852 -0.005659 0.034289 0.006664 -0.009044
# 5 -0.010224 0.002784 -0.004538 0.006664 0.044834 -0.006165
# 6 0.005387 -0.001489 -0.001929 -0.009044 -0.006165 0.029225
#
#
# Mechanical properties :
#
#
# Convention : Reuss Voigt Hill
#
# Bulk Modulus (GPa) = 49.69604 64.29610 56.99607
# Shear Modulus (GPa) = 26.77043 33.00423 29.88733
#
# Velocity S-wave (km/s) = 3.47949 3.86342 3.67647
# Velocity P-wave (km/s) = 6.21428 6.99850 6.61802
#
# Compressibility (1/GPa) = 0.02012233
#
# Stress axis : x y z
#
# Youngs Moduli (GPa) = 72.52098 64.19371 60.41075
#
# Poissons Ratio (x) = 0.29591 0.07170
# Poissons Ratio (y) = 0.33429 0.42907
# Poissons Ratio (z) = 0.08607 0.45594
#
# Static dielectric constant tensor:
#      x y z
#    x 1.844180 0.041660 -0.013270 
#    y 0.041660 1.892280 -0.030520 
#    z -0.013270 -0.030520 1.873540 
# 
# From -- ./inp_files/587461.got.cif
#   From: 2010.05.17/outbox.cif.g08.bks.cpg/sg2_294_cif.got.tgz:587461.got - 2010.06.03 11:33:40.
