data_PCOD9017527
_publ_section_title
;
Structure prediction by ZEFSAII (Michael W. Deem and Ramdas Pophale) SiO2 
 PCOD9017527
Probable space group: P -1
;
_chemical_formula_sum "Si O2"
_cell_formula_units_Z 16
_cell_length_a 12.194794
_cell_length_b 8.407640
_cell_length_c 15.038475
_cell_angle_alpha 133.956280
_cell_angle_beta 129.847705
_cell_angle_gamma 43.584645
_cell_volume 735.069849
_symmetry_space_group_name_H-M "P -1"
_symmetry_group_IT_number 2
_symmetry_cell_setting 'triclinic'
loop_
_space_group_symop_operation_xyz
x,y,z
-x,-y,-z
loop_
_atom_site_type_symbol
_atom_site_label
_atom_site_fract_x
_atom_site_fract_y
_atom_site_fract_z
Si Si1 0.833235 0.573140 0.699327
Si Si2 0.388512 0.956269 0.496029
Si Si3 0.475027 0.005435 0.743809
Si Si4 0.899428 0.626323 0.085422
Si Si5 0.247714 0.766811 0.773433
Si Si6 0.557320 0.743522 0.990700
Si Si7 0.049920 0.288416 0.367236
Si Si8 0.346546 0.624378 0.574007
O O1 0.668058 0.817734 0.747495
O O2 0.890438 0.644119 0.665856
O O3 0.778719 0.368665 0.562540
O O4 0.977790 0.469468 0.805018
O O5 0.382007 0.109130 0.641653
O O6 0.491653 0.656757 0.457697
O O7 0.500000 0.000000 0.500000
O O8 0.211045 0.041638 0.396246
O O9 0.398978 0.835247 0.674557
O O10 0.455872 0.188894 0.885731
O O11 0.749545 0.570152 0.998693
O O12 0.821245 0.930913 0.155601
O O13 0.000000 0.500000 0.000000
O O14 0.268818 0.651375 0.641145
O O15 0.108127 0.741736 0.742715
O O16 0.430329 0.648564 0.864121
O O17 0.500000 0.000000 0.000000
O O18 0.000000 0.500000 0.500000
#
# Coordination Sequence:
#
# PCOD9017527 Si02
#       8
#     2   2   2   2   2   2   2   2
#     4  11  23  41  64 101 135 167 223 268 330 384
#     4  11  22  41  65  96 133 177 210 263 340 382
#     4  11  22  40  69  96 133 169 221 271 323 395
#     4  11  25  43  70  99 130 173 219 278 326 386
#     4  11  24  42  68  95 134 175 218 269 328 390
#     4  10  21  43  64  91 130 169 216 267 327 382
#     4  12  25  43  64  97 142 173 212 272 325 400
#     4  11  22  40  67 101 129 166 219 278 326 389
#
# _framework density 21.766638
#
# number of rings (size 3 to 8) (size 9 to 14) (size 15 to 20)
#    0.000    1.000    6.250    3.000    5.250    0.500 
#    0.000    3.125    0.000    0.000    0.000    0.000 
#    0.000    0.000    0.000    0.000    0.000    0.000 
#
# Total GULP energy -89501.306971 kJ/mol
# GULP energy per Si atom -5593.831686 kJ/mol
# Density = 2.171710 g / cm^3
# Si number density = 21.766638 Si / 1000 Ang^3
#
#
#
# Elastic Constant Matrix: (Units=GPa)
#
#
# Indices 1 2 3 4 5 6 
#
# 1 140.6453 16.7779 50.6754 -17.4274 5.7323 -26.7479
# 2 16.7779 51.5534 35.1219 -21.3866 8.0106 -18.6978
# 3 50.6754 35.1219 118.8925 -32.9797 -4.5057 -19.8222
# 4 -17.4274 -21.3866 -32.9797 28.5485 -12.2747 1.2673
# 5 5.7323 8.0106 -4.5057 -12.2747 53.2354 -5.2822
# 6 -26.7479 -18.6978 -19.8222 1.2673 -5.2822 35.5782
#
#
#
# Elastic Compliance Matrix: (Units=1/GPa)
#
#
# Indices 1 2 3 4 5 6 
#
# 1 0.009668 0.003503 -0.002291 0.005671 0.000307 0.007677
# 2 0.003503 0.039155 -0.000620 0.031079 0.003048 0.022211
# 3 -0.002291 -0.000620 0.016707 0.020179 0.007161 0.007604
# 4 0.005671 0.031079 0.020179 0.092677 0.020929 0.031645
# 5 0.000307 0.003048 0.007161 0.020929 0.024591 0.008728
# 6 0.007677 0.022211 0.007604 0.031645 0.008728 0.049957
#
#
# Mechanical properties :
#
#
# Convention : Reuss Voigt Hill
#
# Bulk Modulus (GPa) = 14.98937 57.36018 36.17477
# Shear Modulus (GPa) = 19.69996 37.37349 28.53672
#
# Velocity S-wave (km/s) = 3.01167 4.14817 3.62474
# Velocity P-wave (km/s) = 4.35832 7.02515 5.84584
#
# Compressibility (1/GPa) = 0.06671394
#
# Stress axis : x y z
#
# Youngs Moduli (GPa) = 103.43696 25.53978 59.85367
#
# Poissons Ratio (x) = -0.08948 0.13713
# Poissons Ratio (y) = -0.36239 0.03713
# Poissons Ratio (z) = 0.23698 0.01584
#
# Static dielectric constant tensor:
#      x y z
#    x 1.808400 0.005990 0.012290 
#    y 0.005990 1.816990 0.006990 
#    z 0.012290 0.006990 1.797400 
# 
# From -- ./inp_files/327551.got.cif
#   From: 2010.05.17/outbox.cif.g08.bks.cpg/sg2_164_cif.got.tgz:327551.got - 2010.06.03 11:33:40.
