data_PCOD9017487
_publ_section_title
;
Structure prediction by ZEFSAII (Michael W. Deem and Ramdas Pophale) SiO2 
 PCOD9017487
Probable space group: P -1
;
_chemical_formula_sum "Si O2"
_cell_formula_units_Z 16
_cell_length_a 9.233034
_cell_length_b 20.905112
_cell_length_c 5.875325
_cell_angle_alpha 45.525970
_cell_angle_beta 56.696142
_cell_angle_gamma 57.338285
_cell_volume 653.076523
_symmetry_space_group_name_H-M "P -1"
_symmetry_group_IT_number 2
_symmetry_cell_setting 'triclinic'
loop_
_space_group_symop_operation_xyz
x,y,z
-x,-y,-z
loop_
_atom_site_type_symbol
_atom_site_label
_atom_site_fract_x
_atom_site_fract_y
_atom_site_fract_z
Si Si1 0.036955 0.103206 0.362925
Si Si2 0.924031 0.751819 0.671957
Si Si3 0.434673 0.295341 0.377990
Si Si4 0.268012 0.922036 0.645059
Si Si5 0.651855 0.878673 0.281537
Si Si6 0.839766 0.575819 0.057545
Si Si7 0.728939 0.276634 0.815739
Si Si8 0.469991 0.427259 0.388445
O O1 0.014422 0.195904 0.299430
O O2 0.852671 0.095901 0.422735
O O3 0.134556 0.011295 0.653373
O O4 0.186498 0.093923 0.055895
O O5 0.740123 0.819869 0.572525
O O6 0.061374 0.742181 0.363746
O O7 0.909302 0.647439 0.979132
O O8 0.406044 0.193996 0.655554
O O9 0.421605 0.342979 0.509321
O O10 0.282510 0.358783 0.189698
O O11 0.626302 0.292740 0.104365
O O12 0.459144 0.941636 0.371240
O O13 0.308456 0.821967 0.985734
O O14 0.700808 0.529184 0.418870
O O15 0.000000 0.500000 0.000000
O O16 0.640692 0.371074 0.521104
O O17 0.500000 0.500000 0.000000
#
# Coordination Sequence:
#
# PCOD9017487 Si02
#       8
#     2   2   2   2   2   2   2   2
#     4  11  23  43  67 102 135 175 235 275 334 411
#     4  11  24  41  68  98 132 186 222 275 349 405
#     4   9  22  42  65  92 134 173 224 281 336 415
#     4  10  23  44  68  99 138 178 222 287 337 398
#     4  10  21  43  63  95 135 177 223 275 343 391
#     4  10  24  44  65  96 139 173 223 290 344 405
#     4  10  23  42  64  95 135 173 219 279 344 394
#     4  11  25  42  68 100 125 180 234 275 349 415
#
# _framework density 24.499427000000001
#
# number of rings (size 3 to 8) (size 9 to 14) (size 15 to 20)
#    0.000    1.750    1.250    1.875    7.000    2.500 
#    2.250    0.000    0.000    0.000    0.000    0.000 
#    0.000    0.000    0.000    0.000    0.000    0.000 
#
# Total GULP energy -89355.615764 kJ/mol
# GULP energy per Si atom -5584.725985 kJ/mol
# Density = 2.444367 g / cm^3
# Si number density = 24.499427 Si / 1000 Ang^3
#
#
#
# Elastic Constant Matrix: (Units=GPa)
#
#
# Indices 1 2 3 4 5 6 
#
# 1 90.5274 50.3783 17.0690 11.7622 -19.1414 -17.4599
# 2 50.3783 125.8162 27.6077 -11.3428 -0.4888 -23.5521
# 3 17.0690 27.6077 81.4082 -7.1240 -12.8750 -32.5150
# 4 11.7622 -11.3428 -7.1240 21.2604 -3.3672 -15.6614
# 5 -19.1414 -0.4888 -12.8750 -3.3672 19.5427 5.2536
# 6 -17.4599 -23.5521 -32.5150 -15.6614 5.2536 56.1799
#
#
#
# Elastic Compliance Matrix: (Units=1/GPa)
#
#
# Indices 1 2 3 4 5 6 
#
# 1 0.024438 -0.012734 -0.003048 -0.024183 0.019616 -0.008083
# 2 -0.012734 0.016979 0.002463 0.024484 -0.009513 0.012301
# 3 -0.003048 0.002463 0.025540 0.029807 0.013138 0.021948
# 4 -0.024183 0.024484 0.029807 0.123952 0.003338 0.054242
# 5 0.019616 -0.009513 0.013138 0.003338 0.078487 0.003303
# 6 -0.008083 0.012301 0.021948 0.054242 0.003303 0.047960
#
#
# Mechanical properties :
#
#
# Convention : Reuss Voigt Hill
#
# Bulk Modulus (GPa) = 24.80170 54.20686 39.50428
# Shear Modulus (GPa) = 13.98864 32.90972 23.44918
#
# Velocity S-wave (km/s) = 2.39211 3.66906 3.09711
# Velocity P-wave (km/s) = 4.21603 6.33428 5.38043
#
# Compressibility (1/GPa) = 0.04031982
#
# Stress axis : x y z
#
# Youngs Moduli (GPa) = 40.91996 58.89471 39.15475
#
# Poissons Ratio (x) = 0.74994 0.11935
# Poissons Ratio (y) = 0.52106 -0.09644
# Poissons Ratio (z) = 0.12473 -0.14506
#
# Static dielectric constant tensor:
#      x y z
#    x 1.966810 -0.007250 -0.007390 
#    y -0.007250 1.949540 -0.039560 
#    z -0.007390 -0.039560 2.039300 
# 
# From -- ./inp_files/51337.got.cif
#   From: 2010.05.17/outbox.cif.g08.bks.cpg/sg2_26_cif.got.tgz:51337.got - 2010.06.03 11:33:40.
