data_PCOD9017475
_publ_section_title
;
Structure prediction by ZEFSAII (Michael W. Deem and Ramdas Pophale) SiO2 
 PCOD9017475
Probable space group: P -1
;
_chemical_formula_sum "Si O2"
_cell_formula_units_Z 14
_cell_length_a 8.872574
_cell_length_b 9.488932
_cell_length_c 8.337411
_cell_angle_alpha 82.102368
_cell_angle_beta 95.882559
_cell_angle_gamma 123.181212
_cell_volume 581.594320
_symmetry_space_group_name_H-M "P -1"
_symmetry_group_IT_number 2
_symmetry_cell_setting 'triclinic'
loop_
_space_group_symop_operation_xyz
x,y,z
-x,-y,-z
loop_
_atom_site_type_symbol
_atom_site_label
_atom_site_fract_x
_atom_site_fract_y
_atom_site_fract_z
Si Si1 0.419541 0.287319 0.775141
Si Si2 0.680057 0.679354 0.723829
Si Si3 0.426342 0.750971 0.867485
Si Si4 0.961205 0.687188 0.567499
Si Si5 0.370117 0.985285 0.629375
Si Si6 0.913735 0.802138 0.046068
Si Si7 0.039470 0.443628 0.763565
O O1 0.538875 0.482114 0.711927
O O2 0.226013 0.244934 0.817648
O O3 0.407150 0.164519 0.655692
O O4 0.504501 0.259103 0.949465
O O5 0.567114 0.759580 0.750031
O O6 0.822155 0.740585 0.586791
O O7 0.800022 0.710516 0.890032
O O8 0.407427 0.906595 0.802053
O O9 0.232533 0.581439 0.838463
O O10 0.163851 0.848260 0.580764
O O11 0.936841 0.540757 0.711715
O O12 0.935953 0.605166 0.404580
O O13 0.500000 0.000000 0.500000
O O14 0.036383 0.727785 0.114930
O O15 0.000000 0.000000 0.000000
#
# Coordination Sequence:
#
# PCOD9017475 Si02
#       7
#     2   2   2   2   2   2   2
#     4  11  22  42  68  97 129 166 220 269 323 384
#     4  11  22  42  69 100 125 169 222 266 327 385
#     4  10  21  44  68  95 128 170 216 267 327 384
#     4  10  25  41  64  95 134 172 217 261 325 389
#     4  11  26  44  64  95 134 172 215 267 324 387
#     4  11  22  41  68  98 133 167 218 275 323 382
#     4  10  21  43  63  94 134 171 217 264 320 392
#
# _framework density 24.071763000000001
#
# number of rings (size 3 to 8) (size 9 to 14) (size 15 to 20)
#    0.000    1.429    2.857    2.143    6.000    4.571 
#    2.571    2.143    0.000    0.000    0.000    0.000 
#    0.000    0.000    0.000    0.000    0.000    0.000 
#
# Total GULP energy -78381.556189 kJ/mol
# GULP energy per Si atom -5598.682585 kJ/mol
# Density = 2.401697 g / cm^3
# Si number density = 24.071763 Si / 1000 Ang^3
#
#
#
# Elastic Constant Matrix: (Units=GPa)
#
#
# Indices 1 2 3 4 5 6 
#
# 1 72.1410 35.9689 23.1412 1.2696 -2.2632 -2.0580
# 2 35.9689 120.7003 23.0711 10.2713 3.1867 -5.7266
# 3 23.1412 23.0711 64.8141 12.9781 1.8236 -9.2974
# 4 1.2696 10.2713 12.9781 34.4336 -17.0680 -10.9534
# 5 -2.2632 3.1867 1.8236 -17.0680 44.9352 -9.7177
# 6 -2.0580 -5.7266 -9.2974 -10.9534 -9.7177 27.1314
#
#
#
# Elastic Compliance Matrix: (Units=1/GPa)
#
#
# Indices 1 2 3 4 5 6 
#
# 1 0.018184 -0.004812 -0.005714 0.005627 0.004090 0.002142
# 2 -0.004812 0.010327 -0.001213 -0.004286 -0.002845 -0.001350
# 3 -0.005714 -0.001213 0.019893 -0.008469 -0.003946 0.001295
# 4 0.005627 -0.004286 -0.008469 0.057491 0.029329 0.030335
# 5 0.004090 -0.002845 -0.003946 0.029329 0.039204 0.024240
# 6 0.002142 -0.001350 0.001295 0.030335 0.024240 0.058108
#
#
# Mechanical properties :
#
#
# Convention : Reuss Voigt Hill
#
# Bulk Modulus (GPa) = 40.11968 46.89090 43.50529
# Shear Modulus (GPa) = 21.27702 32.99832 27.13767
#
# Velocity S-wave (km/s) = 2.97627 3.70649 3.36127
# Velocity P-wave (km/s) = 5.33983 6.15137 5.75991
#
# Compressibility (1/GPa) = 0.02492543
#
# Stress axis : x y z
#
# Youngs Moduli (GPa) = 54.99252 96.83722 50.26774
#
# Poissons Ratio (x) = 0.46597 0.28724
# Poissons Ratio (y) = 0.26462 0.06099
# Poissons Ratio (z) = 0.31424 0.11750
#
# Static dielectric constant tensor:
#      x y z
#    x 1.913500 -0.031180 0.009380 
#    y -0.031180 1.901970 -0.045450 
#    z 0.009380 -0.045450 1.941140 
# 
# From -- ./inp_files/156797.got.cif
#   From: 2010.05.17/outbox.cif.g08.bks.cpg/sg2_79_cif.got.tgz:156797.got - 2010.06.03 11:33:40.
