data_PCOD9017486
_publ_section_title
;
Structure prediction by ZEFSAII (Michael W. Deem and Ramdas Pophale) SiO2 
 PCOD9017486
Probable space group: P -1
;
_chemical_formula_sum "Si O2"
_cell_formula_units_Z 15
_cell_length_a 6.569292
_cell_length_b 20.383124
_cell_length_c 7.011494
_cell_angle_alpha 51.771670
_cell_angle_beta 116.575773
_cell_angle_gamma 129.502295
_cell_volume 566.827772
_symmetry_space_group_name_H-M "P -1"
_symmetry_group_IT_number 2
_symmetry_cell_setting 'triclinic'
loop_
_space_group_symop_operation_xyz
x,y,z
-x,-y,-z
loop_
_atom_site_type_symbol
_atom_site_label
_atom_site_fract_x
_atom_site_fract_y
_atom_site_fract_z
Si Si1 0.663026 0.900753 0.248444
Si Si2 0.172148 0.097535 0.125826
Si Si3 0.926384 0.216856 0.893196
Si Si4 0.919770 0.390426 0.713952
Si Si5 0.415917 0.367352 0.413467
Si Si6 0.500000 0.000000 0.500000
Si Si7 0.768090 0.505342 0.990891
Si Si8 0.001193 0.181335 0.410691
O O1 0.349625 0.853560 0.202128
O O2 0.755503 0.834170 0.512228
O O3 0.738976 0.897451 0.064745
O O4 0.867019 0.011361 0.193423
O O5 0.363518 0.068288 0.366374
O O6 0.151535 0.192277 0.985793
O O7 0.987448 0.327082 0.715389
O O8 0.876141 0.192663 0.143295
O O9 0.603694 0.344600 0.660626
O O10 0.000000 0.500000 0.500000
O O11 0.078059 0.408739 0.942732
O O12 0.570188 0.407498 0.200367
O O13 0.130877 0.272000 0.440802
O O14 0.379981 0.458903 0.277477
O O15 0.226969 0.920854 0.422131
O O16 0.000000 0.500000 0.000000
#
# Coordination Sequence:
#
# PCOD9017486 Si02
#       8
#     2   2   2   2   2   1   2   2
#     4  10  22  44  62  97 135 168 229 284 331 398
#     4  10  23  43  67  94 136 179 222 286 334 401
#     4  12  22  43  68  96 128 184 229 270 352 403
#     4  10  22  43  67  95 138 169 220 288 336 406
#     4  10  21  43  63  95 134 169 219 281 336 402
#     4  10  22  42  64  98 138 176 226 276 332 388
#     4  10  22  43  70  97 128 172 219 281 350 408
#     4  11  22  42  66  94 138 182 218 284 329 396
#
# _framework density 26.463063999999999
#
# number of rings (size 3 to 8) (size 9 to 14) (size 15 to 20)
#    0.000    1.600    4.000    0.400    0.000    2.667 
#   16.800    0.000    0.000    0.000    0.000    0.000 
#    0.000    0.000    0.000    0.000    0.000    0.000 
#
# Total GULP energy -83564.093285 kJ/mol
# GULP energy per Si atom -5570.939552 kJ/mol
# Density = 2.640283 g / cm^3
# Si number density = 26.463064 Si / 1000 Ang^3
#
#
#
# Elastic Constant Matrix: (Units=GPa)
#
#
# Indices 1 2 3 4 5 6 
#
# 1 121.3685 40.6415 37.9336 -14.1663 29.5857 1.7627
# 2 40.6415 97.2795 24.3309 -9.7568 19.2375 19.5045
# 3 37.9336 24.3309 109.5492 -3.5783 37.9030 3.6364
# 4 -14.1663 -9.7568 -3.5783 44.4009 -3.8790 20.0183
# 5 29.5857 19.2375 37.9030 -3.8790 59.1236 -5.3216
# 6 1.7627 19.5045 3.6364 20.0183 -5.3216 38.0633
#
#
#
# Elastic Compliance Matrix: (Units=1/GPa)
#
#
# Indices 1 2 3 4 5 6 
#
# 1 0.010955 -0.003104 -0.001921 0.002637 -0.003118 -0.000556
# 2 -0.003104 0.015731 -0.000392 0.007723 -0.003932 -0.012491
# 3 -0.001921 -0.000392 0.012407 0.000700 -0.007022 -0.002245
# 4 0.002637 0.007723 0.000700 0.035244 -0.004061 -0.023250
# 5 -0.003118 -0.003932 -0.007022 -0.004061 0.024746 0.008426
# 6 -0.000556 -0.012491 -0.002245 -0.023250 0.008426 0.046319
#
#
# Mechanical properties :
#
#
# Convention : Reuss Voigt Hill
#
# Bulk Modulus (GPa) = 35.38553 59.33435 47.35994
# Shear Modulus (GPa) = 30.18314 43.33698 36.76006
#
# Velocity S-wave (km/s) = 3.38091 4.05117 3.73112
# Velocity P-wave (km/s) = 5.35177 6.65979 6.04128
#
# Compressibility (1/GPa) = 0.02826014
#
# Stress axis : x y z
#
# Youngs Moduli (GPa) = 91.28365 63.56874 80.59819
#
# Poissons Ratio (x) = 0.19731 0.15481
# Poissons Ratio (y) = 0.28334 0.03158
# Poissons Ratio (z) = 0.17533 0.02491
#
# Static dielectric constant tensor:
#      x y z
#    x 2.095760 -0.008870 -0.067930 
#    y -0.008870 2.137930 -0.020430 
#    z -0.067930 -0.020430 2.237600 
# 
# From -- ./inp_files/140525.got.cif
#   From: 2010.05.17/outbox.cif.g08.bks.cpg/sg2_71_cif.got.tgz:140525.got - 2010.06.03 11:33:40.
