data_PCOD9017353
_publ_section_title
;
Structure prediction by ZEFSAII (Michael W. Deem and Ramdas Pophale) SiO2 
 PCOD9017353
Probable space group: P -1
;
_chemical_formula_sum "Si O2"
_cell_formula_units_Z 16
_cell_length_a 6.217954
_cell_length_b 13.279317
_cell_length_c 14.619395
_cell_angle_alpha 143.121768
_cell_angle_beta 96.616086
_cell_angle_gamma 91.731882
_cell_volume 704.263432
_symmetry_space_group_name_H-M "P -1"
_symmetry_group_IT_number 2
_symmetry_cell_setting 'triclinic'
loop_
_space_group_symop_operation_xyz
x,y,z
-x,-y,-z
loop_
_atom_site_type_symbol
_atom_site_label
_atom_site_fract_x
_atom_site_fract_y
_atom_site_fract_z
Si Si1 0.721755 0.454262 0.138833
Si Si2 0.171562 0.045831 0.623629
Si Si3 0.948903 0.310735 0.901947
Si Si4 0.148016 0.675448 0.403812
Si Si5 0.717566 0.580654 0.630885
Si Si6 0.875259 0.123087 0.140799
Si Si7 0.445732 0.714400 0.263232
Si Si8 0.456984 0.190189 0.059219
O O1 0.592516 0.568315 0.152707
O O2 0.522422 0.319986 0.074767
O O3 0.890772 0.590790 0.307763
O O4 0.891635 0.342128 0.025729
O O5 0.376316 0.114909 0.618681
O O6 0.111046 0.191791 0.792424
O O7 0.174908 0.878791 0.562373
O O8 0.000000 0.000000 0.500000
O O9 0.716818 0.250611 0.798233
O O10 0.000000 0.500000 0.000000
O O11 0.218996 0.573585 0.418902
O O12 0.303941 0.668500 0.316139
O O13 0.500000 0.500000 0.500000
O O14 0.641547 0.707622 0.792511
O O15 0.943703 0.708242 0.694579
O O16 0.693756 0.170621 0.097320
O O17 0.711161 0.988764 0.101289
O O18 0.000000 0.000000 0.000000
#
# Coordination Sequence:
#
# PCOD9017353 Si02
#       8
#     2   2   2   2   2   2   2   2
#     4  12  23  41  72 101 135 185 240 277 343 428
#     4  12  24  42  67 100 145 190 226 283 349 418
#     4  12  24  41  66 105 139 182 234 284 331 417
#     4  12  24  43  71 102 138 190 232 286 361 426
#     4  11  24  44  75 102 137 182 242 300 359 430
#     4   9  20  42  71 100 131 167 233 293 363 419
#     4  12  22  41  71  94 144 181 228 275 349 407
#     4  10  21  42  74  97 130 186 228 292 367 414
#
# _framework density 22.718771
#
# number of rings (size 3 to 8) (size 9 to 14) (size 15 to 20)
#    0.000    0.750    7.500    0.750    0.000    0.500 
#    0.000    5.000    2.750    0.000    0.000    0.000 
#    0.000    0.000    0.000    0.000    0.000    0.000 
#
# Total GULP energy -89118.746935 kJ/mol
# GULP energy per Si atom -5569.921683 kJ/mol
# Density = 2.266706 g / cm^3
# Si number density = 22.718771 Si / 1000 Ang^3
#
#
#
# Elastic Constant Matrix: (Units=GPa)
#
#
# Indices 1 2 3 4 5 6 
#
# 1 84.1424 22.3840 41.9434 22.6380 12.6530 -1.2865
# 2 22.3840 83.6039 50.4718 35.9755 15.9076 -7.9951
# 3 41.9434 50.4718 106.5552 33.5201 14.1481 8.6416
# 4 22.6380 35.9755 33.5201 34.6622 5.0460 0.3219
# 5 12.6530 15.9076 14.1481 5.0460 72.4996 13.7703
# 6 -1.2865 -7.9951 8.6416 0.3219 13.7703 35.1292
#
#
#
# Elastic Compliance Matrix: (Units=1/GPa)
#
#
# Indices 1 2 3 4 5 6 
#
# 1 0.016452 0.003506 -0.005283 -0.008914 -0.002720 0.003848
# 2 0.003506 0.027331 -0.007212 -0.022964 -0.005603 0.010530
# 3 -0.005283 -0.007212 0.017053 -0.005607 0.000759 -0.006276
# 4 -0.008914 -0.022964 -0.005607 0.063331 0.004520 -0.006526
# 5 -0.002720 -0.005603 0.000759 0.004520 0.016573 -0.008099
# 6 0.003848 0.010530 -0.006276 -0.006526 -0.008099 0.035782
#
#
# Mechanical properties :
#
#
# Convention : Reuss Voigt Hill
#
# Bulk Modulus (GPa) = 23.33317 55.98891 39.66104
# Shear Modulus (GPa) = 23.94796 39.09166 31.51981
#
# Velocity S-wave (km/s) = 3.25022 4.15260 3.72881
# Velocity P-wave (km/s) = 4.93741 6.90579 6.00283
#
# Compressibility (1/GPa) = 0.04285744
#
# Stress axis : x y z
#
# Youngs Moduli (GPa) = 60.78393 36.58835 58.64176
#
# Poissons Ratio (x) = -0.12829 0.30983
# Poissons Ratio (y) = -0.21312 0.42292
# Poissons Ratio (z) = 0.32114 0.26387
#
# Static dielectric constant tensor:
#      x y z
#    x 1.933830 0.032180 0.062970 
#    y 0.032180 1.885540 -0.041050 
#    z 0.062970 -0.041050 2.103190 
# 
# From -- ./inp_files/124804.got.cif
#   From: 2010.05.17/outbox.cif.g08.bks.cpg/sg2_63_cif.got.tgz:124804.got - 2010.06.03 11:33:40.
