data_PCOD9017737
_publ_section_title
;
Structure prediction by ZEFSAII (Michael W. Deem and Ramdas Pophale) SiO2 
 PCOD9017737
Probable space group: P -1
;
_chemical_formula_sum "Si O2"
_cell_formula_units_Z 16
_cell_length_a 14.145666
_cell_length_b 9.540768
_cell_length_c 13.191204
_cell_angle_alpha 70.760836
_cell_angle_beta 81.331831
_cell_angle_gamma 140.536717
_cell_volume 788.156820
_symmetry_space_group_name_H-M "P -1"
_symmetry_group_IT_number 2
_symmetry_cell_setting 'triclinic'
loop_
_space_group_symop_operation_xyz
x,y,z
-x,-y,-z
loop_
_atom_site_type_symbol
_atom_site_label
_atom_site_fract_x
_atom_site_fract_y
_atom_site_fract_z
Si Si1 0.466541 0.342659 0.947989
Si Si2 0.998845 0.310454 0.802826
Si Si3 0.738728 0.494076 0.973799
Si Si4 0.867152 0.818083 0.264361
Si Si5 0.655573 0.082735 0.495022
Si Si6 0.209591 0.722995 0.870818
Si Si7 0.421609 0.560116 0.789538
Si Si8 0.491150 0.312500 0.562762
O O1 0.509063 0.516726 0.809351
O O2 0.500000 0.500000 0.000000
O O3 0.604649 0.389075 0.934497
O O4 0.233181 0.974215 0.070344
O O5 0.014172 0.162959 0.798648
O O6 0.115258 0.553555 0.635901
O O7 0.137126 0.533779 0.826000
O O8 0.702480 0.275739 0.064389
O O9 0.696067 0.532965 0.073291
O O10 0.972600 0.834585 0.825467
O O11 0.725403 0.661901 0.229189
O O12 0.722645 0.581305 0.438635
O O13 0.500000 0.000000 0.500000
O O14 0.579076 0.904354 0.652505
O O15 0.632461 0.920673 0.456297
O O16 0.373265 0.073133 0.731310
O O17 0.000000 0.500000 0.000000
O O18 0.500000 0.500000 0.500000
#
# Coordination Sequence:
#
# PCOD9017737 Si02
#       8
#     2   2   2   2   2   2   2   2
#     4  10  21  33  50  84 123 148 185 232 287 348
#     4  11  19  36  57  85 115 148 190 239 288 335
#     4  11  20  34  53  83 119 145 191 229 280 343
#     4  11  18  32  60  83 111 149 187 240 286 329
#     4  10  18  32  55  83 109 146 194 240 287 329
#     4  11  23  38  60  85 112 150 195 240 284 339
#     4  10  17  30  52  83 110 144 183 234 282 330
#     4  10  21  35  54  87 118 140 183 242 297 337
#
# _framework density 20.300529999999998
#
# number of rings (size 3 to 8) (size 9 to 14) (size 15 to 20)
#    0.000    1.500    6.250    2.625    0.000    1.000 
#    0.000    4.375    0.000    0.000    0.000   10.500 
#    0.000    0.000    0.000    0.000    0.000    0.000 
#
# Total GULP energy -89143.779261 kJ/mol
# GULP energy per Si atom -5571.486204 kJ/mol
# Density = 2.025432 g / cm^3
# Si number density = 20.300530 Si / 1000 Ang^3
#
#
#
# Elastic Constant Matrix: (Units=GPa)
#
#
# Indices 1 2 3 4 5 6 
#
# 1 119.9549 14.1263 51.0164 -6.1695 28.2036 6.9885
# 2 14.1263 21.9736 4.7844 -8.6310 17.6645 1.8588
# 3 51.0164 4.7844 138.9739 -12.6147 39.2983 4.1798
# 4 -6.1695 -8.6310 -12.6147 5.2916 -20.5144 3.7851
# 5 28.2036 17.6645 39.2983 -20.5144 28.8496 2.7098
# 6 6.9885 1.8588 4.1798 3.7851 2.7098 32.3944
#
#
#
# Elastic Compliance Matrix: (Units=1/GPa)
#
#
# Indices 1 2 3 4 5 6 
#
# 1 0.010419 -0.005509 -0.003770 0.005597 0.002520 -0.002310
# 2 -0.005509 0.094376 0.013450 0.048521 -0.035404 -0.008670
# 3 -0.003770 0.013450 0.012061 0.018115 -0.007818 -0.002977
# 4 0.005597 0.048521 0.018115 -0.044759 -0.092306 0.006622
# 5 0.002520 -0.035404 -0.007818 -0.092306 -0.002378 0.013481
# 6 -0.002310 -0.008670 -0.002977 0.006622 0.013481 0.030348
#
#
# Mechanical properties :
#
#
# Convention : Reuss Voigt Hill
#
# Bulk Modulus (GPa) = 7.98745 46.75073 27.36909
# Shear Modulus (GPa) = 37.46495 27.37214 32.41854
#
# Velocity S-wave (km/s) = 4.30061 3.67597 4.00050
# Velocity P-wave (km/s) = 5.34822 6.41064 5.90338
#
# Compressibility (1/GPa) = 0.12519645
#
# Stress axis : x y z
#
# Youngs Moduli (GPa) = 95.98307 10.59592 82.91046
#
# Poissons Ratio (x) = 0.05838 0.31258
# Poissons Ratio (y) = 0.52881 -1.11514
# Poissons Ratio (z) = 0.36187 -0.14251
#
# Static dielectric constant tensor:
#      x y z
#    x 1.793960 -0.012240 0.017270 
#    y -0.012240 1.718670 0.014090 
#    z 0.017270 0.014090 1.844690 
# 
# From -- ./inp_files/530491.got.cif
#   From: 2010.05.17/outbox.cif.g08.bks.cpg/sg2_266_cif.got.tgz:530491.got - 2010.06.03 11:33:40.
