data_PCOD9017544
_publ_section_title
;
Structure prediction by ZEFSAII (Michael W. Deem and Ramdas Pophale) SiO2 
 PCOD9017544
Probable space group: P -1
;
_chemical_formula_sum "Si O2"
_cell_formula_units_Z 14
_cell_length_a 10.153634
_cell_length_b 8.675520
_cell_length_c 12.306054
_cell_angle_alpha 49.065695
_cell_angle_beta 123.107051
_cell_angle_gamma 101.827625
_cell_volume 665.654632
_symmetry_space_group_name_H-M "P -1"
_symmetry_group_IT_number 2
_symmetry_cell_setting 'triclinic'
loop_
_space_group_symop_operation_xyz
x,y,z
-x,-y,-z
loop_
_atom_site_type_symbol
_atom_site_label
_atom_site_fract_x
_atom_site_fract_y
_atom_site_fract_z
Si Si1 0.669002 0.828745 0.130396
Si Si2 0.187691 0.026072 0.683653
Si Si3 0.553752 0.382214 0.969659
Si Si4 0.870447 0.893203 0.631293
Si Si5 0.297858 0.477491 0.234877
Si Si6 0.806213 0.077112 0.892659
Si Si7 0.388395 0.866202 0.447701
O O1 0.608444 0.627028 0.163381
O O2 0.782022 0.801038 0.299087
O O3 0.500000 0.000000 0.000000
O O4 0.752051 0.924024 0.026124
O O5 0.050777 0.918060 0.717986
O O6 0.152724 0.100910 0.511491
O O7 0.351343 0.846321 0.842127
O O8 0.668162 0.466901 0.899596
O O9 0.500000 0.500000 0.000000
O O10 0.821677 0.680672 0.744686
O O11 0.756117 0.093955 0.547637
O O12 0.237439 0.688570 0.181249
O O13 0.476466 0.348067 0.414638
O O14 0.704539 0.069772 0.738586
O O15 0.000000 0.000000 0.000000
O O16 0.500000 0.000000 0.500000
#
# Coordination Sequence:
#
# PCOD9017544 Si02
#       7
#     2   2   2   2   2   2   2
#     4  10  22  40  66  89 132 179 218 272 337 406
#     4  10  21  43  64  93 135 181 217 270 354 399
#     4  11  24  39  67  98 130 175 230 280 336 410
#     4  10  23  41  69  95 137 178 219 285 344 404
#     4  11  24  42  67 104 131 178 232 284 333 411
#     4  12  25  44  68 102 139 183 230 284 347 403
#     4  10  24  40  66  96 136 177 222 280 342 404
#
# _framework density 21.031929000000002
#
# number of rings (size 3 to 8) (size 9 to 14) (size 15 to 20)
#    0.000    1.429    2.857    2.143   12.000    2.857 
#    0.000    0.000    0.000    6.000    0.000    0.000 
#    0.000    0.000    0.000    0.000    0.000    0.000 
#
# Total GULP energy -78048.889834 kJ/mol
# GULP energy per Si atom -5574.920702 kJ/mol
# Density = 2.098406 g / cm^3
# Si number density = 21.031929 Si / 1000 Ang^3
#
#
#
# Elastic Constant Matrix: (Units=GPa)
#
#
# Indices 1 2 3 4 5 6 
#
# 1 131.2141 71.5969 26.7491 6.0905 -3.9222 -10.4784
# 2 71.5969 129.4018 33.4412 17.3414 2.1397 -5.8527
# 3 26.7491 33.4412 50.6097 13.8733 9.2049 -10.5786
# 4 6.0905 17.3414 13.8733 37.4365 -0.2554 -2.7380
# 5 -3.9222 2.1397 9.2049 -0.2554 31.1767 -7.5808
# 6 -10.4784 -5.8527 -10.5786 -2.7380 -7.5808 28.4231
#
#
#
# Elastic Compliance Matrix: (Units=1/GPa)
#
#
# Indices 1 2 3 4 5 6 
#
# 1 0.011700 -0.005948 -0.002815 0.002152 0.003503 0.003182
# 2 -0.005948 0.012553 -0.004478 -0.003324 -0.000751 -0.001795
# 3 -0.002815 -0.004478 0.028927 -0.007787 -0.007157 0.006147
# 4 0.002152 -0.003324 -0.007787 0.030888 0.003311 0.001069
# 5 0.003503 -0.000751 -0.007157 0.003311 0.036800 0.008607
# 6 0.003182 -0.001795 0.006147 0.001069 0.008607 0.040673
#
#
# Mechanical properties :
#
#
# Convention : Reuss Voigt Hill
#
# Bulk Modulus (GPa) = 37.45771 63.86667 50.66219
# Shear Modulus (GPa) = 25.39076 31.36981 28.38029
#
# Velocity S-wave (km/s) = 3.47832 3.86623 3.67739
# Velocity P-wave (km/s) = 5.82925 7.09667 6.49396
#
# Compressibility (1/GPa) = 0.02669677
#
# Stress axis : x y z
#
# Youngs Moduli (GPa) = 85.47361 79.66317 34.56970
#
# Poissons Ratio (x) = 0.47384 0.09732
# Poissons Ratio (y) = 0.50840 0.15481
# Poissons Ratio (z) = 0.24062 0.35674
#
# Static dielectric constant tensor:
#      x y z
#    x 1.848060 -0.271700 -0.235840 
#    y -0.271700 2.641720 0.721240 
#    z -0.235840 0.721240 2.407060 
# 
# From -- ./inp_files/190330.got.cif
#   From: 2010.05.17/outbox.cif.g08.bks.cpg/sg2_96_cif.got.tgz:190330.got - 2010.06.03 11:33:40.
