data_PCOD9017050
_publ_section_title
;
Structure prediction by ZEFSAII (Michael W. Deem and Ramdas Pophale) SiO2 
 PCOD9017050
Probable space group: P -1
;
_chemical_formula_sum "Si O2"
_cell_formula_units_Z 15
_cell_length_a 7.250280
_cell_length_b 10.740293
_cell_length_c 15.637290
_cell_angle_alpha 134.229210
_cell_angle_beta 63.275738
_cell_angle_gamma 82.124484
_cell_volume 553.324062
_symmetry_space_group_name_H-M "P -1"
_symmetry_group_IT_number 2
_symmetry_cell_setting 'triclinic'
loop_
_space_group_symop_operation_xyz
x,y,z
-x,-y,-z
loop_
_atom_site_type_symbol
_atom_site_label
_atom_site_fract_x
_atom_site_fract_y
_atom_site_fract_z
Si Si1 0.500000 0.500000 0.000000
Si Si2 0.686915 0.136506 0.245590
Si Si3 0.044428 0.619113 0.617997
Si Si4 0.902105 0.592960 0.210984
Si Si5 0.828389 0.284380 0.666168
Si Si6 0.358971 0.159305 0.788260
Si Si7 0.064531 0.072268 0.356077
Si Si8 0.070052 0.205404 0.108805
O O1 0.539629 0.469511 0.871317
O O2 0.802048 0.199469 0.799718
O O3 0.384672 0.396807 0.461878
O O4 0.900895 0.152339 0.167710
O O5 0.773032 0.949280 0.212354
O O6 0.665784 0.019990 0.111125
O O7 0.860357 0.710155 0.786392
O O8 0.000000 0.500000 0.500000
O O9 0.980091 0.834817 0.684909
O O10 0.670959 0.779486 0.276037
O O11 0.876633 0.427363 0.187195
O O12 0.971313 0.689177 0.316465
O O13 0.195612 0.403131 0.998422
O O14 0.000000 0.000000 0.500000
O O15 0.790724 0.300100 0.578990
O O16 0.678625 0.972896 0.670941
#
# Coordination Sequence:
#
# PCOD9017050 Si02
#       8
#     1   2   2   2   2   2   2   2
#     4  10  22  44  62  90 144 176 224 292 334 420
#     4  10  23  46  68 103 141 180 241 282 345 423
#     4  12  24  42  70 102 137 183 232 289 346 420
#     4  10  21  42  70  98 135 183 233 286 351 412
#     4  10  22  40  64  98 135 173 227 281 348 410
#     4  10  21  42  71  97 136 183 228 286 347 411
#     4  11  23  42  64 102 136 182 227 284 352 410
#     4  10  24  46  69 101 138 189 232 286 350 413
#
# _framework density 27.108888
#
# number of rings (size 3 to 8) (size 9 to 14) (size 15 to 20)
#    0.000    1.600    2.667    1.200    0.000    4.267 
#   12.000    0.000    0.000    0.000    0.000    0.000 
#    0.000    0.000    0.000    0.000    0.000    0.000 
#
# Total GULP energy -83608.512056 kJ/mol
# GULP energy per Si atom -5573.900804 kJ/mol
# Density = 2.704719 g / cm^3
# Si number density = 27.108888 Si / 1000 Ang^3
#
#
#
# Elastic Constant Matrix: (Units=GPa)
#
#
# Indices 1 2 3 4 5 6 
#
# 1 50.9418 20.8324 25.2099 0.3153 16.4562 -3.0373
# 2 20.8324 185.5100 49.1726 -16.3018 20.0986 -10.6472
# 3 25.2099 49.1726 180.2714 -23.8294 27.6016 -10.3981
# 4 0.3153 -16.3018 -23.8294 47.4736 -0.5271 12.3222
# 5 16.4562 20.0986 27.6016 -0.5271 39.5525 -0.8677
# 6 -3.0373 -10.6472 -10.3981 12.3222 -0.8677 38.0743
#
#
#
# Elastic Compliance Matrix: (Units=1/GPa)
#
#
# Indices 1 2 3 4 5 6 
#
# 1 0.023794 -0.001410 -0.001935 -0.002082 -0.007829 0.001471
# 2 -0.001410 0.006178 -0.000972 0.001400 -0.001837 0.000854
# 3 -0.001935 -0.000972 0.007062 0.003073 -0.003579 0.000426
# 4 -0.002082 0.001400 0.003073 0.024908 -0.001813 -0.007038
# 5 -0.007829 -0.001837 -0.003579 -0.001813 0.031929 -0.000801
# 6 0.001471 0.000854 0.000426 -0.007038 -0.000801 0.028996
#
#
# Mechanical properties :
#
#
# Convention : Reuss Voigt Hill
#
# Bulk Modulus (GPa) = 35.21108 67.46145 51.33626
# Shear Modulus (GPa) = 35.46941 46.45395 40.96168
#
# Velocity S-wave (km/s) = 3.62111 4.14406 3.89138
# Velocity P-wave (km/s) = 5.52270 6.91643 6.25849
#
# Compressibility (1/GPa) = 0.02840015
#
# Stress axis : x y z
#
# Youngs Moduli (GPa) = 42.02802 161.87325 141.60862
#
# Poissons Ratio (x) = 0.22816 0.27396
# Poissons Ratio (y) = 0.05924 0.13769
# Poissons Ratio (z) = 0.08131 0.15739
#
# Static dielectric constant tensor:
#      x y z
#    x 1.534670 -0.162860 0.033760 
#    y -0.162860 2.269650 -0.056440 
#    z 0.033760 -0.056440 2.158000 
# 
# From -- ./inp_files/500815.got.cif
#   From: 2010.05.17/outbox.cif.g08.bks.cpg/sg2_251_cif.got.tgz:500815.got - 2010.06.03 11:33:40.
