data_PCOD9017707
_publ_section_title
;
Structure prediction by ZEFSAII (Michael W. Deem and Ramdas Pophale) SiO2 
 PCOD9017707
Probable space group: P -1
;
_chemical_formula_sum "Si O2"
_cell_formula_units_Z 14
_cell_length_a 9.839277
_cell_length_b 21.288229
_cell_length_c 12.095225
_cell_angle_alpha 29.944144
_cell_angle_beta 146.338004
_cell_angle_gamma 149.948723
_cell_volume 597.980183
_symmetry_space_group_name_H-M "P -1"
_symmetry_group_IT_number 2
_symmetry_cell_setting 'triclinic'
loop_
_space_group_symop_operation_xyz
x,y,z
-x,-y,-z
loop_
_atom_site_type_symbol
_atom_site_label
_atom_site_fract_x
_atom_site_fract_y
_atom_site_fract_z
Si Si1 0.120227 0.303350 0.944234
Si Si2 0.625798 0.715994 0.210350
Si Si3 0.188713 0.046793 0.445817
Si Si4 0.177414 0.393322 0.310247
Si Si5 0.138525 0.717106 0.428871
Si Si6 0.349403 0.869081 0.684324
Si Si7 0.203920 0.464676 0.964650
O O1 0.054709 0.327629 0.988044
O O2 0.940816 0.313714 0.707433
O O3 0.448757 0.438015 0.950963
O O4 0.109454 0.149606 0.164894
O O5 0.674492 0.691298 0.408531
O O6 0.903865 0.745399 0.283914
O O7 0.554893 0.839750 0.944022
O O8 0.531674 0.150730 0.541375
O O9 0.155710 0.909600 0.565226
O O10 0.000000 0.000000 0.500000
O O11 0.845042 0.281111 0.287262
O O12 0.361596 0.556058 0.236950
O O13 0.151666 0.412209 0.134635
O O14 0.109243 0.574537 0.686070
O O15 0.500000 0.000000 0.500000
#
# Coordination Sequence:
#
# PCOD9017707 Si02
#       7
#     2   2   2   2   2   2   2
#     4  10  21  43  66 100 138 185 237 288 351 422
#     4  11  26  44  72 112 135 184 241 300 358 417
#     4  11  26  47  67 101 145 196 235 289 357 431
#     4  11  25  44  71 104 143 179 241 297 351 425
#     4  11  23  42  74 103 143 180 241 298 358 420
#     4  12  27  46  73 102 150 193 233 292 362 428
#     4  10  22  39  70 102 140 180 229 298 359 410
#
# _framework density 23.412147999999998
#
# number of rings (size 3 to 8) (size 9 to 14) (size 15 to 20)
#    0.000    1.143    1.429    3.429    8.000    4.000 
#    2.571    0.000    0.000    0.000    0.000    0.000 
#    0.000    0.000    0.000    0.000    0.000    0.000 
#
# Total GULP energy -78290.075970 kJ/mol
# GULP energy per Si atom -5592.148284 kJ/mol
# Density = 2.335886 g / cm^3
# Si number density = 23.412148 Si / 1000 Ang^3
#
#
#
# Elastic Constant Matrix: (Units=GPa)
#
#
# Indices 1 2 3 4 5 6 
#
# 1 104.2371 43.4280 51.5922 8.2593 -18.7791 -5.0835
# 2 43.4280 84.4293 66.1694 3.0340 -12.3817 3.3614
# 3 51.5922 66.1694 189.1790 10.6918 -30.2025 -23.3147
# 4 8.2593 3.0340 10.6918 30.5777 -8.1416 -14.3144
# 5 -18.7791 -12.3817 -30.2025 -8.1416 44.9350 3.6753
# 6 -5.0835 3.3614 -23.3147 -14.3144 3.6753 43.9532
#
#
#
# Elastic Compliance Matrix: (Units=1/GPa)
#
#
# Indices 1 2 3 4 5 6 
#
# 1 0.013053 -0.005457 -0.001016 -0.001549 0.002935 0.000638
# 2 -0.005457 0.019614 -0.006127 -0.001201 -0.000745 -0.005710
# 3 -0.001016 -0.006127 0.008851 0.001148 0.003625 0.005117
# 4 -0.001549 -0.001201 0.001148 0.040663 0.006077 0.013257
# 5 0.002935 -0.000745 0.003625 0.006077 0.026644 0.002071
# 6 0.000638 -0.005710 0.005117 0.013257 0.002071 0.030120
#
#
# Mechanical properties :
#
#
# Convention : Reuss Voigt Hill
#
# Bulk Modulus (GPa) = 61.28389 77.80272 69.54331
# Shear Modulus (GPa) = 29.48375 38.33691 33.91033
#
# Velocity S-wave (km/s) = 3.55256 4.05097 3.80992
# Velocity P-wave (km/s) = 6.56205 7.42862 7.00874
#
# Compressibility (1/GPa) = 0.01631750
#
# Stress axis : x y z
#
# Youngs Moduli (GPa) = 76.61326 50.98340 112.98520
#
# Poissons Ratio (x) = 0.27820 0.11482
# Poissons Ratio (y) = 0.41805 0.69227
# Poissons Ratio (z) = 0.07786 0.31238
#
# Static dielectric constant tensor:
#      x y z
#    x 1.990060 -0.002830 0.026080 
#    y -0.002830 1.910690 -0.009290 
#    z 0.026080 -0.009290 1.874340 
# 
# From -- ./inp_files/404637.got.cif
#   From: 2010.05.17/outbox.cif.g08.bks.cpg/sg2_203_cif.got.tgz:404637.got - 2010.06.03 11:33:40.
