data_PCOD9017333
_publ_section_title
;
Structure prediction by ZEFSAII (Michael W. Deem and Ramdas Pophale) SiO2 
 PCOD9017333
Probable space group: P -1
;
_chemical_formula_sum "Si O2"
_cell_formula_units_Z 16
_cell_length_a 16.341632
_cell_length_b 8.917474
_cell_length_c 5.508067
_cell_angle_alpha 77.000698
_cell_angle_beta 98.024357
_cell_angle_gamma 63.585401
_cell_volume 673.512883
_symmetry_space_group_name_H-M "P -1"
_symmetry_group_IT_number 2
_symmetry_cell_setting 'triclinic'
loop_
_space_group_symop_operation_xyz
x,y,z
-x,-y,-z
loop_
_atom_site_type_symbol
_atom_site_label
_atom_site_fract_x
_atom_site_fract_y
_atom_site_fract_z
Si Si1 0.262001 0.120077 0.030906
Si Si2 0.199912 0.689161 0.476984
Si Si3 0.353558 0.327834 0.803719
Si Si4 0.990836 0.321304 0.564060
Si Si5 0.526722 0.126416 0.621051
Si Si6 0.760631 0.183972 0.038262
Si Si7 0.431801 0.474670 0.166689
Si Si8 0.934655 0.713912 0.891126
O O1 0.175691 0.225641 0.142394
O O2 0.361739 0.988020 0.245699
O O3 0.234577 0.003351 0.892524
O O4 0.284173 0.249579 0.837707
O O5 0.298617 0.503737 0.556757
O O6 0.115497 0.645025 0.495570
O O7 0.185685 0.798759 0.184325
O O8 0.210547 0.773915 0.703177
O O9 0.455364 0.185476 0.797606
O O10 0.373417 0.390609 0.043981
O O11 0.000000 0.500000 0.500000
O O12 0.042559 0.222931 0.373722
O O13 0.034582 0.228054 0.871526
O O14 0.499304 0.318997 0.432111
O O15 0.500000 0.000000 0.500000
O O16 0.650718 0.328872 0.882122
O O17 0.500000 0.500000 0.000000
O O18 0.000000 0.500000 0.000000
#
# Coordination Sequence:
#
# PCOD9017333 Si02
#       8
#     2   2   2   2   2   2   2   2
#     4  12  27  45  71 106 145 189 247 308 356 433
#     4  11  24  48  76 106 146 191 242 297 365 443
#     4  11  24  45  66 104 143 191 244 294 356 433
#     4  10  21  42  74 104 134 180 242 297 357 426
#     4  12  26  42  71 108 144 189 250 300 355 424
#     4  11  27  46  70 109 148 193 239 294 373 430
#     4  11  25  45  68 100 150 197 236 292 361 434
#     4  10  23  44  70 106 137 186 240 298 363 422
#
# _framework density 23.756042999999998
#
# number of rings (size 3 to 8) (size 9 to 14) (size 15 to 20)
#    0.000    1.000    2.500    3.375    5.250    8.000 
#    0.000    3.750    0.000    0.000    0.000    0.000 
#    0.000    0.000    0.000    0.000    0.000    0.000 
#
# Total GULP energy -89471.341376 kJ/mol
# GULP energy per Si atom -5591.958836 kJ/mol
# Density = 2.370197 g / cm^3
# Si number density = 23.756043 Si / 1000 Ang^3
#
#
#
# Elastic Constant Matrix: (Units=GPa)
#
#
# Indices 1 2 3 4 5 6 
#
# 1 137.7083 43.5075 29.8304 6.7141 1.2682 -16.4358
# 2 43.5075 98.0522 26.8636 4.7249 5.2158 -2.2571
# 3 29.8304 26.8636 102.1594 17.4718 -11.6815 -7.2253
# 4 6.7141 4.7249 17.4718 25.8874 -0.4869 -2.6728
# 5 1.2682 5.2158 -11.6815 -0.4869 43.0686 -4.0647
# 6 -16.4358 -2.2571 -7.2253 -2.6728 -4.0647 49.1339
#
#
#
# Elastic Compliance Matrix: (Units=1/GPa)
#
#
# Indices 1 2 3 4 5 6 
#
# 1 0.009023 -0.003527 -0.001443 -0.000452 0.000012 0.002621
# 2 -0.003527 0.012573 -0.002659 0.000252 -0.002247 -0.001165
# 3 -0.001443 -0.002659 0.012719 -0.007532 0.003840 0.001173
# 4 -0.000452 0.000252 -0.007532 0.043861 -0.001468 0.001017
# 5 0.000012 -0.002247 0.003840 -0.001468 0.024745 0.002433
# 6 0.002621 -0.001165 0.001173 0.001017 0.002433 0.021605
#
#
# Mechanical properties :
#
#
# Convention : Reuss Voigt Hill
#
# Bulk Modulus (GPa) = 52.47314 59.81366 56.14340
# Shear Modulus (GPa) = 34.21468 39.46586 36.84027
#
# Velocity S-wave (km/s) = 3.79918 4.08032 3.94226
# Velocity P-wave (km/s) = 6.43283 6.88707 6.66382
#
# Compressibility (1/GPa) = 0.01905737
#
# Stress axis : x y z
#
# Youngs Moduli (GPa) = 110.82325 79.53829 78.62034
#
# Poissons Ratio (x) = 0.28053 0.11348
# Poissons Ratio (y) = 0.39087 0.20902
# Poissons Ratio (z) = 0.15996 0.21146
#
# Static dielectric constant tensor:
#      x y z
#    x 1.930060 -0.031330 0.059620 
#    y -0.031330 1.916430 -0.016740 
#    z 0.059620 -0.016740 2.020810 
# 
# From -- ./inp_files/90154.got.cif
#   From: 2010.05.17/outbox.cif.g08.bks.cpg/sg2_46_cif.got.tgz:90154.got - 2010.06.03 11:33:40.
