data_PCOD9017252
_publ_section_title
;
Structure prediction by ZEFSAII (Michael W. Deem and Ramdas Pophale) SiO2 
 PCOD9017252
Probable space group: P -1
;
_chemical_formula_sum "Si O2"
_cell_formula_units_Z 11
_cell_length_a 9.422600
_cell_length_b 11.495830
_cell_length_c 7.389115
_cell_angle_alpha 40.202081
_cell_angle_beta 62.980112
_cell_angle_gamma 56.833887
_cell_volume 431.489157
_symmetry_space_group_name_H-M "P -1"
_symmetry_group_IT_number 2
_symmetry_cell_setting 'triclinic'
loop_
_space_group_symop_operation_xyz
x,y,z
-x,-y,-z
loop_
_atom_site_type_symbol
_atom_site_label
_atom_site_fract_x
_atom_site_fract_y
_atom_site_fract_z
Si Si1 0.761846 0.846764 0.888885
Si Si2 0.328698 0.185403 0.401486
Si Si3 0.500000 0.500000 0.000000
Si Si4 0.052055 0.175515 0.842396
Si Si5 0.533374 0.259198 0.655365
Si Si6 0.299467 0.627065 0.235273
O O1 0.792881 0.806251 0.709419
O O2 0.629297 0.062111 0.739330
O O3 0.913997 0.826603 0.961184
O O4 0.645832 0.724677 0.170305
O O5 0.228521 0.163947 0.663636
O O6 0.500000 0.000000 0.500000
O O7 0.367699 0.380653 0.155089
O O8 0.671109 0.300475 0.062537
O O9 0.891904 0.361323 0.658062
O O10 0.000000 0.000000 0.000000
O O11 0.470677 0.431204 0.340735
O O12 0.649222 0.290929 0.710262
#
# Coordination Sequence:
#
# PCOD9017252 Si02
#       6
#     2   2   1   2   2   2
#     4  11  22  45  73 104 138 196 242 290 369 434
#     4  12  26  47  76 109 145 194 247 298 366 440
#     4  12  24  46  72 104 142 192 244 296 356 438
#     4  12  26  47  72 111 154 186 238 312 364 424
#     4  10  21  42  72  97 138 191 240 289 357 436
#     4  11  23  44  69 103 142 187 238 300 358 421
#
# _framework density 25.493110999999999
#
# number of rings (size 3 to 8) (size 9 to 14) (size 15 to 20)
#    0.000    0.727    3.636    5.455    0.000    3.636 
#    6.545    1.818    0.000    0.000    0.000    0.000 
#    0.000    0.000    0.000    0.000    0.000    0.000 
#
# Total GULP energy -61369.599514 kJ/mol
# GULP energy per Si atom -5579.054501 kJ/mol
# Density = 2.543509 g / cm^3
# Si number density = 25.493111 Si / 1000 Ang^3
#
#
#
# Elastic Constant Matrix: (Units=GPa)
#
#
# Indices 1 2 3 4 5 6 
#
# 1 178.6390 47.8313 23.5382 -9.2511 12.4333 28.0675
# 2 47.8313 88.4094 15.5636 6.4150 9.1615 22.5345
# 3 23.5382 15.5636 87.7921 -14.2105 0.1101 1.4191
# 4 -9.2511 6.4150 -14.2105 32.9172 7.2455 1.3009
# 5 12.4333 9.1615 0.1101 7.2455 34.5451 8.5531
# 6 28.0675 22.5345 1.4191 1.3009 8.5531 67.6253
#
#
#
# Elastic Compliance Matrix: (Units=1/GPa)
#
#
# Indices 1 2 3 4 5 6 
#
# 1 0.007123 -0.003287 -0.000853 0.002748 -0.001854 -0.001661
# 2 -0.003287 0.014783 -0.002414 -0.004503 -0.000968 -0.003302
# 3 -0.000853 -0.002414 0.012994 0.005927 -0.000546 0.000841
# 4 0.002748 -0.004503 0.005927 0.036227 -0.007534 0.000492
# 5 -0.001854 -0.000968 -0.000546 -0.007534 0.032151 -0.002818
# 6 -0.001661 -0.003302 0.000841 0.000492 -0.002818 0.016907
#
#
# Mechanical properties :
#
#
# Convention : Reuss Voigt Hill
#
# Bulk Modulus (GPa) = 45.88913 58.74520 52.31717
# Shear Modulus (GPa) = 35.57307 44.87801 40.22554
#
# Velocity S-wave (km/s) = 3.73956 4.20026 3.97659
# Velocity P-wave (km/s) = 6.05685 6.82763 6.45375
#
# Compressibility (1/GPa) = 0.02179165
#
# Stress axis : x y z
#
# Youngs Moduli (GPa) = 140.39363 67.64480 76.96094
#
# Poissons Ratio (x) = 0.22236 0.06565
# Poissons Ratio (y) = 0.46151 0.18576
# Poissons Ratio (z) = 0.11975 0.16328
#
# Static dielectric constant tensor:
#      x y z
#    x 1.991850 -0.032840 0.075030 
#    y -0.032840 2.127930 -0.038890 
#    z 0.075030 -0.038890 2.292300 
# 
# From -- ./inp_files/166836.got.cif
#   From: 2010.05.17/outbox.cif.g08.bks.cpg/sg2_84_cif.got.tgz:166836.got - 2010.06.03 11:33:40.
