data_PCOD9017275
_publ_section_title
;
Structure prediction by ZEFSAII (Michael W. Deem and Ramdas Pophale) SiO2 
 PCOD9017275
Probable space group: P -1
;
_chemical_formula_sum "Si O2"
_cell_formula_units_Z 16
_cell_length_a 11.614453
_cell_length_b 9.342394
_cell_length_c 17.940022
_cell_angle_alpha 71.599423
_cell_angle_beta 135.284331
_cell_angle_gamma 141.175118
_cell_volume 723.022537
_symmetry_space_group_name_H-M "P -1"
_symmetry_group_IT_number 2
_symmetry_cell_setting 'triclinic'
loop_
_space_group_symop_operation_xyz
x,y,z
-x,-y,-z
loop_
_atom_site_type_symbol
_atom_site_label
_atom_site_fract_x
_atom_site_fract_y
_atom_site_fract_z
Si Si1 0.331607 0.934149 0.048495
Si Si2 0.345626 0.719718 0.708397
Si Si3 0.747105 0.250336 0.740584
Si Si4 0.304242 0.503022 0.225233
Si Si5 0.383384 0.676689 0.022626
Si Si6 0.703414 0.675289 0.259153
Si Si7 0.724543 0.310494 0.553533
Si Si8 0.319525 0.270960 0.392763
O O1 0.412904 0.827001 0.076327
O O2 0.477059 0.094005 0.166188
O O3 0.978694 0.682073 0.926595
O O4 0.449822 0.130456 0.004275
O O5 0.353920 0.546483 0.731848
O O6 0.009967 0.510292 0.601711
O O7 0.504691 0.933599 0.680732
O O8 0.633827 0.297358 0.733800
O O9 0.822447 0.381211 0.674210
O O10 0.044194 0.412040 0.886070
O O11 0.580672 0.653856 0.282067
O O12 0.215260 0.308226 0.276386
O O13 0.517367 0.622089 0.119458
O O14 0.043362 0.973651 0.351033
O O15 0.542852 0.321417 0.452866
O O16 0.500000 0.000000 0.500000
O O17 0.500000 0.500000 0.500000
#
# Coordination Sequence:
#
# PCOD9017275 Si02
#       8
#     2   2   2   2   2   2   2   2
#     4  10  21  42  73 101 134 178 218 278 344 399
#     4  12  27  44  69 102 141 181 216 276 349 406
#     4  11  25  45  73 102 133 181 224 278 341 398
#     4  11  25  45  72 104 134 173 231 284 330 398
#     4  10  21  42  73 102 133 172 230 276 333 403
#     4  12  27  44  68 106 139 175 223 280 340 403
#     4  12  27  49  67  97 138 182 228 276 338 402
#     4  12  27  47  71  99 132 180 236 282 329 387
#
# _framework density 22.129325000000001
#
# number of rings (size 3 to 8) (size 9 to 14) (size 15 to 20)
#    0.000    0.750    5.000    1.500    5.250    6.500 
#    0.000    0.000    0.000    0.000    0.000    0.000 
#    0.000    0.000    0.000    0.000    0.000    0.000 
#
# Total GULP energy -89616.377831 kJ/mol
# GULP energy per Si atom -5601.023614 kJ/mol
# Density = 2.207896 g / cm^3
# Si number density = 22.129325 Si / 1000 Ang^3
#
#
#
# Elastic Constant Matrix: (Units=GPa)
#
#
# Indices 1 2 3 4 5 6 
#
# 1 68.6813 26.7224 24.4620 -2.9437 22.9041 -2.6372
# 2 26.7224 131.6043 18.9044 4.1877 22.4473 -1.7822
# 3 24.4620 18.9044 72.5550 3.3644 10.6141 -12.7155
# 4 -2.9437 4.1877 3.3644 17.5162 -0.6291 3.0660
# 5 22.9041 22.4473 10.6141 -0.6291 39.6193 -4.7595
# 6 -2.6372 -1.7822 -12.7155 3.0660 -4.7595 39.6816
#
#
#
# Elastic Compliance Matrix: (Units=1/GPa)
#
#
# Indices 1 2 3 4 5 6 
#
# 1 0.020628 -0.001949 -0.005655 0.005038 -0.009473 -0.002054
# 2 -0.001949 0.008843 -0.001061 -0.002311 -0.003676 -0.000335
# 3 -0.005655 -0.001061 0.017172 -0.004953 -0.000155 0.005443
# 4 0.005038 -0.002311 -0.004953 0.060496 -0.000041 -0.006035
# 5 -0.009473 -0.003676 -0.000155 -0.000041 0.033218 0.003143
# 6 -0.002054 -0.000335 0.005443 -0.006035 0.003143 0.027637
#
#
# Mechanical properties :
#
#
# Convention : Reuss Voigt Hill
#
# Bulk Modulus (GPa) = 34.11284 45.89091 40.00187
# Shear Modulus (GPa) = 25.62874 32.88019 29.25447
#
# Velocity S-wave (km/s) = 3.40683 3.85882 3.63985
# Velocity P-wave (km/s) = 5.56094 6.37468 5.98166
#
# Compressibility (1/GPa) = 0.02931448
#
# Stress axis : x y z
#
# Youngs Moduli (GPa) = 48.47663 113.08859 58.23464
#
# Poissons Ratio (x) = 0.22037 0.32932
# Poissons Ratio (y) = 0.09446 0.06177
# Poissons Ratio (z) = 0.27413 0.11995
#
# Static dielectric constant tensor:
#      x y z
#    x 1.817590 0.022100 -0.028940 
#    y 0.022100 1.805580 -0.014730 
#    z -0.028940 -0.014730 1.807330 
# 
# From -- ./inp_files/256039.got.cif
#   From: 2010.05.17/outbox.cif.g08.bks.cpg/sg2_129_cif.got.tgz:256039.got - 2010.06.03 11:33:40.
