data_PCOD9017660
_publ_section_title
;
Structure prediction by ZEFSAII (Michael W. Deem and Ramdas Pophale) SiO2 
 PCOD9017660
Probable space group: P -1
;
_chemical_formula_sum "Si O2"
_cell_formula_units_Z 12
_cell_length_a 5.829668
_cell_length_b 7.031921
_cell_length_c 15.935792
_cell_angle_alpha 83.920336
_cell_angle_beta 45.954573
_cell_angle_gamma 92.115550
_cell_volume 461.302215
_symmetry_space_group_name_H-M "P -1"
_symmetry_group_IT_number 2
_symmetry_cell_setting 'triclinic'
loop_
_space_group_symop_operation_xyz
x,y,z
-x,-y,-z
loop_
_atom_site_type_symbol
_atom_site_label
_atom_site_fract_x
_atom_site_fract_y
_atom_site_fract_z
Si Si1 0.762965 0.789951 0.365884
Si Si2 0.861645 0.941137 0.628224
Si Si3 0.008731 0.541043 0.831436
Si Si4 0.393659 0.197389 0.980452
Si Si5 0.907998 0.406119 0.382475
Si Si6 0.680245 0.805656 0.194985
O O1 0.850622 0.986982 0.383250
O O2 0.969343 0.637466 0.364863
O O3 0.399502 0.682626 0.478944
O O4 0.842279 0.825054 0.247242
O O5 0.577604 0.052088 0.722155
O O6 0.811046 0.711431 0.658390
O O7 0.000000 0.000000 0.500000
O O8 0.683649 0.381146 0.905070
O O9 0.151514 0.611325 0.701165
O O10 0.255275 0.419452 0.819652
O O11 0.896572 0.720383 0.900835
O O12 0.288860 0.147806 0.914100
O O13 0.500000 0.000000 0.000000
#
# Coordination Sequence:
#
# PCOD9017660 Si02
#       6
#     2   2   2   2   2   2
#     4  10  23  43  62  97 141 172 223 267 322 401
#     4  12  24  41  65 101 137 180 221 262 325 395
#     4  10  24  45  67  97 133 170 223 275 327 399
#     4  11  24  47  71  95 130 170 226 280 334 389
#     4  10  21  43  65  95 136 178 210 274 328 386
#     4  11  22  42  68  98 131 175 217 269 332 388
#
# _framework density 26.013317000000001
#
# number of rings (size 3 to 8) (size 9 to 14) (size 15 to 20)
#    0.000    1.333    1.667    4.000    0.000    1.333 
#    9.000    6.667    0.000    0.000    0.000    0.000 
#    0.000    0.000    0.000    0.000    0.000    0.000 
#
# Total GULP energy -66872.420130 kJ/mol
# GULP energy per Si atom -5572.701678 kJ/mol
# Density = 2.595411 g / cm^3
# Si number density = 26.013317 Si / 1000 Ang^3
#
#
#
# Elastic Constant Matrix: (Units=GPa)
#
#
# Indices 1 2 3 4 5 6 
#
# 1 57.6453 65.7096 41.9898 -16.5776 5.1328 4.4327
# 2 65.7096 185.5255 56.3036 6.8134 -8.8022 -43.4226
# 3 41.9898 56.3036 170.9791 19.3250 25.2408 -1.2909
# 4 -16.5776 6.8134 19.3250 53.5398 -20.7181 -6.1731
# 5 5.1328 -8.8022 25.2408 -20.7181 46.7770 4.3175
# 6 4.4327 -43.4226 -1.2909 -6.1731 4.3175 51.7671
#
#
#
# Elastic Compliance Matrix: (Units=1/GPa)
#
#
# Indices 1 2 3 4 5 6 
#
# 1 0.064750 -0.025552 -0.012352 0.028680 0.009732 -0.024677
# 2 -0.025552 0.018184 0.001401 -0.008820 0.000048 0.016420
# 3 -0.012352 0.001401 0.011178 -0.011575 -0.009719 0.001942
# 4 0.028680 -0.008820 -0.011575 0.039649 0.019651 -0.007053
# 5 0.009732 0.000048 -0.009719 0.019651 0.034411 -0.001562
# 6 -0.024677 0.016420 0.001942 -0.007053 -0.001562 0.034541
#
#
# Mechanical properties :
#
#
# Convention : Reuss Voigt Hill
#
# Bulk Modulus (GPa) = 47.37816 82.46178 64.91997
# Shear Modulus (GPa) = 17.68309 47.09325 32.38817
#
# Velocity S-wave (km/s) = 2.61007 4.25944 3.53237
# Velocity P-wave (km/s) = 5.22837 7.48058 6.45348
#
# Compressibility (1/GPa) = 0.02110677
#
# Stress axis : x y z
#
# Youngs Moduli (GPa) = 15.44401 54.99226 89.45828
#
# Poissons Ratio (x) = 1.40516 1.10498
# Poissons Ratio (y) = 0.39462 -0.12531
# Poissons Ratio (z) = 0.19076 -0.07703
#
# Static dielectric constant tensor:
#      x y z
#    x 2.185640 -0.023880 -0.166690 
#    y -0.023880 2.031460 0.018680 
#    z -0.166690 0.018680 2.020670 
# 
# From -- ./inp_files/479842.got.cif
#   From: 2010.05.17/outbox.cif.g08.bks.cpg/sg2_240_cif.got.tgz:479842.got - 2010.06.03 11:33:40.
