data_PCOD9017819
_publ_section_title
;
Structure prediction by ZEFSAII (Michael W. Deem and Ramdas Pophale) SiO2 
 PCOD9017819
Probable space group: P -1
;
_chemical_formula_sum "Si O2"
_cell_formula_units_Z 14
_cell_length_a 10.564032
_cell_length_b 11.041855
_cell_length_c 12.757407
_cell_angle_alpha 33.896142
_cell_angle_beta 53.309649
_cell_angle_gamma 42.147236
_cell_volume 556.255944
_symmetry_space_group_name_H-M "P -1"
_symmetry_group_IT_number 2
_symmetry_cell_setting 'triclinic'
loop_
_space_group_symop_operation_xyz
x,y,z
-x,-y,-z
loop_
_atom_site_type_symbol
_atom_site_label
_atom_site_fract_x
_atom_site_fract_y
_atom_site_fract_z
Si Si1 0.324371 0.763840 0.358490
Si Si2 0.021711 0.237050 0.403698
Si Si3 0.254327 0.737986 0.769718
Si Si4 0.991769 0.344571 0.759400
Si Si5 0.097182 0.908869 0.173777
Si Si6 0.307035 0.230661 0.123745
Si Si7 0.555659 0.764755 0.722154
O O1 0.500000 0.500000 0.500000
O O2 0.145078 0.811754 0.481407
O O3 0.278855 0.749467 0.270055
O O4 0.359363 0.990268 0.198722
O O5 0.949997 0.466325 0.361100
O O6 0.100170 0.318147 0.210369
O O7 0.205719 0.967832 0.548927
O O8 0.407743 0.694231 0.810706
O O9 0.057662 0.866347 0.836220
O O10 0.301343 0.465455 0.900147
O O11 0.767218 0.517905 0.772976
O O12 0.987601 0.254744 0.708456
O O13 0.111440 0.069339 0.957803
O O14 0.438240 0.165175 0.209855
O O15 0.500000 0.000000 0.500000
#
# Coordination Sequence:
#
# PCOD9017819 Si02
#       7
#     2   2   2   2   2   2   2
#     4  11  27  44  63  95 130 174 217 262 323 392
#     4  10  22  43  68  92 126 173 217 261 322 377
#     4  11  21  40  68  99 123 168 216 268 315 380
#     4  10  21  43  66  96 132 164 212 274 316 376
#     4  10  23  41  66  93 131 168 217 259 327 377
#     4  11  23  43  65  94 132 168 211 264 320 385
#     4  11  21  39  67 101 127 163 216 264 320 375
#
# _framework density 25.168271000000001
#
# number of rings (size 3 to 8) (size 9 to 14) (size 15 to 20)
#    0.000    1.429    5.714    0.857    2.000    5.714 
#    5.143    0.714    0.000    0.000    0.000    0.000 
#    0.000    0.000    0.000    0.000    0.000    0.000 
#
# Total GULP energy -78277.785346 kJ/mol
# GULP energy per Si atom -5591.270382 kJ/mol
# Density = 2.511099 g / cm^3
# Si number density = 25.168271 Si / 1000 Ang^3
#
#
#
# Elastic Constant Matrix: (Units=GPa)
#
#
# Indices 1 2 3 4 5 6 
#
# 1 127.0917 6.0956 33.7104 -20.2454 2.2241 5.0387
# 2 6.0956 24.8364 11.0046 -12.3545 0.4563 8.4948
# 3 33.7104 11.0046 116.7887 -30.5740 -12.9465 11.4282
# 4 -20.2454 -12.3545 -30.5740 37.6656 12.6713 -10.1011
# 5 2.2241 0.4563 -12.9465 12.6713 47.9857 -10.9870
# 6 5.0387 8.4948 11.4282 -10.1011 -10.9870 47.9568
#
#
#
# Elastic Compliance Matrix: (Units=1/GPa)
#
#
# Indices 1 2 3 4 5 6 
#
# 1 0.009033 0.000848 -0.001758 0.004349 -0.002106 -0.000247
# 2 0.000848 0.051429 -0.000658 0.017223 -0.006853 -0.006985
# 3 -0.001758 -0.000658 0.011260 0.007483 0.001019 -0.000572
# 4 0.004349 0.017223 0.007483 0.044345 -0.009635 0.001842
# 5 -0.002106 -0.006853 0.001019 -0.009635 0.024938 0.004876
# 6 -0.000247 -0.006985 -0.000572 0.001842 0.004876 0.023757
#
#
# Mechanical properties :
#
#
# Convention : Reuss Voigt Hill
#
# Bulk Modulus (GPa) = 14.58023 41.14868 27.86446
# Shear Modulus (GPa) = 26.21086 41.24871 33.72979
#
# Velocity S-wave (km/s) = 3.23061 4.05275 3.66481
# Velocity P-wave (km/s) = 4.44089 6.18745 5.38545
#
# Compressibility (1/GPa) = 0.06858603
#
# Stress axis : x y z
#
# Youngs Moduli (GPa) = 110.70015 19.44427 88.81146
#
# Poissons Ratio (x) = -0.01650 0.15615
# Poissons Ratio (y) = -0.09392 0.05846
# Poissons Ratio (z) = 0.19463 0.01280
#
# Static dielectric constant tensor:
#      x y z
#    x 2.028880 0.064890 0.011490 
#    y 0.064890 2.011660 0.032130 
#    z 0.011490 0.032130 2.038800 
# 
# From -- ./inp_files/517451.got.cif
#   From: 2010.05.17/outbox.cif.g08.bks.cpg/sg2_259_cif.got.tgz:517451.got - 2010.06.03 11:33:40.
