data_PCOD9017945
_publ_section_title
;
Structure prediction by ZEFSAII (Michael W. Deem and Ramdas Pophale) SiO2 
 PCOD9017945
Probable space group: P -1
;
_chemical_formula_sum "Si O2"
_cell_formula_units_Z 16
_cell_length_a 11.306267
_cell_length_b 7.035569
_cell_length_c 18.370898
_cell_angle_alpha 139.322417
_cell_angle_beta 50.526636
_cell_angle_gamma 112.712921
_cell_volume 721.742744
_symmetry_space_group_name_H-M "P -1"
_symmetry_group_IT_number 2
_symmetry_cell_setting 'triclinic'
loop_
_space_group_symop_operation_xyz
x,y,z
-x,-y,-z
loop_
_atom_site_type_symbol
_atom_site_label
_atom_site_fract_x
_atom_site_fract_y
_atom_site_fract_z
Si Si1 0.617463 0.772271 0.771709
Si Si2 0.389350 0.436655 0.830087
Si Si3 0.203944 0.703102 0.117973
Si Si4 0.458838 0.179091 0.348568
Si Si5 0.089122 0.656100 0.450230
Si Si6 0.895822 0.724473 0.161935
Si Si7 0.239121 0.628427 0.660414
Si Si8 0.957570 0.358042 0.704000
O O1 0.476226 0.704966 0.855881
O O2 0.564125 0.880319 0.743731
O O3 0.731594 0.450846 0.628976
O O4 0.719824 0.005526 0.827189
O O5 0.263060 0.406427 0.807627
O O6 0.504065 0.121823 0.706351
O O7 0.297551 0.493578 0.959263
O O8 0.194966 0.574096 0.165347
O O9 0.020962 0.764809 0.185676
O O10 0.306779 0.394120 0.502721
O O11 0.607905 0.338309 0.344553
O O12 0.074669 0.556793 0.343136
O O13 0.000000 0.500000 0.500000
O O14 0.020012 0.004487 0.579119
O O15 0.832346 0.048487 0.248380
O O16 0.000000 0.500000 0.000000
O O17 0.097087 0.515880 0.721467
#
# Coordination Sequence:
#
# PCOD9017945 Si02
#       8
#     2   2   2   2   2   2   2   2
#     4  12  24  40  69  94 132 178 218 274 333 387
#     4  10  24  47  64  91 137 177 221 272 326 391
#     4  11  24  42  66 100 130 173 227 271 327 395
#     4  10  24  43  63  98 132 171 221 272 328 399
#     4  11  23  42  63  97 139 171 216 276 330 393
#     4   9  21  45  69  94 131 172 222 274 325 393
#     4  10  21  43  67  95 134 169 220 275 330 397
#     4  11  24  39  67  99 131 173 220 274 334 381
#
# _framework density 22.168565000000001
#
# number of rings (size 3 to 8) (size 9 to 14) (size 15 to 20)
#    0.000    1.500    1.250    2.625    7.000    0.500 
#    6.750    4.375    0.000    0.000    0.000    0.000 
#    0.000    0.000    0.000    0.000    0.000    0.000 
#
# Total GULP energy -89351.317373 kJ/mol
# GULP energy per Si atom -5584.457336 kJ/mol
# Density = 2.211811 g / cm^3
# Si number density = 22.168565 Si / 1000 Ang^3
#
#
#
# Elastic Constant Matrix: (Units=GPa)
#
#
# Indices 1 2 3 4 5 6 
#
# 1 82.1791 47.6962 13.4089 -12.7284 7.9356 1.9440
# 2 47.6962 118.2245 23.0629 -19.3585 -0.4301 27.9102
# 3 13.4089 23.0629 72.5841 -4.7308 -2.0549 1.9470
# 4 -12.7284 -19.3585 -4.7308 27.0559 1.4947 -9.2220
# 5 7.9356 -0.4301 -2.0549 1.4947 27.8946 4.2347
# 6 1.9440 27.9102 1.9470 -9.2220 4.2347 31.6473
#
#
#
# Elastic Compliance Matrix: (Units=1/GPa)
#
#
# Indices 1 2 3 4 5 6 
#
# 1 0.018710 -0.008610 -0.000779 0.006049 -0.007237 0.009223
# 2 -0.008610 0.016015 -0.002877 0.002096 0.004406 -0.013397
# 3 -0.000779 -0.002877 0.014862 0.000717 0.000968 0.001750
# 4 0.006049 0.002096 0.000717 0.045803 -0.005892 0.011872
# 5 -0.007237 0.004406 0.000968 -0.005892 0.039967 -0.010565
# 6 0.009223 -0.013397 0.001750 0.011872 -0.010565 0.047612
#
#
# Mechanical properties :
#
#
# Convention : Reuss Voigt Hill
#
# Bulk Modulus (GPa) = 39.91060 49.03597 44.47328
# Shear Modulus (GPa) = 23.16385 29.90754 26.53569
#
# Velocity S-wave (km/s) = 3.23599 3.67699 3.46352
# Velocity P-wave (km/s) = 5.65725 6.33992 6.00829
#
# Compressibility (1/GPa) = 0.02505600
#
# Stress axis : x y z
#
# Youngs Moduli (GPa) = 53.44694 62.44105 67.28363
#
# Poissons Ratio (x) = 0.53759 0.05241
# Poissons Ratio (y) = 0.46015 0.19361
# Poissons Ratio (z) = 0.04163 0.17967
#
# Static dielectric constant tensor:
#      x y z
#    x 1.877600 0.010630 0.014440 
#    y 0.010630 1.797190 -0.035900 
#    z 0.014440 -0.035900 1.831650 
# 
# From -- ./inp_files/564564.got.cif
#   From: 2010.05.17/outbox.cif.g08.bks.cpg/sg2_283_cif.got.tgz:564564.got - 2010.06.03 11:33:40.
