data_PCOD9017343
_publ_section_title
;
Structure prediction by ZEFSAII (Michael W. Deem and Ramdas Pophale) SiO2 
 PCOD9017343
Probable space group: P -1
;
_chemical_formula_sum "Si O2"
_cell_formula_units_Z 12
_cell_length_a 8.793595
_cell_length_b 10.108368
_cell_length_c 9.254062
_cell_angle_alpha 43.811871
_cell_angle_beta 92.678313
_cell_angle_gamma 113.824320
_cell_volume 480.465094
_symmetry_space_group_name_H-M "P -1"
_symmetry_group_IT_number 2
_symmetry_cell_setting 'triclinic'
loop_
_space_group_symop_operation_xyz
x,y,z
-x,-y,-z
loop_
_atom_site_type_symbol
_atom_site_label
_atom_site_fract_x
_atom_site_fract_y
_atom_site_fract_z
Si Si1 0.850495 0.459911 0.851903
Si Si2 0.583570 0.762318 0.743097
Si Si3 0.241206 0.240654 0.529760
Si Si4 0.163345 0.066455 0.128207
Si Si5 0.792910 0.471851 0.172164
Si Si6 0.339584 0.009206 0.912926
O O1 0.740550 0.524155 0.690884
O O2 0.055903 0.565751 0.729061
O O3 0.850896 0.538962 0.952774
O O4 0.755885 0.191988 0.049467
O O5 0.726614 0.832157 0.567347
O O6 0.687161 0.907139 0.772240
O O7 0.408016 0.742241 0.682732
O O8 0.500000 0.500000 0.000000
O O9 0.376195 0.229805 0.655018
O O10 0.037834 0.081182 0.703094
O O11 0.203494 0.320907 0.912819
O O12 0.196907 0.972589 0.058632
O O13 0.500000 0.000000 0.000000
#
# Coordination Sequence:
#
# PCOD9017343 Si02
#       6
#     2   2   2   2   2   2
#     4  11  24  45  73 105 142 184 240 287 355 419
#     4  10  21  42  74 107 138 184 240 291 344 415
#     4  12  25  45  78 102 142 195 233 290 364 417
#     4  11  23  47  72 104 148 186 232 297 352 417
#     4  10  22  44  74 103 147 180 232 304 337 415
#     4  12  29  48  70 107 149 182 239 302 352 426
#
# _framework density 24.975798999999999
#
# number of rings (size 3 to 8) (size 9 to 14) (size 15 to 20)
#    0.000    1.000    5.000    2.000    2.333    2.667 
#    0.000    2.500    0.000    0.000    0.000    0.000 
#    0.000    0.000    0.000    0.000    0.000    0.000 
#
# Total GULP energy -67128.848446 kJ/mol
# GULP energy per Si atom -5594.070704 kJ/mol
# Density = 2.491895 g / cm^3
# Si number density = 24.975799 Si / 1000 Ang^3
#
#
#
# Elastic Constant Matrix: (Units=GPa)
#
#
# Indices 1 2 3 4 5 6 
#
# 1 130.2992 20.5819 25.6565 6.5286 29.5520 -3.3687
# 2 20.5819 64.6313 18.2324 0.4689 3.3670 -3.2430
# 3 25.6565 18.2324 81.5816 3.7131 18.1644 -5.9614
# 4 6.5286 0.4689 3.7131 32.4131 -3.9171 -2.6994
# 5 29.5520 3.3670 18.1644 -3.9171 45.4797 6.4026
# 6 -3.3687 -3.2430 -5.9614 -2.6994 6.4026 29.0023
#
#
#
# Elastic Compliance Matrix: (Units=1/GPa)
#
#
# Indices 1 2 3 4 5 6 
#
# 1 0.009843 -0.002442 -0.000893 -0.002456 -0.006331 0.001856
# 2 -0.002442 0.017157 -0.003433 0.000893 0.001674 0.000643
# 3 -0.000893 -0.003433 0.014958 -0.001880 -0.005822 0.003697
# 4 -0.002456 0.000893 -0.001880 0.032250 0.004867 0.001355
# 5 -0.006331 0.001674 -0.005822 0.004867 0.029831 -0.007878
# 6 0.001856 0.000643 0.003697 0.001355 -0.007878 0.037393
#
#
# Mechanical properties :
#
#
# Convention : Reuss Voigt Hill
#
# Bulk Modulus (GPa) = 35.18300 45.05044 40.11672
# Shear Modulus (GPa) = 30.40607 35.51511 32.96059
#
# Velocity S-wave (km/s) = 3.49294 3.77501 3.63671
# Velocity P-wave (km/s) = 5.51225 6.08915 5.80787
#
# Compressibility (1/GPa) = 0.02842282
#
# Stress axis : x y z
#
# Youngs Moduli (GPa) = 101.59380 58.28532 66.85533
#
# Poissons Ratio (x) = 0.14233 0.05968
# Poissons Ratio (y) = 0.24809 0.22950
# Poissons Ratio (z) = 0.09070 0.20008
#
# Static dielectric constant tensor:
#      x y z
#    x 2.051040 0.003280 0.057510 
#    y 0.003280 1.904570 -0.016790 
#    z 0.057510 -0.016790 1.988130 
# 
# From -- ./inp_files/148654.got.cif
#   From: 2010.05.17/outbox.cif.g08.bks.cpg/sg2_75_cif.got.tgz:148654.got - 2010.06.03 11:33:40.
