data_PCOD9017171
_publ_section_title
;
Structure prediction by ZEFSAII (Michael W. Deem and Ramdas Pophale) SiO2 
 PCOD9017171
Probable space group: P -1
;
_chemical_formula_sum "Si O2"
_cell_formula_units_Z 16
_cell_length_a 17.842245
_cell_length_b 16.023644
_cell_length_c 7.974437
_cell_angle_alpha 34.457740
_cell_angle_beta 136.799772
_cell_angle_gamma 148.447575
_cell_volume 672.329593
_symmetry_space_group_name_H-M "P -1"
_symmetry_group_IT_number 2
_symmetry_cell_setting 'triclinic'
loop_
_space_group_symop_operation_xyz
x,y,z
-x,-y,-z
loop_
_atom_site_type_symbol
_atom_site_label
_atom_site_fract_x
_atom_site_fract_y
_atom_site_fract_z
Si Si1 0.105595 0.051551 0.845894
Si Si2 0.426795 0.978040 0.240293
Si Si3 0.606780 0.510362 0.035206
Si Si4 0.944510 0.321669 0.587628
Si Si5 0.293009 0.851689 0.764795
Si Si6 0.591547 0.708943 0.218599
Si Si7 0.208708 0.585678 0.363417
Si Si8 0.177417 0.058863 0.344072
O O1 0.250131 0.205001 0.722840
O O2 0.974318 0.052620 0.623812
O O3 0.049244 0.837372 0.063258
O O4 0.149248 0.076222 0.073109
O O5 0.540456 0.024475 0.208267
O O6 0.500000 0.000000 0.500000
O O7 0.279496 0.766155 0.307355
O O8 0.402049 0.131575 0.938038
O O9 0.703336 0.484602 0.341077
O O10 0.500000 0.500000 0.000000
O O11 0.504734 0.338205 0.024423
O O12 0.711515 0.721962 0.771247
O O13 0.786470 0.209291 0.443130
O O14 0.000000 0.500000 0.500000
O O15 0.046507 0.413569 0.437599
O O16 0.249949 0.962626 0.609901
O O17 0.231825 0.664495 0.084739
O O18 0.500000 0.500000 0.500000
#
# Coordination Sequence:
#
# PCOD9017171 Si02
#       8
#     2   2   2   2   2   2   2   2
#     4  10  21  45  70  98 135 183 227 287 351 416
#     4  12  24  47  68  98 146 187 231 286 356 418
#     4  12  24  43  72 100 136 187 236 279 353 422
#     4  11  23  44  71 102 139 185 231 283 364 427
#     4  11  26  42  70 106 139 184 236 297 346 410
#     4  12  28  45  70 104 139 182 234 292 351 417
#     4  12  25  44  69 104 138 183 239 289 345 420
#     4  10  21  42  71  99 134 178 234 282 345 411
#
# _framework density 23.797851000000001
#
# number of rings (size 3 to 8) (size 9 to 14) (size 15 to 20)
#    0.000    0.750    3.750    4.500    3.500    0.000 
#    2.250    0.625    0.000    0.000    0.000    0.000 
#    0.000    0.000    0.000    0.000    0.000    0.000 
#
# Total GULP energy -89623.557676 kJ/mol
# GULP energy per Si atom -5601.472355 kJ/mol
# Density = 2.374369 g / cm^3
# Si number density = 23.797851 Si / 1000 Ang^3
#
#
#
# Elastic Constant Matrix: (Units=GPa)
#
#
# Indices 1 2 3 4 5 6 
#
# 1 113.3945 53.4315 52.0716 -5.6865 19.6911 33.2922
# 2 53.4315 93.2545 6.3777 -16.8914 17.7077 20.3376
# 3 52.0716 6.3777 81.9403 -17.6515 14.6976 15.2814
# 4 -5.6865 -16.8914 -17.6515 36.7185 -3.0743 -6.2889
# 5 19.6911 17.7077 14.6976 -3.0743 34.1121 -9.0252
# 6 33.2922 20.3376 15.2814 -6.2889 -9.0252 66.2732
#
#
#
# Elastic Compliance Matrix: (Units=1/GPa)
#
#
# Indices 1 2 3 4 5 6 
#
# 1 0.022608 -0.011873 -0.013873 -0.009925 -0.003369 -0.005915
# 2 -0.011873 0.021177 0.010484 0.011730 -0.008388 -0.002981
# 3 -0.013873 0.010484 0.024774 0.013688 -0.007313 -0.001657
# 4 -0.009925 0.011730 0.013688 0.037719 -0.002468 0.001473
# 5 -0.003369 -0.008388 -0.007313 -0.002468 0.041553 0.011377
# 6 -0.005915 -0.002981 -0.001657 0.001473 0.011377 0.021047
#
#
# Mechanical properties :
#
#
# Convention : Reuss Voigt Hill
#
# Bulk Modulus (GPa) = 26.29228 56.92789 41.61008
# Shear Modulus (GPa) = 23.57610 39.20131 31.38870
#
# Velocity S-wave (km/s) = 3.15092 4.06305 3.63571
# Velocity P-wave (km/s) = 4.93051 6.78119 5.92851
#
# Compressibility (1/GPa) = 0.03803398
#
# Stress axis : x y z
#
# Youngs Moduli (GPa) = 44.23194 47.22207 40.36541
#
# Poissons Ratio (x) = 0.56065 0.56001
# Poissons Ratio (y) = 0.52515 -0.42319
# Poissons Ratio (z) = 0.61365 -0.49508
#
# Static dielectric constant tensor:
#      x y z
#    x 1.880740 -0.043160 -0.001910 
#    y -0.043160 1.887030 0.000580 
#    z -0.001910 0.000580 1.887380 
# 
# From -- ./inp_files/244105.got.cif
#   From: 2010.05.17/outbox.cif.g08.bks.cpg/sg2_123_cif.got.tgz:244105.got - 2010.06.03 11:33:40.
