data_PCOD9017990
_publ_section_title
;
Structure prediction by ZEFSAII (Michael W. Deem and Ramdas Pophale) SiO2 
 PCOD9017990
Probable space group: P -1
;
_chemical_formula_sum "Si O2"
_cell_formula_units_Z 16
_cell_length_a 16.002059
_cell_length_b 13.045219
_cell_length_c 9.355277
_cell_angle_alpha 117.411864
_cell_angle_beta 110.908530
_cell_angle_gamma 24.168812
_cell_volume 699.003489
_symmetry_space_group_name_H-M "P -1"
_symmetry_group_IT_number 2
_symmetry_cell_setting 'triclinic'
loop_
_space_group_symop_operation_xyz
x,y,z
-x,-y,-z
loop_
_atom_site_type_symbol
_atom_site_label
_atom_site_fract_x
_atom_site_fract_y
_atom_site_fract_z
Si Si1 0.575962 0.981509 0.174814
Si Si2 0.135788 0.959112 0.055932
Si Si3 0.021234 0.111232 0.622167
Si Si4 0.730433 0.070327 0.591818
Si Si5 0.229952 0.457833 0.847495
Si Si6 0.402912 0.620388 0.740597
Si Si7 0.409014 0.363854 0.159759
Si Si8 0.462152 0.169661 0.523398
O O1 0.745022 0.702827 0.179276
O O2 0.596570 0.083570 0.179862
O O3 0.419846 0.192784 0.346043
O O4 0.500000 0.000000 0.000000
O O5 0.207469 0.927907 0.230231
O O6 0.328681 0.704248 0.910970
O O7 0.994318 0.224582 0.070209
O O8 0.000000 0.000000 0.000000
O O9 0.811104 0.403608 0.750779
O O10 0.098332 0.099860 0.530383
O O11 0.205712 0.888983 0.704756
O O12 0.000000 0.000000 0.500000
O O13 0.508084 0.379895 0.601703
O O14 0.666104 0.014142 0.551117
O O15 0.292732 0.409270 0.689003
O O16 0.390946 0.338612 0.970912
O O17 0.570022 0.524663 0.759059
O O18 0.500000 0.000000 0.500000
#
# Coordination Sequence:
#
# PCOD9017990 Si02
#       8
#     2   2   2   2   2   2   2   2
#     4   9  21  40  71  94 124 179 222 278 351 399
#     4  12  24  42  67 103 142 181 231 285 341 418
#     4  12  25  41  64 104 142 176 226 288 344 419
#     4  12  25  40  68 105 138 186 230 277 358 410
#     4  10  21  43  67  97 133 179 229 283 342 397
#     4  12  24  43  67  99 139 181 228 277 350 422
#     4  11  22  43  70  97 139 180 227 283 349 412
#     4  10  22  43  70  93 132 180 231 285 339 404
#
# _framework density 22.889728999999999
#
# number of rings (size 3 to 8) (size 9 to 14) (size 15 to 20)
#    0.000    1.000    2.500    4.500    3.500    0.000 
#    0.000    3.125   19.250    0.000    0.000    0.000 
#    0.000    0.000    0.000    0.000    0.000    0.000 
#
# Total GULP energy -89250.062411 kJ/mol
# GULP energy per Si atom -5578.128901 kJ/mol
# Density = 2.283763 g / cm^3
# Si number density = 22.889729 Si / 1000 Ang^3
#
#
#
# Elastic Constant Matrix: (Units=GPa)
#
#
# Indices 1 2 3 4 5 6 
#
# 1 125.0440 26.7077 38.1073 -0.8981 -0.6832 3.7466
# 2 26.7077 82.0740 8.4233 0.1580 -1.8715 14.1687
# 3 38.1073 8.4233 136.2348 -5.6206 -13.0216 -11.9318
# 4 -0.8981 0.1580 -5.6206 31.8913 0.7538 -3.9013
# 5 -0.6832 -1.8715 -13.0216 0.7538 32.5838 8.6424
# 6 3.7466 14.1687 -11.9318 -3.9013 8.6424 31.0355
#
#
#
# Elastic Compliance Matrix: (Units=1/GPa)
#
#
# Indices 1 2 3 4 5 6 
#
# 1 0.009379 -0.002678 -0.002608 -0.000251 -0.000803 -0.000721
# 2 -0.002678 0.014446 -0.000598 -0.001211 0.002513 -0.007354
# 3 -0.002608 -0.000598 0.008721 0.001837 0.002426 0.003496
# 4 -0.000251 -0.001211 0.001837 0.032430 -0.001635 0.005821
# 5 -0.000803 0.002513 0.002426 -0.001635 0.034456 -0.009918
# 6 -0.000721 -0.007354 0.003496 0.005821 -0.009918 0.040503
#
#
# Mechanical properties :
#
#
# Convention : Reuss Voigt Hill
#
# Bulk Modulus (GPa) = 48.12784 54.42549 51.27666
# Shear Modulus (GPa) = 31.52013 37.10975 34.31494
#
# Velocity S-wave (km/s) = 3.71488 4.03083 3.87608
# Velocity P-wave (km/s) = 6.28268 6.74480 6.51784
#
# Compressibility (1/GPa) = 0.02077799
#
# Stress axis : x y z
#
# Youngs Moduli (GPa) = 106.61663 69.22311 114.67012
#
# Poissons Ratio (x) = 0.18537 0.29908
# Poissons Ratio (y) = 0.28551 0.06857
# Poissons Ratio (z) = 0.27808 0.04139
#
# Static dielectric constant tensor:
#      x y z
#    x 1.891440 0.026960 0.024130 
#    y 0.026960 1.896670 -0.021590 
#    z 0.024130 -0.021590 1.949700 
# 
# From -- ./inp_files/308083.got.cif
#   From: 2010.05.17/outbox.cif.g08.bks.cpg/sg2_155_cif.got.tgz:308083.got - 2010.06.03 11:33:40.
