data_PCOD9017166
_publ_section_title
;
Structure prediction by ZEFSAII (Michael W. Deem and Ramdas Pophale) SiO2 
 PCOD9017166
Probable space group: P -1
;
_chemical_formula_sum "Si O2"
_cell_formula_units_Z 16
_cell_length_a 8.981899
_cell_length_b 15.289408
_cell_length_c 8.895390
_cell_angle_alpha 87.408341
_cell_angle_beta 95.648756
_cell_angle_gamma 39.306081
_cell_volume 755.661489
_symmetry_space_group_name_H-M "P -1"
_symmetry_group_IT_number 2
_symmetry_cell_setting 'triclinic'
loop_
_space_group_symop_operation_xyz
x,y,z
-x,-y,-z
loop_
_atom_site_type_symbol
_atom_site_label
_atom_site_fract_x
_atom_site_fract_y
_atom_site_fract_z
Si Si1 0.550170 0.656100 0.857127
Si Si2 0.437358 0.459339 0.864845
Si Si3 0.234953 0.142352 0.022489
Si Si4 0.187405 0.622706 0.251464
Si Si5 0.651444 0.786416 0.692748
Si Si6 0.995762 0.928560 0.877366
Si Si7 0.041606 0.701154 0.572529
Si Si8 0.846633 0.988685 0.545847
O O1 0.639165 0.536000 0.769733
O O2 0.662253 0.689504 0.788047
O O3 0.261533 0.798601 0.838506
O O4 0.627700 0.596605 0.040936
O O5 0.671857 0.353912 0.790703
O O6 0.225629 0.591021 0.730523
O O7 0.500000 0.500000 0.000000
O O8 0.279313 0.175997 0.175399
O O9 0.091108 0.121160 0.053151
O O10 0.062748 0.268226 0.873684
O O11 0.500000 0.000000 0.000000
O O12 0.148290 0.640380 0.422641
O O13 0.823706 0.733481 0.576335
O O14 0.385438 0.914215 0.589009
O O15 0.810647 0.028882 0.714380
O O16 0.000000 0.000000 0.000000
O O17 0.965963 0.837455 0.567887
O O18 0.000000 0.000000 0.500000
#
# Coordination Sequence:
#
# PCOD9017166 Si02
#       8
#     2   2   2   2   2   2   2   2
#     4  11  24  48  73 106 144 193 253 292 366 440
#     4  10  21  42  71  98 137 191 242 299 349 433
#     4  12  26  46  75 108 149 190 245 304 373 438
#     4  11  25  43  75 107 146 193 243 302 368 443
#     4  12  26  46  72 106 153 193 238 309 374 433
#     4  12  26  48  73 108 141 193 252 301 361 437
#     4  12  26  45  71 110 147 193 240 304 379 428
#     4  12  26  45  74 102 147 192 246 302 360 443
#
# _framework density 21.173500000000001
#
# number of rings (size 3 to 8) (size 9 to 14) (size 15 to 20)
#    0.000    0.500    3.750    5.250    3.500    2.500 
#    2.250    0.000    0.000    0.000    0.000    0.000 
#    0.000    0.000    0.000    0.000    0.000    0.000 
#
# Total GULP energy -89375.348696 kJ/mol
# GULP energy per Si atom -5585.959294 kJ/mol
# Density = 2.112531 g / cm^3
# Si number density = 21.173500 Si / 1000 Ang^3
#
#
#
# Elastic Constant Matrix: (Units=GPa)
#
#
# Indices 1 2 3 4 5 6 
#
# 1 148.0423 53.8052 56.3917 0.0441 -21.6929 7.6160
# 2 53.8052 77.7603 54.4059 -0.4144 -4.0742 -3.7280
# 3 56.3917 54.4059 165.6714 -8.7166 -8.0040 10.2876
# 4 0.0441 -0.4144 -8.7166 47.9111 -7.6720 -0.1115
# 5 -21.6929 -4.0742 -8.0040 -7.6720 50.3895 -1.3107
# 6 7.6160 -3.7280 10.2876 -0.1115 -1.3107 33.7578
#
#
#
# Elastic Compliance Matrix: (Units=1/GPa)
#
#
# Indices 1 2 3 4 5 6 
#
# 1 0.010052 -0.006142 -0.001057 0.000324 0.003648 -0.002481
# 2 -0.006142 0.020933 -0.005251 -0.001046 -0.001809 0.005224
# 3 -0.001057 -0.005251 0.008412 0.001579 0.000622 -0.002875
# 4 0.000324 -0.001046 0.001579 0.021726 0.003601 -0.000458
# 5 0.003648 -0.001809 0.000622 0.003601 0.021907 -0.000350
# 6 -0.002481 0.005224 -0.002875 -0.000458 -0.000350 0.031621
#
#
# Mechanical properties :
#
#
# Convention : Reuss Voigt Hill
#
# Bulk Modulus (GPa) = 68.97544 80.07552 74.52548
# Shear Modulus (GPa) = 34.63023 41.53641 38.08332
#
# Velocity S-wave (km/s) = 4.04858 4.43393 4.24563
# Velocity P-wave (km/s) = 7.38252 8.00711 7.70115
#
# Compressibility (1/GPa) = 0.01449791
#
# Stress axis : x y z
#
# Youngs Moduli (GPa) = 99.48593 47.77037 118.87844
#
# Poissons Ratio (x) = 0.29338 0.12569
# Poissons Ratio (y) = 0.61099 0.62421
# Poissons Ratio (z) = 0.10518 0.25083
#
# Static dielectric constant tensor:
#      x y z
#    x 1.961240 -0.015350 -0.118610 
#    y -0.015350 1.810130 -0.019290 
#    z -0.118610 -0.019290 1.841570 
# 
# From -- ./inp_files/207377.got.cif
#   From: 2010.05.17/outbox.cif.g08.bks.cpg/sg2_104_cif.got.tgz:207377.got - 2010.06.03 11:33:40.
