data_PCOD9017036
_publ_section_title
;
Structure prediction by ZEFSAII (Michael W. Deem and Ramdas Pophale) SiO2 
 PCOD9017036
Probable space group: P -1
;
_chemical_formula_sum "Si O2"
_cell_formula_units_Z 16
_cell_length_a 15.027828
_cell_length_b 8.490967
_cell_length_c 11.316952
_cell_angle_alpha 100.241947
_cell_angle_beta 39.300714
_cell_angle_gamma 104.368895
_cell_volume 885.798457
_symmetry_space_group_name_H-M "P -1"
_symmetry_group_IT_number 2
_symmetry_cell_setting 'triclinic'
loop_
_space_group_symop_operation_xyz
x,y,z
-x,-y,-z
loop_
_atom_site_type_symbol
_atom_site_label
_atom_site_fract_x
_atom_site_fract_y
_atom_site_fract_z
Si Si1 0.403089 0.520975 0.935292
Si Si2 0.287732 0.401189 0.287914
Si Si3 0.183693 0.310155 0.975279
Si Si4 0.054818 0.343800 0.872747
Si Si5 0.033438 0.482119 0.664569
Si Si6 0.773267 0.208032 0.819807
Si Si7 0.868499 0.962079 0.538399
Si Si8 0.893043 0.040507 0.889892
O O1 0.337640 0.417058 0.103016
O O2 0.323352 0.431440 0.892664
O O3 0.357741 0.697403 0.020550
O O4 0.572281 0.539893 0.770161
O O5 0.168848 0.514665 0.444886
O O6 0.217893 0.216412 0.367298
O O7 0.050475 0.380377 0.182807
O O8 0.175597 0.129383 0.006848
O O9 0.166017 0.309038 0.851986
O O10 0.093054 0.397649 0.706473
O O11 0.931451 0.186179 0.963768
O O12 0.000000 0.500000 0.000000
O O13 0.914008 0.348496 0.706395
O O14 0.793146 0.095337 0.897674
O O15 0.776732 0.099408 0.685149
O O16 0.952734 0.973162 0.329624
O O17 0.000000 0.000000 0.500000
#
# Coordination Sequence:
#
# PCOD9017036 Si02
#       8
#     2   2   2   2   2   2   2   2
#     4  10  23  33  50  77 107 139 172 206 260 307
#     4  11  20  36  50  73 111 135 172 214 254 307
#     4  10  20  32  55  79 104 134 172 212 256 302
#     4   9  17  33  53  82 103 127 170 220 256 294
#     4   9  18  33  55  76 104 135 174 213 250 300
#     4   9  18  32  50  78 103 134 173 207 254 307
#     4  10  17  30  52  74 100 133 170 209 250 298
#     4  10  18  31  53  82 102 131 169 218 252 298
#
# _framework density 18.062798999999998
#
# number of rings (size 3 to 8) (size 9 to 14) (size 15 to 20)
#    0.000    2.250    3.750    2.625    1.750    1.500 
#    0.000    0.625    0.000    0.000    0.000    3.500 
#    0.000    0.000    0.000    0.000    0.000    0.000 
#
# Total GULP energy -89130.923199 kJ/mol
# GULP energy per Si atom -5570.682700 kJ/mol
# Density = 1.802169 g / cm^3
# Si number density = 18.062799 Si / 1000 Ang^3
#
#
#
# Elastic Constant Matrix: (Units=GPa)
#
#
# Indices 1 2 3 4 5 6 
#
# 1 60.0989 12.3955 14.4467 -3.5693 -3.8800 -2.5846
# 2 12.3955 87.1559 8.2228 6.2789 7.8926 -3.2033
# 3 14.4467 8.2228 31.8192 -5.7788 -5.8530 5.4416
# 4 -3.5693 6.2789 -5.7788 21.2985 1.7075 5.0730
# 5 -3.8800 7.8926 -5.8530 1.7075 15.4426 2.1930
# 6 -2.5846 -3.2033 5.4416 5.0730 2.1930 25.7270
#
#
#
# Elastic Compliance Matrix: (Units=1/GPa)
#
#
# Indices 1 2 3 4 5 6 
#
# 1 0.019379 -0.002131 -0.008214 0.000728 0.002328 0.003077
# 2 -0.002131 0.013990 -0.006606 -0.006675 -0.010177 0.005109
# 3 -0.008214 -0.006606 0.045935 0.015304 0.019307 -0.016027
# 4 0.000728 -0.006675 0.015304 0.056477 0.005364 -0.015588
# 5 0.002328 -0.010177 0.019307 0.005364 0.079101 -0.012917
# 6 0.003077 0.005109 -0.016027 -0.015588 -0.012917 0.047380
#
#
# Mechanical properties :
#
#
# Convention : Reuss Voigt Hill
#
# Bulk Modulus (GPa) = 22.02465 27.68934 24.85699
# Shear Modulus (GPa) = 16.06181 22.09422 19.07801
#
# Velocity S-wave (km/s) = 2.98521 3.50121 3.25346
# Velocity P-wave (km/s) = 4.90936 5.63093 5.28248
#
# Compressibility (1/GPa) = 0.04540367
#
# Stress axis : x y z
#
# Youngs Moduli (GPa) = 51.60206 71.47841 21.76972
#
# Poissons Ratio (x) = 0.15235 0.17881
# Poissons Ratio (y) = 0.10998 0.14380
# Poissons Ratio (z) = 0.42384 0.47215
#
# Static dielectric constant tensor:
#      x y z
#    x 1.644000 -0.019050 0.021930 
#    y -0.019050 1.647040 0.029990 
#    z 0.021930 0.029990 1.649260 
# 
# From -- ./inp_files/178963.got.cif
#   From: 2010.05.17/outbox.cif.g08.bks.cpg/sg2_90_cif.got.tgz:178963.got - 2010.06.03 11:33:40.
