data_PCOD9017489
_publ_section_title
;
Structure prediction by ZEFSAII (Michael W. Deem and Ramdas Pophale) SiO2 
 PCOD9017489
Probable space group: P -1
;
_chemical_formula_sum "Si O2"
_cell_formula_units_Z 16
_cell_length_a 26.267434
_cell_length_b 15.981094
_cell_length_c 6.737567
_cell_angle_alpha 105.147225
_cell_angle_beta 102.361295
_cell_angle_gamma 17.034394
_cell_volume 793.334682
_symmetry_space_group_name_H-M "P -1"
_symmetry_group_IT_number 2
_symmetry_cell_setting 'triclinic'
loop_
_space_group_symop_operation_xyz
x,y,z
-x,-y,-z
loop_
_atom_site_type_symbol
_atom_site_label
_atom_site_fract_x
_atom_site_fract_y
_atom_site_fract_z
Si Si1 0.848504 0.802786 0.479500
Si Si2 0.805170 0.204772 0.568607
Si Si3 0.574049 0.167148 0.169304
Si Si4 0.291902 0.346132 0.261097
Si Si5 0.164205 0.697462 0.669847
Si Si6 0.332797 0.829473 0.055904
Si Si7 0.568063 0.775348 0.077968
Si Si8 0.930615 0.826085 0.268216
O O1 0.929682 0.746668 0.367875
O O2 0.000000 0.500000 0.500000
O O3 0.714795 0.959961 0.330429
O O4 0.741466 0.020104 0.701808
O O5 0.617633 0.512085 0.701154
O O6 0.819856 0.239662 0.403134
O O7 0.838236 0.053291 0.443149
O O8 0.960647 0.995121 0.707942
O O9 0.612987 0.172874 0.029829
O O10 0.566495 0.082225 0.028189
O O11 0.240081 0.499811 0.473600
O O12 0.123764 0.553019 0.212242
O O13 0.455181 0.026287 0.255143
O O14 0.342187 0.318026 0.087550
O O15 0.283998 0.506045 0.843690
O O16 0.500000 0.500000 0.000000
O O17 0.179425 0.025495 0.925366
#
# Coordination Sequence:
#
# PCOD9017489 Si02
#       8
#     2   2   2   2   2   2   2   2
#     4  11  27  46  68  97 132 172 220 274 329 381
#     4  10  21  43  63  96 135 165 216 270 314 390
#     4  11  25  41  66  98 131 166 220 269 318 395
#     4  10  23  43  61  96 131 166 216 268 315 394
#     4  10  22  41  63  93 133 173 209 261 325 382
#     4  11  25  43  69  97 128 175 218 269 332 384
#     4  11  24  39  65  96 131 171 213 262 326 389
#     4  10  24  43  67  94 131 167 221 268 319 391
#
# _framework density 20.168033000000001
#
# number of rings (size 3 to 8) (size 9 to 14) (size 15 to 20)
#    0.000    1.500    1.250    1.875    7.000    6.500 
#    4.500    0.000    0.000    0.000    0.000    0.000 
#    0.000    0.000    0.000    0.000    0.000    0.000 
#
# Total GULP energy -89464.289141 kJ/mol
# GULP energy per Si atom -5591.518071 kJ/mol
# Density = 2.012213 g / cm^3
# Si number density = 20.168033 Si / 1000 Ang^3
#
#
#
# Elastic Constant Matrix: (Units=GPa)
#
#
# Indices 1 2 3 4 5 6 
#
# 1 109.2229 46.1551 39.3938 -15.2171 10.6325 -4.9256
# 2 46.1551 86.3370 35.7214 -10.2284 1.8805 13.2404
# 3 39.3938 35.7214 69.8349 -15.6286 9.3766 1.7160
# 4 -15.2171 -10.2284 -15.6286 30.2974 4.1282 -1.8986
# 5 10.6325 1.8805 9.3766 4.1282 16.0927 2.6776
# 6 -4.9256 13.2404 1.7160 -1.8986 2.6776 33.8350
#
#
#
# Elastic Compliance Matrix: (Units=1/GPa)
#
#
# Indices 1 2 3 4 5 6 
#
# 1 0.015117 -0.007165 -0.002343 0.005761 -0.010305 0.006262
# 2 -0.007165 0.019383 -0.007468 -0.002709 0.009032 -0.009116
# 3 -0.002343 -0.007468 0.023768 0.010764 -0.014713 0.003144
# 4 0.005761 -0.002709 0.010764 0.043875 -0.021941 0.005551
# 5 -0.010305 0.009032 -0.014713 -0.021941 0.084120 -0.012177
# 6 0.006262 -0.009116 0.003144 0.005551 -0.012177 0.035150
#
#
# Mechanical properties :
#
#
# Convention : Reuss Voigt Hill
#
# Bulk Modulus (GPa) = 41.12543 56.43728 48.78135
# Shear Modulus (GPa) = 18.97743 25.65333 22.31538
#
# Velocity S-wave (km/s) = 3.07084 3.57035 3.32998
# Velocity P-wave (km/s) = 5.74536 6.71125 6.24700
#
# Compressibility (1/GPa) = 0.02431586
#
# Stress axis : x y z
#
# Youngs Moduli (GPa) = 66.15148 51.59132 42.07284
#
# Poissons Ratio (x) = 0.36966 0.09858
# Poissons Ratio (y) = 0.47399 0.31419
# Poissons Ratio (z) = 0.15500 0.38527
#
# Static dielectric constant tensor:
#      x y z
#    x 1.687960 0.009530 0.016280 
#    y 0.009530 1.703980 0.004640 
#    z 0.016280 0.004640 1.702890 
# 
# From -- ./inp_files/85374.got.cif
#   From: 2010.05.17/outbox.cif.g08.bks.cpg/sg2_43_cif.got.tgz:85374.got - 2010.06.03 11:33:40.
