data_PCOD9017645
_publ_section_title
;
Structure prediction by ZEFSAII (Michael W. Deem and Ramdas Pophale) SiO2 
 PCOD9017645
Probable space group: P -1
;
_chemical_formula_sum "Si O2"
_cell_formula_units_Z 16
_cell_length_a 10.013286
_cell_length_b 12.571977
_cell_length_c 9.228583
_cell_angle_alpha 57.279139
_cell_angle_beta 58.424489
_cell_angle_gamma 52.325165
_cell_volume 740.311778
_symmetry_space_group_name_H-M "P -1"
_symmetry_group_IT_number 2
_symmetry_cell_setting 'triclinic'
loop_
_space_group_symop_operation_xyz
x,y,z
-x,-y,-z
loop_
_atom_site_type_symbol
_atom_site_label
_atom_site_fract_x
_atom_site_fract_y
_atom_site_fract_z
Si Si1 0.692750 0.641596 0.922135
Si Si2 0.818924 0.330535 0.174279
Si Si3 0.782605 0.095666 0.841725
Si Si4 0.156832 0.072550 0.568591
Si Si5 0.784025 0.854190 0.845812
Si Si6 0.317057 0.632108 0.471897
Si Si7 0.986385 0.608213 0.553827
Si Si8 0.666882 0.183528 0.159262
O O1 0.671397 0.770858 0.942283
O O2 0.870115 0.597127 0.759715
O O3 0.528508 0.705175 0.859506
O O4 0.722616 0.500464 0.091809
O O5 0.760721 0.289949 0.388924
O O6 0.758767 0.268309 0.120541
O O7 0.028376 0.263728 0.113565
O O8 0.672636 0.254765 0.726163
O O9 0.982643 0.050350 0.707095
O O10 0.721097 0.986066 0.891695
O O11 0.769622 0.104497 0.014669
O O12 0.187281 0.092466 0.368121
O O13 0.111256 0.224225 0.556926
O O14 0.317285 0.938750 0.648385
O O15 0.500000 0.500000 0.500000
O O16 0.176193 0.584862 0.520955
O O17 0.000000 0.500000 0.500000
#
# Coordination Sequence:
#
# PCOD9017645 Si02
#       8
#     2   2   2   2   2   2   2   2
#     4  11  26  43  61  98 132 168 211 260 331 374
#     4  12  23  43  68  92 129 176 209 266 311 386
#     4  11  22  42  65  97 126 165 219 264 312 381
#     4  10  21  43  65  94 125 169 217 258 318 382
#     4  11  22  43  69  88 128 171 213 262 322 381
#     4  11  24  43  67  96 125 168 222 254 317 385
#     4  10  24  42  65  93 131 169 204 268 321 379
#     4  12  26  39  67  97 130 169 215 266 316 372
#
# _framework density 21.612514999999998
#
# number of rings (size 3 to 8) (size 9 to 14) (size 15 to 20)
#    0.000    1.000    5.000    3.000    5.250    2.500 
#    2.250    0.000    0.000    0.000    0.000    0.000 
#    0.000    0.000    0.000    0.000    0.000    0.000 
#
# Total GULP energy -89509.256572 kJ/mol
# GULP energy per Si atom -5594.328536 kJ/mol
# Density = 2.156332 g / cm^3
# Si number density = 21.612515 Si / 1000 Ang^3
#
#
#
# Elastic Constant Matrix: (Units=GPa)
#
#
# Indices 1 2 3 4 5 6 
#
# 1 99.3336 33.5719 52.8930 -6.2961 28.0432 3.2985
# 2 33.5719 79.7204 41.5287 -2.5576 17.6619 16.1098
# 3 52.8930 41.5287 65.4564 -14.6790 10.4508 16.0230
# 4 -6.2961 -2.5576 -14.6790 38.8496 -5.4502 17.2527
# 5 28.0432 17.6619 10.4508 -5.4502 25.6261 0.6464
# 6 3.2985 16.1098 16.0230 17.2527 0.6464 54.9570
#
#
#
# Elastic Compliance Matrix: (Units=1/GPa)
#
#
# Indices 1 2 3 4 5 6 
#
# 1 0.031069 0.006866 -0.030419 -0.014573 -0.029675 0.009915
# 2 0.006866 0.023124 -0.019441 -0.007590 -0.017163 0.001062
# 3 -0.030419 -0.019441 0.058447 0.028318 0.029346 -0.018751
# 4 -0.014573 -0.007590 0.028318 0.045009 0.019694 -0.019518
# 5 -0.029675 -0.017163 0.029346 0.019694 0.075769 -0.008818
# 6 0.009915 0.001062 -0.018751 -0.019518 -0.008818 0.028988
#
#
# Mechanical properties :
#
#
# Convention : Reuss Voigt Hill
#
# Bulk Modulus (GPa) = 37.52024 55.61083 46.56554
# Shear Modulus (GPa) = 13.99473 31.65432 22.82452
#
# Velocity S-wave (km/s) = 2.54742 3.83120 3.25326
# Velocity P-wave (km/s) = 5.10398 6.73480 5.97529
#
# Compressibility (1/GPa) = 0.02665228
#
# Stress axis : x y z
#
# Youngs Moduli (GPa) = 32.18670 43.24464 17.10959
#
# Poissons Ratio (x) = -0.29690 0.52045
# Poissons Ratio (y) = -0.22098 0.33262
# Poissons Ratio (z) = 0.97907 0.84070
#
# Static dielectric constant tensor:
#      x y z
#    x 1.775570 -0.015000 -0.023310 
#    y -0.015000 1.790150 0.004510 
#    z -0.023310 0.004510 1.770840 
# 
# From -- ./inp_files/184921.got.cif
#   From: 2010.05.17/outbox.cif.g08.bks.cpg/sg2_93_cif.got.tgz:184921.got - 2010.06.03 11:33:40.
