data_PCOD9017070
_publ_section_title
;
Structure prediction by ZEFSAII (Michael W. Deem and Ramdas Pophale) SiO2 
 PCOD9017070
Probable space group: P -1
;
_chemical_formula_sum "Si O2"
_cell_formula_units_Z 16
_cell_length_a 19.505063
_cell_length_b 14.803309
_cell_length_c 9.538712
_cell_angle_alpha 30.318478
_cell_angle_beta 151.035995
_cell_angle_gamma 152.557892
_cell_volume 566.314889
_symmetry_space_group_name_H-M "P -1"
_symmetry_group_IT_number 2
_symmetry_cell_setting 'triclinic'
loop_
_space_group_symop_operation_xyz
x,y,z
-x,-y,-z
loop_
_atom_site_type_symbol
_atom_site_label
_atom_site_fract_x
_atom_site_fract_y
_atom_site_fract_z
Si Si1 0.749968 0.973662 0.630485
Si Si2 0.900210 0.375599 0.200934
Si Si3 0.644565 0.966345 0.868857
Si Si4 0.813640 0.556228 0.567793
Si Si5 0.957834 0.034395 0.185375
Si Si6 0.230429 0.470047 0.021982
Si Si7 0.497746 0.083552 0.039252
Si Si8 0.613269 0.504808 0.013394
O O1 0.833215 0.130096 0.438556
O O2 0.637204 0.045867 0.407747
O O3 0.893113 0.005241 0.948484
O O4 0.630927 0.726043 0.717920
O O5 0.071455 0.479329 0.285354
O O6 0.782696 0.417048 0.835184
O O7 0.893832 0.467049 0.217062
O O8 0.648899 0.012236 0.980970
O O9 0.559497 0.712889 0.034603
O O10 0.500000 0.000000 0.500000
O O11 0.828840 0.073671 0.988130
O O12 0.917646 0.804414 0.465146
O O13 0.662332 0.505741 0.261871
O O14 0.851399 0.766277 0.746648
O O15 0.413664 0.661605 0.144193
O O16 0.251334 0.480058 0.878244
O O17 0.500000 0.000000 0.000000
#
# Coordination Sequence:
#
# PCOD9017070 Si02
#       8
#     2   2   2   2   2   2   2   2
#     4  10  21  42  71 100 135 184 235 286 340 419
#     4  10  22  41  64 103 139 187 225 280 359 411
#     4  11  24  44  69 103 137 181 235 290 348 413
#     4  10  23  41  67 101 148 181 223 292 353 414
#     4  11  23  44  71 107 139 176 238 295 342 403
#     4  10  23  42  72 100 133 182 235 286 337 416
#     4  10  23  47  67  97 139 189 229 278 354 423
#     4  10  23  44  72 102 133 185 240 283 343 411
#
# _framework density 28.252834
#
# number of rings (size 3 to 8) (size 9 to 14) (size 15 to 20)
#    0.000    1.750    1.250    1.500    1.750    9.000 
#   11.250    1.250    0.000    0.000    0.000    0.000 
#    0.000    0.000    0.000    0.000    0.000    0.000 
#
# Total GULP energy -89612.631837 kJ/mol
# GULP energy per Si atom -5600.789490 kJ/mol
# Density = 2.818853 g / cm^3
# Si number density = 28.252834 Si / 1000 Ang^3
#
#
#
# Elastic Constant Matrix: (Units=GPa)
#
#
# Indices 1 2 3 4 5 6 
#
# 1 168.2199 31.4284 37.6299 1.9069 -17.5355 -0.6882
# 2 31.4284 124.0426 57.2070 -29.8771 -21.7291 -7.1929
# 3 37.6299 57.2070 143.3656 -11.8959 -29.8165 -9.3559
# 4 1.9069 -29.8771 -11.8959 51.5562 -0.8302 -4.3279
# 5 -17.5355 -21.7291 -29.8165 -0.8302 44.2276 -0.7982
# 6 -0.6882 -7.1929 -9.3559 -4.3279 -0.7982 42.5326
#
#
#
# Elastic Compliance Matrix: (Units=1/GPa)
#
#
# Indices 1 2 3 4 5 6 
#
# 1 0.006566 -0.001275 -0.001098 -0.001254 0.001205 -0.000456
# 2 -0.001275 0.012141 -0.003090 0.006603 0.003538 0.002091
# 3 -0.001098 -0.003090 0.009618 0.000688 0.004575 0.001731
# 4 -0.001254 0.006603 0.000688 0.023802 0.003725 0.003740
# 5 0.001205 0.003538 0.004575 0.003725 0.028026 0.002529
# 6 -0.000456 0.002091 0.001731 0.003740 0.002529 0.024666
#
#
# Mechanical properties :
#
#
# Convention : Reuss Voigt Hill
#
# Bulk Modulus (GPa) = 57.47053 76.46207 66.96630
# Shear Modulus (GPa) = 41.13719 48.28747 44.71233
#
# Velocity S-wave (km/s) = 3.81995 4.13863 3.98248
# Velocity P-wave (km/s) = 6.31202 7.06824 6.70081
#
# Compressibility (1/GPa) = 0.01740022
#
# Stress axis : x y z
#
# Youngs Moduli (GPa) = 152.29208 82.36506 103.97343
#
# Poissons Ratio (x) = 0.10498 0.11416
# Poissons Ratio (y) = 0.19411 0.32127
# Poissons Ratio (z) = 0.16722 0.25450
#
# Static dielectric constant tensor:
#      x y z
#    x 2.144790 0.017440 0.065770 
#    y 0.017440 2.277650 0.068830 
#    z 0.065770 0.068830 2.291260 
# 
# From -- ./inp_files/201882.got.cif
#   From: 2010.05.17/outbox.cif.g08.bks.cpg/sg2_101_cif.got.tgz:201882.got - 2010.06.03 11:33:40.
