data_PCOD9017581
_publ_section_title
;
Structure prediction by ZEFSAII (Michael W. Deem and Ramdas Pophale) SiO2 
 PCOD9017581
Probable space group: P -1
;
_chemical_formula_sum "Si O2"
_cell_formula_units_Z 16
_cell_length_a 12.136433
_cell_length_b 11.908855
_cell_length_c 5.119844
_cell_angle_alpha 117.518626
_cell_angle_beta 82.996463
_cell_angle_gamma 105.641280
_cell_volume 631.950750
_symmetry_space_group_name_H-M "P -1"
_symmetry_group_IT_number 2
_symmetry_cell_setting 'triclinic'
loop_
_space_group_symop_operation_xyz
x,y,z
-x,-y,-z
loop_
_atom_site_type_symbol
_atom_site_label
_atom_site_fract_x
_atom_site_fract_y
_atom_site_fract_z
Si Si1 0.400037 0.466928 0.789208
Si Si2 0.963460 0.351539 0.246062
Si Si3 0.278413 0.632598 0.701812
Si Si4 0.101914 0.926103 0.859268
Si Si5 0.261610 0.994084 0.389554
Si Si6 0.554748 0.130442 0.972150
Si Si7 0.354730 0.230899 0.241713
Si Si8 0.792544 0.635666 0.896050
O O1 0.351914 0.589085 0.860177
O O2 0.426697 0.376188 0.454931
O O3 0.500000 0.500000 0.000000
O O4 0.287229 0.372076 0.842919
O O5 0.841903 0.345396 0.142814
O O6 0.942436 0.231761 0.330288
O O7 0.000000 0.500000 0.500000
O O8 0.074719 0.335105 0.041661
O O9 0.364382 0.767132 0.741031
O O10 0.247448 0.508367 0.383270
O O11 0.188828 0.986101 0.666014
O O12 0.170640 0.939734 0.126534
O O13 0.000000 0.000000 0.000000
O O14 0.324740 0.132332 0.387570
O O15 0.355611 0.908015 0.294069
O O16 0.442579 0.178833 0.974381
O O17 0.500000 0.000000 0.000000
O O18 0.242423 0.259496 0.171980
#
# Coordination Sequence:
#
# PCOD9017581 Si02
#       8
#     2   2   2   2   2   2   2   2
#     4  11  23  39  68 104 138 195 237 314 372 452
#     4  10  23  45  70 106 146 197 245 314 375 450
#     4  10  21  43  64  98 145 183 248 301 378 443
#     4  12  26  49  76 109 150 199 253 308 376 451
#     4  11  26  47  74 104 148 194 249 312 374 446
#     4  10  21  43  66  97 138 193 240 306 368 443
#     4  10  23  43  67 103 143 188 249 306 370 450
#     4  10  22  41  68  99 143 186 246 297 380 443
#
# _framework density 25.318425999999999
#
# number of rings (size 3 to 8) (size 9 to 14) (size 15 to 20)
#    0.000    1.500    1.250    2.625    3.500    4.500 
#    9.000    1.875    0.000    0.000    0.000    0.000 
#    0.000    0.000    0.000    0.000    0.000    0.000 
#
# Total GULP energy -89425.757038 kJ/mol
# GULP energy per Si atom -5589.109815 kJ/mol
# Density = 2.526080 g / cm^3
# Si number density = 25.318426 Si / 1000 Ang^3
#
#
#
# Elastic Constant Matrix: (Units=GPa)
#
#
# Indices 1 2 3 4 5 6 
#
# 1 223.4930 59.7989 50.9637 6.0334 -35.5089 -12.1689
# 2 59.7989 141.1407 34.9291 23.1788 -9.2047 0.5272
# 3 50.9637 34.9291 71.8721 0.9889 -20.0957 -10.5552
# 4 6.0334 23.1788 0.9889 36.6833 2.8804 -3.8117
# 5 -35.5089 -9.2047 -20.0957 2.8804 44.2001 5.4682
# 6 -12.1689 0.5272 -10.5552 -3.8117 5.4682 42.0125
#
#
#
# Elastic Compliance Matrix: (Units=1/GPa)
#
#
# Indices 1 2 3 4 5 6 
#
# 1 0.006061 -0.001758 -0.002407 -0.000005 0.003318 0.000741
# 2 -0.001758 0.009731 -0.003842 -0.005933 -0.000490 -0.002071
# 3 -0.002407 -0.003842 0.019558 0.002250 0.005548 0.003747
# 4 -0.000005 -0.005933 0.002250 0.031566 -0.002751 0.003860
# 5 0.003318 -0.000490 0.005548 -0.002751 0.028080 -0.001543
# 6 0.000741 -0.002071 0.003747 0.003860 -0.001543 0.025535
#
#
# Mechanical properties :
#
#
# Convention : Reuss Voigt Hill
#
# Bulk Modulus (GPa) = 51.71687 80.87661 66.29674
# Shear Modulus (GPa) = 34.96703 43.96680 39.46691
#
# Velocity S-wave (km/s) = 3.72033 4.17172 3.95248
# Velocity P-wave (km/s) = 6.23902 7.43084 6.86086
#
# Compressibility (1/GPa) = 0.01933605
#
# Stress axis : x y z
#
# Youngs Moduli (GPa) = 164.98243 102.76622 51.12929
#
# Poissons Ratio (x) = 0.18066 0.12308
# Poissons Ratio (y) = 0.29003 0.19644
# Poissons Ratio (z) = 0.39714 0.39483
#
# Static dielectric constant tensor:
#      x y z
#    x 1.969580 0.012010 -0.020400 
#    y 0.012010 2.071920 0.042770 
#    z -0.020400 0.042770 2.065490 
# 
# From -- ./inp_files/71788.got.cif
#   From: 2010.05.17/outbox.cif.g08.bks.cpg/sg2_36_cif.got.tgz:71788.got - 2010.06.03 11:33:40.
