data_PCOD9017508
_publ_section_title
;
Structure prediction by ZEFSAII (Michael W. Deem and Ramdas Pophale) SiO2 
 PCOD9017508
Probable space group: P -1
;
_chemical_formula_sum "Si O2"
_cell_formula_units_Z 14
_cell_length_a 8.416507
_cell_length_b 5.048770
_cell_length_c 20.484020
_cell_angle_alpha 112.897429
_cell_angle_beta 140.325415
_cell_angle_gamma 74.857101
_cell_volume 510.832727
_symmetry_space_group_name_H-M "P -1"
_symmetry_group_IT_number 2
_symmetry_cell_setting 'triclinic'
loop_
_space_group_symop_operation_xyz
x,y,z
-x,-y,-z
loop_
_atom_site_type_symbol
_atom_site_label
_atom_site_fract_x
_atom_site_fract_y
_atom_site_fract_z
Si Si1 0.238679 0.800097 0.130169
Si Si2 0.289375 0.784713 0.657769
Si Si3 0.421179 0.644328 0.824798
Si Si4 0.280499 0.167027 0.367141
Si Si5 0.765622 0.108078 0.018060
Si Si6 0.959437 0.584197 0.223221
Si Si7 0.258339 0.181738 0.516459
O O1 0.330966 0.483257 0.139601
O O2 0.980667 0.896164 0.084448
O O3 0.460907 0.011395 0.248827
O O4 0.223295 0.825393 0.049303
O O5 0.262990 0.720387 0.720418
O O6 0.310459 0.480680 0.599691
O O7 0.029958 0.916181 0.570628
O O8 0.265429 0.408412 0.795254
O O9 0.504402 0.918116 0.921725
O O10 0.088172 0.886613 0.272680
O O11 0.551965 0.055426 0.426292
O O12 0.170664 0.411533 0.311202
O O13 0.292860 0.238672 0.455192
O O14 0.834414 0.395764 0.107186
#
# Coordination Sequence:
#
# PCOD9017508 Si02
#       7
#     2   2   2   2   2   2   2
#     4  10  22  42  66  97 134 170 225 276 332 404
#     4  10  21  43  64 101 128 177 220 280 333 396
#     4  11  23  40  66  99 133 173 223 277 327 409
#     4  11  26  46  68 101 135 177 227 276 328 401
#     4  10  24  41  67  97 133 177 219 273 340 397
#     4  12  26  45  70 100 138 177 223 274 334 399
#     4  10  22  44  69  92 138 174 227 276 339 385
#
# _framework density 27.406233
#
# number of rings (size 3 to 8) (size 9 to 14) (size 15 to 20)
#    0.000    1.429    1.429    2.571    6.000    2.857 
#    5.143    2.143    0.000    0.000    0.000    0.000 
#    0.000    0.000    0.000    0.000    0.000    0.000 
#
# Total GULP energy -78618.549236 kJ/mol
# GULP energy per Si atom -5615.610660 kJ/mol
# Density = 2.734386 g / cm^3
# Si number density = 27.406233 Si / 1000 Ang^3
#
#
#
# Elastic Constant Matrix: (Units=GPa)
#
#
# Indices 1 2 3 4 5 6 
#
# 1 55.8250 33.5857 58.0786 -16.4676 5.9465 -12.2837
# 2 33.5857 89.8188 51.8595 0.3938 1.4010 -13.1792
# 3 58.0786 51.8595 200.6475 23.8089 -7.7386 -13.7205
# 4 -16.4676 0.3938 23.8089 55.8440 -2.9919 4.8307
# 5 5.9465 1.4010 -7.7386 -2.9919 60.0516 -4.5079
# 6 -12.2837 -13.1792 -13.7205 4.8307 -4.5079 43.7786
#
#
#
# Elastic Compliance Matrix: (Units=1/GPa)
#
#
# Indices 1 2 3 4 5 6 
#
# 1 0.041047 -0.008137 -0.011707 0.016652 -0.004320 0.003116
# 2 -0.008137 0.015161 -0.001138 -0.002192 0.000362 0.002203
# 3 -0.011707 -0.001138 0.009667 -0.007492 0.002092 0.000444
# 4 0.016652 -0.002192 -0.007492 0.026071 -0.001366 -0.001353
# 5 -0.004320 0.000362 0.002092 -0.001366 0.017385 0.001493
# 6 0.003116 0.002203 0.000444 -0.001353 0.001493 0.024822
#
#
# Mechanical properties :
#
#
# Convention : Reuss Voigt Hill
#
# Bulk Modulus (GPa) = 41.82652 70.37098 56.09875
# Shear Modulus (GPa) = 27.16090 45.45266 36.30678
#
# Velocity S-wave (km/s) = 3.15151 4.07686 3.64368
# Velocity P-wave (km/s) = 5.34205 6.92053 6.18188
#
# Compressibility (1/GPa) = 0.02390827
#
# Stress axis : x y z
#
# Youngs Moduli (GPa) = 24.36254 65.95980 103.44520
#
# Poissons Ratio (x) = 0.53673 1.21108
# Poissons Ratio (y) = 0.19824 0.11776
# Poissons Ratio (z) = 0.28522 0.07509
#
# Static dielectric constant tensor:
#      x y z
#    x 2.166440 -0.027120 0.014690 
#    y -0.027120 2.101020 -0.002270 
#    z 0.014690 -0.002270 2.085590 
# 
# From -- ./inp_files/27247.got.cif
#   From: 2010.05.17/outbox.cif.g08.bks.cpg/sg2_14_cif.got.tgz:27247.got - 2010.06.03 11:33:40.
