data_PCOD9017429
_publ_section_title
;
Structure prediction by ZEFSAII (Michael W. Deem and Ramdas Pophale) SiO2 
 PCOD9017429
Probable space group: P -1
;
_chemical_formula_sum "Si O2"
_cell_formula_units_Z 16
_cell_length_a 15.315202
_cell_length_b 18.693879
_cell_length_c 8.135849
_cell_angle_alpha 136.266305
_cell_angle_beta 42.505103
_cell_angle_gamma 151.105900
_cell_volume 738.930195
_symmetry_space_group_name_H-M "P -1"
_symmetry_group_IT_number 2
_symmetry_cell_setting 'triclinic'
loop_
_space_group_symop_operation_xyz
x,y,z
-x,-y,-z
loop_
_atom_site_type_symbol
_atom_site_label
_atom_site_fract_x
_atom_site_fract_y
_atom_site_fract_z
Si Si1 0.767412 0.893691 0.462367
Si Si2 0.500580 0.916562 0.005984
Si Si3 0.505507 0.791571 0.085382
Si Si4 0.105928 0.655549 0.024674
Si Si5 0.283325 0.474966 0.670987
Si Si6 0.788565 0.383848 0.524736
Si Si7 0.803518 0.809075 0.626906
Si Si8 0.446031 0.583722 0.257818
O O1 0.792807 0.837402 0.496967
O O2 0.647782 0.761901 0.274183
O O3 0.620656 0.896707 0.719901
O O4 0.975627 0.059587 0.409359
O O5 0.565210 0.927048 0.119909
O O6 0.274400 0.779738 0.119308
O O7 0.500000 0.000000 0.000000
O O8 0.374421 0.750054 0.348023
O O9 0.378268 0.625948 0.892648
O O10 0.693005 0.832666 0.921870
O O11 0.200555 0.674430 0.754996
O O12 0.000000 0.500000 0.000000
O O13 0.943928 0.642911 0.196493
O O14 0.300144 0.362933 0.502858
O O15 0.359888 0.536322 0.482419
O O16 0.710886 0.452559 0.698635
O O17 0.000000 0.500000 0.500000
O O18 0.500000 0.500000 0.000000
#
# Coordination Sequence:
#
# PCOD9017429 Si02
#       8
#     2   2   2   2   2   2   2   2
#     4  10  21  43  62  96 137 168 226 282 326 404
#     4  11  21  40  67  92 127 177 221 267 337 406
#     4  11  22  39  64  97 137 169 226 287 325 402
#     4  12  20  40  66  92 125 167 221 273 335 397
#     4  12  21  40  67  98 128 173 227 277 335 406
#     4  12  23  40  64  97 139 172 216 286 347 384
#     4  10  22  38  68  97 126 176 224 275 341 395
#     4  12  25  41  69 101 135 179 225 278 340 403
#
# _framework density 21.652926000000001
#
# number of rings (size 3 to 8) (size 9 to 14) (size 15 to 20)
#    0.000    0.750    7.500    1.875    1.750    0.000 
#    0.000    3.125    0.000    0.000    0.000    0.000 
#    0.000    0.000    0.000    0.000    0.000    0.000 
#
# Total GULP energy -89125.250151 kJ/mol
# GULP energy per Si atom -5570.328134 kJ/mol
# Density = 2.160364 g / cm^3
# Si number density = 21.652926 Si / 1000 Ang^3
#
#
#
# Elastic Constant Matrix: (Units=GPa)
#
#
# Indices 1 2 3 4 5 6 
#
# 1 85.4863 32.5097 24.7000 6.6664 -21.3841 -12.2542
# 2 32.5097 97.2967 10.5977 -13.8895 -12.9252 -2.8299
# 3 24.7000 10.5977 72.6647 -22.3642 -3.7369 -5.0378
# 4 6.6664 -13.8895 -22.3642 24.4039 -6.0529 -5.7406
# 5 -21.3841 -12.9252 -3.7369 -6.0529 34.2564 -7.5028
# 6 -12.2542 -2.8299 -5.0378 -5.7406 -7.5028 55.0305
#
#
#
# Elastic Compliance Matrix: (Units=1/GPa)
#
#
# Indices 1 2 3 4 5 6 
#
# 1 0.021149 -0.007525 -0.011205 -0.018201 0.006422 0.002274
# 2 -0.007525 0.015644 0.006622 0.019072 0.005850 0.002522
# 3 -0.011205 0.006622 0.028058 0.035138 0.005841 0.004876
# 4 -0.018201 0.019072 0.035138 0.096913 0.019623 0.012930
# 5 0.006422 0.005850 0.005841 0.019623 0.041702 0.009998
# 6 0.002274 0.002522 0.004876 0.012930 0.009998 0.021966
#
#
# Mechanical properties :
#
#
# Convention : Reuss Voigt Hill
#
# Bulk Modulus (GPa) = 24.61006 43.45141 34.03073
# Shear Modulus (GPa) = 18.99741 35.24750 27.12245
#
# Velocity S-wave (km/s) = 2.96524 4.03903 3.54305
# Velocity P-wave (km/s) = 4.80769 6.47012 5.69984
#
# Compressibility (1/GPa) = 0.04063379
#
# Stress axis : x y z
#
# Youngs Moduli (GPa) = 47.28384 63.92246 35.64063
#
# Poissons Ratio (x) = 0.48101 0.39936
# Poissons Ratio (y) = 0.35581 -0.23600
# Poissons Ratio (z) = 0.52983 -0.42328
#
# Static dielectric constant tensor:
#      x y z
#    x 1.857030 -0.016000 -0.008750 
#    y -0.016000 1.848890 0.035200 
#    z -0.008750 0.035200 1.786240 
# 
# From -- ./inp_files/318141.got.cif
#   From: 2010.05.17/outbox.cif.g08.bks.cpg/sg2_160_cif.got.tgz:318141.got - 2010.06.03 11:33:40.
