data_PCOD9017231
_publ_section_title
;
Structure prediction by ZEFSAII (Michael W. Deem and Ramdas Pophale) SiO2 
 PCOD9017231
Probable space group: P -1
;
_chemical_formula_sum "Si O2"
_cell_formula_units_Z 16
_cell_length_a 11.514915
_cell_length_b 9.105470
_cell_length_c 14.770275
_cell_angle_alpha 55.163523
_cell_angle_beta 38.580618
_cell_angle_gamma 75.677280
_cell_volume 730.208759
_symmetry_space_group_name_H-M "P -1"
_symmetry_group_IT_number 2
_symmetry_cell_setting 'triclinic'
loop_
_space_group_symop_operation_xyz
x,y,z
-x,-y,-z
loop_
_atom_site_type_symbol
_atom_site_label
_atom_site_fract_x
_atom_site_fract_y
_atom_site_fract_z
Si Si1 0.589451 0.477443 0.249499
Si Si2 0.036023 0.152406 0.063048
Si Si3 0.232823 0.570784 0.369433
Si Si4 0.546009 0.198221 0.228085
Si Si5 0.106860 0.668978 0.580658
Si Si6 0.299218 0.820895 0.602711
Si Si7 0.930532 0.222430 0.896664
Si Si8 0.686914 0.599987 0.787640
O O1 0.360153 0.458796 0.382145
O O2 0.657282 0.398632 0.144594
O O3 0.618594 0.340077 0.357644
O O4 0.743058 0.696034 0.095988
O O5 0.870549 0.168532 0.228224
O O6 0.029866 0.936526 0.132067
O O7 0.998324 0.210817 0.963328
O O8 0.327735 0.572327 0.212647
O O9 0.000000 0.500000 0.500000
O O10 0.241241 0.725565 0.387196
O O11 0.349559 0.224511 0.300964
O O12 0.480154 0.027653 0.401779
O O13 0.692403 0.174494 0.071662
O O14 0.041418 0.436727 0.714885
O O15 0.896909 0.685589 0.681111
O O16 0.206924 0.764964 0.578374
O O17 0.500000 0.500000 0.000000
#
# Coordination Sequence:
#
# PCOD9017231 Si02
#       8
#     2   2   2   2   2   2   2   2
#     4  11  22  42  71  93 135 182 218 267 339 395
#     4  11  25  40  64 102 140 174 221 269 339 397
#     4   9  23  41  67  99 127 169 229 270 323 389
#     4  11  24  41  66  97 134 174 228 273 330 396
#     4  11  23  43  69  92 137 176 220 277 337 391
#     4  12  25  40  67 103 134 175 224 276 330 402
#     4  11  23  41  64  98 140 173 218 278 330 397
#     4  10  21  42  72  93 123 182 225 269 334 400
#
# _framework density 21.911543000000002
#
# number of rings (size 3 to 8) (size 9 to 14) (size 15 to 20)
#    0.000    1.250    3.750    1.500    7.000    2.000 
#    0.000    0.000    0.000    8.250    0.000    0.000 
#    0.000    0.000    0.000    0.000    0.000    0.000 
#
# Total GULP energy -89204.340775 kJ/mol
# GULP energy per Si atom -5575.271298 kJ/mol
# Density = 2.186167 g / cm^3
# Si number density = 21.911543 Si / 1000 Ang^3
#
#
#
# Elastic Constant Matrix: (Units=GPa)
#
#
# Indices 1 2 3 4 5 6 
#
# 1 118.8725 47.3120 8.5179 15.2478 -13.8474 13.6099
# 2 47.3120 85.9183 34.0202 15.2225 -12.7623 7.1428
# 3 8.5179 34.0202 73.8544 19.6336 -0.8205 4.8997
# 4 15.2478 15.2225 19.6336 48.4370 -0.1479 4.3241
# 5 -13.8474 -12.7623 -0.8205 -0.1479 19.5822 5.8660
# 6 13.6099 7.1428 4.8997 4.3241 5.8660 28.8339
#
#
#
# Elastic Compliance Matrix: (Units=1/GPa)
#
#
# Indices 1 2 3 4 5 6 
#
# 1 0.012315 -0.005798 0.002367 -0.002478 0.006741 -0.005779
# 2 -0.005798 0.019685 -0.007888 -0.000911 0.009148 -0.002524
# 3 0.002367 -0.007888 0.018442 -0.005664 -0.002452 -0.000949
# 4 -0.002478 -0.000911 -0.005664 0.024074 -0.002157 -0.000814
# 5 0.006741 0.009148 -0.002452 -0.002157 0.067181 -0.018375
# 6 -0.005779 -0.002524 -0.000949 -0.000814 -0.018375 0.042056
#
#
# Mechanical properties :
#
#
# Convention : Reuss Voigt Hill
#
# Bulk Modulus (GPa) = 35.96439 50.92726 43.44583
# Shear Modulus (GPa) = 23.18484 31.95697 27.57090
#
# Velocity S-wave (km/s) = 3.25639 3.82311 3.55108
# Velocity P-wave (km/s) = 5.53063 6.54071 6.05676
#
# Compressibility (1/GPa) = 0.02780528
#
# Stress axis : x y z
#
# Youngs Moduli (GPa) = 81.20075 50.80000 54.22379
#
# Poissons Ratio (x) = 0.29455 -0.12837
# Poissons Ratio (y) = 0.47082 0.42771
# Poissons Ratio (z) = -0.19224 0.40070
#
# Static dielectric constant tensor:
#      x y z
#    x 1.892200 -0.007240 0.035290 
#    y -0.007240 1.820870 0.000550 
#    z 0.035290 0.000550 1.806340 
# 
# From -- ./inp_files/206054.got.cif
#   From: 2010.05.17/outbox.cif.g08.bks.cpg/sg2_104_cif.got.tgz:206054.got - 2010.06.03 11:33:40.
