data_PCOD9017704
_publ_section_title
;
Structure prediction by ZEFSAII (Michael W. Deem and Ramdas Pophale) SiO2 
 PCOD9017704
Probable space group: P -1
;
_chemical_formula_sum "Si O2"
_cell_formula_units_Z 11
_cell_length_a 9.374442
_cell_length_b 8.306943
_cell_length_c 7.379647
_cell_angle_alpha 55.420653
_cell_angle_beta 69.495321
_cell_angle_gamma 67.500667
_cell_volume 430.395013
_symmetry_space_group_name_H-M "P -1"
_symmetry_group_IT_number 2
_symmetry_cell_setting 'triclinic'
loop_
_space_group_symop_operation_xyz
x,y,z
-x,-y,-z
loop_
_atom_site_type_symbol
_atom_site_label
_atom_site_fract_x
_atom_site_fract_y
_atom_site_fract_z
Si Si1 0.334536 0.666171 0.158209
Si Si2 0.500000 0.000000 0.500000
Si Si3 0.365161 0.641307 0.724149
Si Si4 0.766957 0.718511 0.577174
Si Si5 0.925042 0.463827 0.246772
Si Si6 0.837773 0.930208 0.094527
O O1 0.505258 0.567017 0.217824
O O2 0.237789 0.499677 0.358989
O O3 0.320069 0.660325 0.947048
O O4 0.264082 0.896172 0.094193
O O5 0.443336 0.822156 0.524304
O O6 0.612042 0.808629 0.703680
O O7 0.217636 0.633743 0.673359
O O8 0.732399 0.915097 0.332209
O O9 0.937013 0.683874 0.608414
O O10 0.878993 0.694592 0.187187
O O11 0.000000 0.500000 0.000000
O O12 0.000000 0.000000 0.000000
#
# Coordination Sequence:
#
# PCOD9017704 Si02
#       6
#     2   1   2   2   2   2
#     4  10  21  43  70  90 136 181 217 263 339 402
#     4  10  22  42  70  96 130 186 218 256 350 398
#     4  10  21  43  66 100 133 173 222 277 320 396
#     4  11  23  43  71  97 133 180 219 269 335 398
#     4  12  25  42  66 104 134 167 230 285 318 385
#     4  12  24  43  69  98 133 183 217 267 344 395
#
# _framework density 25.557917
#
# number of rings (size 3 to 8) (size 9 to 14) (size 15 to 20)
#    0.000    1.091    5.455    0.545    0.000    1.455 
#    0.000    3.636    0.000    0.000    0.000    0.000 
#    0.000    0.000    0.000    0.000    0.000    0.000 
#
# Total GULP energy -61248.419475 kJ/mol
# GULP energy per Si atom -5568.038134 kJ/mol
# Density = 2.549975 g / cm^3
# Si number density = 25.557917 Si / 1000 Ang^3
#
#
#
# Elastic Constant Matrix: (Units=GPa)
#
#
# Indices 1 2 3 4 5 6 
#
# 1 208.6698 23.6046 47.9001 -46.2009 6.5905 5.7938
# 2 23.6046 77.3681 39.0414 -51.1203 14.7088 -12.9966
# 3 47.9001 39.0414 125.1163 -49.2953 -16.8687 8.4483
# 4 -46.2009 -51.1203 -49.2953 55.8884 -6.3703 8.1059
# 5 6.5905 14.7088 -16.8687 -6.3703 43.1245 -18.8698
# 6 5.7938 -12.9966 8.4483 8.1059 -18.8698 31.6193
#
#
#
# Elastic Compliance Matrix: (Units=1/GPa)
#
#
# Indices 1 2 3 4 5 6 
#
# 1 0.006598 0.004116 -0.000373 0.009069 -0.002681 -0.003342
# 2 0.004116 0.037542 0.000205 0.036966 -0.007635 0.000589
# 3 -0.000373 0.000205 0.014713 0.014099 0.006212 -0.003686
# 4 0.009069 0.036966 0.014099 0.072872 -0.002187 -0.010221
# 5 -0.002681 -0.007635 0.006212 -0.002187 0.036096 0.017795
# 6 -0.003342 0.000589 -0.003686 -0.010221 0.017795 0.046705
#
#
# Mechanical properties :
#
#
# Convention : Reuss Voigt Hill
#
# Bulk Modulus (GPa) = 14.98165 70.24961 42.61563
# Shear Modulus (GPa) = 21.84571 46.16699 34.00635
#
# Velocity S-wave (km/s) = 2.92679 4.25475 3.65164
# Velocity P-wave (km/s) = 4.15885 7.18911 5.87279
#
# Compressibility (1/GPa) = 0.06674833
#
# Stress axis : x y z
#
# Youngs Moduli (GPa) = 151.56889 26.63711 67.96862
#
# Poissons Ratio (x) = -0.10963 0.02533
# Poissons Ratio (y) = -0.62379 -0.01395
# Poissons Ratio (z) = 0.05649 -0.00547
#
# Static dielectric constant tensor:
#      x y z
#    x 1.938030 0.141680 0.099080 
#    y 0.141680 1.901570 -0.007940 
#    z 0.099080 -0.007940 1.965240 
# 
# From -- ./inp_files/148628.got.cif
#   From: 2010.05.17/outbox.cif.g08.bks.cpg/sg2_75_cif.got.tgz:148628.got - 2010.06.03 11:33:40.
