data_PCOD9017524
_publ_section_title
;
Structure prediction by ZEFSAII (Michael W. Deem and Ramdas Pophale) SiO2 
 PCOD9017524
Probable space group: P -1
;
_chemical_formula_sum "Si O2"
_cell_formula_units_Z 16
_cell_length_a 24.270416
_cell_length_b 6.840495
_cell_length_c 5.204585
_cell_angle_alpha 96.795552
_cell_angle_beta 120.999253
_cell_angle_gamma 75.140181
_cell_volume 715.792418
_symmetry_space_group_name_H-M "P -1"
_symmetry_group_IT_number 2
_symmetry_cell_setting 'triclinic'
loop_
_space_group_symop_operation_xyz
x,y,z
-x,-y,-z
loop_
_atom_site_type_symbol
_atom_site_label
_atom_site_fract_x
_atom_site_fract_y
_atom_site_fract_z
Si Si1 0.225701 0.495864 0.571091
Si Si2 0.010094 0.310980 0.675547
Si Si3 0.060858 0.958608 0.342292
Si Si4 0.219368 0.777653 0.104142
Si Si5 0.368583 0.695917 0.383065
Si Si6 0.858386 0.833687 0.766554
Si Si7 0.502592 0.130629 0.274315
Si Si8 0.626133 0.543533 0.135596
O O1 0.209308 0.635734 0.298575
O O2 0.186740 0.316777 0.447647
O O3 0.304373 0.393245 0.720654
O O4 0.214380 0.642659 0.817552
O O5 0.000000 0.500000 0.500000
O O6 0.941961 0.265825 0.610067
O O7 0.039881 0.116935 0.542976
O O8 0.069118 0.306993 0.015342
O O9 0.123891 0.014232 0.378738
O O10 0.000000 0.000000 0.000000
O O11 0.294452 0.806593 0.299928
O O12 0.173832 0.003130 0.066114
O O13 0.429130 0.799981 0.565377
O O14 0.383288 0.511210 0.598291
O O15 0.364371 0.646400 0.063914
O O16 0.500000 0.000000 0.500000
O O17 0.438098 0.310980 0.116455
O O18 0.500000 0.000000 0.000000
#
# Coordination Sequence:
#
# PCOD9017524 Si02
#       8
#     2   2   2   2   2   2   2   2
#     4  10  25  44  70 103 137 187 234 286 350 411
#     4  10  23  44  69 100 134 176 223 278 348 404
#     4   9  22  43  63  98 130 172 218 274 340 403
#     4  10  25  45  68 102 140 182 236 287 345 422
#     4  10  21  43  65  88 131 183 221 281 347 396
#     4  11  25  43  72  99 138 180 227 287 346 415
#     4  12  24  36  62 103 128 174 227 286 340 401
#     4  10  21  43  64  90 133 178 229 277 336 418
#
# _framework density 22.352848999999999
#
# number of rings (size 3 to 8) (size 9 to 14) (size 15 to 20)
#    0.000    1.750    0.000    2.250    5.250    6.000 
#    0.000    0.000    0.000    0.000    0.000    0.000 
#    0.000    0.000    0.000    0.000    0.000    0.000 
#
# Total GULP energy -89302.894255 kJ/mol
# GULP energy per Si atom -5581.430891 kJ/mol
# Density = 2.230197 g / cm^3
# Si number density = 22.352849 Si / 1000 Ang^3
#
#
#
# Elastic Constant Matrix: (Units=GPa)
#
#
# Indices 1 2 3 4 5 6 
#
# 1 137.7551 72.5713 62.1000 11.3517 27.9076 34.8905
# 2 72.5713 98.1547 33.4059 3.4591 25.0903 22.9673
# 3 62.1000 33.4059 106.9280 14.2720 6.5009 24.2754
# 4 11.3517 3.4591 14.2720 44.3089 6.8555 5.0835
# 5 27.9076 25.0903 6.5009 6.8555 47.0334 15.5826
# 6 34.8905 22.9673 24.2754 5.0835 15.5826 36.2818
#
#
#
# Elastic Compliance Matrix: (Units=1/GPa)
#
#
# Indices 1 2 3 4 5 6 
#
# 1 0.015699 -0.007918 -0.005152 -0.000736 -0.002457 -0.005480
# 2 -0.007918 0.017641 -0.000515 0.001672 -0.004366 -0.001568
# 3 -0.005152 -0.000515 0.013853 -0.003068 0.003548 -0.005082
# 4 -0.000736 0.001672 -0.003068 0.024177 -0.003494 -0.000186
# 5 -0.002457 -0.004366 0.003548 -0.003494 0.027974 -0.008772
# 6 -0.005480 -0.001568 -0.005082 -0.000186 -0.008772 0.041018
#
#
# Mechanical properties :
#
#
# Convention : Reuss Voigt Hill
#
# Bulk Modulus (GPa) = 49.94213 75.44359 62.69286
# Shear Modulus (GPa) = 28.70166 37.17551 32.93858
#
# Velocity S-wave (km/s) = 3.58722 4.08256 3.84288
# Velocity P-wave (km/s) = 6.28877 7.48649 6.91362
#
# Compressibility (1/GPa) = 0.02002318
#
# Stress axis : x y z
#
# Youngs Moduli (GPa) = 63.69693 56.68541 72.18781
#
# Poissons Ratio (x) = 0.44882 0.37194
# Poissons Ratio (y) = 0.50434 0.03717
# Poissons Ratio (z) = 0.32820 0.02919
#
# Static dielectric constant tensor:
#      x y z
#    x 1.615780 0.080590 -0.004660 
#    y 0.080590 1.777340 -0.028420 
#    z -0.004660 -0.028420 1.862370 
# 
# From -- ./inp_files/10691.got.cif
#   From: 2010.05.17/outbox.cif.g08.bks.cpg/sg2_6_cif.got.tgz:10691.got - 2010.06.03 11:33:40.
