data_PCOD9017791
_publ_section_title
;
Structure prediction by ZEFSAII (Michael W. Deem and Ramdas Pophale) SiO2 
 PCOD9017791
Probable space group: P -1
;
_chemical_formula_sum "Si O2"
_cell_formula_units_Z 16
_cell_length_a 6.556379
_cell_length_b 20.139413
_cell_length_c 9.144978
_cell_angle_alpha 129.139572
_cell_angle_beta 127.841692
_cell_angle_gamma 74.186173
_cell_volume 726.522986
_symmetry_space_group_name_H-M "P -1"
_symmetry_group_IT_number 2
_symmetry_cell_setting 'triclinic'
loop_
_space_group_symop_operation_xyz
x,y,z
-x,-y,-z
loop_
_atom_site_type_symbol
_atom_site_label
_atom_site_fract_x
_atom_site_fract_y
_atom_site_fract_z
Si Si1 0.597369 0.022807 0.737712
Si Si2 0.641986 0.078186 0.269855
Si Si3 0.275588 0.533490 0.750217
Si Si4 0.148152 0.129282 0.720973
Si Si5 0.247329 0.562805 0.122499
Si Si6 0.429269 0.738146 0.600156
Si Si7 0.450052 0.713366 0.921261
Si Si8 0.012994 0.822947 0.963930
O O1 0.390996 0.081116 0.787092
O O2 0.500000 0.000000 0.500000
O O3 0.544381 0.935275 0.687207
O O4 0.877352 0.087259 0.949512
O O5 0.667147 0.170915 0.333895
O O6 0.934268 0.073722 0.445304
O O7 0.500000 0.000000 0.000000
O O8 0.479651 0.467085 0.752184
O O9 0.418564 0.619783 0.849331
O O10 0.000000 0.500000 0.500000
O O11 0.223863 0.555256 0.926549
O O12 0.273989 0.222636 0.838506
O O13 0.017744 0.147560 0.841625
O O14 0.272112 0.660956 0.327097
O O15 0.000000 0.500000 0.000000
O O16 0.422089 0.709836 0.727563
O O17 0.732500 0.765896 0.720781
O O18 0.226995 0.762136 0.955054
#
# Coordination Sequence:
#
# PCOD9017791 Si02
#       8
#     2   2   2   2   2   2   2   2
#     4  11  23  41  66  90 125 184 241 283 342 416
#     4  12  25  42  63  97 140 180 228 294 348 403
#     4  11  25  47  76 108 146 189 238 293 363 439
#     4  10  23  41  66  93 133 180 236 284 341 419
#     4  11  27  47  75 113 148 182 240 300 360 436
#     4  11  26  44  66 104 142 176 229 297 353 418
#     4  10  23  44  71  96 131 186 231 277 354 425
#     4  10  21  43  66  94 132 180 235 283 343 420
#
# _framework density 22.022704000000001
#
# number of rings (size 3 to 8) (size 9 to 14) (size 15 to 20)
#    0.000    1.250    1.250    4.125    5.250    4.500 
#    4.500    0.000    0.000    0.000    0.000    0.000 
#    0.000    0.000    0.000    0.000    0.000    0.000 
#
# Total GULP energy -89474.688671 kJ/mol
# GULP energy per Si atom -5592.168042 kJ/mol
# Density = 2.197258 g / cm^3
# Si number density = 22.022704 Si / 1000 Ang^3
#
#
#
# Elastic Constant Matrix: (Units=GPa)
#
#
# Indices 1 2 3 4 5 6 
#
# 1 95.2169 25.4823 44.5527 -3.4700 10.5368 12.8059
# 2 25.4823 106.3001 41.4306 6.0544 3.6563 26.7482
# 3 44.5527 41.4306 150.3064 7.7110 17.0103 4.4076
# 4 -3.4700 6.0544 7.7110 35.2350 2.5518 5.5515
# 5 10.5368 3.6563 17.0103 2.5518 40.5694 5.7667
# 6 12.8059 26.7482 4.4076 5.5515 5.7667 39.5315
#
#
#
# Elastic Compliance Matrix: (Units=1/GPa)
#
#
# Indices 1 2 3 4 5 6 
#
# 1 0.013138 -0.001071 -0.003472 0.002874 -0.001569 -0.003319
# 2 -0.001071 0.012940 -0.003170 -0.000457 0.001640 -0.008230
# 3 -0.003472 -0.003170 0.008893 -0.002006 -0.002838 0.002974
# 4 0.002874 -0.000457 -0.002006 0.029962 -0.001117 -0.004443
# 5 -0.001569 0.001640 -0.002838 -0.001117 0.026742 -0.004029
# 6 -0.003319 -0.008230 0.002974 -0.004443 -0.004029 0.032820
#
#
# Mechanical properties :
#
#
# Convention : Reuss Voigt Hill
#
# Bulk Modulus (GPa) = 51.16235 63.86159 57.51197
# Shear Modulus (GPa) = 34.14447 39.09104 36.61775
#
# Velocity S-wave (km/s) = 3.94181 4.21769 4.08208
# Velocity P-wave (km/s) = 6.63319 7.26495 6.95625
#
# Compressibility (1/GPa) = 0.01954562
#
# Stress axis : x y z
#
# Youngs Moduli (GPa) = 76.11438 77.27798 112.45023
#
# Poissons Ratio (x) = 0.08276 0.39039
# Poissons Ratio (y) = 0.08152 0.35649
# Poissons Ratio (z) = 0.26424 0.24499
#
# Static dielectric constant tensor:
#      x y z
#    x 1.827170 -0.001160 0.000400 
#    y -0.001160 1.851010 -0.008630 
#    z 0.000400 -0.008630 1.802480 
# 
# From -- ./inp_files/141666.got.cif
#   From: 2010.05.17/outbox.cif.g08.bks.cpg/sg2_71_cif.got.tgz:141666.got - 2010.06.03 11:33:40.
