data_PCOD9017731
_publ_section_title
;
Structure prediction by ZEFSAII (Michael W. Deem and Ramdas Pophale) SiO2 
 PCOD9017731
Probable space group: P -1
;
_chemical_formula_sum "Si O2"
_cell_formula_units_Z 16
_cell_length_a 10.266195
_cell_length_b 15.312415
_cell_length_c 11.287949
_cell_angle_alpha 100.402736
_cell_angle_beta 58.861429
_cell_angle_gamma 51.638746
_cell_volume 791.440670
_symmetry_space_group_name_H-M "P -1"
_symmetry_group_IT_number 2
_symmetry_cell_setting 'triclinic'
loop_
_space_group_symop_operation_xyz
x,y,z
-x,-y,-z
loop_
_atom_site_type_symbol
_atom_site_label
_atom_site_fract_x
_atom_site_fract_y
_atom_site_fract_z
Si Si1 0.605689 0.682420 0.935632
Si Si2 0.322023 0.879608 0.801614
Si Si3 0.970714 0.429531 0.915079
Si Si4 0.376685 0.155413 0.137793
Si Si5 0.732406 0.524980 0.606779
Si Si6 0.494345 0.478641 0.854341
Si Si7 0.416659 0.938849 0.530882
Si Si8 0.080478 0.874496 0.355493
O O1 0.783096 0.554313 0.925101
O O2 0.587749 0.796181 0.977823
O O3 0.769759 0.571717 0.713258
O O4 0.289301 0.800210 0.130863
O O5 0.437723 0.887615 0.855306
O O6 0.540143 0.684878 0.651103
O O7 0.320969 0.941422 0.700047
O O8 0.000000 0.000000 0.000000
O O9 0.288020 0.253849 0.684281
O O10 0.797954 0.424951 0.027801
O O11 0.000000 0.500000 0.000000
O O12 0.035954 0.333226 0.374053
O O13 0.500000 0.000000 0.000000
O O14 0.559150 0.529512 0.751495
O O15 0.749007 0.279946 0.681248
O O16 0.500000 0.500000 0.000000
O O17 0.500000 0.000000 0.500000
O O18 0.189739 0.034406 0.557711
O O19 0.000000 0.000000 0.500000
#
# Coordination Sequence:
#
# PCOD9017731 Si02
#       8
#     2   2   2   2   2   2   2   2
#     4  10  21  43  66  87 130 179 221 258 329 407
#     4  11  26  46  69  98 139 180 219 278 341 399
#     4  11  23  40  61  97 132 167 210 278 339 379
#     4  11  25  43  69  97 126 174 231 277 327 403
#     4  11  22  45  72  92 130 184 230 265 329 413
#     4  11  22  41  70  93 126 177 231 264 321 412
#     4  12  25  39  69 100 132 166 222 276 329 389
#     4  11  24  40  66  99 134 171 212 277 332 390
#
# _framework density 20.216296
#
# number of rings (size 3 to 8) (size 9 to 14) (size 15 to 20)
#    0.000    1.000    2.500    6.750    5.250    1.000 
#    2.250    0.625    0.000    0.000    0.000    0.000 
#    0.000    0.000    0.000    0.000    0.000    0.000 
#
# Total GULP energy -89185.602274 kJ/mol
# GULP energy per Si atom -5574.100142 kJ/mol
# Density = 2.017028 g / cm^3
# Si number density = 20.216296 Si / 1000 Ang^3
#
#
#
# Elastic Constant Matrix: (Units=GPa)
#
#
# Indices 1 2 3 4 5 6 
#
# 1 152.1672 45.5492 37.7783 -0.1755 -23.2805 21.4387
# 2 45.5492 103.1596 17.6479 -8.3545 -8.2244 35.8294
# 3 37.7783 17.6479 121.7237 14.8915 -9.2811 8.4966
# 4 -0.1755 -8.3545 14.8915 33.2766 9.6345 -3.4227
# 5 -23.2805 -8.2244 -9.2811 9.6345 41.0281 6.5713
# 6 21.4387 35.8294 8.4966 -3.4227 6.5713 40.4485
#
#
#
# Elastic Compliance Matrix: (Units=1/GPa)
#
#
# Indices 1 2 3 4 5 6 
#
# 1 0.008898 -0.002184 -0.001612 -0.001631 0.005178 -0.003422
# 2 -0.002184 0.015718 -0.000667 0.001911 0.003397 -0.013016
# 3 -0.001612 -0.000667 0.009797 -0.005499 0.002702 -0.001517
# 4 -0.001631 0.001911 -0.005499 0.036788 -0.011269 0.005270
# 5 0.005178 0.003397 0.002702 -0.011269 0.033281 -0.012681
# 6 -0.003422 -0.013016 -0.001517 0.005270 -0.012681 0.040891
#
#
# Mechanical properties :
#
#
# Convention : Reuss Voigt Hill
#
# Bulk Modulus (GPa) = 39.23502 64.33348 51.78425
# Shear Modulus (GPa) = 30.71349 41.35565 36.03457
#
# Velocity S-wave (km/s) = 3.90198 4.52780 4.22649
# Velocity P-wave (km/s) = 6.30478 7.69586 7.03479
#
# Compressibility (1/GPa) = 0.02548743
#
# Stress axis : x y z
#
# Youngs Moduli (GPa) = 112.38460 63.61996 102.07314
#
# Poissons Ratio (x) = 0.13893 0.16452
# Poissons Ratio (y) = 0.24542 0.06813
# Poissons Ratio (z) = 0.18113 0.04246
#
# Static dielectric constant tensor:
#      x y z
#    x 1.799600 0.012260 -0.080170 
#    y 0.012260 1.750740 -0.015780 
#    z -0.080170 -0.015780 1.784780 
# 
# From -- ./inp_files/399265.got.cif
#   From: 2010.05.17/outbox.cif.g08.bks.cpg/sg2_200_cif.got.tgz:399265.got - 2010.06.03 11:33:40.
