data_PCOD9017766
_publ_section_title
;
Structure prediction by ZEFSAII (Michael W. Deem and Ramdas Pophale) SiO2 
 PCOD9017766
Probable space group: P -1
;
_chemical_formula_sum "Si O2"
_cell_formula_units_Z 16
_cell_length_a 12.481456
_cell_length_b 7.956687
_cell_length_c 14.115734
_cell_angle_alpha 70.823417
_cell_angle_beta 145.620237
_cell_angle_gamma 120.349780
_cell_volume 671.738892
_symmetry_space_group_name_H-M "P -1"
_symmetry_group_IT_number 2
_symmetry_cell_setting 'triclinic'
loop_
_space_group_symop_operation_xyz
x,y,z
-x,-y,-z
loop_
_atom_site_type_symbol
_atom_site_label
_atom_site_fract_x
_atom_site_fract_y
_atom_site_fract_z
Si Si1 0.855741 0.756357 0.631905
Si Si2 0.949000 0.436074 0.867255
Si Si3 0.092311 0.370228 0.499785
Si Si4 0.901092 0.614405 0.196223
Si Si5 0.699019 0.965018 0.618492
Si Si6 0.301722 0.020869 0.190321
Si Si7 0.684483 0.225855 0.312341
Si Si8 0.271428 0.110633 0.942777
O O1 0.849904 0.563673 0.716620
O O2 0.811673 0.711720 0.496631
O O3 0.700674 0.822009 0.563317
O O4 0.096441 0.933636 0.787844
O O5 0.136773 0.457193 0.927359
O O6 0.797590 0.206446 0.812391
O O7 0.000000 0.500000 0.000000
O O8 0.959390 0.465609 0.326352
O O9 0.252231 0.549591 0.647058
O O10 0.902493 0.213556 0.453744
O O11 0.738609 0.681362 0.113801
O O12 0.111805 0.822070 0.306684
O O13 0.500000 0.000000 0.500000
O O14 0.734876 0.876309 0.762393
O O15 0.544388 0.098545 0.320857
O O16 0.205779 0.053403 0.016365
O O17 0.515872 0.150960 0.116650
#
# Coordination Sequence:
#
# PCOD9017766 Si02
#       8
#     2   2   2   2   2   2   2   2
#     4  10  21  35  60  89 114 152 194 243 287 334
#     4  10  17  30  52  83 120 143 183 241 284 336
#     4  10  20  39  60  84 115 151 201 245 283 343
#     4   9  20  32  54  82 114 153 193 231 292 342
#     4  10  20  36  58  81 118 154 187 237 295 359
#     4   9  19  34  55  81 112 153 195 220 293 349
#     4   9  20  37  61  81 115 165 189 237 293 343
#     4   9  19  36  56  84 111 159 190 233 285 351
#
# _framework density 23.818778999999999
#
# number of rings (size 3 to 8) (size 9 to 14) (size 15 to 20)
#    0.750    1.750    1.250    0.750    1.750    2.500 
#    0.000   12.500    0.000   21.750    0.000    0.000 
#    0.000    0.000    0.000    0.000    0.000    0.000 
#
# Total GULP energy -89176.052025 kJ/mol
# GULP energy per Si atom -5573.503252 kJ/mol
# Density = 2.376457 g / cm^3
# Si number density = 23.818779 Si / 1000 Ang^3
#
#
#
# Elastic Constant Matrix: (Units=GPa)
#
#
# Indices 1 2 3 4 5 6 
#
# 1 109.4031 29.6105 0.6475 9.4385 -17.5672 -3.7300
# 2 29.6105 64.4759 3.1555 -2.5070 6.1133 -3.5855
# 3 0.6475 3.1555 52.6237 5.4016 -8.2657 3.1950
# 4 9.4385 -2.5070 5.4016 16.2303 -5.4042 -0.9817
# 5 -17.5672 6.1133 -8.2657 -5.4042 39.3969 8.5998
# 6 -3.7300 -3.5855 3.1950 -0.9817 8.5998 32.9021
#
#
#
# Elastic Compliance Matrix: (Units=1/GPa)
#
#
# Indices 1 2 3 4 5 6 
#
# 1 0.012569 -0.006836 0.002072 -0.006993 0.006450 -0.001416
# 2 -0.006836 0.019869 -0.003002 0.006023 -0.006725 0.003619
# 3 0.002072 -0.003002 0.020998 -0.007001 0.005669 -0.003822
# 4 -0.006993 0.006023 -0.007001 0.070292 0.003759 0.001658
# 5 0.006450 -0.006725 0.005669 0.003759 0.032985 -0.009061
# 6 -0.001416 0.003619 -0.003822 0.001658 -0.009061 0.033416
#
#
# Mechanical properties :
#
#
# Convention : Reuss Voigt Hill
#
# Bulk Modulus (GPa) = 26.38121 32.59219 29.48670
# Shear Modulus (GPa) = 22.90470 30.57850 26.74160
#
# Velocity S-wave (km/s) = 3.10437 3.58690 3.35432
# Velocity P-wave (km/s) = 4.89381 5.55586 5.23531
#
# Compressibility (1/GPa) = 0.03790577
#
# Stress axis : x y z
#
# Youngs Moduli (GPa) = 79.55999 50.32958 47.62258
#
# Poissons Ratio (x) = 0.34405 -0.09868
# Poissons Ratio (y) = 0.54387 0.14294
# Poissons Ratio (z) = -0.16486 0.15107
#
# Static dielectric constant tensor:
#      x y z
#    x 1.971310 0.007260 -0.075970 
#    y 0.007260 1.921380 -0.060660 
#    z -0.075970 -0.060660 2.161700 
# 
# From -- ./inp_files/515686.got.cif
#   From: 2010.05.17/outbox.cif.g08.bks.cpg/sg2_258_cif.got.tgz:515686.got - 2010.06.03 11:33:40.
