data_PCOD9017620
_publ_section_title
;
Structure prediction by ZEFSAII (Michael W. Deem and Ramdas Pophale) SiO2 
 PCOD9017620
Probable space group: P -1
;
_chemical_formula_sum "Si O2"
_cell_formula_units_Z 16
_cell_length_a 11.552760
_cell_length_b 10.091696
_cell_length_c 7.291370
_cell_angle_alpha 77.533153
_cell_angle_beta 89.701306
_cell_angle_gamma 131.235987
_cell_volume 611.461724
_symmetry_space_group_name_H-M "P -1"
_symmetry_group_IT_number 2
_symmetry_cell_setting 'triclinic'
loop_
_space_group_symop_operation_xyz
x,y,z
-x,-y,-z
loop_
_atom_site_type_symbol
_atom_site_label
_atom_site_fract_x
_atom_site_fract_y
_atom_site_fract_z
Si Si1 0.074974 0.654199 0.198404
Si Si2 0.602175 0.470354 0.401072
Si Si3 0.758690 0.277517 0.204050
Si Si4 0.557481 0.350420 0.036615
Si Si5 0.812616 0.547144 0.661644
Si Si6 0.669843 0.921485 0.432730
Si Si7 0.023004 0.931111 0.704823
Si Si8 0.211425 0.052741 0.173268
O O1 0.149360 0.581731 0.321877
O O2 0.122086 0.839751 0.210900
O O3 0.889483 0.477647 0.234833
O O4 0.152897 0.706275 0.981893
O O5 0.500000 0.500000 0.500000
O O6 0.591272 0.470995 0.180423
O O7 0.769474 0.590865 0.462280
O O8 0.511427 0.260168 0.527415
O O9 0.611612 0.247199 0.144256
O O10 0.700346 0.104507 0.371089
O O11 0.376791 0.201207 0.024673
O O12 0.671513 0.464917 0.830502
O O13 0.959127 0.732710 0.706943
O O14 0.721316 0.902011 0.633299
O O15 0.794492 0.946011 0.288799
O O16 0.907625 0.915663 0.849695
O O17 0.000000 0.000000 0.500000
#
# Coordination Sequence:
#
# PCOD9017620 Si02
#       8
#     2   2   2   2   2   2   2   2
#     4  10  23  40  63  97 123 169 219 261 321 384
#     4  11  25  42  65  98 130 171 220 262 319 392
#     4  10  22  41  62  91 135 160 213 274 318 379
#     4  10  25  42  64  99 134 162 215 273 317 385
#     4  11  23  43  71  91 131 179 208 264 331 377
#     4  10  22  40  64  90 128 171 206 273 324 371
#     4  10  21  43  65  90 131 168 215 265 319 386
#     4  10  23  39  64  95 126 165 217 267 316 385
#
# _framework density 26.166803999999999
#
# number of rings (size 3 to 8) (size 9 to 14) (size 15 to 20)
#    0.000    1.750    1.250    2.250    5.250    7.500 
#    0.000    0.625    0.000    0.000    0.000    0.000 
#    0.000    0.000    0.000    0.000    0.000    0.000 
#
# Total GULP energy -89586.815516 kJ/mol
# GULP energy per Si atom -5599.175970 kJ/mol
# Density = 2.610725 g / cm^3
# Si number density = 26.166804 Si / 1000 Ang^3
#
#
#
# Elastic Constant Matrix: (Units=GPa)
#
#
# Indices 1 2 3 4 5 6 
#
# 1 84.6776 34.4165 21.7060 10.8345 -8.4287 2.4525
# 2 34.4165 106.7648 16.0251 1.0650 0.1255 -1.4506
# 3 21.7060 16.0251 66.7812 14.1235 -5.7427 11.8641
# 4 10.8345 1.0650 14.1235 44.3729 3.0474 3.2939
# 5 -8.4287 0.1255 -5.7427 3.0474 39.4620 1.6165
# 6 2.4525 -1.4506 11.8641 3.2939 1.6165 39.9530
#
#
#
# Elastic Compliance Matrix: (Units=1/GPa)
#
#
# Indices 1 2 3 4 5 6 
#
# 1 0.015007 -0.004370 -0.002958 -0.002818 0.003010 -0.000091
# 2 -0.004370 0.011057 -0.001856 0.001402 -0.001394 0.001162
# 3 -0.002958 -0.001856 0.018562 -0.004946 0.002666 -0.005098
# 4 -0.002818 0.001402 -0.004946 0.025006 -0.003247 -0.000238
# 5 0.003010 -0.001394 0.002666 -0.003247 0.026702 -0.001840
# 6 -0.000091 0.001162 -0.005098 -0.000238 -0.001840 0.026685
#
#
# Mechanical properties :
#
#
# Convention : Reuss Voigt Hill
#
# Bulk Modulus (GPa) = 38.08351 44.72433 41.40392
# Shear Modulus (GPa) = 33.30240 37.16263 35.23252
#
# Velocity S-wave (km/s) = 3.57136 3.77267 3.67339
# Velocity P-wave (km/s) = 5.62066 6.00887 5.81800
#
# Compressibility (1/GPa) = 0.02625808
#
# Stress axis : x y z
#
# Youngs Moduli (GPa) = 66.63649 90.43938 53.87359
#
# Poissons Ratio (x) = 0.39524 0.15936
# Poissons Ratio (y) = 0.29122 0.09997
# Poissons Ratio (z) = 0.19711 0.16782
#
# Static dielectric constant tensor:
#      x y z
#    x 2.071660 -0.003250 -0.070800 
#    y -0.003250 2.062830 0.024150 
#    z -0.070800 0.024150 2.101830 
# 
# From -- ./inp_files/243552.got.cif
#   From: 2010.05.17/outbox.cif.g08.bks.cpg/sg2_122_cif.got.tgz:243552.got - 2010.06.03 11:33:40.
