data_PCOD9017304
_publ_section_title
;
Structure prediction by ZEFSAII (Michael W. Deem and Ramdas Pophale) SiO2 
 PCOD9017304
Probable space group: P -1
;
_chemical_formula_sum "Si O2"
_cell_formula_units_Z 14
_cell_length_a 5.309026
_cell_length_b 5.302377
_cell_length_c 21.846039
_cell_angle_alpha 62.894314
_cell_angle_beta 72.490455
_cell_angle_gamma 83.219787
_cell_volume 521.936367
_symmetry_space_group_name_H-M "P -1"
_symmetry_group_IT_number 2
_symmetry_cell_setting 'triclinic'
loop_
_space_group_symop_operation_xyz
x,y,z
-x,-y,-z
loop_
_atom_site_type_symbol
_atom_site_label
_atom_site_fract_x
_atom_site_fract_y
_atom_site_fract_z
Si Si1 0.479627 0.286464 0.204312
Si Si2 0.822624 0.298964 0.736470
Si Si3 0.796170 0.098153 0.950742
Si Si4 0.333937 0.116591 0.668610
Si Si5 0.269359 0.212927 0.398684
Si Si6 0.838461 0.786304 0.467735
Si Si7 0.984622 0.363891 0.083571
O O1 0.305828 0.536918 0.215884
O O2 0.687134 0.365887 0.127887
O O3 0.297070 0.015497 0.229496
O O4 0.673151 0.170393 0.257152
O O5 0.710763 0.483528 0.667396
O O6 0.140523 0.302583 0.705840
O O7 0.834445 0.434096 0.910279
O O8 0.899224 0.945434 0.899428
O O9 0.500000 0.000000 0.000000
O O10 0.000000 0.000000 0.000000
O O11 0.213055 0.194866 0.602507
O O12 0.614940 0.029992 0.626545
O O13 0.372212 0.239494 0.457608
O O14 0.971763 0.095709 0.436366
O O15 0.000000 0.500000 0.500000
O O16 0.000000 0.500000 0.000000
#
# Coordination Sequence:
#
# PCOD9017304 Si02
#       7
#     2   2   2   2   2   2   2
#     4  11  26  47  69 100 140 182 238 285 353 434
#     4  11  24  46  67  97 141 181 230 289 348 428
#     4  10  21  42  73 109 148 189 235 304 372 447
#     4  11  23  43  67  95 133 184 224 286 355 411
#     4  10  24  42  67  95 138 175 236 287 347 425
#     4  11  22  43  64  99 132 179 229 295 349 413
#     4  10  22  46  73 104 143 186 236 304 369 437
#
# _framework density 26.823194000000001
#
# number of rings (size 3 to 8) (size 9 to 14) (size 15 to 20)
#    0.000    1.429    1.429    3.429    0.000    5.143 
#   15.429    0.000    0.000    0.000    0.000    0.000 
#    0.000    0.000    0.000    0.000    0.000    0.000 
#
# Total GULP energy -78070.055962 kJ/mol
# GULP energy per Si atom -5576.432569 kJ/mol
# Density = 2.676214 g / cm^3
# Si number density = 26.823194 Si / 1000 Ang^3
#
#
#
# Elastic Constant Matrix: (Units=GPa)
#
#
# Indices 1 2 3 4 5 6 
#
# 1 104.1338 56.2838 39.4516 2.8804 -24.7713 -19.0500
# 2 56.2838 225.8219 51.3242 31.4955 -21.8873 6.5861
# 3 39.4516 51.3242 149.7955 27.2866 -3.6634 -9.8178
# 4 2.8804 31.4955 27.2866 57.0507 -15.4539 -9.5748
# 5 -24.7713 -21.8873 -3.6634 -15.4539 46.7343 0.6982
# 6 -19.0500 6.5861 -9.8178 -9.5748 0.6982 43.9855
#
#
#
# Elastic Compliance Matrix: (Units=1/GPa)
#
#
# Indices 1 2 3 4 5 6 
#
# 1 0.016204 -0.003545 -0.003500 0.006517 0.008689 0.008048
# 2 -0.003545 0.006034 -0.000736 -0.003412 -0.000189 -0.003343
# 3 -0.003500 -0.000736 0.008548 -0.004378 -0.002972 -0.000404
# 4 0.006517 -0.003412 -0.004378 0.025090 0.009695 0.007664
# 5 0.008689 -0.000189 -0.002972 0.009695 0.028816 0.004781
# 6 0.008048 -0.003343 -0.000404 0.007664 0.004781 0.028223
#
#
# Mechanical properties :
#
#
# Convention : Reuss Voigt Hill
#
# Bulk Modulus (GPa) = 65.68431 85.98559 75.83495
# Shear Modulus (GPa) = 37.43843 51.73354 44.58599
#
# Velocity S-wave (km/s) = 3.74002 4.39645 4.08145
# Velocity P-wave (km/s) = 6.57202 7.60905 7.10947
#
# Compressibility (1/GPa) = 0.01522434
#
# Stress axis : x y z
#
# Youngs Moduli (GPa) = 61.71279 165.72402 116.98316
#
# Poissons Ratio (x) = 0.58744 0.40949
# Poissons Ratio (y) = 0.21875 0.08610
# Poissons Ratio (z) = 0.21602 0.12197
#
# Static dielectric constant tensor:
#      x y z
#    x 2.142850 0.113860 -0.063700 
#    y 0.113860 2.143810 0.083680 
#    z -0.063700 0.083680 2.088840 
# 
# From -- ./inp_files/125631.got.cif
#   From: 2010.05.17/outbox.cif.g08.bks.cpg/sg2_63_cif.got.tgz:125631.got - 2010.06.03 11:33:40.
