data_PCOD9017077
_publ_section_title
;
Structure prediction by ZEFSAII (Michael W. Deem and Ramdas Pophale) SiO2 
 PCOD9017077
Probable space group: P -1
;
_chemical_formula_sum "Si O2"
_cell_formula_units_Z 16
_cell_length_a 11.744342
_cell_length_b 5.182304
_cell_length_c 18.836361
_cell_angle_alpha 124.117636
_cell_angle_beta 52.533662
_cell_angle_gamma 98.709132
_cell_volume 721.225630
_symmetry_space_group_name_H-M "P -1"
_symmetry_group_IT_number 2
_symmetry_cell_setting 'triclinic'
loop_
_space_group_symop_operation_xyz
x,y,z
-x,-y,-z
loop_
_atom_site_type_symbol
_atom_site_label
_atom_site_fract_x
_atom_site_fract_y
_atom_site_fract_z
Si Si1 0.444956 0.928786 0.318102
Si Si2 0.789215 0.415349 0.465931
Si Si3 0.718787 0.770116 0.106139
Si Si4 0.147181 0.714324 0.422543
Si Si5 0.916682 0.397080 0.847766
Si Si6 0.415364 0.878157 0.574746
Si Si7 0.140852 0.683700 0.884656
Si Si8 0.063840 0.356773 0.275269
O O1 0.355703 0.308873 0.409930
O O2 0.567696 0.909300 0.331052
O O3 0.544922 0.803325 0.192137
O O4 0.309141 0.780305 0.363179
O O5 0.878831 0.325706 0.490577
O O6 0.739763 0.133459 0.402115
O O7 0.889268 0.530109 0.388033
O O8 0.811335 0.519974 0.092486
O O9 0.739965 0.133936 0.160491
O O10 0.786358 0.618566 0.982133
O O11 0.151686 0.423432 0.321352
O O12 0.000000 0.000000 0.500000
O O13 0.891875 0.497715 0.790688
O O14 0.069686 0.474502 0.826703
O O15 0.922341 0.022686 0.797750
O O16 0.500000 0.500000 0.500000
O O17 0.500000 0.000000 0.500000
O O18 0.000000 0.000000 0.000000
#
# Coordination Sequence:
#
# PCOD9017077 Si02
#       8
#     2   2   2   2   2   2   2   2
#     4  11  26  44  72 104 144 184 235 290 367 431
#     4  11  25  45  71 100 145 178 237 301 360 428
#     4  11  24  44  72 105 144 187 232 290 358 433
#     4  12  25  48  71 101 140 195 250 291 352 424
#     4  11  24  44  67 104 141 182 239 286 345 416
#     4  10  22  41  64 100 139 173 216 283 362 423
#     4  10  21  42  71 100 142 189 231 280 350 428
#     4  12  26  42  72 100 138 186 243 293 340 410
#
# _framework density 22.184456000000001
#
# number of rings (size 3 to 8) (size 9 to 14) (size 15 to 20)
#    0.000    1.000    2.500    4.875    7.000    0.000 
#    0.000    1.250    0.000    0.000    0.000    0.000 
#    0.000    0.000    0.000    0.000    0.000    0.000 
#
# Total GULP energy -89348.907125 kJ/mol
# GULP energy per Si atom -5584.306695 kJ/mol
# Density = 2.213396 g / cm^3
# Si number density = 22.184456 Si / 1000 Ang^3
#
#
#
# Elastic Constant Matrix: (Units=GPa)
#
#
# Indices 1 2 3 4 5 6 
#
# 1 85.4028 10.6487 34.3804 -5.3147 19.4244 7.2169
# 2 10.6487 93.0844 33.0325 -6.4327 7.2411 -7.0991
# 3 34.3804 33.0325 143.5000 -10.4731 -3.7641 -2.6543
# 4 -5.3147 -6.4327 -10.4731 44.1090 5.6855 4.5775
# 5 19.4244 7.2411 -3.7641 5.6855 26.6022 -4.1270
# 6 7.2169 -7.0991 -2.6543 4.5775 -4.1270 41.1348
#
#
#
# Elastic Compliance Matrix: (Units=1/GPa)
#
#
# Indices 1 2 3 4 5 6 
#
# 1 0.017626 0.000662 -0.004607 0.003638 -0.015288 -0.005214
# 2 0.000662 0.012260 -0.002957 0.001609 -0.004398 0.001189
# 3 -0.004607 -0.002957 0.008946 0.000271 0.005595 0.001406
# 4 0.003638 0.001609 0.000271 0.024989 -0.009022 -0.004029
# 5 -0.015288 -0.004398 0.005595 -0.009022 0.054022 0.008708
# 6 -0.005214 0.001189 0.001406 -0.004029 0.008708 0.026843
#
#
# Mechanical properties :
#
#
# Convention : Reuss Voigt Hill
#
# Bulk Modulus (GPa) = 39.95636 53.12337 46.53987
# Shear Modulus (GPa) = 29.97009 38.63091 34.30050
#
# Velocity S-wave (km/s) = 3.67951 4.17748 3.93638
# Velocity P-wave (km/s) = 6.00848 6.87507 6.45633
#
# Compressibility (1/GPa) = 0.02502731
#
# Stress axis : x y z
#
# Youngs Moduli (GPa) = 56.73558 81.56282 111.78745
#
# Poissons Ratio (x) = -0.05396 0.51501
# Poissons Ratio (y) = -0.03754 0.33052
# Poissons Ratio (z) = 0.26138 0.24116
#
# Static dielectric constant tensor:
#      x y z
#    x 1.891680 0.015190 0.009110 
#    y 0.015190 1.860790 0.041840 
#    z 0.009110 0.041840 1.847040 
# 
# From -- ./inp_files/564528.got.cif
#   From: 2010.05.17/outbox.cif.g08.bks.cpg/sg2_283_cif.got.tgz:564528.got - 2010.06.03 11:33:40.
