data_PCOD9017576
_publ_section_title
;
Structure prediction by ZEFSAII (Michael W. Deem and Ramdas Pophale) SiO2 
 PCOD9017576
Probable space group: P -1
;
_chemical_formula_sum "Si O2"
_cell_formula_units_Z 16
_cell_length_a 12.785489
_cell_length_b 5.073012
_cell_length_c 11.986119
_cell_angle_alpha 101.336166
_cell_angle_beta 100.738955
_cell_angle_gamma 120.598231
_cell_volume 617.193113
_symmetry_space_group_name_H-M "P -1"
_symmetry_group_IT_number 2
_symmetry_cell_setting 'triclinic'
loop_
_space_group_symop_operation_xyz
x,y,z
-x,-y,-z
loop_
_atom_site_type_symbol
_atom_site_label
_atom_site_fract_x
_atom_site_fract_y
_atom_site_fract_z
Si Si1 0.839585 0.901274 0.900829
Si Si2 0.525247 0.310010 0.395092
Si Si3 0.634332 0.335250 0.961892
Si Si4 0.250880 0.916744 0.299579
Si Si5 0.045891 0.806909 0.614874
Si Si6 0.023893 0.746792 0.845952
Si Si7 0.204976 0.276401 0.496800
Si Si8 0.526252 0.424455 0.151389
O O1 0.760261 0.577368 0.934695
O O2 0.970319 0.972364 0.876875
O O3 0.744400 0.856539 0.779892
O O4 0.886841 0.186944 0.025105
O O5 0.500000 0.500000 0.500000
O O6 0.662255 0.367291 0.452527
O O7 0.552419 0.470683 0.291491
O O8 0.388218 0.960924 0.330535
O O9 0.521462 0.357416 0.884924
O O10 0.587284 0.961571 0.921905
O O11 0.638992 0.464032 0.098534
O O12 0.114174 0.592902 0.218046
O O13 0.235734 0.038103 0.425147
O O14 0.091962 0.794979 0.745503
O O15 0.911305 0.770462 0.601685
O O16 0.000000 0.500000 0.500000
O O17 0.144635 0.133687 0.593777
#
# Coordination Sequence:
#
# PCOD9017576 Si02
#       8
#     2   2   2   2   2   2   2   2
#     4  11  23  39  63  95 127 172 222 272 337 397
#     4  10  22  41  67  98 132 176 220 276 338 413
#     4  10  22  41  68  92 133 183 214 284 332 403
#     4  11  20  43  63  93 138 164 217 277 333 400
#     4  11  22  44  65  88 129 170 217 280 328 399
#     4  11  24  39  64  96 124 175 222 272 334 400
#     4  10  23  41  64  93 127 173 221 267 339 395
#     4  10  21  43  64  97 135 173 226 269 345 398
#
# _framework density 25.923812999999999
#
# number of rings (size 3 to 8) (size 9 to 14) (size 15 to 20)
#    0.000    1.500    3.750    1.125    1.750    0.000 
#    2.250    2.500    0.000    0.000    0.000    0.000 
#    0.000    0.000    0.000    0.000    0.000    0.000 
#
# Total GULP energy -89424.354428 kJ/mol
# GULP energy per Si atom -5589.022152 kJ/mol
# Density = 2.586481 g / cm^3
# Si number density = 25.923813 Si / 1000 Ang^3
#
#
#
# Elastic Constant Matrix: (Units=GPa)
#
#
# Indices 1 2 3 4 5 6 
#
# 1 78.3269 14.1488 20.0602 0.1220 1.8009 17.6042
# 2 14.1488 91.0367 22.1773 -0.9258 12.3662 13.0226
# 3 20.0602 22.1773 140.2013 -20.9023 -19.9557 12.7112
# 4 0.1220 -0.9258 -20.9023 46.6073 18.9064 1.7772
# 5 1.8009 12.3662 -19.9557 18.9064 39.5569 8.3005
# 6 17.6042 13.0226 12.7112 1.7772 8.3005 31.1623
#
#
#
# Elastic Compliance Matrix: (Units=1/GPa)
#
#
# Indices 1 2 3 4 5 6 
#
# 1 0.014996 -0.001063 -0.001242 -0.000726 0.000995 -0.007744
# 2 -0.001063 0.012762 -0.002153 0.001501 -0.005209 -0.002553
# 3 -0.001242 -0.002153 0.008995 0.002099 0.005003 -0.003520
# 4 -0.000726 0.001501 0.002099 0.027553 -0.012701 0.000738
# 5 0.000995 -0.005209 0.005003 -0.012701 0.037490 -0.009687
# 6 -0.007744 -0.002553 -0.003520 0.000738 -0.009687 0.041506
#
#
# Mechanical properties :
#
#
# Convention : Reuss Voigt Hill
#
# Bulk Modulus (GPa) = 35.92227 46.92640 41.42434
# Shear Modulus (GPa) = 30.96026 40.34386 35.65206
#
# Velocity S-wave (km/s) = 3.45958 3.94921 3.71248
# Velocity P-wave (km/s) = 5.46308 6.23987 5.86435
#
# Compressibility (1/GPa) = 0.02783788
#
# Stress axis : x y z
#
# Youngs Moduli (GPa) = 66.68501 78.35588 111.17218
#
# Poissons Ratio (x) = 0.08328 0.13807
# Poissons Ratio (y) = 0.07087 0.23934
# Poissons Ratio (z) = 0.08282 0.16869
#
# Static dielectric constant tensor:
#      x y z
#    x 2.092660 -0.039810 -0.027030 
#    y -0.039810 2.125430 0.044180 
#    z -0.027030 0.044180 2.064860 
# 
# From -- ./inp_files/427768.got.cif
#   From: 2010.05.17/outbox.cif.g08.bks.cpg/sg2_214_cif.got.tgz:427768.got - 2010.06.03 11:33:40.
