data_PCOD9017706
_publ_section_title
;
Structure prediction by ZEFSAII (Michael W. Deem and Ramdas Pophale) SiO2 
 PCOD9017706
Probable space group: P -1
;
_chemical_formula_sum "Si O2"
_cell_formula_units_Z 16
_cell_length_a 18.000344
_cell_length_b 9.488285
_cell_length_c 11.594128
_cell_angle_alpha 81.297083
_cell_angle_beta 42.214390
_cell_angle_gamma 49.230929
_cell_volume 763.080632
_symmetry_space_group_name_H-M "P -1"
_symmetry_group_IT_number 2
_symmetry_cell_setting 'triclinic'
loop_
_space_group_symop_operation_xyz
x,y,z
-x,-y,-z
loop_
_atom_site_type_symbol
_atom_site_label
_atom_site_fract_x
_atom_site_fract_y
_atom_site_fract_z
Si Si1 0.982959 0.610499 0.622639
Si Si2 0.683717 0.389220 0.351208
Si Si3 0.562259 0.818901 0.543749
Si Si4 0.753214 0.401240 0.667931
Si Si5 0.348911 0.877123 0.960435
Si Si6 0.929119 0.601235 0.202912
Si Si7 0.026388 0.124803 0.824744
Si Si8 0.880300 0.144080 0.784931
O O1 0.000000 0.500000 0.500000
O O2 0.163467 0.527089 0.427591
O O3 0.973564 0.541424 0.767434
O O4 0.795209 0.909547 0.804285
O O5 0.500000 0.500000 0.500000
O O6 0.624012 0.603815 0.444587
O O7 0.795499 0.169618 0.338230
O O8 0.848774 0.250481 0.086367
O O9 0.398055 0.948893 0.804553
O O10 0.739369 0.706815 0.415063
O O11 0.500000 0.000000 0.500000
O O12 0.549722 0.616389 0.814358
O O13 0.753570 0.331198 0.802084
O O14 0.919695 0.136707 0.446866
O O15 0.240781 0.860228 0.023288
O O16 0.908964 0.792306 0.210959
O O17 0.000000 0.500000 0.000000
O O18 0.938725 0.214958 0.787349
#
# Coordination Sequence:
#
# PCOD9017706 Si02
#       8
#     2   2   2   2   2   2   2   2
#     4  11  25  44  69  99 143 186 236 296 358 423
#     4  11  24  42  65  98 138 177 236 291 349 416
#     4  12  24  43  69 102 143 190 238 287 360 432
#     4  10  21  43  66 100 135 184 237 290 356 427
#     4  11  23  41  70  99 137 187 239 293 353 429
#     4  12  24  45  69  99 145 191 234 290 359 427
#     4  11  24  41  67  98 135 183 233 294 350 416
#     4  10  22  40  70  98 137 179 234 298 358 418
#
# _framework density 20.967642999999999
#
# number of rings (size 3 to 8) (size 9 to 14) (size 15 to 20)
#    0.000    1.000    2.500    4.125    1.750    1.500 
#    0.000    2.500    0.000    0.000    0.000    0.000 
#    0.000    0.000    0.000    0.000    0.000    0.000 
#
# Total GULP energy -89261.653519 kJ/mol
# GULP energy per Si atom -5578.853345 kJ/mol
# Density = 2.091992 g / cm^3
# Si number density = 20.967643 Si / 1000 Ang^3
#
#
#
# Elastic Constant Matrix: (Units=GPa)
#
#
# Indices 1 2 3 4 5 6 
#
# 1 133.3152 55.0227 41.6487 3.3101 3.5058 17.2553
# 2 55.0227 104.2019 34.1314 3.7849 -2.1541 6.4120
# 3 41.6487 34.1314 86.2354 -0.2280 -12.8699 2.9463
# 4 3.3101 3.7849 -0.2280 37.0713 1.6466 -4.8645
# 5 3.5058 -2.1541 -12.8699 1.6466 27.3482 -2.5911
# 6 17.2553 6.4120 2.9463 -4.8645 -2.5911 39.0114
#
#
#
# Elastic Compliance Matrix: (Units=1/GPa)
#
#
# Indices 1 2 3 4 5 6 
#
# 1 0.011321 -0.004382 -0.004203 -0.000979 -0.004129 -0.004366
# 2 -0.004382 0.012926 -0.002964 -0.000966 0.000237 -0.000067
# 3 -0.004203 -0.002964 0.015924 0.000654 0.007925 0.001751
# 4 -0.000979 -0.000966 0.000654 0.027723 -0.000939 0.003937
# 5 -0.004129 0.000237 0.007925 -0.000939 0.041261 0.003812
# 6 -0.004366 -0.000067 0.001751 0.003937 0.003812 0.028187
#
#
# Mechanical properties :
#
#
# Convention : Reuss Voigt Hill
#
# Bulk Modulus (GPa) = 58.57637 65.03979 61.80808
# Shear Modulus (GPa) = 30.09669 33.54949 31.82309
#
# Velocity S-wave (km/s) = 3.79276 4.00441 3.90002
# Velocity P-wave (km/s) = 6.86857 7.24340 7.05848
#
# Compressibility (1/GPa) = 0.01707173
#
# Stress axis : x y z
#
# Youngs Moduli (GPa) = 88.33457 77.36410 62.79879
#
# Poissons Ratio (x) = 0.33903 0.26392
# Poissons Ratio (y) = 0.38711 0.18616
# Poissons Ratio (z) = 0.37123 0.22934
#
# Static dielectric constant tensor:
#      x y z
#    x 1.766870 -0.034150 0.043090 
#    y -0.034150 1.797310 -0.009380 
#    z 0.043090 -0.009380 1.762220 
# 
# From -- ./inp_files/462092.got.cif
#   From: 2010.05.17/outbox.cif.g08.bks.cpg/sg2_232_cif.got.tgz:462092.got - 2010.06.03 11:33:40.
