data_PCOD9017852
_publ_section_title
;
Structure prediction by ZEFSAII (Michael W. Deem and Ramdas Pophale) SiO2 
 PCOD9017852
Probable space group: P -1
;
_chemical_formula_sum "Si O2"
_cell_formula_units_Z 15
_cell_length_a 10.862196
_cell_length_b 8.876119
_cell_length_c 9.033187
_cell_angle_alpha 62.465113
_cell_angle_beta 115.211831
_cell_angle_gamma 121.019848
_cell_volume 641.318583
_symmetry_space_group_name_H-M "P -1"
_symmetry_group_IT_number 2
_symmetry_cell_setting 'triclinic'
loop_
_space_group_symop_operation_xyz
x,y,z
-x,-y,-z
loop_
_atom_site_type_symbol
_atom_site_label
_atom_site_fract_x
_atom_site_fract_y
_atom_site_fract_z
Si Si1 0.413938 0.273161 0.431373
Si Si2 0.606105 0.989804 0.194713
Si Si3 0.108497 0.672329 0.178238
Si Si4 0.649536 0.649730 0.932692
Si Si5 0.000000 0.000000 0.000000
Si Si6 0.161586 0.141612 0.784955
Si Si7 0.199729 0.622146 0.920963
Si Si8 0.730837 0.550015 0.510490
O O1 0.446173 0.140324 0.627826
O O2 0.376214 0.221787 0.264360
O O3 0.563197 0.459647 0.405416
O O4 0.288578 0.331296 0.415389
O O5 0.722318 0.919855 0.208882
O O6 0.693111 0.200419 0.193901
O O7 0.500000 0.000000 0.000000
O O8 0.221035 0.615420 0.354943
O O9 0.955436 0.491195 0.183164
O O10 0.169370 0.690716 0.033256
O O11 0.073937 0.844623 0.129398
O O12 0.500000 0.500000 0.000000
O O13 0.773673 0.783775 0.049989
O O14 0.720838 0.518487 0.956314
O O15 0.010739 0.981526 0.828956
O O16 0.159745 0.310813 0.613879
#
# Coordination Sequence:
#
# PCOD9017852 Si02
#       8
#     2   2   2   2   1   2   2   2
#     4  10  22  39  70 102 136 175 227 276 344 407
#     4  11  23  43  70 101 134 180 227 279 336 411
#     4  11  23  43  71  93 135 180 228 275 335 405
#     4  12  22  43  67  99 138 173 223 289 338 398
#     4  12  24  44  64  98 132 178 224 278 332 392
#     4  11  24  42  66  97 137 175 222 282 342 386
#     4  11  23  42  67  99 132 183 223 272 343 404
#     4  10  21  43  67 100 131 182 227 274 338 417
#
# _framework density 23.389310999999999
#
# number of rings (size 3 to 8) (size 9 to 14) (size 15 to 20)
#    0.000    1.067    5.333    1.600    1.867    0.533 
#    2.400    4.000    0.000    0.000    0.000    0.000 
#    0.000    0.000    0.000    0.000    0.000    0.000 
#
# Total GULP energy -83537.680554 kJ/mol
# GULP energy per Si atom -5569.178704 kJ/mol
# Density = 2.333608 g / cm^3
# Si number density = 23.389311 Si / 1000 Ang^3
#
#
#
# Elastic Constant Matrix: (Units=GPa)
#
#
# Indices 1 2 3 4 5 6 
#
# 1 67.0182 -3.2054 25.8471 -4.8068 5.4216 -4.1926
# 2 -3.2054 40.6587 27.1029 -18.3963 7.1465 -0.9968
# 3 25.8471 27.1029 122.8995 -17.6140 -4.2817 -5.5325
# 4 -4.8068 -18.3963 -17.6140 35.1042 -0.3786 0.0839
# 5 5.4216 7.1465 -4.2817 -0.3786 26.6850 -14.3107
# 6 -4.1926 -0.9968 -5.5325 0.0839 -14.3107 30.5813
#
#
#
# Elastic Compliance Matrix: (Units=1/GPa)
#
#
# Indices 1 2 3 4 5 6 
#
# 1 0.018180 0.008121 -0.005395 0.003960 -0.007648 -0.001809
# 2 0.008121 0.043217 -0.009566 0.018776 -0.018818 -0.008066
# 3 -0.005395 -0.009566 0.011936 0.000314 0.008239 0.004963
# 4 0.003960 0.018776 0.000314 0.038964 -0.006191 -0.001792
# 5 -0.007648 -0.018818 0.008239 -0.006191 0.060369 0.028096
# 6 -0.001809 -0.008066 0.004963 -0.001792 0.028096 0.046239
#
#
# Mechanical properties :
#
#
# Convention : Reuss Voigt Hill
#
# Bulk Modulus (GPa) = 16.76338 36.67394 26.71866
# Shear Modulus (GPa) = 19.80427 30.52955 25.16691
#
# Velocity S-wave (km/s) = 2.91301 3.61678 3.28380
# Velocity P-wave (km/s) = 4.30079 5.75807 5.08194
#
# Compressibility (1/GPa) = 0.05965384
#
# Stress axis : x y z
#
# Youngs Moduli (GPa) = 55.00583 23.13879 83.77714
#
# Poissons Ratio (x) = -0.18791 0.45195
# Poissons Ratio (y) = -0.44670 0.80144
# Poissons Ratio (z) = 0.29674 0.22135
#
# Static dielectric constant tensor:
#      x y z
#    x 1.756450 -0.100750 0.056490 
#    y -0.100750 1.757570 0.063960 
#    z 0.056490 0.063960 1.918240 
# 
# From -- ./inp_files/199475.got.cif
#   From: 2010.05.17/outbox.cif.g08.bks.cpg/sg2_100_cif.got.tgz:199475.got - 2010.06.03 11:33:40.
