data_PCOD9017468
_publ_section_title
;
Structure prediction by ZEFSAII (Michael W. Deem and Ramdas Pophale) SiO2 
 PCOD9017468
Probable space group: P -1
;
_chemical_formula_sum "Si O2"
_cell_formula_units_Z 16
_cell_length_a 13.696269
_cell_length_b 5.434681
_cell_length_c 22.285164
_cell_angle_alpha 74.105146
_cell_angle_beta 27.476869
_cell_angle_gamma 82.559173
_cell_volume 711.613852
_symmetry_space_group_name_H-M "P -1"
_symmetry_group_IT_number 2
_symmetry_cell_setting 'triclinic'
loop_
_space_group_symop_operation_xyz
x,y,z
-x,-y,-z
loop_
_atom_site_type_symbol
_atom_site_label
_atom_site_fract_x
_atom_site_fract_y
_atom_site_fract_z
Si Si1 0.308432 0.251100 0.642940
Si Si2 0.318075 0.994147 0.839483
Si Si3 0.522200 0.235652 0.059468
Si Si4 0.640190 0.100542 0.555347
Si Si5 0.122704 0.270851 0.617152
Si Si6 0.076981 0.568717 0.097455
Si Si7 0.949045 0.737459 0.975166
Si Si8 0.631575 0.303930 0.860607
O O1 0.500000 0.500000 0.500000
O O2 0.443905 0.071323 0.614999
O O3 0.172240 0.159137 0.662553
O O4 0.144518 0.359672 0.768106
O O5 0.229356 0.766534 0.952384
O O6 0.138944 0.968362 0.885104
O O7 0.537080 0.013874 0.682832
O O8 0.289227 0.246014 0.875313
O O9 0.768273 0.392038 0.932193
O O10 0.373024 0.391062 0.166862
O O11 0.478104 0.919504 0.113146
O O12 0.496421 0.250799 0.000653
O O13 0.753103 0.415867 0.474991
O O14 0.791432 0.914448 0.464079
O O15 0.870661 0.263993 0.744606
O O16 0.031619 0.296018 0.103734
O O17 0.000000 0.500000 0.000000
#
# Coordination Sequence:
#
# PCOD9017468 Si02
#       8
#     2   2   2   2   2   2   2   2
#     4  10  22  39  58  97 133 168 206 249 316 390
#     4  10  22  38  57  91 125 171 219 256 303 371
#     4  10  22  39  67  94 122 160 210 274 315 373
#     4  11  24  39  64  90 131 175 210 247 311 384
#     4  11  23  42  64  91 129 173 205 261 317 386
#     4  11  22  39  64  94 128 168 209 268 315 372
#     4   9  19  34  57  83 123 166 206 258 300 359
#     4  10  21  43  63  93 125 159 213 265 327 368
#
# _framework density 22.484103999999999
#
# number of rings (size 3 to 8) (size 9 to 14) (size 15 to 20)
#    0.000    1.750    1.250    3.375    8.750    0.000 
#    4.500    0.000    0.000    4.500    0.000    0.000 
#    0.000    0.000    0.000    0.000    0.000    0.000 
#
# Total GULP energy -89160.959683 kJ/mol
# GULP energy per Si atom -5572.559980 kJ/mol
# Density = 2.243293 g / cm^3
# Si number density = 22.484104 Si / 1000 Ang^3
#
#
#
# Elastic Constant Matrix: (Units=GPa)
#
#
# Indices 1 2 3 4 5 6 
#
# 1 45.2512 20.9798 23.3768 2.2506 -3.0661 6.5746
# 2 20.9798 111.3716 51.7183 35.7831 6.4039 12.5616
# 3 23.3768 51.7183 129.0237 30.6942 7.2593 -5.7420
# 4 2.2506 35.7831 30.6942 43.9913 -1.6755 3.5564
# 5 -3.0661 6.4039 7.2593 -1.6755 40.4530 -1.2702
# 6 6.5746 12.5616 -5.7420 3.5564 -1.2702 30.3781
#
#
#
# Elastic Compliance Matrix: (Units=1/GPa)
#
#
# Indices 1 2 3 4 5 6 
#
# 1 0.027623 -0.004413 -0.005238 0.006440 0.003819 -0.005738
# 2 -0.004413 0.014972 -0.002981 -0.009589 -0.002717 -0.004791
# 3 -0.005238 -0.002981 0.011656 -0.005938 -0.002100 0.005177
# 4 0.006440 -0.009589 -0.005938 0.034710 0.004433 -0.002430
# 5 0.003819 -0.002717 -0.002100 0.004433 0.026015 0.000469
# 6 -0.005738 -0.004791 0.005177 -0.002430 0.000469 0.037424
#
#
# Mechanical properties :
#
#
# Convention : Reuss Voigt Hill
#
# Bulk Modulus (GPa) = 34.49876 53.08848 43.79362
# Shear Modulus (GPa) = 26.69141 35.60258 31.14699
#
# Velocity S-wave (km/s) = 3.44920 3.98358 3.72599
# Velocity P-wave (km/s) = 5.58924 6.69488 6.16689
#
# Compressibility (1/GPa) = 0.02898655
#
# Stress axis : x y z
#
# Youngs Moduli (GPa) = 36.20177 66.79173 85.79401
#
# Poissons Ratio (x) = 0.29472 0.44942
# Poissons Ratio (y) = 0.15974 0.25576
# Poissons Ratio (z) = 0.18964 0.19911
#
# Static dielectric constant tensor:
#      x y z
#    x 1.862650 0.017300 0.010830 
#    y 0.017300 2.077990 -0.021990 
#    z 0.010830 -0.021990 1.853970 
# 
# From -- ./inp_files/76059.got.cif
#   From: 2010.05.17/outbox.cif.g08.bks.cpg/sg2_39_cif.got.tgz:76059.got - 2010.06.03 11:33:40.
