data_PCOD9017078
_publ_section_title
;
Structure prediction by ZEFSAII (Michael W. Deem and Ramdas Pophale) SiO2 
 PCOD9017078
Probable space group: P -1
;
_chemical_formula_sum "Si O2"
_cell_formula_units_Z 14
_cell_length_a 9.834861
_cell_length_b 15.376545
_cell_length_c 5.110716
_cell_angle_alpha 63.433610
_cell_angle_beta 59.998116
_cell_angle_gamma 65.352169
_cell_volume 579.684348
_symmetry_space_group_name_H-M "P -1"
_symmetry_group_IT_number 2
_symmetry_cell_setting 'triclinic'
loop_
_space_group_symop_operation_xyz
x,y,z
-x,-y,-z
loop_
_atom_site_type_symbol
_atom_site_label
_atom_site_fract_x
_atom_site_fract_y
_atom_site_fract_z
Si Si1 0.060415 0.930939 0.286065
Si Si2 0.386576 0.965338 0.947597
Si Si3 0.399861 0.435042 0.854454
Si Si4 0.358123 0.165516 0.516923
Si Si5 0.150192 0.630856 0.974633
Si Si6 0.520324 0.311910 0.430692
Si Si7 0.032511 0.277300 0.453311
O O1 0.001473 0.830241 0.439402
O O2 0.253264 0.903389 0.182195
O O3 0.000000 0.000000 0.500000
O O4 0.000000 0.000000 0.000000
O O5 0.516010 0.898940 0.719194
O O6 0.281783 0.077938 0.819632
O O7 0.500000 0.000000 0.000000
O O8 0.500000 0.500000 0.500000
O O9 0.237308 0.513761 0.000447
O O10 0.407651 0.352614 0.733988
O O11 0.481360 0.382708 0.112203
O O12 0.469948 0.211256 0.538663
O O13 0.214807 0.252237 0.421171
O O14 0.292650 0.688074 0.697194
O O15 0.007539 0.661968 0.858492
O O16 0.083834 0.663916 0.283272
#
# Coordination Sequence:
#
# PCOD9017078 Si02
#       7
#     2   2   2   2   2   2   2
#     4  12  25  45  68  98 132 178 229 274 335 386
#     4  11  26  44  71  92 140 180 232 277 332 401
#     4  10  21  42  71 101 131 171 223 283 328 399
#     4  11  27  44  63 103 135 183 221 280 340 399
#     4  11  23  42  69  98 130 172 225 274 331 394
#     4  11  23  42  72  99 133 173 228 273 336 401
#     4  12  25  42  66  97 139 175 220 275 330 400
#
# _framework density 24.151076
#
# number of rings (size 3 to 8) (size 9 to 14) (size 15 to 20)
#    0.000    0.857    1.429    6.857    8.000    0.000 
#    0.000    4.286    0.000    0.000    0.000    0.000 
#    0.000    0.000    0.000    0.000    0.000    0.000 
#
# Total GULP energy -78231.217771 kJ/mol
# GULP energy per Si atom -5587.944126 kJ/mol
# Density = 2.409611 g / cm^3
# Si number density = 24.151076 Si / 1000 Ang^3
#
#
#
# Elastic Constant Matrix: (Units=GPa)
#
#
# Indices 1 2 3 4 5 6 
#
# 1 116.6460 13.8483 7.5226 18.6494 9.4740 -1.3226
# 2 13.8483 89.1129 18.3421 35.8844 17.6944 14.9121
# 3 7.5226 18.3421 78.1299 19.0772 23.0203 2.7750
# 4 18.6494 35.8844 19.0772 40.4614 7.3995 21.9094
# 5 9.4740 17.6944 23.0203 7.3995 43.4016 -0.6367
# 6 -1.3226 14.9121 2.7750 21.9094 -0.6367 41.5245
#
#
#
# Elastic Compliance Matrix: (Units=1/GPa)
#
#
# Indices 1 2 3 4 5 6 
#
# 1 0.009811 0.001090 0.001090 -0.007814 -0.001774 0.003944
# 2 0.001090 0.018761 0.001496 -0.018353 -0.005510 0.002796
# 3 0.001090 0.001496 0.017154 -0.010464 -0.008107 0.003748
# 4 -0.007814 -0.018353 -0.010464 0.063034 0.003608 -0.026162
# 5 -0.001774 -0.005510 -0.008107 0.003608 0.029374 0.001011
# 6 0.003944 0.002796 0.003748 -0.026162 0.001011 0.036772
#
#
# Mechanical properties :
#
#
# Convention : Reuss Voigt Hill
#
# Bulk Modulus (GPa) = 18.84019 40.36831 29.60425
# Shear Modulus (GPa) = 26.99105 41.35588 34.17347
#
# Velocity S-wave (km/s) = 3.34667 4.14258 3.76571
# Velocity P-wave (km/s) = 4.76985 6.29544 5.58498
#
# Compressibility (1/GPa) = 0.05307803
#
# Stress axis : x y z
#
# Youngs Moduli (GPa) = 101.92272 53.30183 58.29667
#
# Poissons Ratio (x) = -0.05808 -0.06355
# Poissons Ratio (y) = -0.11107 -0.08722
# Poissons Ratio (z) = -0.11110 -0.07975
#
# Static dielectric constant tensor:
#      x y z
#    x 1.930800 -0.030490 0.000780 
#    y -0.030490 1.926580 -0.071260 
#    z 0.000780 -0.071260 2.022600 
# 
# From -- ./inp_files/37181.got.cif
#   From: 2010.05.17/outbox.cif.g08.bks.cpg/sg2_19_cif.got.tgz:37181.got - 2010.06.03 11:33:40.
