data_PCOD9017681
_publ_section_title
;
Structure prediction by ZEFSAII (Michael W. Deem and Ramdas Pophale) SiO2 
 PCOD9017681
Probable space group: P -1
;
_chemical_formula_sum "Si O2"
_cell_formula_units_Z 16
_cell_length_a 8.905848
_cell_length_b 14.937649
_cell_length_c 5.333035
_cell_angle_alpha 78.596523
_cell_angle_beta 64.596973
_cell_angle_gamma 100.250867
_cell_volume 599.918823
_symmetry_space_group_name_H-M "P -1"
_symmetry_group_IT_number 2
_symmetry_cell_setting 'triclinic'
loop_
_space_group_symop_operation_xyz
x,y,z
-x,-y,-z
loop_
_atom_site_type_symbol
_atom_site_label
_atom_site_fract_x
_atom_site_fract_y
_atom_site_fract_z
Si Si1 0.699672 0.476251 0.198085
Si Si2 0.735493 0.947234 0.774602
Si Si3 0.901367 0.213559 0.681179
Si Si4 0.985993 0.417388 0.749553
Si Si5 0.925021 0.821951 0.929307
Si Si6 0.546414 0.213591 0.143631
Si Si7 0.587268 0.646334 0.151089
Si Si8 0.421959 0.914302 0.404268
O O1 0.839900 0.549147 0.235733
O O2 0.544258 0.406200 0.505931
O O3 0.644138 0.558026 0.039091
O O4 0.814595 0.414466 0.031615
O O5 0.892103 0.920413 0.806163
O O6 0.646593 0.863292 0.687865
O O7 0.736026 0.049536 0.612365
O O8 0.584205 0.928595 0.099057
O O9 0.967133 0.321353 0.673399
O O10 0.979769 0.213702 0.349746
O O11 0.692120 0.191092 0.869160
O O12 0.977300 0.162218 0.880769
O O13 0.000000 0.500000 0.500000
O O14 0.738698 0.736555 0.109399
O O15 0.511583 0.308589 0.011271
O O16 0.615363 0.187552 0.374775
O O17 0.500000 0.000000 0.500000
#
# Coordination Sequence:
#
# PCOD9017681 Si02
#       8
#     2   2   2   2   2   2   2   2
#     4  10  22  42  64  96 130 174 228 285 342 400
#     4   9  21  42  71  98 133 173 222 276 330 399
#     4  12  27  44  66  98 138 183 224 279 342 407
#     4  11  23  41  65  90 135 178 225 281 351 398
#     4  11  26  45  67  99 139 178 227 279 339 395
#     4  10  23  39  68  96 132 177 225 272 336 403
#     4  10  21  43  65  98 129 174 232 281 331 399
#     4   9  19  40  71 101 131 168 224 271 334 395
#
# _framework density 26.670272000000001
#
# number of rings (size 3 to 8) (size 9 to 14) (size 15 to 20)
#    0.000    1.750    1.250    1.500   10.500    1.000 
#    2.250    5.000    0.000    0.000    0.000    0.000 
#    0.000    0.000    0.000    0.000    0.000    0.000 
#
# Total GULP energy -89501.348630 kJ/mol
# GULP energy per Si atom -5593.834289 kJ/mol
# Density = 2.660957 g / cm^3
# Si number density = 26.670272 Si / 1000 Ang^3
#
#
#
# Elastic Constant Matrix: (Units=GPa)
#
#
# Indices 1 2 3 4 5 6 
#
# 1 120.2748 26.3797 21.9792 -18.5540 2.4329 -28.3461
# 2 26.3797 86.6405 21.8096 -32.3801 4.3522 -29.9867
# 3 21.9792 21.8096 87.3432 -15.1350 -10.8599 -12.2275
# 4 -18.5540 -32.3801 -15.1350 43.2534 -13.2304 16.6244
# 5 2.4329 4.3522 -10.8599 -13.2304 44.0000 -19.5580
# 6 -28.3461 -29.9867 -12.2275 16.6244 -19.5580 59.6219
#
#
#
# Elastic Compliance Matrix: (Units=1/GPa)
#
#
# Indices 1 2 3 4 5 6 
#
# 1 0.009953 -0.000467 -0.001153 0.002467 0.001804 0.004164
# 2 -0.000467 0.018713 -0.000823 0.012237 0.004852 0.007200
# 3 -0.001153 -0.000823 0.013868 0.004611 0.006110 0.002600
# 4 0.002467 0.012237 0.004611 0.037987 0.011921 0.001592
# 5 0.001804 0.004852 0.006110 0.011921 0.032529 0.011898
# 6 0.004164 0.007200 0.002600 0.001592 0.011898 0.026366
#
#
# Mechanical properties :
#
#
# Convention : Reuss Voigt Hill
#
# Bulk Modulus (GPa) = 26.56306 48.28839 37.42572
# Shear Modulus (GPa) = 31.87725 44.31438 38.09582
#
# Velocity S-wave (km/s) = 3.46097 4.08065 3.78352
# Velocity P-wave (km/s) = 5.09436 6.35195 5.75759
#
# Compressibility (1/GPa) = 0.03764627
#
# Stress axis : x y z
#
# Youngs Moduli (GPa) = 100.47125 53.43843 72.11032
#
# Poissons Ratio (x) = 0.02498 0.08315
# Poissons Ratio (y) = 0.04696 0.05938
# Poissons Ratio (z) = 0.11585 0.04400
#
# Static dielectric constant tensor:
#      x y z
#    x 2.363630 -0.149570 -0.039290 
#    y -0.149570 2.387750 0.191890 
#    z -0.039290 0.191890 2.176540 
# 
# From -- ./inp_files/37873.got.cif
#   From: 2010.05.17/outbox.cif.g08.bks.cpg/sg2_19_cif.got.tgz:37873.got - 2010.06.03 11:33:40.
