data_PCOD9017840
_publ_section_title
;
Structure prediction by ZEFSAII (Michael W. Deem and Ramdas Pophale) SiO2 
 PCOD9017840
Probable space group: P -1
;
_chemical_formula_sum "Si O2"
_cell_formula_units_Z 15
_cell_length_a 11.863726
_cell_length_b 11.738460
_cell_length_c 16.241573
_cell_angle_alpha 42.095955
_cell_angle_beta 26.521664
_cell_angle_gamma 49.882654
_cell_volume 675.620921
_symmetry_space_group_name_H-M "P -1"
_symmetry_group_IT_number 2
_symmetry_cell_setting 'triclinic'
loop_
_space_group_symop_operation_xyz
x,y,z
-x,-y,-z
loop_
_atom_site_type_symbol
_atom_site_label
_atom_site_fract_x
_atom_site_fract_y
_atom_site_fract_z
Si Si1 0.431829 0.717987 0.160911
Si Si2 0.240973 0.132753 0.899439
Si Si3 0.626980 0.911433 0.670605
Si Si4 0.500000 0.500000 0.500000
Si Si5 0.703743 0.431083 0.230852
Si Si6 0.267820 0.730911 0.870238
Si Si7 0.623304 0.598325 0.943366
Si Si8 0.864483 0.982835 0.782727
O O1 0.522249 0.571198 0.238302
O O2 0.201477 0.820398 0.287479
O O3 0.408614 0.641330 0.126280
O O4 0.665109 0.861415 0.928162
O O5 0.375886 0.320908 0.715234
O O6 0.413001 0.006562 0.806971
O O7 0.181981 0.065040 0.066232
O O8 0.972837 0.160722 0.017340
O O9 0.499145 0.812226 0.728871
O O10 0.733743 0.774727 0.738194
O O11 0.856553 0.033992 0.422615
O O12 0.605479 0.395528 0.405542
O O13 0.682518 0.287216 0.249999
O O14 0.000000 0.500000 0.000000
O O15 0.208585 0.535753 0.047594
O O16 0.500000 0.500000 0.000000
#
# Coordination Sequence:
#
# PCOD9017840 Si02
#       8
#     2   2   2   1   2   2   2   2
#     4  10  21  43  66  97 136 172 216 287 334 380
#     4  12  25  44  67 102 138 170 232 284 327 405
#     4  11  25  45  71  97 135 188 223 269 345 398
#     4  12  26  40  68 100 128 178 216 274 346 388
#     4  11  22  45  68  97 139 169 225 283 330 403
#     4  10  23  45  70  99 139 179 220 285 333 393
#     4   9  20  42  68  96 132 175 224 270 328 401
#     4  11  24  43  66  98 139 171 225 287 324 402
#
# _framework density 22.201798
#
# number of rings (size 3 to 8) (size 9 to 14) (size 15 to 20)
#    0.000    1.333    4.000    0.400    3.733    2.133 
#    2.400    6.000    0.000    0.000    0.000    0.000 
#    0.000    0.000    0.000    0.000    0.000    0.000 
#
# Total GULP energy -83543.665090 kJ/mol
# GULP energy per Si atom -5569.577673 kJ/mol
# Density = 2.215127 g / cm^3
# Si number density = 22.201798 Si / 1000 Ang^3
#
#
#
# Elastic Constant Matrix: (Units=GPa)
#
#
# Indices 1 2 3 4 5 6 
#
# 1 70.9394 19.8714 16.2756 21.3309 16.3103 10.8859
# 2 19.8714 101.4748 21.1951 20.2509 6.9328 -8.5741
# 3 16.2756 21.1951 76.2530 27.0082 25.1670 -5.9698
# 4 21.3309 20.2509 27.0082 31.5046 10.2202 7.8599
# 5 16.3103 6.9328 25.1670 10.2202 16.2071 2.8141
# 6 10.8859 -8.5741 -5.9698 7.8599 2.8141 41.4843
#
#
#
# Elastic Compliance Matrix: (Units=1/GPa)
#
#
# Indices 1 2 3 4 5 6 
#
# 1 0.023268 -0.002017 0.010077 -0.013327 -0.029705 -0.000533
# 2 -0.002017 0.012123 -0.000391 -0.007670 0.001536 0.004328
# 3 0.010077 -0.000391 0.040204 -0.024920 -0.058733 0.011766
# 4 -0.013327 -0.007670 -0.024920 0.065407 0.016784 -0.015205
# 5 -0.029705 0.001536 -0.058733 0.016784 0.174219 -0.015338
# 6 -0.000533 0.004328 0.011766 -0.015205 -0.015338 0.030754
#
#
# Mechanical properties :
#
#
# Convention : Reuss Voigt Hill
#
# Bulk Modulus (GPa) = 10.99710 40.37238 25.68474
# Shear Modulus (GPa) = 13.85238 30.59422 22.22330
#
# Velocity S-wave (km/s) = 2.50057 3.71618 3.16724
# Velocity P-wave (km/s) = 3.64707 6.05286 4.99691
#
# Compressibility (1/GPa) = 0.09093309
#
# Stress axis : x y z
#
# Youngs Moduli (GPa) = 42.97658 82.49069 24.87304
#
# Poissons Ratio (x) = 0.16640 -0.25064
# Poissons Ratio (y) = 0.08669 0.00972
# Poissons Ratio (z) = -0.43307 0.03223
#
# Static dielectric constant tensor:
#      x y z
#    x 1.830600 -0.019750 0.025900 
#    y -0.019750 1.882390 -0.024600 
#    z 0.025900 -0.024600 1.803610 
# 
# From -- ./inp_files/518650.got.cif
#   From: 2010.05.17/outbox.cif.g08.bks.cpg/sg2_260_cif.got.tgz:518650.got - 2010.06.03 11:33:40.
