data_PCOD9017999
_publ_section_title
;
Structure prediction by ZEFSAII (Michael W. Deem and Ramdas Pophale) SiO2 
 PCOD9017999
Probable space group: P -1
;
_chemical_formula_sum "Si O2"
_cell_formula_units_Z 16
_cell_length_a 13.502268
_cell_length_b 8.129915
_cell_length_c 9.623441
_cell_angle_alpha 134.803970
_cell_angle_beta 89.925038
_cell_angle_gamma 69.838423
_cell_volume 654.608559
_symmetry_space_group_name_H-M "P -1"
_symmetry_group_IT_number 2
_symmetry_cell_setting 'triclinic'
loop_
_space_group_symop_operation_xyz
x,y,z
-x,-y,-z
loop_
_atom_site_type_symbol
_atom_site_label
_atom_site_fract_x
_atom_site_fract_y
_atom_site_fract_z
Si Si1 0.840206 0.346651 0.572015
Si Si2 0.347335 0.791798 0.556057
Si Si3 0.942891 0.860178 0.077923
Si Si4 0.849350 0.482116 0.947637
Si Si5 0.625598 0.925428 0.502696
Si Si6 0.703015 0.243723 0.874756
Si Si7 0.616406 0.442181 0.295541
Si Si8 0.893365 0.757885 0.715887
O O1 0.725915 0.331611 0.579995
O O2 0.898209 0.310925 0.701206
O O3 0.815053 0.635613 0.695739
O O4 0.907712 0.128750 0.323472
O O5 0.481283 0.605956 0.416150
O O6 0.335680 0.773283 0.710532
O O7 0.313307 0.060127 0.629876
O O8 0.071202 0.657467 0.002894
O O9 0.868070 0.731912 0.062743
O O10 0.924862 0.873017 0.920122
O O11 0.733212 0.467833 0.958055
O O12 0.665832 0.650052 0.419790
O O13 0.500000 0.000000 0.500000
O O14 0.629292 0.153289 0.729510
O O15 0.825115 0.980123 0.735333
O O16 0.648146 0.316960 0.069982
O O17 0.000000 0.500000 0.500000
#
# Coordination Sequence:
#
# PCOD9017999 Si02
#       8
#     2   2   2   2   2   2   2   2
#     4  11  21  42  65  92 133 179 222 276 344 414
#     4  10  21  43  67  97 140 180 228 286 342 400
#     4  10  23  42  64  96 129 179 225 274 350 403
#     4  10  23  39  63  97 130 172 227 283 331 413
#     4  10  23  44  66 101 138 181 228 288 343 401
#     4  12  24  43  69 101 132 183 232 276 352 418
#     4  10  24  43  67 100 138 181 232 286 342 415
#     4  11  26  43  66  99 138 175 230 289 345 416
#
# _framework density 24.442087999999998
#
# number of rings (size 3 to 8) (size 9 to 14) (size 15 to 20)
#    0.000    1.500    1.250    2.625    1.750    8.000 
#    0.000   10.000    0.000    0.000    0.000    0.000 
#    0.000    0.000    0.000    0.000    0.000    0.000 
#
# Total GULP energy -89415.637614 kJ/mol
# GULP energy per Si atom -5588.477351 kJ/mol
# Density = 2.438646 g / cm^3
# Si number density = 24.442088 Si / 1000 Ang^3
#
#
#
# Elastic Constant Matrix: (Units=GPa)
#
#
# Indices 1 2 3 4 5 6 
#
# 1 96.4352 20.7322 24.9765 1.9944 29.3190 26.8975
# 2 20.7322 73.8664 23.0387 -0.4937 17.2449 23.6954
# 3 24.9765 23.0387 134.2998 -9.4496 28.6945 14.2932
# 4 1.9944 -0.4937 -9.4496 42.3409 6.0117 7.0999
# 5 29.3190 17.2449 28.6945 6.0117 48.1531 2.3506
# 6 26.8975 23.6954 14.2932 7.0999 2.3506 46.6596
#
#
#
# Elastic Compliance Matrix: (Units=1/GPa)
#
#
# Indices 1 2 3 4 5 6 
#
# 1 0.015686 0.000851 0.000189 0.002278 -0.009794 -0.009386
# 2 0.000851 0.018090 -0.000696 0.002526 -0.006432 -0.009525
# 3 0.000189 -0.000696 0.009276 0.003331 -0.005672 -0.002818
# 4 0.002278 0.002526 0.003331 0.026533 -0.007233 -0.007289
# 5 -0.009794 -0.006432 -0.005672 -0.007233 0.032824 0.010097
# 6 -0.009386 -0.009525 -0.002818 -0.007289 0.010097 0.033143
#
#
# Mechanical properties :
#
#
# Convention : Reuss Voigt Hill
#
# Bulk Modulus (GPa) = 22.86218 49.12182 35.99200
# Shear Modulus (GPa) = 33.45713 43.15433 38.30573
#
# Velocity S-wave (km/s) = 3.70379 4.20643 3.96309
# Velocity P-wave (km/s) = 5.25972 6.61309 5.97485
#
# Compressibility (1/GPa) = 0.04374036
#
# Stress axis : x y z
#
# Youngs Moduli (GPa) = 63.74989 55.27900 107.79962
#
# Poissons Ratio (x) = -0.04705 -0.02032
# Poissons Ratio (y) = -0.05426 0.07501
# Poissons Ratio (z) = -0.01202 0.03846
#
# Static dielectric constant tensor:
#      x y z
#    x 1.967530 -0.006510 -0.063870 
#    y -0.006510 2.036650 0.008360 
#    z -0.063870 0.008360 1.961710 
# 
# From -- ./inp_files/299854.got.cif
#   From: 2010.05.17/outbox.cif.g08.bks.cpg/sg2_150_cif.got.tgz:299854.got - 2010.06.03 11:33:40.
