data_PCOD9017510
_publ_section_title
;
Structure prediction by ZEFSAII (Michael W. Deem and Ramdas Pophale) SiO2 
 PCOD9017510
Probable space group: P -1
;
_chemical_formula_sum "Si O2"
_cell_formula_units_Z 14
_cell_length_a 16.834942
_cell_length_b 8.530675
_cell_length_c 11.581725
_cell_angle_alpha 125.186596
_cell_angle_beta 46.559362
_cell_angle_gamma 148.870784
_cell_volume 624.003626
_symmetry_space_group_name_H-M "P -1"
_symmetry_group_IT_number 2
_symmetry_cell_setting 'triclinic'
loop_
_space_group_symop_operation_xyz
x,y,z
-x,-y,-z
loop_
_atom_site_type_symbol
_atom_site_label
_atom_site_fract_x
_atom_site_fract_y
_atom_site_fract_z
Si Si1 0.359582 0.302347 0.159100
Si Si2 0.566209 0.855980 0.584571
Si Si3 0.986344 0.398594 0.841000
Si Si4 0.917034 0.179771 0.459793
Si Si5 0.440596 0.478158 0.728995
Si Si6 0.205601 0.494326 0.479603
Si Si7 0.058283 0.878217 0.846326
O O1 0.454149 0.326515 0.180583
O O2 0.301481 0.426264 0.327056
O O3 0.186630 0.961772 0.146957
O O4 0.500000 0.500000 0.000000
O O5 0.416688 0.633440 0.735591
O O6 0.504045 0.633185 0.450067
O O7 0.714263 0.950279 0.555257
O O8 0.664381 0.170564 0.566194
O O9 0.146391 0.490544 0.664150
O O10 0.972079 0.565424 0.842677
O O11 0.000000 0.500000 0.000000
O O12 0.954623 0.125266 0.280148
O O13 0.000000 0.500000 0.500000
O O14 0.019730 0.231286 0.485994
O O15 0.254596 0.139722 0.805584
O O16 0.000000 0.000000 0.000000
#
# Coordination Sequence:
#
# PCOD9017510 Si02
#       7
#     2   2   2   2   2   2   2
#     4  12  29  45  68 101 146 182 226 284 344 411
#     4   9  19  39  73  97 130 171 224 290 333 394
#     4  12  26  49  67 101 142 183 233 278 342 417
#     4   9  17  37  70  94 127 163 233 268 334 387
#     4  10  21  43  64 102 136 169 227 282 341 397
#     4  11  23  45  73 101 133 189 229 280 340 412
#     4  11  24  43  70  98 133 181 224 287 336 409
#
# _framework density 22.435766000000001
#
# number of rings (size 3 to 8) (size 9 to 14) (size 15 to 20)
#    0.000    1.429    4.286    2.143    6.000    1.714 
#    5.143    1.429    0.000    0.000    0.000    0.000 
#    0.000    0.000    0.000    0.000    0.000    0.000 
#
# Total GULP energy -77979.668509 kJ/mol
# GULP energy per Si atom -5569.976322 kJ/mol
# Density = 2.238470 g / cm^3
# Si number density = 22.435766 Si / 1000 Ang^3
#
#
#
# Elastic Constant Matrix: (Units=GPa)
#
#
# Indices 1 2 3 4 5 6 
#
# 1 28.0304 10.7139 34.1811 0.3835 16.2646 1.0580
# 2 10.7139 141.9459 30.8811 -6.0445 5.0815 -10.3639
# 3 34.1811 30.8811 143.5027 7.0933 16.1326 -14.1478
# 4 0.3835 -6.0445 7.0933 30.3759 -1.8003 14.3805
# 5 16.2646 5.0815 16.1326 -1.8003 37.6249 8.7120
# 6 1.0580 -10.3639 -14.1478 14.3805 8.7120 26.6317
#
#
#
# Elastic Compliance Matrix: (Units=1/GPa)
#
#
# Indices 1 2 3 4 5 6 
#
# 1 0.064833 -0.001467 -0.013508 0.003377 -0.020624 -0.005399
# 2 -0.001467 0.007591 -0.001055 0.000706 -0.000416 0.002207
# 3 -0.013508 -0.001055 0.012371 -0.008947 -0.002619 0.012386
# 4 0.003377 0.000706 -0.008947 0.054049 0.013733 -0.038290
# 5 -0.020624 -0.000416 -0.002619 0.013733 0.042431 -0.022030
# 6 -0.005399 0.002207 0.012386 -0.038290 -0.022030 0.073085
#
#
# Mechanical properties :
#
#
# Convention : Reuss Voigt Hill
#
# Bulk Modulus (GPa) = 18.96233 51.67014 35.31623
# Shear Modulus (GPa) = 16.44755 34.77335 25.61045
#
# Velocity S-wave (km/s) = 2.71051 3.94116 3.38228
# Velocity P-wave (km/s) = 4.27387 6.61744 5.57030
#
# Compressibility (1/GPa) = 0.05273614
#
# Stress axis : x y z
#
# Youngs Moduli (GPa) = 15.42435 131.73117 80.83682
#
# Poissons Ratio (x) = 0.19323 1.09191
# Poissons Ratio (y) = 0.02263 0.08526
# Poissons Ratio (z) = 0.20835 0.13893
#
# Static dielectric constant tensor:
#      x y z
#    x 1.852580 0.072930 -0.130250 
#    y 0.072930 1.833050 -0.169140 
#    z -0.130250 -0.169140 2.318580 
# 
# From -- ./inp_files/462341.got.cif
#   From: 2010.05.17/outbox.cif.g08.bks.cpg/sg2_232_cif.got.tgz:462341.got - 2010.06.03 11:33:40.
