data_PCOD9017994
_publ_section_title
;
Structure prediction by ZEFSAII (Michael W. Deem and Ramdas Pophale) SiO2 
 PCOD9017994
Probable space group: P -1
;
_chemical_formula_sum "Si O2"
_cell_formula_units_Z 12
_cell_length_a 8.988592
_cell_length_b 12.025987
_cell_length_c 12.029418
_cell_angle_alpha 51.434759
_cell_angle_beta 140.714190
_cell_angle_gamma 100.045977
_cell_volume 503.961060
_symmetry_space_group_name_H-M "P -1"
_symmetry_group_IT_number 2
_symmetry_cell_setting 'triclinic'
loop_
_space_group_symop_operation_xyz
x,y,z
-x,-y,-z
loop_
_atom_site_type_symbol
_atom_site_label
_atom_site_fract_x
_atom_site_fract_y
_atom_site_fract_z
Si Si1 0.219054 0.872496 0.304731
Si Si2 0.823660 0.686091 0.852493
Si Si3 0.060459 0.102905 0.647908
Si Si4 0.324139 0.270911 0.799082
Si Si5 0.544294 0.457967 0.680706
Si Si6 0.564120 0.646577 0.954106
O O1 0.519639 0.851861 0.512987
O O2 0.018635 0.943475 0.253646
O O3 0.375869 0.657731 0.513826
O O4 0.000000 0.000000 0.000000
O O5 0.728411 0.650195 0.937578
O O6 0.000000 0.500000 0.000000
O O7 0.094889 0.694165 0.007008
O O8 0.783292 0.173706 0.364041
O O9 0.093304 0.254229 0.613427
O O10 0.376386 0.936856 0.886554
O O11 0.399359 0.373336 0.699482
O O12 0.277391 0.352721 0.844083
O O13 0.500000 0.500000 0.500000
O O14 0.500000 0.500000 0.000000
#
# Coordination Sequence:
#
# PCOD9017994 Si02
#       6
#     2   2   2   2   2   2
#     4  10  21  43  67  97 135 174 226 280 344 405
#     4   9  21  42  63 100 134 174 222 277 345 405
#     4  10  24  44  66  97 138 180 228 285 337 406
#     4  11  24  45  67  99 137 180 232 278 344 408
#     4  11  24  41  68  99 134 179 226 281 343 408
#     4  11  23  41  72  98 134 178 228 284 342 411
#
# _framework density 23.811361999999999
#
# number of rings (size 3 to 8) (size 9 to 14) (size 15 to 20)
#    0.000    1.667    0.000    4.500    4.667    1.333 
#   12.000    2.500    0.000    0.000    0.000    0.000 
#    0.000    0.000    0.000    0.000    0.000    0.000 
#
# Total GULP energy -67030.940926 kJ/mol
# GULP energy per Si atom -5585.911744 kJ/mol
# Density = 2.375717 g / cm^3
# Si number density = 23.811362 Si / 1000 Ang^3
#
#
#
# Elastic Constant Matrix: (Units=GPa)
#
#
# Indices 1 2 3 4 5 6 
#
# 1 95.6986 44.2490 53.0060 15.6887 7.9575 2.1403
# 2 44.2490 117.5032 35.9322 3.2904 3.9398 0.1382
# 3 53.0060 35.9322 118.7954 17.6445 20.0896 18.5762
# 4 15.6887 3.2904 17.6445 43.5415 -2.4728 5.4552
# 5 7.9575 3.9398 20.0896 -2.4728 38.9083 0.7091
# 6 2.1403 0.1382 18.5762 5.4552 0.7091 34.8562
#
#
#
# Elastic Compliance Matrix: (Units=1/GPa)
#
#
# Indices 1 2 3 4 5 6 
#
# 1 0.016128 -0.004201 -0.005800 -0.003486 -0.000149 0.002666
# 2 -0.004201 0.010580 -0.001813 0.001375 0.000794 0.000951
# 3 -0.005800 -0.001813 0.014020 -0.002975 -0.005940 -0.006522
# 4 -0.003486 0.001375 -0.002975 0.025831 0.003794 -0.002326
# 5 -0.000149 0.000794 -0.005940 0.003794 0.028923 0.001989
# 6 0.002666 0.000951 -0.006522 -0.002326 0.001989 0.032321
#
#
# Mechanical properties :
#
#
# Convention : Reuss Voigt Hill
#
# Bulk Modulus (GPa) = 58.47232 66.48574 62.47903
# Shear Modulus (GPa) = 31.82029 36.71520 34.26774
#
# Velocity S-wave (km/s) = 3.65958 3.93099 3.79771
# Velocity P-wave (km/s) = 6.51663 6.97037 6.74731
#
# Compressibility (1/GPa) = 0.01710211
#
# Stress axis : x y z
#
# Youngs Moduli (GPa) = 62.00255 94.51388 71.32523
#
# Poissons Ratio (x) = 0.39701 0.41367
# Poissons Ratio (y) = 0.26044 0.12933
# Poissons Ratio (z) = 0.35960 0.17137
#
# Static dielectric constant tensor:
#      x y z
#    x 1.882500 0.036050 0.041010 
#    y 0.036050 2.038720 -0.003990 
#    z 0.041010 -0.003990 1.982270 
# 
# From -- ./inp_files/387020.got.cif
#   From: 2010.05.17/outbox.cif.g08.bks.cpg/sg2_194_cif.got.tgz:387020.got - 2010.06.03 11:33:40.
