data_PCOD9017387
_publ_section_title
;
Structure prediction by ZEFSAII (Michael W. Deem and Ramdas Pophale) SiO2 
 PCOD9017387
Probable space group: P -1
;
_chemical_formula_sum "Si O2"
_cell_formula_units_Z 14
_cell_length_a 15.802352
_cell_length_b 7.132597
_cell_length_c 9.299874
_cell_angle_alpha 136.586484
_cell_angle_beta 57.933051
_cell_angle_gamma 111.365309
_cell_volume 610.067523
_symmetry_space_group_name_H-M "P -1"
_symmetry_group_IT_number 2
_symmetry_cell_setting 'triclinic'
loop_
_space_group_symop_operation_xyz
x,y,z
-x,-y,-z
loop_
_atom_site_type_symbol
_atom_site_label
_atom_site_fract_x
_atom_site_fract_y
_atom_site_fract_z
Si Si1 0.572190 0.700749 0.127325
Si Si2 0.064784 0.084032 0.175657
Si Si3 0.726385 0.937208 0.650082
Si Si4 0.818172 0.367946 0.320677
Si Si5 0.138350 0.663814 0.403947
Si Si6 0.448976 0.263773 0.504808
Si Si7 0.722647 0.979540 0.986784
O O1 0.580020 0.639376 0.254397
O O2 0.524782 0.005136 0.315466
O O3 0.500000 0.500000 0.000000
O O4 0.678260 0.723595 0.965926
O O5 0.096052 0.370289 0.234010
O O6 0.960333 0.137608 0.375154
O O7 0.159585 0.039957 0.171305
O O8 0.082095 0.814465 0.912832
O O9 0.802327 0.673449 0.449731
O O10 0.644837 0.850056 0.559328
O O11 0.785251 0.196709 0.691254
O O12 0.673273 0.999260 0.886670
O O13 0.815868 0.355646 0.487109
O O14 0.729397 0.211845 0.232183
O O15 0.500000 0.500000 0.500000
#
# Coordination Sequence:
#
# PCOD9017387 Si02
#       7
#     2   2   2   2   2   2   2
#     4  11  25  45  70  91 129 168 213 262 323 377
#     4   9  23  42  66  89 136 165 216 262 319 371
#     4  12  25  39  68  96 130 166 217 259 318 380
#     4  10  21  43  60  92 131 168 207 265 309 378
#     4  11  22  43  66  94 125 178 211 264 314 374
#     4  11  26  45  66 100 127 166 211 267 317 383
#     4  10  23  42  62  95 130 166 206 268 312 377
#
# _framework density 22.94828
#
# number of rings (size 3 to 8) (size 9 to 14) (size 15 to 20)
#    0.857    0.571    1.429    3.000    2.000    8.000 
#    0.000    0.000    0.000    0.000    0.000    0.000 
#    0.000    0.000    0.000    0.000    0.000    0.000 
#
# Total GULP energy -78105.040289 kJ/mol
# GULP energy per Si atom -5578.931449 kJ/mol
# Density = 2.289605 g / cm^3
# Si number density = 22.948280 Si / 1000 Ang^3
#
#
#
# Elastic Constant Matrix: (Units=GPa)
#
#
# Indices 1 2 3 4 5 6 
#
# 1 80.9324 37.9890 44.4052 -12.7769 23.5997 -0.4838
# 2 37.9890 128.1503 25.3584 -9.8905 14.4089 0.7033
# 3 44.4052 25.3584 86.8051 -0.6006 14.4666 -9.2411
# 4 -12.7769 -9.8905 -0.6006 39.0155 -10.7057 -0.7302
# 5 23.5997 14.4089 14.4666 -10.7057 49.6622 8.4099
# 6 -0.4838 0.7033 -9.2411 -0.7302 8.4099 36.3765
#
#
#
# Elastic Compliance Matrix: (Units=1/GPa)
#
#
# Indices 1 2 3 4 5 6 
#
# 1 0.021195 -0.003566 -0.008935 0.004411 -0.005385 -0.000586
# 2 -0.003566 0.009149 -0.000797 0.001008 -0.000460 -0.000300
# 3 -0.008935 -0.000797 0.017132 -0.003331 -0.002019 0.004649
# 4 0.004411 0.001008 -0.003331 0.028622 0.004987 -0.001385
# 5 -0.005385 -0.000460 -0.002019 0.004987 0.025573 -0.006388
# 6 -0.000586 -0.000300 0.004649 -0.001385 -0.006388 0.030118
#
#
# Mechanical properties :
#
#
# Convention : Reuss Voigt Hill
#
# Bulk Modulus (GPa) = 47.89225 56.82146 52.35686
# Shear Modulus (GPa) = 30.23966 37.55319 33.89643
#
# Velocity S-wave (km/s) = 3.63399 4.04967 3.84745
# Velocity P-wave (km/s) = 6.20668 6.83234 6.52701
#
# Compressibility (1/GPa) = 0.02088020
#
# Stress axis : x y z
#
# Youngs Moduli (GPa) = 47.18023 109.29870 58.37055
#
# Poissons Ratio (x) = 0.38975 0.52155
# Poissons Ratio (y) = 0.16824 0.04652
# Poissons Ratio (z) = 0.42157 0.08711
#
# Static dielectric constant tensor:
#      x y z
#    x 1.945870 -0.018200 -0.086340 
#    y -0.018200 1.810750 0.024140 
#    z -0.086340 0.024140 1.939990 
# 
# From -- ./inp_files/324215.got.cif
#   From: 2010.05.17/outbox.cif.g08.bks.cpg/sg2_163_cif.got.tgz:324215.got - 2010.06.03 11:33:40.
