data_PCOD9017876
_publ_section_title
;
Structure prediction by ZEFSAII (Michael W. Deem and Ramdas Pophale) SiO2 
 PCOD9017876
Probable space group: P -1
;
_chemical_formula_sum "Si O2"
_cell_formula_units_Z 14
_cell_length_a 21.714673
_cell_length_b 9.463425
_cell_length_c 7.934698
_cell_angle_alpha 46.807172
_cell_angle_beta 134.976820
_cell_angle_gamma 149.700633
_cell_volume 569.217230
_symmetry_space_group_name_H-M "P -1"
_symmetry_group_IT_number 2
_symmetry_cell_setting 'triclinic'
loop_
_space_group_symop_operation_xyz
x,y,z
-x,-y,-z
loop_
_atom_site_type_symbol
_atom_site_label
_atom_site_fract_x
_atom_site_fract_y
_atom_site_fract_z
Si Si1 0.542365 0.058361 0.341915
Si Si2 0.790178 0.635663 0.449650
Si Si3 0.369035 0.190925 0.430861
Si Si4 0.160411 0.145680 0.079783
Si Si5 0.975841 0.232213 0.190164
Si Si6 0.146561 0.796189 0.578155
Si Si7 0.738627 0.351856 0.940094
O O1 0.663041 0.398537 0.286874
O O2 0.500000 0.000000 0.500000
O O3 0.589401 0.917007 0.517060
O O4 0.415095 0.901977 0.118244
O O5 0.755771 0.502515 0.677972
O O6 0.898217 0.660689 0.576031
O O7 0.857142 0.954898 0.298678
O O8 0.500000 0.500000 0.500000
O O9 0.282015 0.227318 0.171978
O O10 0.266459 0.932758 0.575668
O O11 0.189956 0.413250 0.964837
O O12 0.141745 0.012164 0.335183
O O13 0.049556 0.907794 0.928536
O O14 0.000000 0.500000 0.000000
O O15 0.000000 0.500000 0.500000
O O16 0.195249 0.750055 0.868399
#
# Coordination Sequence:
#
# PCOD9017876 Si02
#       7
#     2   2   2   2   2   2   2
#     4  10  21  43  71 103 142 187 238 298 362 432
#     4  10  25  42  66  99 137 181 239 284 360 431
#     4  10  21  43  67 103 145 184 241 295 355 435
#     4  10  24  41  69 101 138 183 240 290 356 427
#     4  11  24  44  65  94 139 188 228 296 357 424
#     4  10  24  40  66 104 144 180 238 298 357 424
#     4  11  23  44  71 102 139 186 233 298 362 429
#
# _framework density 24.595182000000001
#
# number of rings (size 3 to 8) (size 9 to 14) (size 15 to 20)
#    0.857    0.857    1.429    1.714    2.000    7.429 
#    0.000    0.000    0.000    8.571    0.000    0.000 
#    0.000    0.000    0.000    0.000    0.000    0.000 
#
# Total GULP energy -78037.252799 kJ/mol
# GULP energy per Si atom -5574.089486 kJ/mol
# Density = 2.453920 g / cm^3
# Si number density = 24.595182 Si / 1000 Ang^3
#
#
#
# Elastic Constant Matrix: (Units=GPa)
#
#
# Indices 1 2 3 4 5 6 
#
# 1 75.8713 60.6871 17.0027 -4.2573 4.4274 9.7887
# 2 60.6871 195.3410 64.5073 -12.2226 17.2011 17.4331
# 3 17.0027 64.5073 111.3065 -26.7986 -0.2557 -0.0595
# 4 -4.2573 -12.2226 -26.7986 38.2222 0.4128 5.2603
# 5 4.4274 17.2011 -0.2557 0.4128 34.0312 5.2729
# 6 9.7887 17.4331 -0.0595 5.2603 5.2729 33.5043
#
#
#
# Elastic Compliance Matrix: (Units=1/GPa)
#
#
# Indices 1 2 3 4 5 6 
#
# 1 0.017803 -0.005561 0.000767 0.001093 0.000893 -0.002619
# 2 -0.005561 0.008759 -0.004361 -0.000519 -0.003369 -0.002329
# 3 0.000767 -0.004361 0.013309 0.007931 0.002030 0.000504
# 4 0.001093 -0.000519 0.007931 0.032390 0.000595 -0.005214
# 5 0.000893 -0.003369 0.002030 0.000595 0.031531 -0.003560
# 6 -0.002619 -0.002329 0.000504 -0.005214 -0.003560 0.033204
#
#
# Mechanical properties :
#
#
# Convention : Reuss Voigt Hill
#
# Bulk Modulus (GPa) = 46.37777 74.10144 60.23960
# Shear Modulus (GPa) = 30.77069 37.17300 33.97184
#
# Velocity S-wave (km/s) = 3.54091 3.89188 3.72054
# Velocity P-wave (km/s) = 5.96781 7.09856 6.55760
#
# Compressibility (1/GPa) = 0.02156206
#
# Stress axis : x y z
#
# Youngs Moduli (GPa) = 56.16913 114.16908 75.13931
#
# Poissons Ratio (x) = 0.63487 -0.05764
# Poissons Ratio (y) = 0.31235 0.32766
# Poissons Ratio (z) = -0.04309 0.49786
#
# Static dielectric constant tensor:
#      x y z
#    x 1.813200 0.033230 -0.087080 
#    y 0.033230 2.078740 -0.000200 
#    z -0.087080 -0.000200 1.999740 
# 
# From -- ./inp_files/343343.got.cif
#   From: 2010.05.17/outbox.cif.g08.bks.cpg/sg2_172_cif.got.tgz:343343.got - 2010.06.03 11:33:40.
