data_PCOD9017177
_publ_section_title
;
Structure prediction by ZEFSAII (Michael W. Deem and Ramdas Pophale) SiO2 
 PCOD9017177
Probable space group: P -1
;
_chemical_formula_sum "Si O2"
_cell_formula_units_Z 13
_cell_length_a 21.662548
_cell_length_b 18.278413
_cell_length_c 4.902182
_cell_angle_alpha 93.631800
_cell_angle_beta 94.750533
_cell_angle_gamma 160.977215
_cell_volume 567.402967
_symmetry_space_group_name_H-M "P -1"
_symmetry_group_IT_number 2
_symmetry_cell_setting 'triclinic'
loop_
_space_group_symop_operation_xyz
x,y,z
-x,-y,-z
loop_
_atom_site_type_symbol
_atom_site_label
_atom_site_fract_x
_atom_site_fract_y
_atom_site_fract_z
Si Si1 0.288909 0.271823 0.206172
Si Si2 0.931571 0.115141 0.983659
Si Si3 0.715512 0.580221 0.079803
Si Si4 0.283187 0.798701 0.883162
Si Si5 0.170826 0.764358 0.320401
Si Si6 0.244980 0.006855 0.642789
Si Si7 0.000000 0.000000 0.500000
O O1 0.500000 0.500000 0.500000
O O2 0.286382 0.336927 0.017204
O O3 0.213777 0.113861 0.991671
O O4 0.113428 0.084355 0.323889
O O5 0.810917 0.005495 0.640766
O O6 0.153155 0.331919 0.019199
O O7 0.925968 0.171630 0.223125
O O8 0.474564 0.283008 0.919801
O O9 0.837321 0.741142 0.437902
O O10 0.232927 0.771133 0.557671
O O11 0.084228 0.526109 0.853875
O O12 0.277173 0.862041 0.098002
O O13 0.500000 0.000000 0.000000
O O14 0.239881 0.919600 0.502378
#
# Coordination Sequence:
#
# PCOD9017177 Si02
#       7
#     2   2   2   2   2   2   1
#     4  11  22  39  62  84 115 168 220 276 319 376
#     4  11  26  40  63  89 124 171 217 262 330 378
#     4  11  26  39  63  88 124 168 225 275 324 374
#     4  10  21  42  72 100 129 171 206 251 308 377
#     4  10  23  41  66 101 134 163 214 253 306 387
#     4  12  26  44  63  95 134 169 206 269 323 377
#     4  10  22  38  60  82 116 156 220 274 314 372
#
# _framework density 22.911405999999999
#
# number of rings (size 3 to 8) (size 9 to 14) (size 15 to 20)
#    0.000    1.231    1.538    4.154    8.615    3.692 
#    0.000    0.000    0.000    0.000    0.000    0.000 
#    0.000    0.000    0.000    0.000    0.000    0.000 
#
# Total GULP energy -72445.168597 kJ/mol
# GULP energy per Si atom -5572.705277 kJ/mol
# Density = 2.285926 g / cm^3
# Si number density = 22.911406 Si / 1000 Ang^3
#
#
#
# Elastic Constant Matrix: (Units=GPa)
#
#
# Indices 1 2 3 4 5 6 
#
# 1 81.2094 40.9945 26.0422 27.4467 -11.0731 23.3136
# 2 40.9945 56.2078 18.7129 10.9140 1.4924 27.6562
# 3 26.0422 18.7129 74.6575 1.1368 3.5800 17.1731
# 4 27.4467 10.9140 1.1368 32.8355 3.3329 0.6400
# 5 -11.0731 1.4924 3.5800 3.3329 49.4147 -1.9885
# 6 23.3136 27.6562 17.1731 0.6400 -1.9885 36.4810
#
#
#
# Elastic Compliance Matrix: (Units=1/GPa)
#
#
# Indices 1 2 3 4 5 6 
#
# 1 0.032321 -0.014388 -0.006439 -0.022858 0.009452 -0.005800
# 2 -0.014388 0.038217 0.000340 0.000238 -0.005233 -0.020227
# 3 -0.006439 0.000340 0.016600 0.005099 -0.003169 -0.004219
# 4 -0.022858 0.000238 0.005099 0.049954 -0.008438 0.010691
# 5 0.009452 -0.005233 -0.003169 -0.008438 0.023345 0.000839
# 6 -0.005800 -0.020227 -0.004219 0.010691 0.000839 0.048296
#
#
# Mechanical properties :
#
#
# Convention : Reuss Voigt Hill
#
# Bulk Modulus (GPa) = 21.66203 42.61932 32.14068
# Shear Modulus (GPa) = 18.86110 32.16792 25.51451
#
# Velocity S-wave (km/s) = 2.87229 3.75108 3.34071
# Velocity P-wave (km/s) = 4.52496 6.11580 5.37951
#
# Compressibility (1/GPa) = 0.04616372
#
# Stress axis : x y z
#
# Youngs Moduli (GPa) = 30.93962 26.16659 60.23991
#
# Poissons Ratio (x) = 0.37648 0.38788
# Poissons Ratio (y) = 0.44516 -0.02047
# Poissons Ratio (z) = 0.19922 -0.00889
#
# Static dielectric constant tensor:
#      x y z
#    x 1.854550 -0.055290 -0.049020 
#    y -0.055290 2.210680 -0.136270 
#    z -0.049020 -0.136270 1.807470 
# 
# From -- ./inp_files/112021.got.cif
#   From: 2010.05.17/outbox.cif.g08.bks.cpg/sg2_57_cif.got.tgz:112021.got - 2010.06.03 11:33:40.
