data_PCOD9017412
_publ_section_title
;
Structure prediction by ZEFSAII (Michael W. Deem and Ramdas Pophale) SiO2 
 PCOD9017412
Probable space group: P -1
;
_chemical_formula_sum "Si O2"
_cell_formula_units_Z 12
_cell_length_a 14.983654
_cell_length_b 12.374743
_cell_length_c 6.233416
_cell_angle_alpha 111.353291
_cell_angle_beta 118.094955
_cell_angle_gamma 29.663651
_cell_volume 501.910255
_symmetry_space_group_name_H-M "P -1"
_symmetry_group_IT_number 2
_symmetry_cell_setting 'triclinic'
loop_
_space_group_symop_operation_xyz
x,y,z
-x,-y,-z
loop_
_atom_site_type_symbol
_atom_site_label
_atom_site_fract_x
_atom_site_fract_y
_atom_site_fract_z
Si Si1 0.414490 0.242387 0.930173
Si Si2 0.266673 0.185516 0.273385
Si Si3 0.055371 0.078529 0.654487
Si Si4 0.560752 0.308872 0.908338
Si Si5 0.297731 0.972925 0.520451
Si Si6 0.886549 0.462094 0.862567
O O1 0.218235 0.400016 0.935694
O O2 0.555451 0.125119 0.206717
O O3 0.410898 0.367905 0.893315
O O4 0.525621 0.044875 0.758719
O O5 0.241277 0.135177 0.421881
O O6 0.213401 0.372128 0.325751
O O7 0.106970 0.285683 0.004137
O O8 0.123557 0.077580 0.515392
O O9 0.888625 0.322020 0.736898
O O10 0.000000 0.000000 0.500000
O O11 0.237836 0.902923 0.892356
O O12 0.597942 0.224045 0.652505
O O13 0.500000 0.500000 0.000000
#
# Coordination Sequence:
#
# PCOD9017412 Si02
#       6
#     2   2   2   2   2   2
#     4  10  22  41  63  96 124 160 213 256 311 371
#     4  10  22  45  63  92 130 162 210 257 312 369
#     4  11  25  41  61  95 127 161 214 255 308 374
#     4  10  23  41  61  88 127 171 204 257 313 362
#     4  10  21  43  62  87 134 159 207 265 302 376
#     4  11  22  42  66  92 128 167 203 264 311 363
#
# _framework density 23.908656000000001
#
# number of rings (size 3 to 8) (size 9 to 14) (size 15 to 20)
#    0.000    1.667    5.000    0.500    4.667    4.667 
#    3.000    0.000    0.000    0.000    0.000    0.000 
#    0.000    0.000    0.000    0.000    0.000    0.000 
#
# Total GULP energy -67186.644168 kJ/mol
# GULP energy per Si atom -5598.887014 kJ/mol
# Density = 2.385424 g / cm^3
# Si number density = 23.908656 Si / 1000 Ang^3
#
#
#
# Elastic Constant Matrix: (Units=GPa)
#
#
# Indices 1 2 3 4 5 6 
#
# 1 123.4194 50.5697 24.7184 15.1157 -6.7488 13.6294
# 2 50.5697 134.0648 27.6945 11.3439 -7.3957 29.8095
# 3 24.7184 27.6945 82.3651 9.5997 -10.4471 10.6932
# 4 15.1157 11.3439 9.5997 25.6625 -2.4393 2.8414
# 5 -6.7488 -7.3957 -10.4471 -2.4393 40.4185 6.5021
# 6 13.6294 29.8095 10.6932 2.8414 6.5021 55.6805
#
#
#
# Elastic Compliance Matrix: (Units=1/GPa)
#
#
# Indices 1 2 3 4 5 6 
#
# 1 0.010229 -0.003093 -0.001428 -0.004018 0.000601 -0.000439
# 2 -0.003093 0.010151 -0.001533 -0.001444 0.001581 -0.004494
# 3 -0.001428 -0.001533 0.014098 -0.003257 0.003209 -0.001746
# 4 -0.004018 -0.001444 -0.003257 0.043260 0.000821 0.000079
# 5 0.000601 0.001581 0.003209 0.000821 0.026779 -0.004779
# 6 -0.000439 -0.004494 -0.001746 0.000079 -0.004779 0.021362
#
#
# Mechanical properties :
#
#
# Convention : Reuss Voigt Hill
#
# Bulk Modulus (GPa) = 44.70114 60.64606 52.67360
# Shear Modulus (GPa) = 34.37748 40.14342 37.26045
#
# Velocity S-wave (km/s) = 3.79604 4.10205 3.95200
# Velocity P-wave (km/s) = 6.16039 6.91784 6.55007
#
# Compressibility (1/GPa) = 0.02237079
#
# Stress axis : x y z
#
# Youngs Moduli (GPa) = 97.75963 98.51334 70.92988
#
# Poissons Ratio (x) = 0.30467 0.10132
# Poissons Ratio (y) = 0.30234 0.10872
# Poissons Ratio (z) = 0.13965 0.15100
#
# Static dielectric constant tensor:
#      x y z
#    x 1.896790 -0.015920 0.010750 
#    y -0.015920 1.917690 0.001160 
#    z 0.010750 0.001160 1.935750 
# 
# From -- ./inp_files/28644.got.cif
#   From: 2010.05.17/outbox.cif.g08.bks.cpg/sg2_15_cif.got.tgz:28644.got - 2010.06.03 11:33:40.
