data_PCOD9017705
_publ_section_title
;
Structure prediction by ZEFSAII (Michael W. Deem and Ramdas Pophale) SiO2 
 PCOD9017705
Probable space group: P -1
;
_chemical_formula_sum "Si O2"
_cell_formula_units_Z 14
_cell_length_a 8.081698
_cell_length_b 10.471239
_cell_length_c 8.435382
_cell_angle_alpha 119.062171
_cell_angle_beta 104.705332
_cell_angle_gamma 90.074170
_cell_volume 596.940047
_symmetry_space_group_name_H-M "P -1"
_symmetry_group_IT_number 2
_symmetry_cell_setting 'triclinic'
loop_
_space_group_symop_operation_xyz
x,y,z
-x,-y,-z
loop_
_atom_site_type_symbol
_atom_site_label
_atom_site_fract_x
_atom_site_fract_y
_atom_site_fract_z
Si Si1 0.104513 0.691463 0.986353
Si Si2 0.584728 0.416934 0.829768
Si Si3 0.280277 0.803749 0.757278
Si Si4 0.250328 0.232980 0.491792
Si Si5 0.973760 0.977323 0.168889
Si Si6 0.971355 0.417418 0.612213
Si Si7 0.596992 0.643756 0.703202
O O1 0.258736 0.661186 0.118294
O O2 0.990314 0.807919 0.097705
O O3 0.196170 0.750129 0.875284
O O4 0.989919 0.538281 0.822877
O O5 0.441678 0.288629 0.638716
O O6 0.640420 0.557749 0.815696
O O7 0.500000 0.500000 0.000000
O O8 0.476652 0.770249 0.786695
O O9 0.203869 0.956523 0.798114
O O10 0.199012 0.696679 0.530382
O O11 0.138382 0.071225 0.356065
O O12 0.129630 0.327600 0.615136
O O13 0.258065 0.285208 0.340620
O O14 0.000000 0.000000 0.000000
O O15 0.000000 0.500000 0.500000
O O16 0.500000 0.500000 0.500000
#
# Coordination Sequence:
#
# PCOD9017705 Si02
#       7
#     2   2   2   2   2   2   2
#     4  10  17  30  52  83 106 136 184 221 261 309
#     4  11  18  31  55  85 114 134 176 230 268 319
#     4   9  17  32  54  78 105 143 180 222 256 321
#     4  10  20  34  54  84 107 141 178 224 273 313
#     4   9  20  35  55  80 106 144 188 220 254 326
#     4   9  15  28  54  78  99 137 182 222 251 310
#     4  10  19  32  55  85 108 136 177 229 275 308
#
# _framework density 23.452943999999999
#
# number of rings (size 3 to 8) (size 9 to 14) (size 15 to 20)
#    0.000    2.286    2.857    3.429    0.000    0.571 
#    0.000    2.857    0.000   36.000    0.000    0.000 
#    0.000    0.000    0.000    0.000    0.000    0.000 
#
# Total GULP energy -78117.896530 kJ/mol
# GULP energy per Si atom -5579.849752 kJ/mol
# Density = 2.339956 g / cm^3
# Si number density = 23.452944 Si / 1000 Ang^3
#
#
#
# Elastic Constant Matrix: (Units=GPa)
#
#
# Indices 1 2 3 4 5 6 
#
# 1 93.8454 48.9108 41.3064 9.4576 -0.4302 -31.2897
# 2 48.9108 105.5021 64.0579 20.3845 0.8629 -44.7052
# 3 41.3064 64.0579 117.1422 18.2025 18.5542 -17.4456
# 4 9.4576 20.3845 18.2025 44.1361 -7.0963 -5.3574
# 5 -0.4302 0.8629 18.5542 -7.0963 35.7023 -2.4328
# 6 -31.2897 -44.7052 -17.4456 -5.3574 -2.4328 43.9494
#
#
#
# Elastic Compliance Matrix: (Units=1/GPa)
#
#
# Indices 1 2 3 4 5 6 
#
# 1 0.016047 -0.001365 -0.004191 0.000459 0.003082 0.008599
# 2 -0.001365 0.026914 -0.011335 -0.003867 0.005938 0.021763
# 3 -0.004191 -0.011335 0.017037 -0.003550 -0.009931 -0.008733
# 4 0.000459 -0.003867 -0.003550 0.026799 0.007178 -0.001351
# 5 0.003082 0.005938 -0.009931 0.007178 0.034975 0.007103
# 6 0.008599 0.021763 -0.008733 -0.001351 0.007103 0.047774
#
#
# Mechanical properties :
#
#
# Convention : Reuss Voigt Hill
#
# Bulk Modulus (GPa) = 38.14465 69.44888 53.79677
# Shear Modulus (GPa) = 23.57772 35.57188 29.57480
#
# Velocity S-wave (km/s) = 3.17412 3.89875 3.55495
# Velocity P-wave (km/s) = 5.45280 7.06706 6.31175
#
# Compressibility (1/GPa) = 0.02621599
#
# Stress axis : x y z
#
# Youngs Moduli (GPa) = 62.31809 37.15597 58.69702
#
# Poissons Ratio (x) = 0.05072 0.24599
# Poissons Ratio (y) = 0.08506 0.66531
# Poissons Ratio (z) = 0.26116 0.42115
#
# Static dielectric constant tensor:
#      x y z
#    x 1.919740 -0.014270 -0.003320 
#    y -0.014270 1.879130 -0.038740 
#    z -0.003320 -0.038740 1.903840 
# 
# From -- ./inp_files/173151.got.cif
#   From: 2010.05.17/outbox.cif.g08.bks.cpg/sg2_87_cif.got.tgz:173151.got - 2010.06.03 11:33:40.
