data_PCOD9017134
_publ_section_title
;
Structure prediction by ZEFSAII (Michael W. Deem and Ramdas Pophale) SiO2 
 PCOD9017134
Probable space group: P -1
;
_chemical_formula_sum "Si O2"
_cell_formula_units_Z 16
_cell_length_a 11.611318
_cell_length_b 20.566648
_cell_length_c 16.949049
_cell_angle_alpha 20.819116
_cell_angle_beta 149.251648
_cell_angle_gamma 137.044246
_cell_volume 676.293208
_symmetry_space_group_name_H-M "P -1"
_symmetry_group_IT_number 2
_symmetry_cell_setting 'triclinic'
loop_
_space_group_symop_operation_xyz
x,y,z
-x,-y,-z
loop_
_atom_site_type_symbol
_atom_site_label
_atom_site_fract_x
_atom_site_fract_y
_atom_site_fract_z
Si Si1 0.570678 0.508263 0.427369
Si Si2 0.798037 0.813404 0.193999
Si Si3 0.927229 0.223073 0.113364
Si Si4 0.360473 0.665672 0.664539
Si Si5 0.894175 0.802369 0.575583
Si Si6 0.602817 0.114201 0.869336
Si Si7 0.467530 0.002080 0.632294
Si Si8 0.588649 0.397089 0.957454
O O1 0.723829 0.641669 0.381277
O O2 0.705097 0.271361 0.783449
O O3 0.323300 0.583454 0.248130
O O4 0.510577 0.549835 0.250613
O O5 0.071743 0.716993 0.432165
O O6 0.783030 0.963195 0.085771
O O7 0.598289 0.933541 0.873348
O O8 0.022745 0.238091 0.240591
O O9 0.181673 0.152990 0.295550
O O10 0.848302 0.034722 0.277088
O O11 0.395068 0.870383 0.469610
O O12 0.500000 0.500000 0.000000
O O13 0.477652 0.573768 0.753496
O O14 0.653364 0.762524 0.465441
O O15 0.117256 0.681370 0.786881
O O16 0.500000 0.000000 0.000000
O O17 0.473703 0.793700 0.838145
#
# Coordination Sequence:
#
# PCOD9017134 Si02
#       8
#     2   2   2   2   2   2   2   2
#     4  10  22  40  68  95 122 165 210 267 308 369
#     4  11  24  47  63  91 131 165 218 262 306 371
#     4   9  16  36  68  95 124 151 202 264 316 356
#     4  12  28  43  62  93 130 170 212 258 318 382
#     4   9  17  36  61  95 126 148 202 257 309 370
#     4  12  25  37  61  96 131 169 198 252 324 382
#     4  10  21  42  71  92 121 170 213 268 306 361
#     4   9  22  40  66  94 117 164 216 257 306 371
#
# _framework density 23.658377999999999
#
# number of rings (size 3 to 8) (size 9 to 14) (size 15 to 20)
#    0.000    1.750    2.500    2.625    3.500    5.000 
#    4.500    0.000    0.000    0.000    0.000    0.000 
#    0.000    0.000    0.000    0.000    0.000    0.000 
#
# Total GULP energy -89438.623540 kJ/mol
# GULP energy per Si atom -5589.913971 kJ/mol
# Density = 2.360453 g / cm^3
# Si number density = 23.658378 Si / 1000 Ang^3
#
#
#
# Elastic Constant Matrix: (Units=GPa)
#
#
# Indices 1 2 3 4 5 6 
#
# 1 42.4864 17.0467 19.2807 -2.9743 14.7839 3.8342
# 2 17.0467 78.8902 32.1013 -15.0028 4.2733 19.4488
# 3 19.2807 32.1013 97.1371 -4.0064 4.8545 6.9674
# 4 -2.9743 -15.0028 -4.0064 44.2644 5.1374 -1.3328
# 5 14.7839 4.2733 4.8545 5.1374 49.0810 -9.3021
# 6 3.8342 19.4488 6.9674 -1.3328 -9.3021 40.3286
#
#
#
# Elastic Compliance Matrix: (Units=1/GPa)
#
#
# Indices 1 2 3 4 5 6 
#
# 1 0.030297 -0.003455 -0.004178 0.001460 -0.009044 -0.002530
# 2 -0.003455 0.018441 -0.004481 0.005629 -0.002251 -0.008124
# 3 -0.004178 -0.004481 0.012510 -0.000720 0.000583 0.000508
# 4 0.001460 0.005629 -0.000720 0.024912 -0.004002 -0.002829
# 5 -0.009044 -0.002251 0.000583 -0.004002 0.025077 0.007496
# 6 -0.002530 -0.008124 0.000508 -0.002829 0.007496 0.030502
#
#
# Mechanical properties :
#
#
# Convention : Reuss Voigt Hill
#
# Bulk Modulus (GPa) = 27.01327 39.48567 33.24947
# Shear Modulus (GPa) = 28.04156 36.74048 32.39102
#
# Velocity S-wave (km/s) = 3.44651 3.94503 3.70417
# Velocity P-wave (km/s) = 5.22310 6.12186 5.69025
#
# Compressibility (1/GPa) = 0.03701885
#
# Stress axis : x y z
#
# Youngs Moduli (GPa) = 33.00671 54.22698 79.93794
#
# Poissons Ratio (x) = 0.18736 0.33399
# Poissons Ratio (y) = 0.11404 0.35821
# Poissons Ratio (z) = 0.13791 0.24300
#
# Static dielectric constant tensor:
#      x y z
#    x 1.885710 -0.058170 -0.095730 
#    y -0.058170 1.952150 0.055610 
#    z -0.095730 0.055610 1.975220 
# 
# From -- ./inp_files/280047.got.cif
#   From: 2010.05.17/outbox.cif.g08.bks.cpg/sg2_141_cif.got.tgz:280047.got - 2010.06.03 11:33:40.
