data_PCOD9017907
_publ_section_title
;
Structure prediction by ZEFSAII (Michael W. Deem and Ramdas Pophale) SiO2 
 PCOD9017907
Probable space group: P -1
;
_chemical_formula_sum "Si O2"
_cell_formula_units_Z 12
_cell_length_a 9.498213
_cell_length_b 12.650035
_cell_length_c 13.486277
_cell_angle_alpha 33.550666
_cell_angle_beta 146.745361
_cell_angle_gamma 130.585869
_cell_volume 485.316886
_symmetry_space_group_name_H-M "P -1"
_symmetry_group_IT_number 2
_symmetry_cell_setting 'triclinic'
loop_
_space_group_symop_operation_xyz
x,y,z
-x,-y,-z
loop_
_atom_site_type_symbol
_atom_site_label
_atom_site_fract_x
_atom_site_fract_y
_atom_site_fract_z
Si Si1 0.436956 0.549094 0.237925
Si Si2 0.777824 0.389523 0.378000
Si Si3 0.425760 0.164943 0.747677
Si Si4 0.245747 0.332159 0.027867
Si Si5 0.940601 0.001546 0.079761
Si Si6 0.009327 0.325389 0.247657
O O1 0.649183 0.465144 0.347579
O O2 0.551492 0.637328 0.333529
O O3 0.252240 0.391562 0.280922
O O4 0.224656 0.711985 0.931463
O O5 0.826698 0.571579 0.197609
O O6 0.003084 0.211445 0.672128
O O7 0.553162 0.308421 0.245529
O O8 0.145999 0.173700 0.525838
O O9 0.500000 0.000000 0.000000
O O10 0.653702 0.113017 0.842651
O O11 0.117332 0.490031 0.907206
O O12 0.136050 0.135738 0.134610
O O13 0.000000 0.000000 0.000000
#
# Coordination Sequence:
#
# PCOD9017907 Si02
#       6
#     2   2   2   2   2   2
#     4  10  22  42  70  90 122 172 213 264 319 375
#     4  10  23  43  67  95 124 168 218 263 318 383
#     4  12  26  42  64  97 132 167 211 268 319 382
#     4  10  22  43  68  91 128 170 212 267 319 375
#     4  12  26  41  62  99 131 168 209 263 326 381
#     4  10  21  43  67  92 123 170 218 257 321 383
#
# _framework density 24.726113000000002
#
# number of rings (size 3 to 8) (size 9 to 14) (size 15 to 20)
#    0.000    1.333    1.667    3.000    4.667    1.333 
#    3.000    0.000    0.000    0.000    0.000    0.000 
#    0.000    0.000    0.000    0.000    0.000    0.000 
#
# Total GULP energy -67192.710309 kJ/mol
# GULP energy per Si atom -5599.392526 kJ/mol
# Density = 2.466984 g / cm^3
# Si number density = 24.726113 Si / 1000 Ang^3
#
#
#
# Elastic Constant Matrix: (Units=GPa)
#
#
# Indices 1 2 3 4 5 6 
#
# 1 97.3495 -5.2424 -2.8786 -9.6751 3.9518 -29.9284
# 2 -5.2424 39.4828 32.4215 -0.8185 12.7895 2.7191
# 3 -2.8786 32.4215 147.0329 16.9250 -0.3281 -10.3766
# 4 -9.6751 -0.8185 16.9250 37.7250 4.5369 -0.3984
# 5 3.9518 12.7895 -0.3281 4.5369 31.3889 -0.9234
# 6 -29.9284 2.7191 -10.3766 -0.3984 -0.9234 28.4565
#
#
#
# Elastic Compliance Matrix: (Units=1/GPa)
#
#
# Indices 1 2 3 4 5 6 
#
# 1 0.016170 0.001342 0.000721 0.004358 -0.002702 0.017115
# 2 0.001342 0.040486 -0.010332 0.007966 -0.018122 -0.006701
# 3 0.000721 -0.010332 0.010084 -0.005122 0.005127 0.005517
# 4 0.004358 0.007966 -0.005122 0.031115 -0.008283 0.002122
# 5 -0.002702 -0.018122 0.005127 -0.008283 0.040891 0.001971
# 6 0.017115 -0.006701 0.005517 0.002122 0.001971 0.055887
#
#
# Mechanical properties :
#
#
# Convention : Reuss Voigt Hill
#
# Bulk Modulus (GPa) = 19.91924 36.94072 28.42998
# Shear Modulus (GPa) = 21.93896 36.81837 29.37866
#
# Velocity S-wave (km/s) = 2.98195 3.86301 3.45071
# Velocity P-wave (km/s) = 4.46425 5.90504 5.23445
#
# Compressibility (1/GPa) = 0.05020273
#
# Stress axis : x y z
#
# Youngs Moduli (GPa) = 61.84182 24.69975 99.16885
#
# Poissons Ratio (x) = -0.03315 -0.07148
# Poissons Ratio (y) = -0.08299 1.02457
# Poissons Ratio (z) = -0.04457 0.25519
#
# Static dielectric constant tensor:
#      x y z
#    x 1.989560 0.010430 -0.052890 
#    y 0.010430 1.988230 0.034440 
#    z -0.052890 0.034440 2.005650 
# 
# From -- ./inp_files/158646.got.cif
#   From: 2010.05.17/outbox.cif.g08.bks.cpg/sg2_80_cif.got.tgz:158646.got - 2010.06.03 11:33:40.
