data_PCOD9017753
_publ_section_title
;
Structure prediction by ZEFSAII (Michael W. Deem and Ramdas Pophale) SiO2 
 PCOD9017753
Probable space group: P -1
;
_chemical_formula_sum "Si O2"
_cell_formula_units_Z 15
_cell_length_a 8.571553
_cell_length_b 9.620199
_cell_length_c 14.555893
_cell_angle_alpha 135.021282
_cell_angle_beta 67.907092
_cell_angle_gamma 131.284051
_cell_volume 628.191833
_symmetry_space_group_name_H-M "P -1"
_symmetry_group_IT_number 2
_symmetry_cell_setting 'triclinic'
loop_
_space_group_symop_operation_xyz
x,y,z
-x,-y,-z
loop_
_atom_site_type_symbol
_atom_site_label
_atom_site_fract_x
_atom_site_fract_y
_atom_site_fract_z
Si Si1 0.590554 0.794144 0.974928
Si Si2 0.752766 0.706616 0.139051
Si Si3 0.909676 0.796606 0.789361
Si Si4 0.653925 0.920106 0.424531
Si Si5 0.604361 0.469750 0.549487
Si Si6 0.746343 0.314739 0.148359
Si Si7 0.943520 0.543855 0.389756
Si Si8 0.000000 0.500000 0.000000
O O1 0.427972 0.580410 0.981732
O O2 0.781908 0.794603 0.901682
O O3 0.446630 0.726592 0.883434
O O4 0.663116 0.065367 0.105878
O O5 0.644603 0.771414 0.268822
O O6 0.927582 0.676912 0.125500
O O7 0.874028 0.934473 0.149656
O O8 0.759987 0.706939 0.690351
O O9 0.947474 0.592135 0.698910
O O10 0.577834 0.743808 0.446327
O O11 0.500000 0.000000 0.500000
O O12 0.887921 0.170910 0.491769
O O13 0.500000 0.500000 0.500000
O O14 0.759397 0.415012 0.445769
O O15 0.851479 0.520009 0.298142
O O16 0.908121 0.359641 0.054772
#
# Coordination Sequence:
#
# PCOD9017753 Si02
#       8
#     2   2   2   2   2   2   2   1
#     4  10  21  43  66  91 134 176 235 285 342 407
#     4  11  22  40  73  96 132 185 231 280 357 407
#     4  12  22  43  69  97 141 184 231 293 350 416
#     4  12  24  46  74 103 144 188 232 290 364 423
#     4  12  26  42  68 108 142 185 232 286 355 427
#     4  10  23  44  68  97 135 182 231 292 344 417
#     4  12  26  44  69 103 144 182 237 289 358 425
#     4  10  22  42  68  94 134 178 230 282 354 402
#
# _framework density 23.878056999999998
#
# number of rings (size 3 to 8) (size 9 to 14) (size 15 to 20)
#    0.000    0.800    5.333    2.000    1.867    3.200 
#    7.200    0.667    0.000    0.000    0.000    0.000 
#    0.000    0.000    0.000    0.000    0.000    0.000 
#
# Total GULP energy -83659.842910 kJ/mol
# GULP energy per Si atom -5577.322861 kJ/mol
# Density = 2.382371 g / cm^3
# Si number density = 23.878057 Si / 1000 Ang^3
#
#
#
# Elastic Constant Matrix: (Units=GPa)
#
#
# Indices 1 2 3 4 5 6 
#
# 1 58.8084 9.8231 21.3565 -4.1106 -6.0580 -6.9492
# 2 9.8231 149.2342 8.6711 14.1740 1.8674 0.9154
# 3 21.3565 8.6711 56.6016 -4.0924 -6.8805 6.5793
# 4 -4.1106 14.1740 -4.0924 44.3740 4.0825 -2.6975
# 5 -6.0580 1.8674 -6.8805 4.0825 49.0671 -3.5768
# 6 -6.9492 0.9154 6.5793 -2.6975 -3.5768 31.4733
#
#
#
# Elastic Compliance Matrix: (Units=1/GPa)
#
#
# Indices 1 2 3 4 5 6 
#
# 1 0.021347 -0.001161 -0.008315 0.001827 0.001861 0.006853
# 2 -0.001161 0.007063 -0.000801 -0.002437 -0.000361 -0.000544
# 3 -0.008315 -0.000801 0.021899 0.000990 0.001545 -0.006130
# 4 0.001827 -0.002437 0.000990 0.023832 -0.001369 0.002154
# 5 0.001861 -0.000361 0.001545 -0.001369 0.021128 0.002382
# 6 0.006853 -0.000544 -0.006130 0.002154 0.002382 0.035039
#
#
# Mechanical properties :
#
#
# Convention : Reuss Voigt Hill
#
# Bulk Modulus (GPa) = 33.60642 38.26062 35.93352
# Shear Modulus (GPa) = 31.09823 39.96911 35.53367
#
# Velocity S-wave (km/s) = 3.61276 4.09575 3.86181
# Velocity P-wave (km/s) = 5.61315 6.19879 5.91323
#
# Compressibility (1/GPa) = 0.02975622
#
# Stress axis : x y z
#
# Youngs Moduli (GPa) = 46.84454 141.57918 45.66320
#
# Poissons Ratio (x) = 0.16435 0.37969
# Poissons Ratio (y) = 0.05438 0.03657
# Poissons Ratio (z) = 0.38951 0.11339
#
# Static dielectric constant tensor:
#      x y z
#    x 1.998920 0.002730 0.037090 
#    y 0.002730 1.929550 0.024190 
#    z 0.037090 0.024190 1.851900 
# 
# From -- ./inp_files/493844.got.cif
#   From: 2010.05.17/outbox.cif.g08.bks.cpg/sg2_247_cif.got.tgz:493844.got - 2010.06.03 11:33:40.
