data_PCOD9017085
_publ_section_title
;
Structure prediction by ZEFSAII (Michael W. Deem and Ramdas Pophale) SiO2 
 PCOD9017085
Probable space group: P -1
;
_chemical_formula_sum "Si O2"
_cell_formula_units_Z 13
_cell_length_a 12.960164
_cell_length_b 11.466307
_cell_length_c 8.293399
_cell_angle_alpha 127.657977
_cell_angle_beta 113.986725
_cell_angle_gamma 110.683021
_cell_volume 494.959220
_symmetry_space_group_name_H-M "P -1"
_symmetry_group_IT_number 2
_symmetry_cell_setting 'triclinic'
loop_
_space_group_symop_operation_xyz
x,y,z
-x,-y,-z
loop_
_atom_site_type_symbol
_atom_site_label
_atom_site_fract_x
_atom_site_fract_y
_atom_site_fract_z
Si Si1 0.441730 0.066781 0.894291
Si Si2 0.997231 0.575451 0.239371
Si Si3 0.175385 0.894287 0.142603
Si Si4 0.294702 0.357791 0.189910
Si Si5 0.000000 0.000000 0.000000
Si Si6 0.612375 0.269084 0.618555
Si Si7 0.378597 0.274104 0.866483
O O1 0.425968 0.944204 0.623603
O O2 0.221443 0.879683 0.663467
O O3 0.525185 0.313618 0.086053
O O4 0.500000 0.000000 0.000000
O O5 0.951764 0.392748 0.176623
O O6 0.808978 0.482423 0.038797
O O7 0.000000 0.500000 0.000000
O O8 0.077209 0.912860 0.989958
O O9 0.404390 0.109524 0.414169
O O10 0.210549 0.998716 0.431818
O O11 0.500000 0.500000 0.500000
O O12 0.115065 0.138802 0.013724
O O13 0.330604 0.571591 0.367106
O O14 0.275215 0.270323 0.924446
O O15 0.500000 0.500000 0.000000
#
# Coordination Sequence:
#
# PCOD9017085 Si02
#       7
#     2   2   2   2   1   2   2
#     4  11  25  45  75 108 155 202 255 323 388 464
#     4  10  21  42  71 101 140 197 257 300 379 456
#     4  12  24  45  73 112 146 209 255 318 390 464
#     4  12  25  47  73 106 157 204 253 321 392 458
#     4  12  26  44  70 106 152 200 258 308 398 458
#     4  11  22  45  77 100 149 205 250 311 385 462
#     4  12  25  45  74 115 151 199 263 317 385 462
#
# _framework density 26.264787999999999
#
# number of rings (size 3 to 8) (size 9 to 14) (size 15 to 20)
#    0.000    0.615    6.154    3.231    0.000    1.846 
#    0.000    0.769    3.385    0.000    0.000    0.000 
#    0.000    0.000    0.000    0.000    0.000    0.000 
#
# Total GULP energy -72497.919161 kJ/mol
# GULP energy per Si atom -5576.763012 kJ/mol
# Density = 2.620501 g / cm^3
# Si number density = 26.264788 Si / 1000 Ang^3
#
#
#
# Elastic Constant Matrix: (Units=GPa)
#
#
# Indices 1 2 3 4 5 6 
#
# 1 140.0848 79.1612 15.2648 18.4618 20.5798 -7.5131
# 2 79.1612 228.4551 22.7081 25.3278 11.4984 -30.7708
# 3 15.2648 22.7081 14.9860 4.6844 8.5066 -0.1384
# 4 18.4618 25.3278 4.6844 21.7335 -4.2555 9.4578
# 5 20.5798 11.4984 8.5066 -4.2555 49.9343 -3.8690
# 6 -7.5131 -30.7708 -0.1384 9.4578 -3.8690 78.2398
#
#
#
# Elastic Compliance Matrix: (Units=1/GPa)
#
#
# Indices 1 2 3 4 5 6 
#
# 1 0.010134 -0.002245 -0.002832 -0.006394 -0.003670 0.000677
# 2 -0.002245 0.006890 -0.006277 -0.006149 0.000135 0.003233
# 3 -0.002832 -0.006277 0.090728 -0.011769 -0.013990 -0.001849
# 4 -0.006394 -0.006149 -0.011769 0.067971 0.011018 -0.010725
# 5 -0.003670 0.000135 -0.013990 0.011018 0.024797 -0.000430
# 6 0.000677 0.003233 -0.001849 -0.010725 -0.000430 0.015390
#
#
# Mechanical properties :
#
#
# Convention : Reuss Voigt Hill
#
# Bulk Modulus (GPa) = 11.75878 68.64378 40.20128
# Shear Modulus (GPa) = 18.72897 47.74096 33.23496
#
# Velocity S-wave (km/s) = 2.67326 4.26805 3.56108
# Velocity P-wave (km/s) = 3.74368 7.10495 5.67871
#
# Compressibility (1/GPa) = 0.08504285
#
# Stress axis : x y z
#
# Youngs Moduli (GPa) = 98.67720 145.14750 11.02190
#
# Poissons Ratio (x) = 0.32589 0.03122
# Poissons Ratio (y) = 0.22155 0.06919
# Poissons Ratio (z) = 0.27948 0.91110
#
# Static dielectric constant tensor:
#      x y z
#    x 2.048170 -0.009720 -0.067420 
#    y -0.009720 2.123060 -0.034020 
#    z -0.067420 -0.034020 2.311810 
# 
# From -- ./inp_files/260726.got.cif
#   From: 2010.05.17/outbox.cif.g08.bks.cpg/sg2_131_cif.got.tgz:260726.got - 2010.06.03 11:33:40.
