data_PCOD9017017
_publ_section_title
;
Structure prediction by ZEFSAII (Michael W. Deem and Ramdas Pophale) SiO2 
 PCOD9017017
Probable space group: P -1
;
_chemical_formula_sum "Si O2"
_cell_formula_units_Z 14
_cell_length_a 8.037271
_cell_length_b 14.321381
_cell_length_c 9.142274
_cell_angle_alpha 40.511031
_cell_angle_beta 79.832419
_cell_angle_gamma 57.774110
_cell_volume 525.722162
_symmetry_space_group_name_H-M "P -1"
_symmetry_group_IT_number 2
_symmetry_cell_setting 'triclinic'
loop_
_space_group_symop_operation_xyz
x,y,z
-x,-y,-z
loop_
_atom_site_type_symbol
_atom_site_label
_atom_site_fract_x
_atom_site_fract_y
_atom_site_fract_z
Si Si1 0.536902 0.191535 0.020801
Si Si2 0.674113 0.963993 0.814408
Si Si3 0.034281 0.810679 0.706236
Si Si4 0.018669 0.274943 0.695163
Si Si5 0.691488 0.242228 0.639125
Si Si6 0.084970 0.545882 0.793782
Si Si7 0.688863 0.382235 0.860106
O O1 0.532772 0.021425 0.215767
O O2 0.559718 0.238848 0.796862
O O3 0.318544 0.354738 0.943847
O O4 0.719407 0.193009 0.064465
O O5 0.841303 0.854692 0.786243
O O6 0.677825 0.130961 0.647162
O O7 0.768808 0.853304 0.085846
O O8 0.048787 0.727191 0.647501
O O9 0.247331 0.632639 0.965958
O O10 0.000000 0.000000 0.500000
O O11 0.913987 0.186895 0.739435
O O12 0.025006 0.386743 0.431058
O O13 0.841625 0.385945 0.719691
O O14 0.546827 0.449429 0.356721
O O15 0.000000 0.500000 0.000000
#
# Coordination Sequence:
#
# PCOD9017017 Si02
#       7
#     2   2   2   2   2   2   2
#     4  11  22  42  65 102 132 169 217 278 327 377
#     4  11  24  41  70  98 135 169 225 269 326 383
#     4  11  26  45  67  97 131 179 217 263 331 405
#     4  10  21  42  70  96 127 180 223 266 315 394
#     4  11  20  42  71 100 125 169 227 281 310 379
#     4  12  23  42  65  97 141 170 218 268 329 393
#     4  10  22  44  73  93 127 171 229 269 320 386
#
# _framework density 26.630037000000002
#
# number of rings (size 3 to 8) (size 9 to 14) (size 15 to 20)
#    0.000    1.143    4.286    2.571    0.000    4.571 
#    0.000    2.143    0.000    0.000    0.000    0.000 
#    0.000    0.000    0.000    0.000    0.000    0.000 
#
# Total GULP energy -78101.740372 kJ/mol
# GULP energy per Si atom -5578.695741 kJ/mol
# Density = 2.656943 g / cm^3
# Si number density = 26.630037 Si / 1000 Ang^3
#
#
#
# Elastic Constant Matrix: (Units=GPa)
#
#
# Indices 1 2 3 4 5 6 
#
# 1 81.5866 21.5639 23.0937 7.7652 -28.0817 26.4568
# 2 21.5639 146.2294 8.1896 21.1910 -12.5426 2.5689
# 3 23.0937 8.1896 82.4972 29.1086 -10.5061 1.1339
# 4 7.7652 21.1910 29.1086 40.6351 2.7396 -16.8954
# 5 -28.0817 -12.5426 -10.5061 2.7396 41.9054 -0.0883
# 6 26.4568 2.5689 1.1339 -16.8954 -0.0883 46.2533
#
#
#
# Elastic Compliance Matrix: (Units=1/GPa)
#
#
# Indices 1 2 3 4 5 6 
#
# 1 0.027143 0.000354 0.000880 -0.016243 0.019533 -0.021463
# 2 0.000354 0.008159 0.002343 -0.007721 0.003764 -0.003526
# 3 0.000880 0.002343 0.019480 -0.019219 0.007414 -0.008118
# 4 -0.016243 -0.007721 -0.019219 0.060372 -0.021893 0.032202
# 5 0.019533 0.003764 0.007414 -0.021893 0.041328 -0.019482
# 6 -0.021463 -0.003526 -0.008118 0.032202 -0.019482 0.046018
#
#
# Mechanical properties :
#
#
# Convention : Reuss Voigt Hill
#
# Bulk Modulus (GPa) = 16.14535 46.22306 31.18421
# Shear Modulus (GPa) = 23.14916 42.92315 33.03615
#
# Velocity S-wave (km/s) = 2.95157 4.01912 3.52598
# Velocity P-wave (km/s) = 4.20615 6.23963 5.32093
#
# Compressibility (1/GPa) = 0.06193732
#
# Stress axis : x y z
#
# Youngs Moduli (GPa) = 36.84157 122.56733 51.33524
#
# Poissons Ratio (x) = -0.04343 -0.04520
# Poissons Ratio (y) = -0.01305 -0.12028
# Poissons Ratio (z) = -0.03244 -0.28717
#
# Static dielectric constant tensor:
#      x y z
#    x 2.193390 0.041030 -0.061670 
#    y 0.041030 2.127410 -0.057930 
#    z -0.061670 -0.057930 2.069910 
# 
# From -- ./inp_files/205112.got.cif
#   From: 2010.05.17/outbox.cif.g08.bks.cpg/sg2_103_cif.got.tgz:205112.got - 2010.06.03 11:33:40.
