data_PCOD9017805
_publ_section_title
;
Structure prediction by ZEFSAII (Michael W. Deem and Ramdas Pophale) SiO2 
 PCOD9017805
Probable space group: P -1
;
_chemical_formula_sum "Si O2"
_cell_formula_units_Z 16
_cell_length_a 26.300848
_cell_length_b 18.162976
_cell_length_c 8.694926
_cell_angle_alpha 40.273363
_cell_angle_beta 151.094740
_cell_angle_gamma 158.451436
_cell_volume 705.989836
_symmetry_space_group_name_H-M "P -1"
_symmetry_group_IT_number 2
_symmetry_cell_setting 'triclinic'
loop_
_space_group_symop_operation_xyz
x,y,z
-x,-y,-z
loop_
_atom_site_type_symbol
_atom_site_label
_atom_site_fract_x
_atom_site_fract_y
_atom_site_fract_z
Si Si1 0.548356 0.470422 0.436891
Si Si2 0.990299 0.265869 0.276116
Si Si3 0.294944 0.142993 0.675494
Si Si4 0.819768 0.592112 0.776141
Si Si5 0.665168 0.388970 0.135182
Si Si6 0.201161 0.025094 0.264488
Si Si7 0.492655 0.866966 0.255776
Si Si8 0.354922 0.886787 0.437876
O O1 0.628523 0.661293 0.405984
O O2 0.645855 0.523780 0.449392
O O3 0.316738 0.245513 0.171841
O O4 0.620096 0.440702 0.800674
O O5 0.102641 0.358851 0.265902
O O6 0.139957 0.405754 0.588312
O O7 0.850647 0.031091 0.303597
O O8 0.851484 0.250054 0.940005
O O9 0.195424 0.031187 0.423925
O O10 0.486826 0.241454 0.015589
O O11 0.717714 0.383276 0.898279
O O12 0.996265 0.804258 0.004585
O O13 0.669141 0.258895 0.313012
O O14 0.350127 0.064488 0.531332
O O15 0.561108 0.945400 0.487442
O O16 0.500000 0.000000 0.000000
O O17 0.500000 0.000000 0.500000
#
# Coordination Sequence:
#
# PCOD9017805 Si02
#       8
#     2   2   2   2   2   2   2   2
#     4  10  24  45  71  98 131 179 232 285 330 384
#     4  12  26  42  67 103 141 177 220 271 348 409
#     4  11  24  44  72  98 133 180 228 284 331 393
#     4  11  24  43  65  99 137 172 220 281 334 406
#     4  11  23  44  69  99 133 176 232 276 330 402
#     4  10  21  43  66  95 133 170 227 280 328 390
#     4  11  24  42  66  97 132 178 225 275 331 393
#     4  12  23  44  68  98 141 178 218 274 342 408
#
# _framework density 22.663215000000001
#
# number of rings (size 3 to 8) (size 9 to 14) (size 15 to 20)
#    0.000    1.000    2.500    5.625    0.000    4.000 
#    2.250    1.250    0.000    0.000    0.000    0.000 
#    0.000    0.000    0.000    0.000    0.000    0.000 
#
# Total GULP energy -89413.324852 kJ/mol
# GULP energy per Si atom -5588.332803 kJ/mol
# Density = 2.261163 g / cm^3
# Si number density = 22.663215 Si / 1000 Ang^3
#
#
#
# Elastic Constant Matrix: (Units=GPa)
#
#
# Indices 1 2 3 4 5 6 
#
# 1 99.7331 34.5746 -11.5042 -2.9852 8.2168 9.3202
# 2 34.5746 176.7455 26.3964 12.5045 -4.2800 -6.3883
# 3 -11.5042 26.3964 29.3008 17.4834 0.3428 -5.6434
# 4 -2.9852 12.5045 17.4834 35.4000 1.5464 3.8231
# 5 8.2168 -4.2800 0.3428 1.5464 9.4743 7.1710
# 6 9.3202 -6.3883 -5.6434 3.8231 7.1710 47.9806
#
#
#
# Elastic Compliance Matrix: (Units=1/GPa)
#
#
# Indices 1 2 3 4 5 6 
#
# 1 0.014004 -0.004591 0.011106 -0.002082 -0.014516 0.000310
# 2 -0.004591 0.008160 -0.010255 0.001498 0.008232 -0.000578
# 3 0.011106 -0.010255 0.066883 -0.028660 -0.019195 0.009496
# 4 -0.002082 0.001498 -0.028660 0.042323 0.001419 -0.006352
# 5 -0.014516 0.008232 -0.019195 0.001419 0.136603 -0.018871
# 6 0.000310 -0.000578 0.009496 -0.006352 -0.018871 0.025148
#
#
# Mechanical properties :
#
#
# Convention : Reuss Voigt Hill
#
# Bulk Modulus (GPa) = 12.25991 44.96814 28.61403
# Shear Modulus (GPa) = 15.25366 35.65849 25.45607
#
# Velocity S-wave (km/s) = 2.59715 3.97092 3.35510
# Velocity P-wave (km/s) = 3.79670 6.39604 5.25948
#
# Compressibility (1/GPa) = 0.08156668
#
# Stress axis : x y z
#
# Youngs Moduli (GPa) = 71.40731 122.54847 14.95152
#
# Poissons Ratio (x) = 0.56264 -0.16606
# Poissons Ratio (y) = 0.32784 0.15333
# Poissons Ratio (z) = -0.79307 1.25677
#
# Static dielectric constant tensor:
#      x y z
#    x 1.867680 0.002960 -0.036290 
#    y 0.002960 1.868090 -0.009870 
#    z -0.036290 -0.009870 1.866060 
# 
# From -- ./inp_files/357609.got.cif
#   From: 2010.05.17/outbox.cif.g08.bks.cpg/sg2_179_cif.got.tgz:357609.got - 2010.06.03 11:33:40.
