data_PCOD9017420
_publ_section_title
;
Structure prediction by ZEFSAII (Michael W. Deem and Ramdas Pophale) SiO2 
 PCOD9017420
Probable space group: P -1
;
_chemical_formula_sum "Si O2"
_cell_formula_units_Z 16
_cell_length_a 5.607575
_cell_length_b 7.263049
_cell_length_c 21.550613
_cell_angle_alpha 95.747469
_cell_angle_beta 87.941455
_cell_angle_gamma 43.472844
_cell_volume 593.233347
_symmetry_space_group_name_H-M "P -1"
_symmetry_group_IT_number 2
_symmetry_cell_setting 'triclinic'
loop_
_space_group_symop_operation_xyz
x,y,z
-x,-y,-z
loop_
_atom_site_type_symbol
_atom_site_label
_atom_site_fract_x
_atom_site_fract_y
_atom_site_fract_z
Si Si1 0.510713 0.919319 0.928072
Si Si2 0.844117 0.952148 0.830537
Si Si3 0.396914 0.486908 0.252783
Si Si4 0.824708 0.378912 0.869543
Si Si5 0.383985 0.931120 0.287661
Si Si6 0.317965 0.698724 0.626796
Si Si7 0.023934 0.772566 0.513626
Si Si8 0.728461 0.858401 0.399908
O O1 0.836687 0.823647 0.884818
O O2 0.173420 0.177111 0.900854
O O3 0.442541 0.327123 0.086014
O O4 0.500000 0.000000 0.000000
O O5 0.224635 0.768650 0.790359
O O6 0.623787 0.980540 0.777772
O O7 0.705935 0.232274 0.861538
O O8 0.357742 0.728955 0.268248
O O9 0.411150 0.422566 0.323147
O O10 0.140263 0.576718 0.201913
O O11 0.680292 0.790005 0.331470
O O12 0.018001 0.196768 0.331698
O O13 0.319953 0.579654 0.558307
O O14 0.221479 0.957180 0.613291
O O15 0.006348 0.661041 0.446432
O O16 0.650989 0.948723 0.557160
O O17 0.000000 0.000000 0.500000
#
# Coordination Sequence:
#
# PCOD9017420 Si02
#       8
#     2   2   2   2   2   2   2   2
#     4  12  28  47  74 107 138 182 234 278 342 421
#     4  10  24  45  69  99 140 182 226 288 341 411
#     4  10  21  43  62  93 133 175 221 282 343 400
#     4  11  25  47  70 102 141 181 225 284 346 403
#     4   9  20  34  56  88 124 163 222 270 338 395
#     4   9  18  34  55  85 120 164 216 277 332 405
#     4   8  15  30  53  81 119 161 219 273 333 398
#     4   9  16  30  56  83 114 170 215 274 336 394
#
# _framework density 26.970839000000002
#
# number of rings (size 3 to 8) (size 9 to 14) (size 15 to 20)
#    0.000    2.250    1.250    0.375    5.250    1.000 
#    0.000    0.625    0.000   25.500    0.000    0.000 
#    0.000    0.000    0.000    0.000    0.000    0.000 
#
# Total GULP energy -89461.626512 kJ/mol
# GULP energy per Si atom -5591.351657 kJ/mol
# Density = 2.690945 g / cm^3
# Si number density = 26.970839 Si / 1000 Ang^3
#
#
#
# Elastic Constant Matrix: (Units=GPa)
#
#
# Indices 1 2 3 4 5 6 
#
# 1 69.1879 15.0005 55.1994 -7.7290 12.7027 -16.0099
# 2 15.0005 102.0055 52.1844 -10.1960 17.3809 -3.6091
# 3 55.1994 52.1844 274.9936 -4.9103 46.6991 -12.6030
# 4 -7.7290 -10.1960 -4.9103 43.2652 -4.8065 20.4818
# 5 12.7027 17.3809 46.6991 -4.8065 47.7317 -11.4981
# 6 -16.0099 -3.6091 -12.6030 20.4818 -11.4981 45.5259
#
#
#
# Elastic Compliance Matrix: (Units=1/GPa)
#
#
# Indices 1 2 3 4 5 6 
#
# 1 0.018562 -0.000817 -0.003305 0.000156 -0.000079 0.005458
# 2 -0.000817 0.011399 -0.001604 0.002920 -0.002497 -0.001772
# 3 -0.003305 -0.001604 0.005220 -0.000530 -0.003835 -0.000574
# 4 0.000156 0.002920 -0.000530 0.030126 -0.000834 -0.013625
# 5 -0.000079 -0.002497 -0.003835 -0.000834 0.026970 0.005900
# 6 0.005458 -0.001772 -0.000574 -0.013625 0.005900 0.031205
#
#
# Mechanical properties :
#
#
# Convention : Reuss Voigt Hill
#
# Bulk Modulus (GPa) = 42.14295 76.77284 59.45790
# Shear Modulus (GPa) = 35.00360 48.89139 41.94749
#
# Velocity S-wave (km/s) = 3.60645 4.26226 3.94800
# Velocity P-wave (km/s) = 5.74467 7.26288 6.54793
#
# Compressibility (1/GPa) = 0.02372876
#
# Stress axis : x y z
#
# Youngs Moduli (GPa) = 53.87413 87.72870 191.58395
#
# Poissons Ratio (x) = 0.07167 0.63310
# Poissons Ratio (y) = 0.04401 0.30734
# Poissons Ratio (z) = 0.17803 0.14074
#
# Static dielectric constant tensor:
#      x y z
#    x 2.185310 -0.097410 0.039390 
#    y -0.097410 2.160750 -0.043540 
#    z 0.039390 -0.043540 2.154800 
# 
# From -- ./inp_files/582431.got.cif
#   From: 2010.05.17/outbox.cif.g08.bks.cpg/sg2_292_cif.got.tgz:582431.got - 2010.06.03 11:33:40.
