data_PCOD9017884
_publ_section_title
;
Structure prediction by ZEFSAII (Michael W. Deem and Ramdas Pophale) SiO2 
 PCOD9017884
Probable space group: P -1
;
_chemical_formula_sum "Si O2"
_cell_formula_units_Z 14
_cell_length_a 19.792070
_cell_length_b 5.298041
_cell_length_c 5.751386
_cell_angle_alpha 90.888415
_cell_angle_beta 107.180376
_cell_angle_gamma 76.792745
_cell_volume 560.059220
_symmetry_space_group_name_H-M "P -1"
_symmetry_group_IT_number 2
_symmetry_cell_setting 'triclinic'
loop_
_space_group_symop_operation_xyz
x,y,z
-x,-y,-z
loop_
_atom_site_type_symbol
_atom_site_label
_atom_site_fract_x
_atom_site_fract_y
_atom_site_fract_z
Si Si1 0.450733 0.904892 0.139974
Si Si2 0.313667 0.085696 0.722206
Si Si3 0.955775 0.036259 0.701529
Si Si4 0.585565 0.648430 0.502449
Si Si5 0.782102 0.674163 0.993098
Si Si6 0.716975 0.227029 0.702033
Si Si7 0.083427 0.428029 0.165056
O O1 0.508651 0.658535 0.300582
O O2 0.430519 0.139559 0.307254
O O3 0.375835 0.900395 0.938763
O O4 0.500000 0.000000 0.000000
O O5 0.274172 0.892128 0.547081
O O6 0.359899 0.238708 0.609099
O O7 0.252765 0.304899 0.789050
O O8 0.907600 0.326621 0.674366
O O9 0.908313 0.824428 0.671748
O O10 0.000000 0.000000 0.500000
O O11 0.000000 0.000000 0.000000
O O12 0.631023 0.368236 0.626287
O O13 0.755530 0.449585 0.824354
O O14 0.866293 0.623153 0.011605
O O15 0.746103 0.965786 0.873142
O O16 0.000000 0.500000 0.000000
#
# Coordination Sequence:
#
# PCOD9017884 Si02
#       7
#     2   2   2   2   2   2   2
#     4   9  19  39  72 101 140 188 237 301 355 417
#     4  11  23  44  71  99 146 190 238 297 357 427
#     4  10  21  44  74 108 145 188 234 302 371 442
#     4  10  21  43  67 107 139 184 249 290 356 426
#     4  12  27  47  71 103 147 189 237 295 370 430
#     4  12  25  45  68 105 142 186 242 287 356 439
#     4  10  23  48  72 106 142 184 243 302 366 446
#
# _framework density 24.997354999999999
#
# number of rings (size 3 to 8) (size 9 to 14) (size 15 to 20)
#    0.000    1.429    2.857    1.286    2.000    0.571 
#   15.429   10.000    0.000    0.000    0.000    0.000 
#    0.000    0.000    0.000    0.000    0.000    0.000 
#
# Total GULP energy -78228.600729 kJ/mol
# GULP energy per Si atom -5587.757195 kJ/mol
# Density = 2.494046 g / cm^3
# Si number density = 24.997355 Si / 1000 Ang^3
#
#
#
# Elastic Constant Matrix: (Units=GPa)
#
#
# Indices 1 2 3 4 5 6 
#
# 1 162.0875 54.6174 48.9628 26.2348 -31.4435 -32.4296
# 2 54.6174 160.1878 27.0243 6.0004 -9.2024 2.9182
# 3 48.9628 27.0243 81.9436 15.1897 -32.2431 -8.9760
# 4 26.2348 6.0004 15.1897 30.2653 -10.3543 -14.9860
# 5 -31.4435 -9.2024 -32.2431 -10.3543 41.1759 9.1646
# 6 -32.4296 2.9182 -8.9760 -14.9860 9.1646 36.4595
#
#
#
# Elastic Compliance Matrix: (Units=1/GPa)
#
#
# Indices 1 2 3 4 5 6 
#
# 1 0.010390 -0.002925 -0.002899 -0.002537 0.002812 0.007012
# 2 -0.002925 0.007498 -0.001442 -0.000257 -0.000992 -0.003413
# 3 -0.002899 -0.001442 0.019817 -0.004058 0.012495 -0.002393
# 4 -0.002537 -0.000257 -0.004058 0.045682 0.003025 0.014781
# 5 0.002812 -0.000992 0.012495 0.003025 0.037308 -0.002478
# 6 0.007012 -0.003413 -0.002393 0.014781 -0.002478 0.040047
#
#
# Mechanical properties :
#
#
# Convention : Reuss Voigt Hill
#
# Bulk Modulus (GPa) = 43.14963 73.93646 58.54304
# Shear Modulus (GPa) = 27.32295 39.82112 33.57203
#
# Velocity S-wave (km/s) = 3.30969 3.99559 3.66870
# Velocity P-wave (km/s) = 5.64841 7.13640 6.43556
#
# Compressibility (1/GPa) = 0.02317517
#
# Stress axis : x y z
#
# Youngs Moduli (GPa) = 96.24920 133.37122 50.46079
#
# Poissons Ratio (x) = 0.39006 0.14627
# Poissons Ratio (y) = 0.28149 0.07274
# Poissons Ratio (z) = 0.27900 0.19226
#
# Static dielectric constant tensor:
#      x y z
#    x 2.005120 0.064670 -0.076740 
#    y 0.064670 2.123200 -0.085220 
#    z -0.076740 -0.085220 2.086010 
# 
# From -- ./inp_files/114117.got.cif
#   From: 2010.05.17/outbox.cif.g08.bks.cpg/sg2_58_cif.got.tgz:114117.got - 2010.06.03 11:33:40.
