data_PCOD9017109
_publ_section_title
;
Structure prediction by ZEFSAII (Michael W. Deem and Ramdas Pophale) SiO2 
 PCOD9017109
Probable space group: P -1
;
_chemical_formula_sum "Si O2"
_cell_formula_units_Z 12
_cell_length_a 9.723844
_cell_length_b 11.674545
_cell_length_c 7.531596
_cell_angle_alpha 121.219731
_cell_angle_beta 89.912378
_cell_angle_gamma 129.374532
_cell_volume 491.083878
_symmetry_space_group_name_H-M "P -1"
_symmetry_group_IT_number 2
_symmetry_cell_setting 'triclinic'
loop_
_space_group_symop_operation_xyz
x,y,z
-x,-y,-z
loop_
_atom_site_type_symbol
_atom_site_label
_atom_site_fract_x
_atom_site_fract_y
_atom_site_fract_z
Si Si1 0.536950 0.143571 0.386590
Si Si2 0.569604 0.501915 0.198117
Si Si3 0.382547 0.770692 0.969451
Si Si4 0.127241 0.216729 0.107580
Si Si5 0.840355 0.947131 0.596535
Si Si6 0.956018 0.559287 0.714332
O O1 0.541215 0.177831 0.197808
O O2 0.350879 0.087997 0.436121
O O3 0.746895 0.354541 0.635023
O O4 0.529013 0.975872 0.246520
O O5 0.639028 0.398055 0.106874
O O6 0.360575 0.351648 0.189154
O O7 0.721105 0.720875 0.460654
O O8 0.500000 0.500000 0.000000
O O9 0.166412 0.692345 0.924570
O O10 0.090304 0.331298 0.286721
O O11 0.000000 0.000000 0.000000
O O12 0.006717 0.151642 0.871676
O O13 0.000000 0.000000 0.500000
O O14 0.000000 0.500000 0.500000
#
# Coordination Sequence:
#
# PCOD9017109 Si02
#       6
#     2   2   2   2   2   2
#     4  10  21  42  71 105 134 180 235 296 350 415
#     4  12  27  47  67 102 145 190 235 290 357 426
#     4  10  23  42  72 101 138 178 239 295 350 416
#     4  12  26  43  74 107 142 186 243 294 350 427
#     4  12  25  45  69  99 149 191 233 287 358 427
#     4  10  22  41  68 107 139 172 231 299 359 409
#
# _framework density 24.435744
#
# number of rings (size 3 to 8) (size 9 to 14) (size 15 to 20)
#    0.000    1.000    5.000    1.000    9.333    1.333 
#    0.000    4.167    0.000    0.000    0.000    0.000 
#    0.000    0.000    0.000    0.000    0.000    0.000 
#
# Total GULP energy -66920.722534 kJ/mol
# GULP energy per Si atom -5576.726878 kJ/mol
# Density = 2.438013 g / cm^3
# Si number density = 24.435744 Si / 1000 Ang^3
#
#
#
# Elastic Constant Matrix: (Units=GPa)
#
#
# Indices 1 2 3 4 5 6 
#
# 1 148.7917 50.1612 25.5127 12.7484 -32.7453 17.6514
# 2 50.1612 85.8539 24.0625 24.1177 -3.8177 21.8173
# 3 25.5127 24.0625 54.2257 26.2478 -24.4586 -3.2211
# 4 12.7484 24.1177 26.2478 46.4556 0.7693 -0.4560
# 5 -32.7453 -3.8177 -24.4586 0.7693 48.9609 15.3039
# 6 17.6514 21.8173 -3.2211 -0.4560 15.3039 57.7071
#
#
#
# Elastic Compliance Matrix: (Units=1/GPa)
#
#
# Indices 1 2 3 4 5 6 
#
# 1 0.010543 -0.004915 0.001557 -0.001398 0.008582 -0.003567
# 2 -0.004915 0.018631 -0.004554 -0.005762 -0.002392 -0.005206
# 3 0.001557 -0.004554 0.039155 -0.020563 0.021315 -0.002384
# 4 -0.001398 -0.005762 -0.020563 0.036803 -0.013937 0.005445
# 5 0.008582 -0.002392 0.021315 -0.013937 0.040393 -0.011354
# 6 -0.003567 -0.005206 -0.002384 0.005445 -0.011354 0.023309
#
#
# Mechanical properties :
#
#
# Convention : Reuss Voigt Hill
#
# Bulk Modulus (GPa) = 19.04601 54.26045 36.65323
# Shear Modulus (GPa) = 24.73288 43.23371 33.98330
#
# Velocity S-wave (km/s) = 3.18490 4.21085 3.73328
# Velocity P-wave (km/s) = 4.61909 6.77460 5.79790
#
# Compressibility (1/GPa) = 0.05250444
#
# Stress axis : x y z
#
# Youngs Moduli (GPa) = 94.85396 53.67412 25.53933
#
# Poissons Ratio (x) = 0.26382 -0.03976
# Poissons Ratio (y) = 0.46623 0.11630
# Poissons Ratio (z) = -0.14767 0.24442
#
# Static dielectric constant tensor:
#      x y z
#    x 1.874410 -0.005210 0.116090 
#    y -0.005210 2.042310 -0.087940 
#    z 0.116090 -0.087940 1.986680 
# 
# From -- ./inp_files/148648.got.cif
#   From: 2010.05.17/outbox.cif.g08.bks.cpg/sg2_75_cif.got.tgz:148648.got - 2010.06.03 11:33:40.
