data_PCOD9017790
_publ_section_title
;
Structure prediction by ZEFSAII (Michael W. Deem and Ramdas Pophale) SiO2 
 PCOD9017790
Probable space group: P -1
;
_chemical_formula_sum "Si O2"
_cell_formula_units_Z 16
_cell_length_a 8.652467
_cell_length_b 12.149651
_cell_length_c 15.486810
_cell_angle_alpha 112.934726
_cell_angle_beta 113.445757
_cell_angle_gamma 32.239846
_cell_volume 792.085285
_symmetry_space_group_name_H-M "P -1"
_symmetry_group_IT_number 2
_symmetry_cell_setting 'triclinic'
loop_
_space_group_symop_operation_xyz
x,y,z
-x,-y,-z
loop_
_atom_site_type_symbol
_atom_site_label
_atom_site_fract_x
_atom_site_fract_y
_atom_site_fract_z
Si Si1 0.696388 0.127350 0.939251
Si Si2 0.782943 0.525560 0.923227
Si Si3 0.389935 0.695066 0.558199
Si Si4 0.712680 0.056819 0.536384
Si Si5 0.441274 0.096935 0.646433
Si Si6 0.865356 0.524757 0.741922
Si Si7 0.553861 0.423277 0.890925
Si Si8 0.089118 0.223139 0.206263
O O1 0.620014 0.245818 0.870885
O O2 0.736547 0.965844 0.877149
O O3 0.492463 0.276533 0.019759
O O4 0.000000 0.000000 0.000000
O O5 0.785231 0.538092 0.825490
O O6 0.802451 0.370404 0.896731
O O7 0.000000 0.500000 0.000000
O O8 0.500000 0.500000 0.500000
O O9 0.388682 0.777269 0.497151
O O10 0.612695 0.623629 0.653314
O O11 0.057002 0.879195 0.574964
O O12 0.523554 0.148312 0.608708
O O13 0.670402 0.957670 0.443764
O O14 0.177933 0.290460 0.709291
O O15 0.740568 0.893007 0.701494
O O16 0.884606 0.655967 0.779226
O O17 0.256533 0.608085 0.825557
O O18 0.500000 0.500000 0.000000
#
# Coordination Sequence:
#
# PCOD9017790 Si02
#       8
#     2   2   2   2   2   2   2   2
#     4  11  23  45  71  94 133 187 227 279 334 398
#     4  11  24  44  67 100 140 177 224 283 342 397
#     4  11  23  46  72 101 141 176 218 291 346 403
#     4  10  24  45  71  99 134 177 227 274 346 411
#     4  11  24  45  69 100 132 178 229 277 334 414
#     4  12  26  44  67 105 138 176 231 284 340 402
#     4  10  21  43  66  94 132 176 227 277 332 398
#     4  12  23  43  69  97 137 176 234 279 328 415
#
# _framework density 20.199845
#
# number of rings (size 3 to 8) (size 9 to 14) (size 15 to 20)
#    0.000    1.000    5.000    3.000    1.750    2.000 
#    4.500    0.000    0.000    0.000    0.000    0.000 
#    0.000    0.000    0.000    0.000    0.000    0.000 
#
# Total GULP energy -89286.092723 kJ/mol
# GULP energy per Si atom -5580.380795 kJ/mol
# Density = 2.015387 g / cm^3
# Si number density = 20.199845 Si / 1000 Ang^3
#
#
#
# Elastic Constant Matrix: (Units=GPa)
#
#
# Indices 1 2 3 4 5 6 
#
# 1 146.7363 53.1891 48.1388 -7.1183 -4.3078 1.1277
# 2 53.1891 94.2831 29.6010 -12.1501 -1.3240 -1.3734
# 3 48.1388 29.6010 56.2453 -13.5034 2.4687 -2.2164
# 4 -7.1183 -12.1501 -13.5034 38.5449 -2.6824 13.9263
# 5 -4.3078 -1.3240 2.4687 -2.6824 39.1696 -2.0681
# 6 1.1277 -1.3734 -2.2164 13.9263 -2.0681 38.7019
#
#
#
# Elastic Compliance Matrix: (Units=1/GPa)
#
#
# Indices 1 2 3 4 5 6 
#
# 1 0.010650 -0.003835 -0.007582 -0.001736 0.001391 -0.000182
# 2 -0.003835 0.014253 -0.003599 0.002756 0.000446 -0.000556
# 3 -0.007582 -0.003599 0.028027 0.007536 -0.002266 -0.001135
# 4 -0.001736 0.002756 0.007536 0.033309 0.001109 -0.011346
# 5 0.001391 0.000446 -0.002266 0.001109 0.025961 0.000834
# 6 -0.000182 -0.000556 -0.001135 -0.011346 0.000834 0.029886
#
#
# Mechanical properties :
#
#
# Convention : Reuss Voigt Hill
#
# Bulk Modulus (GPa) = 43.67117 62.12473 52.89795
# Shear Modulus (GPa) = 27.81632 34.37232 31.09432
#
# Velocity S-wave (km/s) = 3.71490 4.12954 3.92769
# Velocity P-wave (km/s) = 6.32986 7.31842 6.84202
#
# Compressibility (1/GPa) = 0.02289840
#
# Stress axis : x y z
#
# Youngs Moduli (GPa) = 93.89307 70.16122 35.68018
#
# Poissons Ratio (x) = 0.26904 0.27053
# Poissons Ratio (y) = 0.36005 0.12841
# Poissons Ratio (z) = 0.71192 0.25251
#
# Static dielectric constant tensor:
#      x y z
#    x 1.743810 0.028180 0.056880 
#    y 0.028180 1.742480 -0.012960 
#    z 0.056880 -0.012960 1.730940 
# 
# From -- ./inp_files/500582.got.cif
#   From: 2010.05.17/outbox.cif.g08.bks.cpg/sg2_251_cif.got.tgz:500582.got - 2010.06.03 11:33:40.
