data_PCOD9017012
_publ_section_title
;
Structure prediction by ZEFSAII (Michael W. Deem and Ramdas Pophale) SiO2 
 PCOD9017012
Probable space group: P -1
;
_chemical_formula_sum "Si O2"
_cell_formula_units_Z 16
_cell_length_a 12.357102
_cell_length_b 21.222016
_cell_length_c 8.529397
_cell_angle_alpha 70.004155
_cell_angle_beta 70.084212
_cell_angle_gamma 21.397805
_cell_volume 765.253886
_symmetry_space_group_name_H-M "P -1"
_symmetry_group_IT_number 2
_symmetry_cell_setting 'triclinic'
loop_
_space_group_symop_operation_xyz
x,y,z
-x,-y,-z
loop_
_atom_site_type_symbol
_atom_site_label
_atom_site_fract_x
_atom_site_fract_y
_atom_site_fract_z
Si Si1 0.383943 0.994504 0.986251
Si Si2 0.892351 0.676666 0.763857
Si Si3 0.854202 0.120770 0.615753
Si Si4 0.217972 0.615317 0.115272
Si Si5 0.509304 0.207359 0.334824
Si Si6 0.384873 0.492050 0.491050
Si Si7 0.160733 0.501171 0.091132
Si Si8 0.539408 0.784858 0.276173
O O1 0.059388 0.185280 0.920090
O O2 0.624854 0.847479 0.859639
O O3 0.500000 0.000000 0.000000
O O4 0.377827 0.939485 0.167179
O O5 0.715348 0.724013 0.692595
O O6 0.099314 0.617986 0.620532
O O7 0.115789 0.521707 0.909712
O O8 0.645015 0.295944 0.528974
O O9 0.637100 0.181559 0.743965
O O10 0.000000 0.000000 0.500000
O O11 0.136832 0.994051 0.682989
O O12 0.287045 0.556460 0.307072
O O13 0.150173 0.584449 0.076071
O O14 0.500000 0.500000 0.000000
O O15 0.437123 0.316688 0.193748
O O16 0.449640 0.235482 0.526440
O O17 0.500000 0.500000 0.500000
O O18 0.874707 0.616727 0.202343
#
# Coordination Sequence:
#
# PCOD9017012 Si02
#       8
#     2   2   2   2   2   2   2   2
#     4  11  25  46  69 103 137 193 236 285 344 426
#     4  11  25  45  68 101 145 178 230 295 350 417
#     4  10  24  44  68 105 136 183 232 289 343 423
#     4  12  26  44  73 100 141 186 236 281 355 424
#     4  11  23  39  72 101 135 175 233 292 354 400
#     4  12  28  48  71 106 145 184 231 298 357 409
#     4  11  22  45  66 100 133 188 228 282 346 425
#     4  10  21  42  70  95 137 180 235 283 336 420
#
# _framework density 20.908092
#
# number of rings (size 3 to 8) (size 9 to 14) (size 15 to 20)
#    0.000    1.000    2.500    4.500    7.000    1.500 
#    0.000    3.125    0.000    0.000    0.000    0.000 
#    0.000    0.000    0.000    0.000    0.000    0.000 
#
# Total GULP energy -89370.155239 kJ/mol
# GULP energy per Si atom -5585.634702 kJ/mol
# Density = 2.086050 g / cm^3
# Si number density = 20.908092 Si / 1000 Ang^3
#
#
#
# Elastic Constant Matrix: (Units=GPa)
#
#
# Indices 1 2 3 4 5 6 
#
# 1 124.6351 33.6316 39.3814 -1.1501 -5.5617 -15.2001
# 2 33.6316 142.8214 55.9700 -21.5940 -11.6295 -4.6288
# 3 39.3814 55.9700 127.8764 -13.9263 -8.4811 -20.7971
# 4 -1.1501 -21.5940 -13.9263 46.9683 -1.0065 -5.4983
# 5 -5.5617 -11.6295 -8.4811 -1.0065 23.2797 -5.0608
# 6 -15.2001 -4.6288 -20.7971 -5.4983 -5.0608 34.7459
#
#
#
# Elastic Compliance Matrix: (Units=1/GPa)
#
#
# Indices 1 2 3 4 5 6 
#
# 1 0.009380 -0.001381 -0.001751 -0.000539 0.001545 0.003011
# 2 -0.001381 0.009313 -0.003098 0.003376 0.003296 -0.000203
# 3 -0.001751 -0.003098 0.011329 0.002741 0.003710 0.006577
# 4 -0.000539 0.003376 0.002741 0.024507 0.005022 0.006465
# 5 0.001545 0.003296 0.003710 0.005022 0.048989 0.011265
# 6 0.003011 -0.000203 0.006577 0.006465 0.011265 0.036671
#
#
# Mechanical properties :
#
#
# Convention : Reuss Voigt Hill
#
# Bulk Modulus (GPa) = 56.93497 72.58878 64.76187
# Shear Modulus (GPa) = 31.54496 38.75544 35.15020
#
# Velocity S-wave (km/s) = 3.88847 4.31003 4.10466
# Velocity P-wave (km/s) = 6.88843 7.71763 7.31479
#
# Compressibility (1/GPa) = 0.01756390
#
# Stress axis : x y z
#
# Youngs Moduli (GPa) = 106.60419 107.37500 88.26622
#
# Poissons Ratio (x) = 0.14826 0.15455
# Poissons Ratio (y) = 0.14720 0.27343
# Poissons Ratio (z) = 0.18666 0.33263
#
# Static dielectric constant tensor:
#      x y z
#    x 1.845070 0.032490 0.037970 
#    y 0.032490 1.791070 0.007850 
#    z 0.037970 0.007850 1.754830 
# 
# From -- ./inp_files/283011.got.cif
#   From: 2010.05.17/outbox.cif.g08.bks.cpg/sg2_142_cif.got.tgz:283011.got - 2010.06.03 11:33:40.
