data_PCOD9017908
_publ_section_title
;
Structure prediction by ZEFSAII (Michael W. Deem and Ramdas Pophale) SiO2 
 PCOD9017908
Probable space group: P -1
;
_chemical_formula_sum "Si O2"
_cell_formula_units_Z 16
_cell_length_a 11.747332
_cell_length_b 21.169940
_cell_length_c 10.307349
_cell_angle_alpha 32.327537
_cell_angle_beta 141.693689
_cell_angle_gamma 147.673481
_cell_volume 710.273875
_symmetry_space_group_name_H-M "P -1"
_symmetry_group_IT_number 2
_symmetry_cell_setting 'triclinic'
loop_
_space_group_symop_operation_xyz
x,y,z
-x,-y,-z
loop_
_atom_site_type_symbol
_atom_site_label
_atom_site_fract_x
_atom_site_fract_y
_atom_site_fract_z
Si Si1 0.168561 0.591899 0.604344
Si Si2 0.249353 0.557568 0.084324
Si Si3 0.991509 0.859049 0.768709
Si Si4 0.200190 0.863107 0.201131
Si Si5 0.635237 0.558841 0.849332
Si Si6 0.707598 0.160196 0.397874
Si Si7 0.664268 0.147450 0.088711
Si Si8 0.267757 0.556325 0.388406
O O1 0.992755 0.540216 0.654440
O O2 0.000000 0.500000 0.500000
O O3 0.267532 0.756015 0.397533
O O4 0.341054 0.548623 0.853517
O O5 0.271769 0.462654 0.165017
O O6 0.340925 0.551961 0.316019
O O7 0.350937 0.720446 0.848300
O O8 0.000000 0.500000 0.000000
O O9 0.205549 0.879708 0.854327
O O10 0.788292 0.715350 0.773826
O O11 0.014152 0.842475 0.971980
O O12 0.000000 0.000000 0.500000
O O13 0.147864 0.829813 0.365998
O O14 0.413906 0.019455 0.104732
O O15 0.396006 0.520848 0.665739
O O16 0.780570 0.175352 0.286465
O O17 0.500000 0.000000 0.500000
O O18 0.670475 0.285434 0.813445
#
# Coordination Sequence:
#
# PCOD9017908 Si02
#       8
#     2   2   2   2   2   2   2   2
#     4  12  23  42  62  93 132 173 210 269 327 381
#     4  11  19  39  68  94 131 170 211 266 323 386
#     4  12  25  42  63  94 129 173 224 269 317 396
#     4  11  21  40  65  92 129 168 212 265 330 381
#     4  12  23  40  66  97 130 167 223 264 321 390
#     4   9  19  35  64  94 123 167 207 257 328 384
#     4  10  21  43  67  92 127 174 215 267 327 384
#     4  11  23  41  68  97 128 172 217 266 326 385
#
# _framework density 22.526522
#
# number of rings (size 3 to 8) (size 9 to 14) (size 15 to 20)
#    0.000    1.000    5.000    2.250    0.000    1.500 
#    2.250    0.625    0.000    0.000    0.000    0.000 
#    0.000    0.000    0.000    0.000    0.000    0.000 
#
# Total GULP energy -89370.662326 kJ/mol
# GULP energy per Si atom -5585.666395 kJ/mol
# Density = 2.247525 g / cm^3
# Si number density = 22.526522 Si / 1000 Ang^3
#
#
#
# Elastic Constant Matrix: (Units=GPa)
#
#
# Indices 1 2 3 4 5 6 
#
# 1 73.6826 11.1618 26.3603 8.8475 -10.7564 -21.5445
# 2 11.1618 104.8973 39.8550 -21.2396 -1.1799 -15.0542
# 3 26.3603 39.8550 151.2916 9.9518 -6.7986 -13.9507
# 4 8.8475 -21.2396 9.9518 46.0789 -7.5501 -10.3335
# 5 -10.7564 -1.1799 -6.7986 -7.5501 32.4826 8.8543
# 6 -21.5445 -15.0542 -13.9507 -10.3335 8.8543 39.1501
#
#
#
# Elastic Compliance Matrix: (Units=1/GPa)
#
#
# Indices 1 2 3 4 5 6 
#
# 1 0.017116 0.000017 -0.002091 -0.000581 0.002954 0.007859
# 2 0.000017 0.013433 -0.003525 0.008324 0.000025 0.006110
# 3 -0.002091 -0.003525 0.008069 -0.003028 0.000300 -0.000498
# 4 -0.000581 0.008324 -0.003028 0.028852 0.003853 0.008546
# 5 0.002954 0.000025 0.000300 0.003853 0.034072 -0.004947
# 6 0.007859 0.006110 -0.000498 0.008546 -0.004947 0.035414
#
#
# Mechanical properties :
#
#
# Convention : Reuss Voigt Hill
#
# Bulk Modulus (GPa) = 36.46862 53.84730 45.15796
# Shear Modulus (GPa) = 31.78743 40.37528 36.08136
#
# Velocity S-wave (km/s) = 3.76055 4.23820 4.00650
# Velocity P-wave (km/s) = 5.92284 6.92139 6.44149
#
# Compressibility (1/GPa) = 0.02742083
#
# Stress axis : x y z
#
# Youngs Moduli (GPa) = 58.42431 74.44257 123.92522
#
# Poissons Ratio (x) = -0.00125 0.25913
# Poissons Ratio (y) = -0.00098 0.43679
# Poissons Ratio (z) = 0.12217 0.26238
#
# Static dielectric constant tensor:
#      x y z
#    x 1.890930 -0.066230 -0.099690 
#    y -0.066230 1.840820 0.049230 
#    z -0.099690 0.049230 1.873350 
# 
# From -- ./inp_files/457934.got.cif
#   From: 2010.05.17/outbox.cif.g08.bks.cpg/sg2_229_cif.got.tgz:457934.got - 2010.06.03 11:33:40.
