data_PCOD9017444
_publ_section_title
;
Structure prediction by ZEFSAII (Michael W. Deem and Ramdas Pophale) SiO2 
 PCOD9017444
Probable space group: P -1
;
_chemical_formula_sum "Si O2"
_cell_formula_units_Z 14
_cell_length_a 11.203308
_cell_length_b 11.563171
_cell_length_c 9.709949
_cell_angle_alpha 47.446727
_cell_angle_beta 106.410080
_cell_angle_gamma 71.424952
_cell_volume 615.782109
_symmetry_space_group_name_H-M "P -1"
_symmetry_group_IT_number 2
_symmetry_cell_setting 'triclinic'
loop_
_space_group_symop_operation_xyz
x,y,z
-x,-y,-z
loop_
_atom_site_type_symbol
_atom_site_label
_atom_site_fract_x
_atom_site_fract_y
_atom_site_fract_z
Si Si1 0.349251 0.335709 0.598292
Si Si2 0.979821 0.849741 0.036819
Si Si3 0.625544 0.688529 0.908836
Si Si4 0.192793 0.762189 0.788223
Si Si5 0.477993 0.607210 0.180112
Si Si6 0.676531 0.152888 0.482903
Si Si7 0.305205 0.135609 0.995013
O O1 0.473854 0.353353 0.696258
O O2 0.169170 0.588013 0.290937
O O3 0.489770 0.115425 0.725898
O O4 0.295101 0.258565 0.760928
O O5 0.844065 0.862503 0.069384
O O6 0.871647 0.952700 0.773552
O O7 0.000000 0.000000 0.000000
O O8 0.451406 0.863506 0.611644
O O9 0.721562 0.747077 0.965240
O O10 0.764257 0.457803 0.050291
O O11 0.558344 0.652138 0.052823
O O12 0.308039 0.743773 0.723193
O O13 0.271361 0.758530 0.958298
O O14 0.000000 0.000000 0.500000
O O15 0.571582 0.353255 0.399249
#
# Coordination Sequence:
#
# PCOD9017444 Si02
#       7
#     2   2   2   2   2   2   2
#     4  10  21  43  63  89 119 164 211 243 298 367
#     4  12  24  39  61  92 128 160 200 253 310 361
#     4   8  17  37  59  79 117 156 196 245 299 349
#     4   9  17  32  60  93 110 153 209 247 294 355
#     4   8  15  34  58  80 116 152 193 249 290 346
#     4   9  18  36  56  83 121 151 191 252 304 349
#     4  10  23  42  63  87 121 167 206 247 299 366
#
# _framework density 22.735313000000001
#
# number of rings (size 3 to 8) (size 9 to 14) (size 15 to 20)
#    0.000    2.571    1.429    2.143    0.000    2.286 
#   15.429    0.714    0.000    0.000    0.000    0.000 
#    0.000    0.000    0.000    0.000    0.000    0.000 
#
# Total GULP energy -78049.076640 kJ/mol
# GULP energy per Si atom -5574.934046 kJ/mol
# Density = 2.268357 g / cm^3
# Si number density = 22.735313 Si / 1000 Ang^3
#
#
#
# Elastic Constant Matrix: (Units=GPa)
#
#
# Indices 1 2 3 4 5 6 
#
# 1 70.3906 30.0095 23.0511 0.9769 0.3500 29.0133
# 2 30.0095 89.7089 26.8114 6.7591 14.7133 32.5500
# 3 23.0511 26.8114 153.7777 0.5798 34.6130 12.6049
# 4 0.9769 6.7591 0.5798 24.9294 -3.6577 2.7421
# 5 0.3500 14.7133 34.6130 -3.6577 46.6708 6.1124
# 6 29.0133 32.5500 12.6049 2.7421 6.1124 32.0220
#
#
#
# Elastic Compliance Matrix: (Units=1/GPa)
#
#
# Indices 1 2 3 4 5 6 
#
# 1 0.024142 -0.000428 -0.002950 0.002353 0.005137 -0.021460
# 2 -0.000428 0.018644 -0.001059 -0.003573 -0.003110 -0.017248
# 3 -0.002950 -0.001059 0.008378 -0.000881 -0.006149 0.001701
# 4 0.002353 -0.003573 -0.000881 0.042114 0.005429 -0.002796
# 5 0.005137 -0.003110 -0.006149 0.005429 0.027994 -0.004881
# 6 -0.021460 -0.017248 0.001701 -0.002796 -0.004881 0.068705
#
#
# Mechanical properties :
#
#
# Convention : Reuss Voigt Hill
#
# Bulk Modulus (GPa) = 23.64656 52.62458 38.13557
# Shear Modulus (GPa) = 23.47990 36.32478 29.90234
#
# Velocity S-wave (km/s) = 3.21713 4.00149 3.63055
# Velocity P-wave (km/s) = 4.92172 6.67429 5.86385
#
# Compressibility (1/GPa) = 0.04228945
#
# Stress axis : x y z
#
# Youngs Moduli (GPa) = 41.42193 53.63598 119.36335
#
# Poissons Ratio (x) = 0.02293 0.35216
# Poissons Ratio (y) = 0.01771 0.12644
# Poissons Ratio (z) = 0.12221 0.05682
#
# Static dielectric constant tensor:
#      x y z
#    x 1.939140 -0.018890 -0.045480 
#    y -0.018890 1.856690 -0.005470 
#    z -0.045480 -0.005470 1.878350 
# 
# From -- ./inp_files/255768.got.cif
#   From: 2010.05.17/outbox.cif.g08.bks.cpg/sg2_128_cif.got.tgz:255768.got - 2010.06.03 11:33:40.
