data_PCOD9017027
_publ_section_title
;
Structure prediction by ZEFSAII (Michael W. Deem and Ramdas Pophale) SiO2 
 PCOD9017027
Probable space group: P -1
;
_chemical_formula_sum "Si O2"
_cell_formula_units_Z 15
_cell_length_a 15.922880
_cell_length_b 11.078056
_cell_length_c 11.992662
_cell_angle_alpha 127.167729
_cell_angle_beta 135.628162
_cell_angle_gamma 23.482104
_cell_volume 579.324366
_symmetry_space_group_name_H-M "P -1"
_symmetry_group_IT_number 2
_symmetry_cell_setting 'triclinic'
loop_
_space_group_symop_operation_xyz
x,y,z
-x,-y,-z
loop_
_atom_site_type_symbol
_atom_site_label
_atom_site_fract_x
_atom_site_fract_y
_atom_site_fract_z
Si Si1 0.784620 0.055567 0.003385
Si Si2 0.428651 0.907499 0.858003
Si Si3 0.003120 0.353309 0.340555
Si Si4 0.932258 0.372427 0.775568
Si Si5 0.707673 0.144286 0.491955
Si Si6 0.313594 0.119480 0.309057
Si Si7 0.664294 0.472681 0.014443
Si Si8 0.000000 0.000000 0.500000
O O1 0.599291 0.298006 0.063938
O O2 0.632109 0.105836 0.811984
O O3 0.838060 0.144198 0.031198
O O4 0.009634 0.728204 0.096778
O O5 0.385937 0.901642 0.688692
O O6 0.185439 0.150675 0.836784
O O7 0.616960 0.576509 0.902450
O O8 0.500000 0.000000 0.000000
O O9 0.080892 0.335351 0.285781
O O10 0.000000 0.500000 0.500000
O O11 0.760249 0.520776 0.189837
O O12 0.195862 0.022017 0.391062
O O13 0.877725 0.279126 0.604905
O O14 0.742424 0.710408 0.752951
O O15 0.500000 0.500000 0.500000
O O16 0.920754 0.976616 0.520091
O O17 0.500000 0.000000 0.500000
#
# Coordination Sequence:
#
# PCOD9017027 Si02
#       8
#     2   2   2   2   2   2   2   1
#     4  10  23  43  68 100 132 177 233 283 352 423
#     4  10  21  42  70  96 137 181 225 285 359 430
#     4  12  25  46  67 100 141 183 236 287 363 425
#     4  10  22  43  69  97 131 189 224 280 360 420
#     4  11  26  44  71 108 137 190 241 296 354 433
#     4  12  27  41  66  99 140 181 233 294 344 414
#     4  10  22  43  70  95 132 181 222 284 353 421
#     4  10  22  46  74  94 144 178 232 288 360 416
#
# _framework density 25.892229
#
# number of rings (size 3 to 8) (size 9 to 14) (size 15 to 20)
#    0.000    1.333    0.000    5.200    3.733    5.867 
#    7.200    0.000    0.000    0.000    0.000    0.000 
#    0.000    0.000    0.000    0.000    0.000    0.000 
#
# Total GULP energy -83683.631993 kJ/mol
# GULP energy per Si atom -5578.908800 kJ/mol
# Density = 2.583330 g / cm^3
# Si number density = 25.892229 Si / 1000 Ang^3
#
#
#
# Elastic Constant Matrix: (Units=GPa)
#
#
# Indices 1 2 3 4 5 6 
#
# 1 131.3738 31.4677 18.7514 -8.8556 -1.3038 25.6203
# 2 31.4677 86.3179 26.7557 -7.1533 2.9773 37.6950
# 3 18.7514 26.7557 67.8710 3.1819 1.3572 20.9590
# 4 -8.8556 -7.1533 3.1819 46.3861 16.5187 -3.6710
# 5 -1.3038 2.9773 1.3572 16.5187 38.3067 1.4801
# 6 25.6203 37.6950 20.9590 -3.6710 1.4801 48.8806
#
#
#
# Elastic Compliance Matrix: (Units=1/GPa)
#
#
# Indices 1 2 3 4 5 6 
#
# 1 0.008769 -0.001516 -0.000987 0.001273 0.000015 -0.002909
# 2 -0.001516 0.018658 -0.003342 0.002604 -0.002046 -0.011904
# 3 -0.000987 -0.003342 0.017916 -0.002640 0.000916 -0.004814
# 4 0.001273 0.002604 -0.002640 0.026560 -0.011550 0.000801
# 5 0.000015 -0.002046 0.000916 -0.011550 0.031237 -0.000636
# 6 -0.002909 -0.011904 -0.004814 0.000801 -0.000636 0.033306
#
#
# Mechanical properties :
#
#
# Convention : Reuss Voigt Hill
#
# Bulk Modulus (GPa) = 29.71357 48.83471 39.27414
# Shear Modulus (GPa) = 31.37689 40.62054 35.99872
#
# Velocity S-wave (km/s) = 3.48491 3.96514 3.73276
# Velocity P-wave (km/s) = 5.26247 6.31386 5.81199
#
# Compressibility (1/GPa) = 0.03365465
#
# Stress axis : x y z
#
# Youngs Moduli (GPa) = 114.03799 53.59589 55.81672
#
# Poissons Ratio (x) = 0.08122 0.05508
# Poissons Ratio (y) = 0.17282 0.18653
# Poissons Ratio (z) = 0.11254 0.17911
#
# Static dielectric constant tensor:
#      x y z
#    x 2.033990 -0.063380 0.022590 
#    y -0.063380 2.166370 -0.077640 
#    z 0.022590 -0.077640 2.052840 
# 
# From -- ./inp_files/216295.got.cif
#   From: 2010.05.17/outbox.cif.g08.bks.cpg/sg2_109_cif.got.tgz:216295.got - 2010.06.03 11:33:40.
