data_PCOD9017842
_publ_section_title
;
Structure prediction by ZEFSAII (Michael W. Deem and Ramdas Pophale) SiO2 
 PCOD9017842
Probable space group: P -1
;
_chemical_formula_sum "Si O2"
_cell_formula_units_Z 14
_cell_length_a 6.195796
_cell_length_b 21.582535
_cell_length_c 13.651444
_cell_angle_alpha 18.736078
_cell_angle_beta 70.831091
_cell_angle_gamma 73.126789
_cell_volume 552.561189
_symmetry_space_group_name_H-M "P -1"
_symmetry_group_IT_number 2
_symmetry_cell_setting 'triclinic'
loop_
_space_group_symop_operation_xyz
x,y,z
-x,-y,-z
loop_
_atom_site_type_symbol
_atom_site_label
_atom_site_fract_x
_atom_site_fract_y
_atom_site_fract_z
Si Si1 0.934661 0.218803 0.205573
Si Si2 0.509505 0.910479 0.433864
Si Si3 0.407326 0.872034 0.294589
Si Si4 0.930960 0.684757 0.673247
Si Si5 0.386524 0.294973 0.938980
Si Si6 0.744190 0.584827 0.635580
Si Si7 0.214315 0.377015 0.634469
O O1 0.744547 0.192086 0.358851
O O2 0.792845 0.360751 0.944992
O O3 0.000000 0.000000 0.500000
O O4 0.192610 0.316116 0.017638
O O5 0.527437 0.960090 0.242314
O O6 0.712559 0.771878 0.626746
O O7 0.519596 0.099646 0.216946
O O8 0.495224 0.657524 0.586324
O O9 0.138837 0.846179 0.390570
O O10 0.500000 0.000000 0.000000
O O11 0.871032 0.628148 0.654558
O O12 0.000000 0.500000 0.000000
O O13 0.254098 0.268059 0.893418
O O14 0.554523 0.484398 0.622417
O O15 0.827543 0.704444 0.347191
O O16 0.000000 0.500000 0.500000
#
# Coordination Sequence:
#
# PCOD9017842 Si02
#       7
#     2   2   2   2   2   2   2
#     4  10  21  43  66  97 137 180 223 281 339 414
#     4  10  23  45  68  99 136 174 235 284 343 412
#     4  11  25  44  70 103 138 180 232 296 350 410
#     4  11  25  46  73  99 136 189 233 290 352 405
#     4  10  23  42  68 100 138 179 225 279 350 411
#     4  11  24  42  70 100 140 176 234 286 344 414
#     4  11  23  42  67 100 139 181 223 280 345 412
#
# _framework density 25.336559999999999
#
# number of rings (size 3 to 8) (size 9 to 14) (size 15 to 20)
#    0.000    1.429    1.429    2.571    2.000    8.000 
#    5.143    1.429    0.000    0.000    0.000    0.000 
#    0.000    0.000    0.000    0.000    0.000    0.000 
#
# Total GULP energy -78150.261779 kJ/mol
# GULP energy per Si atom -5582.161556 kJ/mol
# Density = 2.527889 g / cm^3
# Si number density = 25.336560 Si / 1000 Ang^3
#
#
#
# Elastic Constant Matrix: (Units=GPa)
#
#
# Indices 1 2 3 4 5 6 
#
# 1 94.3487 62.8758 52.0012 2.0715 10.6036 -27.3929
# 2 62.8758 119.2345 31.9719 2.6315 21.0973 -27.4962
# 3 52.0012 31.9719 104.2248 3.0957 8.7042 -11.3905
# 4 2.0715 2.6315 3.0957 54.0182 -11.3445 14.5679
# 5 10.6036 21.0973 8.7042 -11.3445 41.2523 3.6360
# 6 -27.3929 -27.4962 -11.3905 14.5679 3.6360 63.9111
#
#
#
# Elastic Compliance Matrix: (Units=1/GPa)
#
#
# Indices 1 2 3 4 5 6 
#
# 1 0.021822 -0.008180 -0.007761 -0.001417 -0.000602 0.004808
# 2 -0.008180 0.014693 0.000656 -0.002921 -0.006704 0.003979
# 3 -0.007761 0.000656 0.013345 -0.000652 -0.001296 -0.000444
# 4 -0.001417 -0.002921 -0.000652 0.022682 0.008908 -0.007657
# 5 -0.000602 -0.006704 -0.001296 0.008908 0.031180 -0.007177
# 6 0.004808 0.003979 -0.000444 -0.007657 -0.007177 0.021494
#
#
# Mechanical properties :
#
#
# Convention : Reuss Voigt Hill
#
# Bulk Modulus (GPa) = 51.84168 67.94508 59.89338
# Shear Modulus (GPa) = 30.82299 43.23362 37.02830
#
# Velocity S-wave (km/s) = 3.49168 4.13531 3.82705
# Velocity P-wave (km/s) = 6.06312 7.04814 6.57410
#
# Compressibility (1/GPa) = 0.01928950
#
# Stress axis : x y z
#
# Youngs Moduli (GPa) = 45.82430 68.05998 74.93562
#
# Poissons Ratio (x) = 0.55674 0.58156
# Poissons Ratio (y) = 0.37485 -0.04913
# Poissons Ratio (z) = 0.35564 -0.04462
#
# Static dielectric constant tensor:
#      x y z
#    x 2.011680 0.080360 0.014950 
#    y 0.080360 2.099640 -0.067650 
#    z 0.014950 -0.067650 2.053710 
# 
# From -- ./inp_files/485784.got.cif
#   From: 2010.05.17/outbox.cif.g08.bks.cpg/sg2_243_cif.got.tgz:485784.got - 2010.06.03 11:33:40.
