data_PCOD9017021
_publ_section_title
;
Structure prediction by ZEFSAII (Michael W. Deem and Ramdas Pophale) SiO2 
 PCOD9017021
Probable space group: P -1
;
_chemical_formula_sum "Si O2"
_cell_formula_units_Z 16
_cell_length_a 18.049256
_cell_length_b 9.490034
_cell_length_c 18.436824
_cell_angle_alpha 47.891801
_cell_angle_beta 23.175074
_cell_angle_gamma 35.347998
_cell_volume 673.991520
_symmetry_space_group_name_H-M "P -1"
_symmetry_group_IT_number 2
_symmetry_cell_setting 'triclinic'
loop_
_space_group_symop_operation_xyz
x,y,z
-x,-y,-z
loop_
_atom_site_type_symbol
_atom_site_label
_atom_site_fract_x
_atom_site_fract_y
_atom_site_fract_z
Si Si1 0.985597 0.166858 0.042245
Si Si2 0.834134 0.844361 0.675311
Si Si3 0.104661 0.195714 0.087555
Si Si4 0.544310 0.693011 0.224284
Si Si5 0.368006 0.852668 0.099994
Si Si6 0.743067 0.402040 0.997697
Si Si7 0.763261 0.707644 0.453691
Si Si8 0.693987 0.723589 0.344712
O O1 0.095178 0.254112 0.861297
O O2 0.074170 0.146928 0.051027
O O3 0.674905 0.411556 0.236779
O O4 0.144842 0.871133 0.980444
O O5 0.114646 0.550957 0.522177
O O6 0.751092 0.040389 0.615862
O O7 0.809818 0.957036 0.738130
O O8 0.603510 0.844724 0.882882
O O9 0.828350 0.458742 0.274370
O O10 0.214064 0.969468 0.123995
O O11 0.301155 0.241027 0.899301
O O12 0.626431 0.610460 0.094616
O O13 0.515084 0.558839 0.090085
O O14 0.987771 0.335769 0.767484
O O15 0.665547 0.706931 0.462062
O O16 0.548984 0.007212 0.566886
#
# Coordination Sequence:
#
# PCOD9017021 Si02
#       8
#     2   2   2   2   2   2   2   2
#     4  11  21  30  48  75 104 125 151 197 249 283
#     4   8  13  26  48  72  88 116 165 208 220 257
#     4  10  17  32  49  70 100 127 162 193 231 289
#     4   9  16  29  50  70  95 122 165 198 227 274
#     4   8  14  26  48  71  93 121 163 199 228 268
#     4  10  18  31  51  75  96 122 160 208 234 268
#     4  10  17  30  52  73  95 120 164 203 232 276
#     4  10  19  30  49  74  97 125 157 197 241 284
#
# _framework density 23.739172
#
# number of rings (size 3 to 8) (size 9 to 14) (size 15 to 20)
#    0.000    2.500    3.750    3.375    0.000    0.500 
#    0.000    0.625    0.000   16.500    0.000    0.000 
#    0.000    0.000    0.000    0.000    0.000    0.000 
#
# Total GULP energy -89162.327151 kJ/mol
# GULP energy per Si atom -5572.645447 kJ/mol
# Density = 2.368514 g / cm^3
# Si number density = 23.739172 Si / 1000 Ang^3
#
#
#
# Elastic Constant Matrix: (Units=GPa)
#
#
# Indices 1 2 3 4 5 6 
#
# 1 72.4410 22.7196 26.2785 20.2528 -15.7813 -36.0752
# 2 22.7196 94.2675 28.0569 41.9709 -25.6118 -46.6265
# 3 26.2785 28.0569 47.3792 19.0328 -13.4744 -9.4371
# 4 20.2528 41.9709 19.0328 44.9715 -13.6687 -21.8122
# 5 -15.7813 -25.6118 -13.4744 -13.6687 16.9271 14.8110
# 6 -36.0752 -46.6265 -9.4371 -21.8122 14.8110 31.7231
#
#
#
# Elastic Compliance Matrix: (Units=1/GPa)
#
#
# Indices 1 2 3 4 5 6 
#
# 1 -0.029876 -0.049565 0.027810 0.001354 0.009805 -0.102198
# 2 -0.049565 -0.031794 0.034159 -0.008879 0.020902 -0.108798
# 3 0.027810 0.034159 0.006993 -0.008422 0.013564 0.071789
# 4 0.001354 -0.008879 -0.008422 0.040362 0.002870 0.012397
# 5 0.009805 0.020902 0.013564 0.002870 0.120146 -0.008215
# 6 -0.102198 -0.108798 0.071789 0.012397 -0.008215 -0.210892
#
#
# Mechanical properties :
#
#
# Convention : Reuss Voigt Hill
#
# Bulk Modulus (GPa) = -33.48031 40.91084 3.71527
# Shear Modulus (GPa) = -35.75874 27.85988 -3.94943
#
# Velocity S-wave (km/s) = -3.88534 3.42948 -1.29123
# Velocity P-wave (km/s) = 5.85336 5.74044 0.80908
#
# Compressibility (1/GPa) = -0.02986830
#
# Stress axis : x y z
#
# Youngs Moduli (GPa) = -33.47185 -31.45204 143.00028
#
# Poissons Ratio (x) = -1.55892 -3.97685
# Poissons Ratio (y) = -1.65903 -4.88479
# Poissons Ratio (z) = 0.93085 1.07438
#
# Static dielectric constant tensor:
#      x y z
#    x 1.878080 -0.070070 -0.066380 
#    y -0.070070 2.099200 0.032460 
#    z -0.066380 0.032460 1.978920 
# 
# From -- ./inp_files/252222.got.cif
#   From: 2010.05.17/outbox.cif.g08.bks.cpg/sg2_127_cif.got.tgz:252222.got - 2010.06.03 11:33:40.
