data_PCOD9017478
_publ_section_title
;
Structure prediction by ZEFSAII (Michael W. Deem and Ramdas Pophale) SiO2 
 PCOD9017478
Probable space group: P -1
;
_chemical_formula_sum "Si O2"
_cell_formula_units_Z 16
_cell_length_a 14.069290
_cell_length_b 15.340504
_cell_length_c 8.881657
_cell_angle_alpha 89.860165
_cell_angle_beta 119.704992
_cell_angle_gamma 37.756768
_cell_volume 684.350787
_symmetry_space_group_name_H-M "P -1"
_symmetry_group_IT_number 2
_symmetry_cell_setting 'triclinic'
loop_
_space_group_symop_operation_xyz
x,y,z
-x,-y,-z
loop_
_atom_site_type_symbol
_atom_site_label
_atom_site_fract_x
_atom_site_fract_y
_atom_site_fract_z
Si Si1 0.303359 0.978668 0.213428
Si Si2 0.735045 0.850722 0.065927
Si Si3 0.670038 0.402010 0.782596
Si Si4 0.986551 0.741400 0.535502
Si Si5 0.769349 0.145229 0.933920
Si Si6 0.078810 0.032372 0.634570
Si Si7 0.380081 0.386454 0.092629
Si Si8 0.571221 0.825834 0.728089
O O1 0.322702 0.020055 0.075644
O O2 0.405580 0.804797 0.274976
O O3 0.474203 0.900995 0.479009
O O4 0.985278 0.199425 0.005451
O O5 0.762144 0.757060 0.959881
O O6 0.970828 0.698072 0.369133
O O7 0.500000 0.000000 0.000000
O O8 0.500000 0.500000 0.500000
O O9 0.656316 0.323752 0.874277
O O10 0.549814 0.576009 0.763051
O O11 0.074183 0.774020 0.551223
O O12 0.702483 0.960221 0.394042
O O13 0.159775 0.571884 0.799247
O O14 0.911923 0.992505 0.182925
O O15 0.000000 0.000000 0.000000
O O16 0.381936 0.822182 0.821454
O O17 0.000000 0.000000 0.500000
O O18 0.318119 0.351456 0.154163
#
# Coordination Sequence:
#
# PCOD9017478 Si02
#       8
#     2   2   2   2   2   2   2   2
#     4  11  21  42  70  96 138 172 225 278 329 401
#     4  10  22  41  72  96 130 180 226 280 336 392
#     4  11  24  39  65 101 138 176 218 273 336 400
#     4  10  21  43  63  94 136 168 221 275 331 398
#     4  10  23  39  61  93 127 176 214 265 327 390
#     4  11  24  38  65  95 131 178 221 267 334 399
#     4  11  24  41  67  97 136 174 223 277 331 404
#     4  10  22  41  69  97 126 176 223 275 338 391
#
# _framework density 23.379821
#
# number of rings (size 3 to 8) (size 9 to 14) (size 15 to 20)
#    0.000    1.500    2.500    1.875    8.750    3.500 
#    0.000    0.625    5.500    0.000    0.000    0.000 
#    0.000    0.000    0.000    0.000    0.000    0.000 
#
# Total GULP energy -89298.723932 kJ/mol
# GULP energy per Si atom -5581.170246 kJ/mol
# Density = 2.332661 g / cm^3
# Si number density = 23.379821 Si / 1000 Ang^3
#
#
#
# Elastic Constant Matrix: (Units=GPa)
#
#
# Indices 1 2 3 4 5 6 
#
# 1 86.9574 30.8169 20.8925 1.9209 -17.7296 12.0811
# 2 30.8169 81.5918 37.7983 12.9270 1.2112 13.0593
# 3 20.8925 37.7983 135.0777 27.2776 -16.7605 15.2454
# 4 1.9209 12.9270 27.2776 51.4237 4.1222 3.8477
# 5 -17.7296 1.2112 -16.7605 4.1222 29.1171 6.2810
# 6 12.0811 13.0593 15.2454 3.8477 6.2810 38.4606
#
#
#
# Elastic Compliance Matrix: (Units=1/GPa)
#
#
# Indices 1 2 3 4 5 6 
#
# 1 0.016709 -0.006178 0.001430 -0.000407 0.012547 -0.005726
# 2 -0.006178 0.017005 -0.004270 -0.001182 -0.006555 -0.000952
# 3 0.001430 -0.004270 0.011054 -0.005248 0.009091 -0.004341
# 4 -0.000407 -0.001182 -0.005248 0.022980 -0.006778 0.001417
# 5 0.012547 -0.006555 0.009091 -0.006778 0.051256 -0.013011
# 6 -0.005726 -0.000952 -0.004341 0.001417 -0.013011 0.031826
#
#
# Mechanical properties :
#
#
# Convention : Reuss Voigt Hill
#
# Bulk Modulus (GPa) = 37.41042 53.62693 45.51867
# Shear Modulus (GPa) = 28.12522 38.07489 33.10005
#
# Velocity S-wave (km/s) = 3.47215 4.03989 3.76673
# Velocity P-wave (km/s) = 5.66660 6.68940 6.19913
#
# Compressibility (1/GPa) = 0.02673052
#
# Stress axis : x y z
#
# Youngs Moduli (GPa) = 59.84975 58.80708 90.46121
#
# Poissons Ratio (x) = 0.36334 -0.12933
# Poissons Ratio (y) = 0.36978 0.38626
# Poissons Ratio (z) = -0.08557 0.25110
#
# Static dielectric constant tensor:
#      x y z
#    x 1.959000 0.040050 0.045370 
#    y 0.040050 2.023620 -0.090340 
#    z 0.045370 -0.090340 1.711570 
# 
# From -- ./inp_files/313405.got.cif
#   From: 2010.05.17/outbox.cif.g08.bks.cpg/sg2_157_cif.got.tgz:313405.got - 2010.06.03 11:33:40.
