data_PCOD9017477
_publ_section_title
;
Structure prediction by ZEFSAII (Michael W. Deem and Ramdas Pophale) SiO2 
 PCOD9017477
Probable space group: P -1
;
_chemical_formula_sum "Si O2"
_cell_formula_units_Z 16
_cell_length_a 21.115640
_cell_length_b 24.153264
_cell_length_c 9.508377
_cell_angle_alpha 150.928705
_cell_angle_beta 38.401995
_cell_angle_gamma 162.830945
_cell_volume 649.373982
_symmetry_space_group_name_H-M "P -1"
_symmetry_group_IT_number 2
_symmetry_cell_setting 'triclinic'
loop_
_space_group_symop_operation_xyz
x,y,z
-x,-y,-z
loop_
_atom_site_type_symbol
_atom_site_label
_atom_site_fract_x
_atom_site_fract_y
_atom_site_fract_z
Si Si1 0.466600 0.909859 0.162619
Si Si2 0.049041 0.060872 0.214837
Si Si3 0.899420 0.543930 0.374551
Si Si4 0.826682 0.390713 0.456413
Si Si5 0.500703 0.523371 0.795551
Si Si6 0.612802 0.475890 0.734032
Si Si7 0.616258 0.932780 0.205505
Si Si8 0.214463 0.403671 0.868856
O O1 0.602324 0.948192 0.097892
O O2 0.598415 0.084580 0.182913
O O3 0.476369 0.040072 0.514435
O O4 0.198552 0.614110 0.944848
O O5 0.317740 0.296828 0.249345
O O6 0.035113 0.171685 0.555441
O O7 0.000000 0.000000 0.000000
O O8 0.857450 0.789277 0.015972
O O9 0.904428 0.469758 0.336922
O O10 0.692140 0.426598 0.490864
O O11 0.146713 0.850769 0.642472
O O12 0.000000 0.500000 0.500000
O O13 0.823405 0.520436 0.803514
O O14 0.505186 0.410109 0.626149
O O15 0.272760 0.351643 0.747046
O O16 0.540698 0.646726 0.135826
O O17 0.433024 0.656346 0.954676
#
# Coordination Sequence:
#
# PCOD9017477 Si02
#       8
#     2   2   2   2   2   2   2   2
#     4  10  23  42  68  97 137 177 230 283 338 413
#     4  10  23  43  64 100 135 178 230 280 337 414
#     4  12  22  43  70  99 132 183 223 281 350 406
#     4  11  23  46  64 100 138 174 229 283 343 415
#     4  10  21  43  63  94 135 173 221 285 329 406
#     4  10  23  42  65  98 137 169 231 277 333 420
#     4  10  23  42  67  99 134 177 230 282 340 417
#     4  11  23  44  68  93 138 182 218 285 355 392
#
# _framework density 24.639113999999999
#
# number of rings (size 3 to 8) (size 9 to 14) (size 15 to 20)
#    0.000    1.500    2.500    1.875    3.500    0.500 
#    9.000    0.000    0.000    0.000    0.000    0.000 
#    0.000    0.000    0.000    0.000    0.000    0.000 
#
# Total GULP energy -89080.779993 kJ/mol
# GULP energy per Si atom -5567.548750 kJ/mol
# Density = 2.458303 g / cm^3
# Si number density = 24.639114 Si / 1000 Ang^3
#
#
#
# Elastic Constant Matrix: (Units=GPa)
#
#
# Indices 1 2 3 4 5 6 
#
# 1 97.8814 6.0942 22.6737 5.7992 -0.2831 8.4064
# 2 6.0942 60.2559 22.4437 4.8794 -0.1820 -10.1894
# 3 22.6737 22.4437 94.7567 27.7153 -2.4916 -15.4516
# 4 5.7992 4.8794 27.7153 27.3459 17.1694 12.7491
# 5 -0.2831 -0.1820 -2.4916 17.1694 23.6501 -8.6899
# 6 8.4064 -10.1894 -15.4516 12.7491 -8.6899 27.5166
#
#
#
# Elastic Compliance Matrix: (Units=1/GPa)
#
#
# Indices 1 2 3 4 5 6 
#
# 1 0.010451 -0.000151 0.000161 -0.007229 0.006176 0.002142
# 2 -0.000151 0.018423 -0.005673 0.004530 -0.003579 0.000454
# 3 0.000161 -0.005673 0.001776 0.022085 -0.022705 -0.018555
# 4 -0.007229 0.004530 0.022085 -0.040377 0.050280 0.050874
# 5 0.006176 -0.003579 -0.022705 0.050280 -0.012433 -0.043185
# 6 0.002142 0.000454 -0.018555 0.050874 -0.043185 -0.011773
#
#
# Mechanical properties :
#
#
# Convention : Reuss Voigt Hill
#
# Bulk Modulus (GPa) = 51.74417 39.47969 45.61193
# Shear Modulus (GPa) = -309.27581 29.14802 -140.06390
#
# Velocity S-wave (km/s) = -11.21583 3.44320 -7.54782
# Velocity P-wave (km/s) = 12.11115 5.64495 7.57676
#
# Compressibility (1/GPa) = 0.01932585
#
# Stress axis : x y z
#
# Youngs Moduli (GPa) = 95.68743 54.27957 563.05518
#
# Poissons Ratio (x) = 0.00818 -0.09079
# Poissons Ratio (y) = 0.01442 3.19395
# Poissons Ratio (z) = -0.01543 0.30790
#
# Static dielectric constant tensor:
#      x y z
#    x 2.020410 0.044310 0.065700 
#    y 0.044310 2.191960 0.017060 
#    z 0.065700 0.017060 2.104700 
# 
# From -- ./inp_files/350043.got.cif
#   From: 2010.05.17/outbox.cif.g08.bks.cpg/sg2_176_cif.got.tgz:350043.got - 2010.06.03 11:33:40.
