data_PCOD9017797
_publ_section_title
;
Structure prediction by ZEFSAII (Michael W. Deem and Ramdas Pophale) SiO2 
 PCOD9017797
Probable space group: P -1
;
_chemical_formula_sum "Si O2"
_cell_formula_units_Z 15
_cell_length_a 7.969899
_cell_length_b 19.238118
_cell_length_c 15.716858
_cell_angle_alpha 21.315352
_cell_angle_beta 131.108915
_cell_angle_gamma 119.642812
_cell_volume 595.694324
_symmetry_space_group_name_H-M "P -1"
_symmetry_group_IT_number 2
_symmetry_cell_setting 'triclinic'
loop_
_space_group_symop_operation_xyz
x,y,z
-x,-y,-z
loop_
_atom_site_type_symbol
_atom_site_label
_atom_site_fract_x
_atom_site_fract_y
_atom_site_fract_z
Si Si1 0.227552 0.899154 0.597479
Si Si2 0.061743 0.593161 0.829474
Si Si3 0.500000 0.000000 0.000000
Si Si4 0.509492 0.373230 0.848989
Si Si5 0.129632 0.224600 0.959614
Si Si6 0.803797 0.517687 0.662708
Si Si7 0.233540 0.831641 0.223137
Si Si8 0.448235 0.201571 0.339129
O O1 0.032715 0.830791 0.566095
O O2 0.461281 0.797197 0.727692
O O3 0.225529 0.127024 0.349679
O O4 0.290006 0.784731 0.839178
O O5 0.916685 0.580945 0.711739
O O6 0.342567 0.426506 0.092221
O O7 0.000000 0.500000 0.000000
O O8 0.371636 0.255294 0.692850
O O9 0.596625 0.062874 0.872765
O O10 0.287518 0.302168 0.860756
O O11 0.646096 0.394786 0.785017
O O12 0.389916 0.613120 0.572117
O O13 0.016284 0.377905 0.827524
O O14 0.891153 0.226085 0.833362
O O15 0.319175 0.986807 0.322753
O O16 0.000000 0.000000 0.000000
#
# Coordination Sequence:
#
# PCOD9017797 Si02
#       8
#     2   2   1   2   2   2   2   2
#     4  10  21  43  66  94 137 178 222 289 331 404
#     4  12  24  41  70 100 140 185 224 284 348 404
#     4  10  26  44  68 104 140 166 234 286 330 424
#     4  10  22  43  67  96 136 173 229 283 333 410
#     4  11  25  45  71  99 135 184 224 287 342 408
#     4  11  24  46  68 101 137 179 230 278 351 403
#     4  11  25  42  70  99 132 178 228 278 351 402
#     4  10  24  42  66 103 137 176 236 280 343 415
#
# _framework density 25.180700999999999
#
# number of rings (size 3 to 8) (size 9 to 14) (size 15 to 20)
#    0.000    1.333    1.333    4.000    3.733    3.733 
#    4.800    1.333    0.000    0.000    0.000    0.000 
#    0.000    0.000    0.000    0.000    0.000    0.000 
#
# Total GULP energy -83651.531467 kJ/mol
# GULP energy per Si atom -5576.768764 kJ/mol
# Density = 2.512339 g / cm^3
# Si number density = 25.180701 Si / 1000 Ang^3
#
#
#
# Elastic Constant Matrix: (Units=GPa)
#
#
# Indices 1 2 3 4 5 6 
#
# 1 84.7899 4.4087 39.9374 -3.2238 -2.6765 5.6284
# 2 4.4087 103.5350 16.3388 -0.7778 -12.4676 5.2838
# 3 39.9374 16.3388 83.6201 -16.4394 -12.9310 16.7704
# 4 -3.2238 -0.7778 -16.4394 16.4062 3.3675 4.1377
# 5 -2.6765 -12.4676 -12.9310 3.3675 43.9147 -5.1079
# 6 5.6284 5.2838 16.7704 4.1377 -5.1079 20.1398
#
#
#
# Elastic Compliance Matrix: (Units=1/GPa)
#
#
# Indices 1 2 3 4 5 6 
#
# 1 0.016160 0.000582 -0.011002 -0.009258 -0.000655 0.006229
# 2 0.000582 0.010282 -0.002443 -0.002425 0.002455 0.000295
# 3 -0.011002 -0.002443 0.030619 0.035290 0.001617 -0.028621
# 4 -0.009258 -0.002425 0.035290 0.107888 -0.004900 -0.049570
# 5 -0.000655 0.002455 0.001617 -0.004900 0.024923 0.005520
# 6 0.006229 0.000295 -0.028621 -0.049570 0.005520 0.083251
#
#
# Mechanical properties :
#
#
# Convention : Reuss Voigt Hill
#
# Bulk Modulus (GPa) = 31.91492 43.70165 37.80828
# Shear Modulus (GPa) = 16.16590 30.17614 23.17102
#
# Velocity S-wave (km/s) = 2.53651 3.46552 3.03675
# Velocity P-wave (km/s) = 4.61307 5.77980 5.22907
#
# Compressibility (1/GPa) = 0.03133331
#
# Stress axis : x y z
#
# Youngs Moduli (GPa) = 61.88237 97.25998 32.65969
#
# Poissons Ratio (x) = -0.05659 0.35933
# Poissons Ratio (y) = -0.03600 0.07979
# Poissons Ratio (z) = 0.68085 0.23761
#
# Static dielectric constant tensor:
#      x y z
#    x 1.947290 0.050530 0.027520 
#    y 0.050530 2.039200 0.018790 
#    z 0.027520 0.018790 1.983300 
# 
# From -- ./inp_files/562352.got.cif
#   From: 2010.05.17/outbox.cif.g08.bks.cpg/sg2_282_cif.got.tgz:562352.got - 2010.06.03 11:33:40.
