data_PCOD9017098
_publ_section_title
;
Structure prediction by ZEFSAII (Michael W. Deem and Ramdas Pophale) SiO2 
 PCOD9017098
Probable space group: P -1
;
_chemical_formula_sum "Si O2"
_cell_formula_units_Z 12
_cell_length_a 11.674538
_cell_length_b 8.229099
_cell_length_c 15.484900
_cell_angle_alpha 130.721251
_cell_angle_beta 152.858846
_cell_angle_gamma 59.560913
_cell_volume 502.444051
_symmetry_space_group_name_H-M "P -1"
_symmetry_group_IT_number 2
_symmetry_cell_setting 'triclinic'
loop_
_space_group_symop_operation_xyz
x,y,z
-x,-y,-z
loop_
_atom_site_type_symbol
_atom_site_label
_atom_site_fract_x
_atom_site_fract_y
_atom_site_fract_z
Si Si1 0.592269 0.325320 0.301276
Si Si2 0.543804 0.258967 0.439757
Si Si3 0.210468 0.179262 0.435326
Si Si4 0.109134 0.003569 0.671874
Si Si5 0.913664 0.613688 0.099622
Si Si6 0.208665 0.886407 0.177578
O O1 0.625958 0.244534 0.392107
O O2 0.774517 0.564295 0.488136
O O3 0.669015 0.135683 0.229716
O O4 0.300855 0.356501 0.103207
O O5 0.500000 0.500000 0.500000
O O6 0.787702 0.266296 0.669041
O O7 0.295847 0.073162 0.228777
O O8 0.081381 0.116778 0.420776
O O9 0.507694 0.160860 0.627670
O O10 0.096074 0.015970 0.223287
O O11 0.000000 0.000000 0.500000
O O12 0.177841 0.258508 0.836209
O O13 0.924579 0.358746 0.024834
#
# Coordination Sequence:
#
# PCOD9017098 Si02
#       6
#     2   2   2   2   2   2
#     4  11  24  45  71 106 142 189 239 283 357 424
#     4  12  24  47  72 106 146 179 232 303 348 418
#     4  10  21  42  71 102 145 183 231 301 345 413
#     4  12  23  45  73 100 147 192 233 293 350 415
#     4  11  26  46  73 104 141 192 232 293 355 421
#     4  10  22  44  70 108 141 181 238 291 358 414
#
# _framework density 23.883258000000001
#
# number of rings (size 3 to 8) (size 9 to 14) (size 15 to 20)
#    0.000    1.000    5.000    1.000    0.000    3.333 
#    3.000    7.500    0.000    0.000    0.000    0.000 
#    0.000    0.000    0.000    0.000    0.000    0.000 
#
# Total GULP energy -66945.776817 kJ/mol
# GULP energy per Si atom -5578.814735 kJ/mol
# Density = 2.382890 g / cm^3
# Si number density = 23.883258 Si / 1000 Ang^3
#
#
#
# Elastic Constant Matrix: (Units=GPa)
#
#
# Indices 1 2 3 4 5 6 
#
# 1 159.3833 63.3274 44.9428 24.4277 -15.4217 12.0764
# 2 63.3274 153.3244 54.0800 29.1349 -8.0713 -2.7356
# 3 44.9428 54.0800 105.1276 24.8824 -0.5149 8.8202
# 4 24.4277 29.1349 24.8824 55.9563 -7.1475 2.6002
# 5 -15.4217 -8.0713 -0.5149 -7.1475 35.3520 5.8156
# 6 12.0764 -2.7356 8.8202 2.6002 5.8156 51.8883
#
#
#
# Elastic Compliance Matrix: (Units=1/GPa)
#
#
# Indices 1 2 3 4 5 6 
#
# 1 0.008420 -0.002483 -0.001887 -0.001037 0.003211 -0.002078
# 2 -0.002483 0.009175 -0.003257 -0.002296 0.000219 0.001706
# 3 -0.001887 -0.003257 0.012916 -0.003383 -0.001806 -0.001556
# 4 -0.001037 -0.002296 -0.003383 0.021500 0.003447 -0.000768
# 5 0.003211 0.000219 -0.001806 0.003447 0.031080 -0.004085
# 6 -0.002078 0.001706 -0.001556 -0.000768 -0.004085 0.020607
#
#
# Mechanical properties :
#
#
# Convention : Reuss Voigt Hill
#
# Bulk Modulus (GPa) = 65.53894 82.50397 74.02145
# Shear Modulus (GPa) = 40.31073 45.67166 42.99119
#
# Velocity S-wave (km/s) = 4.11277 4.37772 4.24731
# Velocity P-wave (km/s) = 7.07489 7.75707 7.42382
#
# Compressibility (1/GPa) = 0.01525810
#
# Stress axis : x y z
#
# Youngs Moduli (GPa) = 118.76700 108.99537 77.42038
#
# Poissons Ratio (x) = 0.27065 0.14606
# Poissons Ratio (y) = 0.29492 0.25213
# Poissons Ratio (z) = 0.22407 0.35496
#
# Static dielectric constant tensor:
#      x y z
#    x 2.222150 -0.023410 -0.203560 
#    y -0.023410 1.995920 0.003150 
#    z -0.203560 0.003150 2.123380 
# 
# From -- ./inp_files/512446.got.cif
#   From: 2010.05.17/outbox.cif.g08.bks.cpg/sg2_257_cif.got.tgz:512446.got - 2010.06.03 11:33:40.
