data_PCOD9017749
_publ_section_title
;
Structure prediction by ZEFSAII (Michael W. Deem and Ramdas Pophale) SiO2 
 PCOD9017749
Probable space group: P -1
;
_chemical_formula_sum "Si O2"
_cell_formula_units_Z 12
_cell_length_a 9.576194
_cell_length_b 9.322226
_cell_length_c 9.169198
_cell_angle_alpha 124.527506
_cell_angle_beta 112.220896
_cell_angle_gamma 72.354474
_cell_volume 620.037027
_symmetry_space_group_name_H-M "P -1"
_symmetry_group_IT_number 2
_symmetry_cell_setting 'triclinic'
loop_
_space_group_symop_operation_xyz
x,y,z
-x,-y,-z
loop_
_atom_site_type_symbol
_atom_site_label
_atom_site_fract_x
_atom_site_fract_y
_atom_site_fract_z
Si Si1 0.377564 0.675242 0.578299
Si Si2 0.139467 0.897539 0.404042
Si Si3 0.556112 0.969138 0.744727
Si Si4 0.843650 0.449392 0.336092
Si Si5 0.870087 0.128557 0.950042
Si Si6 0.350825 0.197617 0.614200
O O1 0.500000 0.500000 0.500000
O O2 0.252085 0.747731 0.446025
O O3 0.472588 0.842383 0.744350
O O4 0.266500 0.628008 0.635363
O O5 0.100632 0.841222 0.192725
O O6 0.239106 0.052268 0.499873
O O7 0.000000 0.000000 0.500000
O O8 0.563236 0.847213 0.530332
O O9 0.720851 0.029431 0.865934
O O10 0.459518 0.152673 0.768279
O O11 0.746520 0.618707 0.328728
O O12 0.000000 0.500000 0.500000
O O13 0.871282 0.308897 0.139182
O O14 0.000000 0.000000 0.000000
#
# Coordination Sequence:
#
# PCOD9017749 Si02
#       6
#     2   2   2   2   2   2
#     4  11  22  39  70  97 126 171 217 271 320 385
#     4  10  21  43  66  91 130 176 216 261 332 393
#     4   9  19  39  61  89 124 169 213 256 322 381
#     4  12  24  40  65  97 131 172 216 268 328 383
#     4  11  24  40  65  93 131 173 218 268 323 391
#     4   9  18  36  62  87 123 168 209 258 318 383
#
# _framework density 19.353681999999999
#
# number of rings (size 3 to 8) (size 9 to 14) (size 15 to 20)
#    0.000    1.667    1.667    5.000    0.000    1.333 
#    0.000    3.333    0.000    0.000    0.000    0.000 
#    0.000    0.000    0.000    0.000    0.000    0.000 
#
# Total GULP energy -66804.883625 kJ/mol
# GULP energy per Si atom -5567.073635 kJ/mol
# Density = 1.930963 g / cm^3
# Si number density = 19.353682 Si / 1000 Ang^3
#
#
#
# Elastic Constant Matrix: (Units=GPa)
#
#
# Indices 1 2 3 4 5 6 
#
# 1 125.5473 48.4148 57.5288 -3.5717 1.6214 -10.0122
# 2 48.4148 188.6469 64.6020 -1.6409 -3.1072 -33.1643
# 3 57.5288 64.6020 107.9433 -3.8472 -3.2014 -18.3611
# 4 -3.5717 -1.6409 -3.8472 16.2645 0.5895 -3.0235
# 5 1.6214 -3.1072 -3.2014 0.5895 31.5958 1.8218
# 6 -10.0122 -33.1643 -18.3611 -3.0235 1.8218 35.9433
#
#
#
# Elastic Compliance Matrix: (Units=1/GPa)
#
#
# Indices 1 2 3 4 5 6 
#
# 1 0.010755 -0.001092 -0.005165 0.000978 -0.001172 -0.000508
# 2 -0.001092 0.007530 -0.003015 0.000759 0.000179 0.005158
# 3 -0.005165 -0.003015 0.014519 0.002576 0.001198 0.003352
# 4 0.000978 0.000759 0.002576 0.063870 -0.001352 0.007730
# 5 -0.001172 0.000179 0.001198 -0.001352 0.031948 -0.001282
# 6 -0.000508 0.005158 0.003352 0.007730 -0.001282 0.034867
#
#
# Mechanical properties :
#
#
# Convention : Reuss Voigt Hill
#
# Bulk Modulus (GPa) = 70.12266 84.80316 77.46291
# Shear Modulus (GPa) = 26.76859 33.53351 30.15105
#
# Velocity S-wave (km/s) = 3.72308 4.16705 3.95130
# Velocity P-wave (km/s) = 7.40220 8.18933 7.80569
#
# Compressibility (1/GPa) = 0.01426073
#
# Stress axis : x y z
#
# Youngs Moduli (GPa) = 92.97760 132.80357 68.87634
#
# Poissons Ratio (x) = 0.14497 0.35575
# Poissons Ratio (y) = 0.10149 0.20766
# Poissons Ratio (z) = 0.48024 0.40040
#
# Static dielectric constant tensor:
#      x y z
#    x 2.066390 -0.235160 -0.604130 
#    y -0.235160 1.881360 0.310010 
#    z -0.604130 0.310010 2.664090 
# 
# From -- ./inp_files/152928.got.cif
#   From: 2010.05.17/outbox.cif.g08.bks.cpg/sg2_77_cif.got.tgz:152928.got - 2010.06.03 11:33:40.
