data_PCOD9017794
_publ_section_title
;
Structure prediction by ZEFSAII (Michael W. Deem and Ramdas Pophale) SiO2 
 PCOD9017794
Probable space group: P -1
;
_chemical_formula_sum "Si O2"
_cell_formula_units_Z 16
_cell_length_a 5.056782
_cell_length_b 8.455290
_cell_length_c 21.965445
_cell_angle_alpha 60.339470
_cell_angle_beta 84.489308
_cell_angle_gamma 59.721441
_cell_volume 689.882429
_symmetry_space_group_name_H-M "P -1"
_symmetry_group_IT_number 2
_symmetry_cell_setting 'triclinic'
loop_
_space_group_symop_operation_xyz
x,y,z
-x,-y,-z
loop_
_atom_site_type_symbol
_atom_site_label
_atom_site_fract_x
_atom_site_fract_y
_atom_site_fract_z
Si Si1 0.328268 0.074123 0.683871
Si Si2 0.237417 0.359567 0.184918
Si Si3 0.219132 0.637695 0.025769
Si Si4 0.266893 0.065405 0.552091
Si Si5 0.320478 0.933341 0.061813
Si Si6 0.584916 0.368972 0.660058
Si Si7 0.562603 0.305931 0.494698
Si Si8 0.577108 0.554328 0.211400
O O1 0.383540 0.963793 0.636148
O O2 0.468492 0.226113 0.657578
O O3 0.958937 0.227551 0.673134
O O4 0.489626 0.887599 0.766503
O O5 0.168146 0.473336 0.098300
O O6 0.342874 0.489969 0.200623
O O7 0.924665 0.382623 0.214007
O O8 0.253420 0.781812 0.049436
O O9 0.500000 0.500000 0.000000
O O10 0.953187 0.833764 0.954563
O O11 0.276015 0.278078 0.520973
O O12 0.920265 0.116166 0.537303
O O13 0.500000 0.000000 0.500000
O O14 0.507920 0.778417 0.142052
O O15 0.500000 0.000000 0.000000
O O16 0.457181 0.603434 0.589441
O O17 0.466589 0.414002 0.722584
O O18 0.500000 0.500000 0.500000
#
# Coordination Sequence:
#
# PCOD9017794 Si02
#       8
#     2   2   2   2   2   2   2   2
#     4  12  25  44  63  98 133 165 219 269 321 394
#     4  11  25  45  65  96 137 169 214 270 323 396
#     4  10  23  41  68  98 129 178 220 273 335 386
#     4  12  26  42  67  96 127 172 214 273 328 381
#     4  10  21  43  66  94 134 168 225 277 316 400
#     4  12  26  42  69  95 128 175 214 268 326 389
#     4  12  23  45  67  92 128 165 221 269 318 382
#     4  11  25  44  67  95 131 176 214 264 334 381
#
# _framework density 23.192354000000002
#
# number of rings (size 3 to 8) (size 9 to 14) (size 15 to 20)
#    0.000    0.750    3.750    3.000    5.250    1.500 
#    0.000    0.000    0.000    0.000    0.000    0.000 
#    0.000    0.000    0.000    0.000    0.000    0.000 
#
# Total GULP energy -89276.089013 kJ/mol
# GULP energy per Si atom -5579.755563 kJ/mol
# Density = 2.313957 g / cm^3
# Si number density = 23.192354 Si / 1000 Ang^3
#
#
#
# Elastic Constant Matrix: (Units=GPa)
#
#
# Indices 1 2 3 4 5 6 
#
# 1 76.5798 -5.8264 -7.0432 -5.8213 0.3259 -15.2698
# 2 -5.8264 53.3468 -13.1167 0.9669 6.8788 -23.2351
# 3 -7.0432 -13.1167 97.0531 -9.0475 -6.3851 -3.9125
# 4 -5.8213 0.9669 -9.0475 41.0569 -4.5593 -3.2542
# 5 0.3259 6.8788 -6.3851 -4.5593 27.2612 -3.6443
# 6 -15.2698 -23.2351 -3.9125 -3.2542 -3.6443 35.7722
#
#
#
# Elastic Compliance Matrix: (Units=1/GPa)
#
#
# Indices 1 2 3 4 5 6 
#
# 1 0.017021 0.008392 0.003366 0.004140 0.000972 0.013561
# 2 0.008392 0.032565 0.006169 0.003477 -0.002891 0.025431
# 3 0.003366 0.006169 0.012242 0.003944 0.002924 0.007440
# 4 0.004140 0.003477 0.003944 0.026933 0.005500 0.007468
# 5 0.000972 -0.002891 0.002924 0.005500 0.039456 0.003377
# 6 0.013561 0.025431 0.007440 0.007468 0.003377 0.052098
#
#
# Mechanical properties :
#
#
# Convention : Reuss Voigt Hill
#
# Bulk Modulus (GPa) = 10.23718 19.44524 14.84121
# Shear Modulus (GPa) = 28.24529 37.68247 32.96388
#
# Velocity S-wave (km/s) = 3.49359 4.03523 3.77414
# Velocity P-wave (km/s) = 4.54941 5.48756 5.04036
#
# Compressibility (1/GPa) = 0.09768319
#
# Stress axis : x y z
#
# Youngs Moduli (GPa) = 58.75126 30.70790 81.68812
#
# Poissons Ratio (x) = -0.25772 -0.27497
# Poissons Ratio (y) = -0.49307 -0.50396
# Poissons Ratio (z) = -0.19776 -0.18945
#
# Static dielectric constant tensor:
#      x y z
#    x 2.051660 0.168740 -0.069100 
#    y 0.168740 1.944290 0.082570 
#    z -0.069100 0.082570 1.893590 
# 
# From -- ./inp_files/55416.got.cif
#   From: 2010.05.17/outbox.cif.g08.bks.cpg/sg2_28_cif.got.tgz:55416.got - 2010.06.03 11:33:40.
