data_PCOD9017505
_publ_section_title
;
Structure prediction by ZEFSAII (Michael W. Deem and Ramdas Pophale) SiO2 
 PCOD9017505
Probable space group: P -1
;
_chemical_formula_sum "Si O2"
_cell_formula_units_Z 16
_cell_length_a 5.492826
_cell_length_b 16.968044
_cell_length_c 7.900786
_cell_angle_alpha 79.796542
_cell_angle_beta 115.134341
_cell_angle_gamma 118.003831
_cell_volume 588.366547
_symmetry_space_group_name_H-M "P -1"
_symmetry_group_IT_number 2
_symmetry_cell_setting 'triclinic'
loop_
_space_group_symop_operation_xyz
x,y,z
-x,-y,-z
loop_
_atom_site_type_symbol
_atom_site_label
_atom_site_fract_x
_atom_site_fract_y
_atom_site_fract_z
Si Si1 0.228593 0.659694 0.413525
Si Si2 0.183892 0.290424 0.909758
Si Si3 0.379418 0.076461 0.032918
Si Si4 0.601559 0.857912 0.596568
Si Si5 0.175112 0.909817 0.241244
Si Si6 0.229636 0.388427 0.417706
Si Si7 0.990363 0.214920 0.213681
Si Si8 0.346896 0.526111 0.103905
O O1 0.397139 0.757684 0.508834
O O2 0.476719 0.627210 0.460047
O O3 0.059271 0.670864 0.194957
O O4 0.963089 0.601257 0.488137
O O5 0.475663 0.366665 0.885895
O O6 0.035575 0.195182 0.811788
O O7 0.234209 0.271279 0.123297
O O8 0.365608 0.116085 0.204951
O O9 0.688971 0.159039 0.042033
O O10 0.348935 0.979487 0.114381
O O11 0.103610 0.063207 0.833224
O O12 0.438788 0.912256 0.440379
O O13 0.922987 0.858425 0.646128
O O14 0.344723 0.468029 0.287393
O O15 0.999749 0.292258 0.306393
O O16 0.500000 0.500000 0.000000
O O17 0.000000 0.500000 0.000000
#
# Coordination Sequence:
#
# PCOD9017505 Si02
#       8
#     2   2   2   2   2   2   2   2
#     4  10  24  43  72 103 146 183 236 296 367 418
#     4  11  25  46  67 104 140 181 237 300 358 433
#     4  11  22  42  69  99 137 192 235 298 359 429
#     4  10  21  43  63  99 140 189 233 295 358 428
#     4  10  24  42  66 101 142 180 243 299 356 435
#     4  11  23  45  69 105 137 188 238 294 357 436
#     4  11  23  41  74  95 140 189 233 296 357 430
#     4  12  27  43  74 105 137 188 242 295 361 433
#
# _framework density 27.193930999999999
#
# number of rings (size 3 to 8) (size 9 to 14) (size 15 to 20)
#    0.000    1.250    3.750    1.125    3.500    5.000 
#    2.250    0.000    0.000    0.000    0.000    0.000 
#    0.000    0.000    0.000    0.000    0.000    0.000 
#
# Total GULP energy -89363.182471 kJ/mol
# GULP energy per Si atom -5585.198904 kJ/mol
# Density = 2.713204 g / cm^3
# Si number density = 27.193931 Si / 1000 Ang^3
#
#
#
# Elastic Constant Matrix: (Units=GPa)
#
#
# Indices 1 2 3 4 5 6 
#
# 1 103.6788 59.9613 35.1655 -17.8206 -3.0472 24.6638
# 2 59.9613 160.1522 17.9263 -3.9543 1.5613 5.7643
# 3 35.1655 17.9263 105.7947 -33.7201 21.5268 -1.3995
# 4 -17.8206 -3.9543 -33.7201 40.1225 -7.6594 0.6808
# 5 -3.0472 1.5613 21.5268 -7.6594 37.1695 18.3933
# 6 24.6638 5.7643 -1.3995 0.6808 18.3933 38.0479
#
#
#
# Elastic Compliance Matrix: (Units=1/GPa)
#
#
# Indices 1 2 3 4 5 6 
#
# 1 0.026013 -0.007657 -0.010205 0.007172 0.023478 -0.027556
# 2 -0.007657 0.008705 0.001504 -0.002447 -0.005549 0.006426
# 3 -0.010205 0.001504 0.018963 0.007849 -0.018009 0.015650
# 4 0.007172 -0.002447 0.007849 0.036080 0.007721 -0.008368
# 5 0.023478 -0.005549 -0.018009 0.007721 0.063874 -0.046058
# 6 -0.027556 0.006426 0.015650 -0.008368 -0.046058 0.066163
#
#
# Mechanical properties :
#
#
# Convention : Reuss Voigt Hill
#
# Bulk Modulus (GPa) = 47.69847 66.19243 56.94545
# Shear Modulus (GPa) = 19.26774 40.17283 29.72028
#
# Velocity S-wave (km/s) = 2.66471 3.84770 3.30949
# Velocity P-wave (km/s) = 5.20056 6.64330 5.96570
#
# Compressibility (1/GPa) = 0.02096503
#
# Stress axis : x y z
#
# Youngs Moduli (GPa) = 38.44266 114.87859 52.73539
#
# Poissons Ratio (x) = 0.87962 0.53816
# Poissons Ratio (y) = 0.29435 -0.07933
# Poissons Ratio (z) = 0.39230 -0.17281
#
# Static dielectric constant tensor:
#      x y z
#    x 2.287190 -0.064910 0.030440 
#    y -0.064910 2.141820 0.029960 
#    z 0.030440 0.029960 2.251110 
# 
# From -- ./inp_files/107550.got.cif
#   From: 2010.05.17/outbox.cif.g08.bks.cpg/sg2_54_cif.got.tgz:107550.got - 2010.06.03 11:33:40.
