data_PCOD9017008
_publ_section_title
;
Structure prediction by ZEFSAII (Michael W. Deem and Ramdas Pophale) SiO2 
 PCOD9017008
Probable space group: P -1
;
_chemical_formula_sum "Si O2"
_cell_formula_units_Z 14
_cell_length_a 9.204576
_cell_length_b 8.607490
_cell_length_c 25.772293
_cell_angle_alpha 139.744804
_cell_angle_beta 150.927460
_cell_angle_gamma 49.217272
_cell_volume 640.524947
_symmetry_space_group_name_H-M "P -1"
_symmetry_group_IT_number 2
_symmetry_cell_setting 'triclinic'
loop_
_space_group_symop_operation_xyz
x,y,z
-x,-y,-z
loop_
_atom_site_type_symbol
_atom_site_label
_atom_site_fract_x
_atom_site_fract_y
_atom_site_fract_z
Si Si1 0.386709 0.591487 0.809028
Si Si2 0.791573 0.767986 0.890138
Si Si3 0.348281 0.044159 0.629588
Si Si4 0.901156 0.909385 0.718495
Si Si5 0.353814 0.717899 0.642375
Si Si6 0.772176 0.825908 0.547918
Si Si7 0.855930 0.601303 0.034062
O O1 0.584423 0.771640 0.878710
O O2 0.411539 0.329129 0.725142
O O3 0.048751 0.669561 0.722132
O O4 0.512117 0.591221 0.906486
O O5 0.565751 0.714447 0.758157
O O6 0.023003 0.561272 0.923602
O O7 0.000000 0.000000 0.000000
O O8 0.547234 0.925580 0.617904
O O9 0.455197 0.918527 0.683679
O O10 0.000000 0.000000 0.500000
O O11 0.962351 0.930999 0.682349
O O12 0.042977 0.127752 0.851893
O O13 0.342430 0.449314 0.546814
O O14 0.014344 0.787822 0.568602
O O15 0.500000 0.000000 0.500000
O O16 0.000000 0.500000 0.000000
#
# Coordination Sequence:
#
# PCOD9017008 Si02
#       7
#     2   2   2   2   2   2   2
#     4  11  24  45  70 100 138 180 229 283 343 405
#     4  11  22  42  73  96 134 182 227 276 344 404
#     4  12  26  43  72 100 141 183 229 277 340 411
#     4  12  23  43  73 100 135 181 231 280 339 410
#     4  11  25  44  67 102 139 181 225 283 342 403
#     4  11  24  42  71  97 140 179 227 284 343 397
#     4  10  21  42  70  95 133 180 220 280 345 400
#
# _framework density 21.857071999999999
#
# number of rings (size 3 to 8) (size 9 to 14) (size 15 to 20)
#    0.000    0.857    4.286    3.857    4.000    3.429 
#    0.000    0.714    0.000    0.000    0.000    0.000 
#    0.000    0.000    0.000    0.000    0.000    0.000 
#
# Total GULP energy -78166.840747 kJ/mol
# GULP energy per Si atom -5583.345768 kJ/mol
# Density = 2.180732 g / cm^3
# Si number density = 21.857072 Si / 1000 Ang^3
#
#
#
# Elastic Constant Matrix: (Units=GPa)
#
#
# Indices 1 2 3 4 5 6 
#
# 1 47.1338 45.5538 15.3595 10.0544 -0.4452 -2.1145
# 2 45.5538 150.3886 29.9110 -14.3930 0.2073 -12.0411
# 3 15.3595 29.9110 83.6733 -13.4524 -5.0163 -2.6013
# 4 10.0544 -14.3930 -13.4524 42.2315 5.3745 -0.9594
# 5 -0.4452 0.2073 -5.0163 5.3745 33.9881 -2.5724
# 6 -2.1145 -12.0411 -2.6013 -0.9594 -2.5724 38.1529
#
#
#
# Elastic Compliance Matrix: (Units=1/GPa)
#
#
# Indices 1 2 3 4 5 6 
#
# 1 0.037512 -0.011991 -0.004945 -0.014901 0.002018 -0.002281
# 2 -0.011991 0.011307 -0.000744 0.006687 -0.001171 0.002942
# 3 -0.004945 -0.000744 0.014066 0.005262 0.001234 0.000666
# 4 -0.014901 0.006687 0.005262 0.031781 -0.004322 0.002151
# 5 0.002018 -0.001171 0.001234 -0.004322 0.030455 0.001771
# 6 -0.002281 0.002942 0.000666 0.002151 0.001771 0.027231
#
#
# Mechanical properties :
#
#
# Convention : Reuss Voigt Hill
#
# Bulk Modulus (GPa) = 36.33203 51.42714 43.87958
# Shear Modulus (GPa) = 25.39535 35.56592 30.48063
#
# Velocity S-wave (km/s) = 3.41234 4.03824 3.73841
# Velocity P-wave (km/s) = 5.67310 6.73224 6.22523
#
# Compressibility (1/GPa) = 0.02752392
#
# Stress axis : x y z
#
# Youngs Moduli (GPa) = 26.65836 88.44315 71.09435
#
# Poissons Ratio (x) = 1.06048 0.35157
# Poissons Ratio (y) = 0.31965 0.05293
# Poissons Ratio (z) = 0.13183 0.06584
#
# Static dielectric constant tensor:
#      x y z
#    x 1.825270 -0.007760 0.040560 
#    y -0.007760 1.815400 -0.052720 
#    z 0.040560 -0.052720 1.823400 
# 
# From -- ./inp_files/347569.got.cif
#   From: 2010.05.17/outbox.cif.g08.bks.cpg/sg2_174_cif.got.tgz:347569.got - 2010.06.03 11:33:40.
