data_PCOD9017365
_publ_section_title
;
Structure prediction by ZEFSAII (Michael W. Deem and Ramdas Pophale) SiO2 
 PCOD9017365
Probable space group: P -1
;
_chemical_formula_sum "Si O2"
_cell_formula_units_Z 16
_cell_length_a 22.148559
_cell_length_b 17.747915
_cell_length_c 6.356379
_cell_angle_alpha 51.852638
_cell_angle_beta 52.670677
_cell_angle_gamma 18.967018
_cell_volume 636.244242
_symmetry_space_group_name_H-M "P -1"
_symmetry_group_IT_number 2
_symmetry_cell_setting 'triclinic'
loop_
_space_group_symop_operation_xyz
x,y,z
-x,-y,-z
loop_
_atom_site_type_symbol
_atom_site_label
_atom_site_fract_x
_atom_site_fract_y
_atom_site_fract_z
Si Si1 0.605456 0.593220 0.144484
Si Si2 0.131949 0.880289 0.742595
Si Si3 0.597418 0.299340 0.261976
Si Si4 0.318892 0.314735 0.969398
Si Si5 0.746624 0.769367 0.048054
Si Si6 0.946698 0.269924 0.405483
Si Si7 0.240335 0.018822 0.896116
Si Si8 0.018795 0.341741 0.443300
O O1 0.748235 0.347009 0.192650
O O2 0.517820 0.646016 0.451743
O O3 0.715517 0.567406 0.979449
O O4 0.430422 0.815858 0.975390
O O5 0.276955 0.792618 0.669985
O O6 0.983268 0.117967 0.524034
O O7 0.000000 0.000000 0.000000
O O8 0.700095 0.127762 0.151122
O O9 0.500000 0.500000 0.000000
O O10 0.264684 0.450186 0.660101
O O11 0.529535 0.041764 0.035638
O O12 0.220553 0.333263 0.054711
O O13 0.855051 0.743280 0.840856
O O14 0.822476 0.623058 0.341016
O O15 0.999480 0.256186 0.541824
O O16 0.081744 0.166865 0.133944
O O17 0.130200 0.221330 0.632659
#
# Coordination Sequence:
#
# PCOD9017365 Si02
#       8
#     2   2   2   2   2   2   2   2
#     4  12  26  46  69 105 144 187 237 280 341 425
#     4  12  27  44  68 105 144 182 228 286 345 408
#     4  12  24  44  70  99 139 192 236 277 338 414
#     4  10  23  41  68  96 140 178 220 294 357 394
#     4   9  20  45  69 101 131 179 233 298 352 412
#     4  11  24  43  66 104 141 180 239 285 343 419
#     4  12  22  41  72  98 137 186 236 281 342 416
#     4  10  21  42  75  95 132 181 239 289 351 413
#
# _framework density 25.147576000000001
#
# number of rings (size 3 to 8) (size 9 to 14) (size 15 to 20)
#    0.000    1.000    3.750    2.625    3.500    1.500 
#    0.000   15.000    0.000    0.000    0.000    0.000 
#    0.000    0.000    0.000    0.000    0.000    0.000 
#
# Total GULP energy -89174.757654 kJ/mol
# GULP energy per Si atom -5573.422353 kJ/mol
# Density = 2.509034 g / cm^3
# Si number density = 25.147576 Si / 1000 Ang^3
#
#
#
# Elastic Constant Matrix: (Units=GPa)
#
#
# Indices 1 2 3 4 5 6 
#
# 1 123.6518 38.2800 17.3918 -8.7898 3.2683 12.3728
# 2 38.2800 127.1512 48.7324 -36.2307 2.5754 16.3386
# 3 17.3918 48.7324 95.4170 -19.1023 13.8236 -1.0229
# 4 -8.7898 -36.2307 -19.1023 56.8658 -9.4976 14.6620
# 5 3.2683 2.5754 13.8236 -9.4976 22.6150 -10.5409
# 6 12.3728 16.3386 -1.0229 14.6620 -10.5409 41.0263
#
#
#
# Elastic Compliance Matrix: (Units=1/GPa)
#
#
# Indices 1 2 3 4 5 6 
#
# 1 0.009126 -0.002256 -0.000209 0.000200 -0.001988 -0.002441
# 2 -0.002256 0.014234 -0.005405 0.009310 0.002250 -0.007872
# 3 -0.000209 -0.005405 0.014414 -0.000108 -0.007944 0.000573
# 4 0.000200 0.009310 -0.000108 0.027497 0.004757 -0.012375
# 5 -0.001988 0.002250 -0.007944 0.004757 0.056893 0.012423
# 6 -0.002441 -0.007872 0.000573 -0.012375 0.012423 0.035875
#
#
# Mechanical properties :
#
#
# Convention : Reuss Voigt Hill
#
# Bulk Modulus (GPa) = 45.38528 61.66984 53.52756
# Shear Modulus (GPa) = 27.60517 40.22248 33.91382
#
# Velocity S-wave (km/s) = 3.31679 4.00366 3.67630
# Velocity P-wave (km/s) = 5.72319 6.77856 6.27311
#
# Compressibility (1/GPa) = 0.02203357
#
# Stress axis : x y z
#
# Youngs Moduli (GPa) = 109.57446 70.25247 69.37581
#
# Poissons Ratio (x) = 0.15852 0.01451
# Poissons Ratio (y) = 0.24724 0.37498
# Poissons Ratio (z) = 0.02292 0.37972
#
# Static dielectric constant tensor:
#      x y z
#    x 1.899270 0.054420 0.051950 
#    y 0.054420 2.073970 -0.136220 
#    z 0.051950 -0.136220 2.092900 
# 
# From -- ./inp_files/124650.got.cif
#   From: 2010.05.17/outbox.cif.g08.bks.cpg/sg2_63_cif.got.tgz:124650.got - 2010.06.03 11:33:40.
