data_PCOD9017250
_publ_section_title
;
Structure prediction by ZEFSAII (Michael W. Deem and Ramdas Pophale) SiO2 
 PCOD9017250
Probable space group: P -1
;
_chemical_formula_sum "Si O2"
_cell_formula_units_Z 16
_cell_length_a 15.062484
_cell_length_b 18.077276
_cell_length_c 5.179394
_cell_angle_alpha 84.800635
_cell_angle_beta 82.515930
_cell_angle_gamma 27.217627
_cell_volume 638.542960
_symmetry_space_group_name_H-M "P -1"
_symmetry_group_IT_number 2
_symmetry_cell_setting 'triclinic'
loop_
_space_group_symop_operation_xyz
x,y,z
-x,-y,-z
loop_
_atom_site_type_symbol
_atom_site_label
_atom_site_fract_x
_atom_site_fract_y
_atom_site_fract_z
Si Si1 0.724146 0.885159 0.736820
Si Si2 0.730355 0.211190 0.975019
Si Si3 0.176188 0.087258 0.925655
Si Si4 0.899567 0.301142 0.570278
Si Si5 0.136887 0.385717 0.237319
Si Si6 0.027239 0.883698 0.742524
Si Si7 0.488142 0.179338 0.468555
Si Si8 0.497369 0.670954 0.462489
O O1 0.716017 0.918586 0.024100
O O2 0.771190 0.764620 0.745272
O O3 0.925280 0.778543 0.602290
O O4 0.534040 0.066138 0.627393
O O5 0.571905 0.318543 0.776279
O O6 0.917718 0.042295 0.786995
O O7 0.650771 0.230132 0.265818
O O8 0.800679 0.235846 0.073576
O O9 0.153516 0.037012 0.143880
O O10 0.960512 0.263353 0.856232
O O11 0.301928 0.962071 0.690184
O O12 0.695805 0.486917 0.532486
O O13 0.898190 0.216553 0.500205
O O14 0.325887 0.295976 0.268286
O O15 0.000000 0.500000 0.500000
O O16 0.000000 0.500000 0.000000
O O17 0.454577 0.277112 0.619966
#
# Coordination Sequence:
#
# PCOD9017250 Si02
#       8
#     2   2   2   2   2   2   2   2
#     4  10  24  46  72 104 138 195 236 289 349 432
#     4  11  26  42  70  98 143 183 248 293 356 423
#     4  10  21  42  72  97 134 190 241 281 352 426
#     4  10  24  41  70  98 146 183 239 295 364 422
#     4  12  30  48  74 110 149 182 228 298 363 418
#     4  10  23  44  66  99 137 192 238 298 349 429
#     4  11  25  45  75 100 144 185 248 285 351 434
#     4  12  26  43  67 108 137 188 233 305 359 416
#
# _framework density 25.057047000000001
#
# number of rings (size 3 to 8) (size 9 to 14) (size 15 to 20)
#    0.000    1.250    1.250    3.375   12.250    2.500 
#    0.000    0.000    0.000    0.000    0.000    0.000 
#    0.000    0.000    0.000    0.000    0.000    0.000 
#
# Total GULP energy -89095.173228 kJ/mol
# GULP energy per Si atom -5568.448327 kJ/mol
# Density = 2.500002 g / cm^3
# Si number density = 25.057047 Si / 1000 Ang^3
#
#
#
# Elastic Constant Matrix: (Units=GPa)
#
#
# Indices 1 2 3 4 5 6 
#
# 1 84.2979 33.4376 32.3288 -19.0947 20.5677 -2.4943
# 2 33.4376 111.1069 33.0105 -27.7332 20.2723 -5.9892
# 3 32.3288 33.0105 112.5818 -22.9471 29.5278 -6.4144
# 4 -19.0947 -27.7332 -22.9471 37.7080 -16.1979 11.9115
# 5 20.5677 20.2723 29.5278 -16.1979 38.7845 -6.9069
# 6 -2.4943 -5.9892 -6.4144 11.9115 -6.9069 33.1960
#
#
#
# Elastic Compliance Matrix: (Units=1/GPa)
#
#
# Indices 1 2 3 4 5 6 
#
# 1 0.015376 -0.002495 -0.001967 0.003521 -0.004205 -0.001813
# 2 -0.002495 0.011923 -0.001116 0.006452 -0.001523 -0.000884
# 3 -0.001967 -0.001116 0.012013 0.002872 -0.006390 -0.000388
# 4 0.003521 0.006452 0.002872 0.041828 0.008020 -0.011357
# 5 -0.004205 -0.001523 -0.006390 0.008020 0.037579 0.003116
# 6 -0.001813 -0.000884 -0.000388 -0.011357 0.003116 0.034477
#
#
# Mechanical properties :
#
#
# Convention : Reuss Voigt Hill
#
# Bulk Modulus (GPa) = 35.51235 56.17118 45.84177
# Shear Modulus (GPa) = 28.77906 35.88501 32.33204
#
# Velocity S-wave (km/s) = 3.39269 3.78846 3.59602
# Velocity P-wave (km/s) = 5.43604 6.45000 5.96461
#
# Compressibility (1/GPa) = 0.02815922
#
# Stress axis : x y z
#
# Youngs Moduli (GPa) = 65.03443 83.86966 83.23980
#
# Poissons Ratio (x) = 0.20924 0.16370
# Poissons Ratio (y) = 0.16225 0.09286
# Poissons Ratio (z) = 0.12790 0.09356
#
# Static dielectric constant tensor:
#      x y z
#    x 2.059630 -0.019570 -0.065280 
#    y -0.019570 2.034040 -0.065120 
#    z -0.065280 -0.065120 2.301850 
# 
# From -- ./inp_files/99159.got.cif
#   From: 2010.05.17/outbox.cif.g08.bks.cpg/sg2_50_cif.got.tgz:99159.got - 2010.06.03 11:33:40.
