data_PCOD9017617
_publ_section_title
;
Structure prediction by ZEFSAII (Michael W. Deem and Ramdas Pophale) SiO2 
 PCOD9017617
Probable space group: P -1
;
_chemical_formula_sum "Si O2"
_cell_formula_units_Z 16
_cell_length_a 17.740967
_cell_length_b 5.776461
_cell_length_c 9.690751
_cell_angle_alpha 110.986595
_cell_angle_beta 129.930795
_cell_angle_gamma 89.958301
_cell_volume 673.614643
_symmetry_space_group_name_H-M "P -1"
_symmetry_group_IT_number 2
_symmetry_cell_setting 'triclinic'
loop_
_space_group_symop_operation_xyz
x,y,z
-x,-y,-z
loop_
_atom_site_type_symbol
_atom_site_label
_atom_site_fract_x
_atom_site_fract_y
_atom_site_fract_z
Si Si1 0.206904 0.256544 0.774877
Si Si2 0.665262 0.579568 0.320340
Si Si3 0.037241 0.230566 0.363892
Si Si4 0.827140 0.257450 0.031106
Si Si5 0.479796 0.629938 0.277534
Si Si6 0.148395 0.944574 0.272452
Si Si7 0.606831 0.889933 0.757316
Si Si8 0.787069 0.246069 0.408790
O O1 0.291867 0.364688 0.774257
O O2 0.091350 0.170828 0.552074
O O3 0.204753 0.482325 0.924875
O O4 0.223414 0.981729 0.761485
O O5 0.556318 0.598707 0.240391
O O6 0.753878 0.786472 0.562340
O O7 0.678898 0.301374 0.306999
O O8 0.048540 0.022110 0.218766
O O9 0.120490 0.504750 0.477896
O O10 0.924862 0.255640 0.237781
O O11 0.862153 0.231143 0.910512
O O12 0.727726 0.008238 0.889054
O O13 0.546632 0.756928 0.519190
O O14 0.415776 0.338160 0.200036
O O15 0.428731 0.848316 0.211321
O O16 0.180710 0.815148 0.416041
#
# Coordination Sequence:
#
# PCOD9017617 Si02
#       8
#     2   2   2   2   2   2   2   2
#     4   9  21  38  58  88 122 164 205 244 314 383
#     4   9  18  38  67  82 114 170 203 248 310 380
#     4   9  20  39  59  84 120 169 204 242 313 380
#     4  12  21  39  57  92 129 152 205 271 309 364
#     4  10  21  43  65  90 128 165 208 267 325 385
#     4   9  19  35  59  91 116 153 208 253 316 368
#     4  10  24  39  62 100 124 159 216 262 331 373
#     4   8  18  37  57  87 111 164 217 235 307 393
#
# _framework density 23.752452999999999
#
# number of rings (size 3 to 8) (size 9 to 14) (size 15 to 20)
#    0.000    3.000    1.250    0.750    3.500    2.000 
#    9.000    1.250    0.000    0.000    0.000    0.000 
#    0.000    0.000    0.000    0.000    0.000    0.000 
#
# Total GULP energy -89299.375121 kJ/mol
# GULP energy per Si atom -5581.210945 kJ/mol
# Density = 2.369839 g / cm^3
# Si number density = 23.752453 Si / 1000 Ang^3
#
#
#
# Elastic Constant Matrix: (Units=GPa)
#
#
# Indices 1 2 3 4 5 6 
#
# 1 129.7915 57.5716 23.7054 15.8207 -8.7223 -26.7120
# 2 57.5716 110.6313 11.8640 14.7685 -1.0216 -21.5260
# 3 23.7054 11.8640 63.3552 14.5230 -7.8687 -7.5797
# 4 15.8207 14.7685 14.5230 22.7920 -4.9189 -8.0811
# 5 -8.7223 -1.0216 -7.8687 -4.9189 51.6585 3.5785
# 6 -26.7120 -21.5260 -7.5797 -8.0811 3.5785 32.3530
#
#
#
# Elastic Compliance Matrix: (Units=1/GPa)
#
#
# Indices 1 2 3 4 5 6 
#
# 1 0.011481 -0.004453 -0.002357 -0.001421 0.000975 0.005502
# 2 -0.004453 0.012617 0.000629 -0.004337 -0.001090 0.003903
# 3 -0.002357 0.000629 0.019188 -0.010619 0.001516 0.000148
# 4 -0.001421 -0.004337 -0.010619 0.057769 0.003035 0.007547
# 5 0.000975 -0.001090 0.001516 0.003035 0.020092 -0.001029
# 6 0.005502 0.003903 0.000148 0.007547 -0.001029 0.040082
#
#
# Mechanical properties :
#
#
# Convention : Reuss Voigt Hill
#
# Bulk Modulus (GPa) = 32.33590 54.45111 43.39350
# Shear Modulus (GPa) = 27.18878 35.40317 31.29597
#
# Velocity S-wave (km/s) = 3.38697 3.86490 3.63380
# Velocity P-wave (km/s) = 5.37947 6.54910 5.99289
#
# Compressibility (1/GPa) = 0.03092538
#
# Stress axis : x y z
#
# Youngs Moduli (GPa) = 87.09774 79.25775 52.11525
#
# Poissons Ratio (x) = 0.35292 0.12283
# Poissons Ratio (y) = 0.38783 -0.03279
# Poissons Ratio (z) = 0.20529 -0.04986
#
# Static dielectric constant tensor:
#      x y z
#    x 1.878400 0.007970 -0.012240 
#    y 0.007970 2.001460 -0.011900 
#    z -0.012240 -0.011900 1.940940 
# 
# From -- ./inp_files/84129.got.cif
#   From: 2010.05.17/outbox.cif.g08.bks.cpg/sg2_43_cif.got.tgz:84129.got - 2010.06.03 11:33:40.
