data_PCOD9017954
_publ_section_title
;
Structure prediction by ZEFSAII (Michael W. Deem and Ramdas Pophale) SiO2 
 PCOD9017954
Probable space group: P -1
;
_chemical_formula_sum "Si O2"
_cell_formula_units_Z 12
_cell_length_a 5.693992
_cell_length_b 8.164152
_cell_length_c 14.548983
_cell_angle_alpha 55.295413
_cell_angle_beta 88.970096
_cell_angle_gamma 118.509656
_cell_volume 447.572971
_symmetry_space_group_name_H-M "P -1"
_symmetry_group_IT_number 2
_symmetry_cell_setting 'triclinic'
loop_
_space_group_symop_operation_xyz
x,y,z
-x,-y,-z
loop_
_atom_site_type_symbol
_atom_site_label
_atom_site_fract_x
_atom_site_fract_y
_atom_site_fract_z
Si Si1 0.175604 0.823426 0.778173
Si Si2 0.678731 0.990470 0.583087
Si Si3 0.490852 0.607828 0.066101
Si Si4 0.108985 0.251694 0.634686
Si Si5 0.455822 0.494533 0.293098
Si Si6 0.609950 0.071200 0.843396
O O1 0.428270 0.854870 0.706131
O O2 0.855908 0.574323 0.852649
O O3 0.179431 0.057611 0.677840
O O4 0.288040 0.876469 0.864825
O O5 0.046560 0.752748 0.456698
O O6 0.755628 0.800165 0.620583
O O7 0.500000 0.000000 0.500000
O O8 0.631699 0.582715 0.165554
O O9 0.615763 0.895281 0.972481
O O10 0.500000 0.500000 0.000000
O O11 0.378571 0.465799 0.624243
O O12 0.853927 0.128315 0.750935
O O13 0.350450 0.670447 0.236663
#
# Coordination Sequence:
#
# PCOD9017954 Si02
#       6
#     2   2   2   2   2   2
#     4  10  21  43  67  95 137 168 222 270 312 399
#     4  11  25  47  72  93 125 177 222 278 338 376
#     4  12  21  41  68  99 137 182 213 256 328 394
#     4  10  22  45  65  98 137 165 223 272 320 397
#     4  11  25  41  66 100 134 172 219 277 316 395
#     4  10  22  40  63 100 138 174 212 264 325 390
#
# _framework density 26.811267999999998
#
# number of rings (size 3 to 8) (size 9 to 14) (size 15 to 20)
#    0.000    1.333    3.333    2.000    2.333    2.000 
#    0.000    7.500    0.000    0.000    0.000    0.000 
#    0.000    0.000    0.000    0.000    0.000    0.000 
#
# Total GULP energy -66954.181028 kJ/mol
# GULP energy per Si atom -5579.515086 kJ/mol
# Density = 2.675024 g / cm^3
# Si number density = 26.811268 Si / 1000 Ang^3
#
#
#
# Elastic Constant Matrix: (Units=GPa)
#
#
# Indices 1 2 3 4 5 6 
#
# 1 67.2828 54.2657 20.8959 5.3649 8.2376 -3.4965
# 2 54.2657 161.9358 53.3563 12.6005 12.3699 1.8752
# 3 20.8959 53.3563 89.8803 4.6569 19.8263 -4.6737
# 4 5.3649 12.6005 4.6569 34.9739 12.8475 11.0200
# 5 8.2376 12.3699 19.8263 12.8475 51.2699 0.1999
# 6 -3.4965 1.8752 -4.6737 11.0200 0.1999 55.6430
#
#
#
# Elastic Compliance Matrix: (Units=1/GPa)
#
#
# Indices 1 2 3 4 5 6 
#
# 1 0.020663 -0.006637 -0.000438 -0.000731 -0.001372 0.001635
# 2 -0.006637 0.009989 -0.004522 -0.002094 0.000932 -0.000722
# 3 -0.000438 -0.004522 0.015002 0.001139 -0.004930 0.001177
# 4 -0.000731 -0.002094 0.001139 0.034515 -0.008441 -0.006685
# 5 -0.001372 0.000932 -0.004930 -0.008441 0.023518 0.001055
# 6 0.001635 -0.000722 0.001177 -0.006685 0.001055 0.019518
#
#
# Mechanical properties :
#
#
# Convention : Reuss Voigt Hill
#
# Bulk Modulus (GPa) = 44.52365 64.01498 54.26932
# Shear Modulus (GPa) = 32.49179 41.08276 36.78728
#
# Velocity S-wave (km/s) = 3.48497 3.91870 3.70818
# Velocity P-wave (km/s) = 5.73025 6.66355 6.21445
#
# Compressibility (1/GPa) = 0.02245997
#
# Stress axis : x y z
#
# Youngs Moduli (GPa) = 48.39545 100.10628 66.65900
#
# Poissons Ratio (x) = 0.66442 0.02921
# Poissons Ratio (y) = 0.32121 0.30142
# Poissons Ratio (z) = 0.02121 0.45266
#
# Static dielectric constant tensor:
#      x y z
#    x 2.189490 0.077050 0.097720 
#    y 0.077050 2.151420 0.157500 
#    z 0.097720 0.157500 2.172590 
# 
# From -- ./inp_files/478985.got.cif
#   From: 2010.05.17/outbox.cif.g08.bks.cpg/sg2_240_cif.got.tgz:478985.got - 2010.06.03 11:33:40.
