data_PCOD9017781
_publ_section_title
;
Structure prediction by ZEFSAII (Michael W. Deem and Ramdas Pophale) SiO2 
 PCOD9017781
Probable space group: P -1
;
_chemical_formula_sum "Si O2"
_cell_formula_units_Z 16
_cell_length_a 5.828581
_cell_length_b 8.978197
_cell_length_c 20.432553
_cell_angle_alpha 47.085527
_cell_angle_beta 117.867099
_cell_angle_gamma 104.276631
_cell_volume 688.014601
_symmetry_space_group_name_H-M "P -1"
_symmetry_group_IT_number 2
_symmetry_cell_setting 'triclinic'
loop_
_space_group_symop_operation_xyz
x,y,z
-x,-y,-z
loop_
_atom_site_type_symbol
_atom_site_label
_atom_site_fract_x
_atom_site_fract_y
_atom_site_fract_z
Si Si1 0.151428 0.313745 0.999230
Si Si2 0.739490 0.308673 0.719718
Si Si3 0.842855 0.378769 0.321885
Si Si4 0.732084 0.262639 0.061201
Si Si5 0.016078 0.943445 0.282718
Si Si6 0.753534 0.912053 0.601142
Si Si7 0.213523 0.461742 0.594434
Si Si8 0.699712 0.480596 0.793188
O O1 0.252557 0.493896 0.003282
O O2 0.954877 0.415962 0.887610
O O3 0.427539 0.217019 0.032604
O O4 0.944016 0.199714 0.049803
O O5 0.797785 0.122195 0.734519
O O6 0.506689 0.453712 0.610934
O O7 0.662220 0.304158 0.787223
O O8 0.985219 0.434539 0.719751
O O9 0.813478 0.381924 0.395745
O O10 0.574333 0.457227 0.225491
O O11 0.987046 0.162113 0.383994
O O12 0.851641 0.152282 0.175925
O O13 0.826338 0.767023 0.318198
O O14 0.174315 0.954211 0.367658
O O15 0.712669 0.694280 0.693575
O O16 0.500000 0.000000 0.500000
O O17 0.000000 0.500000 0.500000
#
# Coordination Sequence:
#
# PCOD9017781 Si02
#       8
#     2   2   2   2   2   2   2   2
#     4  10  22  41  70  98 138 177 227 274 356 411
#     4   9  22  41  63  87 131 169 222 265 336 395
#     4   9  22  40  62  86 132 169 220 262 336 399
#     4  10  23  41  66 104 134 178 224 283 347 411
#     4  11  24  41  64  98 135 169 219 286 329 399
#     4  11  25  38  62  98 134 166 218 275 337 396
#     4  10  23  40  66  89 124 184 223 268 334 404
#     4  10  21  43  66  94 126 180 214 276 335 408
#
# _framework density 23.255320999999999
#
# number of rings (size 3 to 8) (size 9 to 14) (size 15 to 20)
#    0.000    2.000    1.250    0.000   12.250    3.500 
#    0.000    1.250    0.000    0.000    0.000    0.000 
#    0.000    0.000    0.000    0.000    0.000    0.000 
#
# Total GULP energy -89116.194828 kJ/mol
# GULP energy per Si atom -5569.762177 kJ/mol
# Density = 2.320239 g / cm^3
# Si number density = 23.255321 Si / 1000 Ang^3
#
#
#
# Elastic Constant Matrix: (Units=GPa)
#
#
# Indices 1 2 3 4 5 6 
#
# 1 123.8880 24.9833 51.1587 10.5949 33.1818 -2.2829
# 2 24.9833 97.3154 24.2697 16.0947 12.9376 -14.3881
# 3 51.1587 24.2697 120.5727 26.3810 24.9553 4.3932
# 4 10.5949 16.0947 26.3810 27.2737 12.7745 8.5419
# 5 33.1818 12.9376 24.9553 12.7745 40.0179 -2.6968
# 6 -2.2829 -14.3881 4.3932 8.5419 -2.6968 29.1793
#
#
#
# Elastic Compliance Matrix: (Units=1/GPa)
#
#
# Indices 1 2 3 4 5 6 
#
# 1 0.011900 -0.001999 -0.003888 0.004785 -0.008435 -0.001650
# 2 -0.001999 0.013995 -0.000207 -0.011185 0.001520 0.010191
# 3 -0.003888 -0.000207 0.012397 -0.009947 -0.001229 0.000525
# 4 0.004785 -0.011185 -0.009947 0.066827 -0.017152 -0.024791
# 5 -0.008435 0.001520 -0.001229 -0.017152 0.038329 0.008838
# 6 -0.001650 0.010191 0.000525 -0.024791 0.008838 0.047162
#
#
# Mechanical properties :
#
#
# Convention : Reuss Voigt Hill
#
# Bulk Modulus (GPa) = 38.30946 60.28884 49.29915
# Shear Modulus (GPa) = 23.64072 35.38513 29.51293
#
# Velocity S-wave (km/s) = 3.19183 3.90499 3.56628
# Velocity P-wave (km/s) = 5.48570 6.80536 6.18085
#
# Compressibility (1/GPa) = 0.02610321
#
# Stress axis : x y z
#
# Youngs Moduli (GPa) = 84.03345 71.45204 80.66639
#
# Poissons Ratio (x) = 0.14286 0.31361
# Poissons Ratio (y) = 0.16802 0.01672
# Poissons Ratio (z) = 0.32670 0.01481
#
# Static dielectric constant tensor:
#      x y z
#    x 2.158370 -0.064860 -0.043230 
#    y -0.064860 1.890520 -0.025520 
#    z -0.043230 -0.025520 1.892050 
# 
# From -- ./inp_files/56531.got.cif
#   From: 2010.05.17/outbox.cif.g08.bks.cpg/sg2_29_cif.got.tgz:56531.got - 2010.06.03 11:33:40.
