data_PCOD9017601
_publ_section_title
;
Structure prediction by ZEFSAII (Michael W. Deem and Ramdas Pophale) SiO2 
 PCOD9017601
Probable space group: P -1
;
_chemical_formula_sum "Si O2"
_cell_formula_units_Z 14
_cell_length_a 9.088055
_cell_length_b 7.822356
_cell_length_c 14.906068
_cell_angle_alpha 88.389875
_cell_angle_beta 129.964720
_cell_angle_gamma 118.416134
_cell_volume 650.956240
_symmetry_space_group_name_H-M "P -1"
_symmetry_group_IT_number 2
_symmetry_cell_setting 'triclinic'
loop_
_space_group_symop_operation_xyz
x,y,z
-x,-y,-z
loop_
_atom_site_type_symbol
_atom_site_label
_atom_site_fract_x
_atom_site_fract_y
_atom_site_fract_z
Si Si1 0.743175 0.589166 0.770871
Si Si2 0.135067 0.813538 0.627081
Si Si3 0.084142 0.513668 0.314966
Si Si4 0.179712 0.968493 0.018115
Si Si5 0.573431 0.235021 0.845556
Si Si6 0.693349 0.403126 0.415537
Si Si7 0.414199 0.645293 0.947796
O O1 0.685176 0.463379 0.842960
O O2 0.561804 0.645929 0.681580
O O3 0.735392 0.442812 0.692691
O O4 0.010466 0.800999 0.877463
O O5 0.044897 0.725764 0.693223
O O6 0.274239 0.719542 0.646469
O O7 0.887992 0.661776 0.476967
O O8 0.316268 0.064662 0.700956
O O9 0.227813 0.644086 0.458893
O O10 0.861859 0.503146 0.191492
O O11 0.409510 0.178566 0.059746
O O12 0.269372 0.851212 0.110663
O O13 0.000000 0.000000 0.000000
O O14 0.563639 0.247418 0.949152
O O15 0.500000 0.500000 0.000000
#
# Coordination Sequence:
#
# PCOD9017601 Si02
#       7
#     2   2   2   2   2   2   2
#     4  12  24  37  66  96 134 162 216 265 314 381
#     4   9  20  41  69  82 127 170 221 257 313 377
#     4  10  21  43  65  86 130 169 212 262 312 376
#     4  12  24  41  64  94 132 165 210 266 327 375
#     4  12  24  41  63 100 129 171 211 263 324 380
#     4   9  21  42  67  90 121 180 215 257 323 367
#     4  12  26  43  69  94 128 171 216 264 325 387
#
# _framework density 21.506823000000001
#
# number of rings (size 3 to 8) (size 9 to 14) (size 15 to 20)
#    0.857    0.286    2.857    3.857    4.000    0.571 
#    0.000    0.714    0.000    0.000    0.000    0.000 
#    0.000    0.000    0.000    0.000    0.000    0.000 
#
# Total GULP energy -78045.075459 kJ/mol
# GULP energy per Si atom -5574.648247 kJ/mol
# Density = 2.145787 g / cm^3
# Si number density = 21.506823 Si / 1000 Ang^3
#
#
#
# Elastic Constant Matrix: (Units=GPa)
#
#
# Indices 1 2 3 4 5 6 
#
# 1 74.4466 -1.3997 3.4674 -3.8481 -11.6110 11.6087
# 2 -1.3997 31.4193 20.4647 -6.0240 -2.9983 -5.4304
# 3 3.4674 20.4647 84.0389 9.1005 0.4856 4.3044
# 4 -3.8481 -6.0240 9.1005 20.8035 -2.7536 -2.0400
# 5 -11.6110 -2.9983 0.4856 -2.7536 32.5158 -2.1013
# 6 11.6087 -5.4304 4.3044 -2.0400 -2.1013 17.9761
#
#
#
# Elastic Compliance Matrix: (Units=1/GPa)
#
#
# Indices 1 2 3 4 5 6 
#
# 1 0.015888 0.000927 -0.000838 0.003444 0.005498 -0.008746
# 2 0.000927 0.053065 -0.017100 0.026559 0.009255 0.023622
# 3 -0.000838 -0.017100 0.018290 -0.014747 -0.004119 -0.011159
# 4 0.003444 0.026559 -0.014747 0.066030 0.010659 0.018070
# 5 0.005498 0.009255 -0.004119 0.010659 0.034892 0.005520
# 6 -0.008746 0.023622 -0.011159 0.018070 0.005520 0.073781
#
#
# Mechanical properties :
#
#
# Convention : Reuss Voigt Hill
#
# Bulk Modulus (GPa) = 18.78937 26.10773 22.44855
# Shear Modulus (GPa) = 15.93836 25.41723 20.67780
#
# Velocity S-wave (km/s) = 2.72524 3.44149 3.10409
# Velocity P-wave (km/s) = 4.31949 5.28748 4.82781
#
# Compressibility (1/GPa) = 0.05322157
#
# Stress axis : x y z
#
# Youngs Moduli (GPa) = 62.93965 18.84492 54.67417
#
# Poissons Ratio (x) = -0.01747 0.04582
# Poissons Ratio (y) = -0.05834 0.93491
# Poissons Ratio (z) = 0.05274 0.32224
#
# Static dielectric constant tensor:
#      x y z
#    x 1.817320 -0.004630 -0.020300 
#    y -0.004630 1.770880 0.040080 
#    z -0.020300 0.040080 1.810130 
# 
# From -- ./inp_files/554425.got.cif
#   From: 2010.05.17/outbox.cif.g08.bks.cpg/sg2_278_cif.got.tgz:554425.got - 2010.06.03 11:33:40.
