data_PCOD9017404
_publ_section_title
;
Structure prediction by ZEFSAII (Michael W. Deem and Ramdas Pophale) SiO2 
 PCOD9017404
Probable space group: P -1
;
_chemical_formula_sum "Si O2"
_cell_formula_units_Z 16
_cell_length_a 8.534201
_cell_length_b 7.612672
_cell_length_c 15.145801
_cell_angle_alpha 116.813575
_cell_angle_beta 119.146625
_cell_angle_gamma 93.926933
_cell_volume 712.646657
_symmetry_space_group_name_H-M "P -1"
_symmetry_group_IT_number 2
_symmetry_cell_setting 'triclinic'
loop_
_space_group_symop_operation_xyz
x,y,z
-x,-y,-z
loop_
_atom_site_type_symbol
_atom_site_label
_atom_site_fract_x
_atom_site_fract_y
_atom_site_fract_z
Si Si1 0.461929 0.598312 0.875877
Si Si2 0.465978 0.271234 0.477109
Si Si3 0.954631 0.997334 0.766786
Si Si4 0.654076 0.403776 0.744407
Si Si5 0.863504 0.090402 0.930955
Si Si6 0.078074 0.656307 0.833516
Si Si7 0.495153 0.023860 0.283554
Si Si8 0.345220 0.176245 0.856200
O O1 0.573013 0.563872 0.811124
O O2 0.241590 0.595507 0.812669
O O3 0.448315 0.394385 0.883585
O O4 0.588614 0.797131 0.017234
O O5 0.500000 0.500000 0.500000
O O6 0.523238 0.299620 0.600260
O O7 0.246972 0.112569 0.363159
O O8 0.587796 0.176490 0.424621
O O9 0.015989 0.815650 0.790092
O O10 0.119490 0.123468 0.774290
O O11 0.972761 0.172602 0.888124
O O12 0.615564 0.208296 0.756935
O O13 0.871747 0.502614 0.785518
O O14 0.673465 0.918493 0.796808
O O15 0.812672 0.232952 0.020496
O O16 0.000000 0.000000 0.000000
O O17 0.619780 0.004372 0.231705
#
# Coordination Sequence:
#
# PCOD9017404 Si02
#       8
#     2   2   2   2   2   2   2   2
#     4  10  23  40  65  98 135 162 205 266 319 391
#     4  11  23  45  64  88 126 170 224 270 309 377
#     4  10  22  39  63  89 123 174 215 262 318 375
#     4  11  24  42  64  96 130 170 218 262 319 376
#     4   9  19  36  59  93 125 160 211 249 320 384
#     4  11  21  39  64  95 128 169 210 259 323 385
#     4  10  22  41  66  90 127 170 207 269 322 373
#     4  10  21  43  61  97 133 160 208 264 325 387
#
# _framework density 22.451519000000001
#
# number of rings (size 3 to 8) (size 9 to 14) (size 15 to 20)
#    0.000    1.750    2.500    1.125    3.500    2.000 
#    2.250    2.500    0.000    0.000    0.000    0.000 
#    0.000    0.000    0.000    0.000    0.000    0.000 
#
# Total GULP energy -89080.269719 kJ/mol
# GULP energy per Si atom -5567.516857 kJ/mol
# Density = 2.240042 g / cm^3
# Si number density = 22.451519 Si / 1000 Ang^3
#
#
#
# Elastic Constant Matrix: (Units=GPa)
#
#
# Indices 1 2 3 4 5 6 
#
# 1 124.0169 15.0673 62.6896 1.7373 -21.1247 -13.2724
# 2 15.0673 57.3535 13.3974 -5.1801 -9.9772 2.0157
# 3 62.6896 13.3974 137.2009 -14.0256 -20.0428 0.4327
# 4 1.7373 -5.1801 -14.0256 25.1558 -5.5748 6.0856
# 5 -21.1247 -9.9772 -20.0428 -5.5748 31.4540 9.3742
# 6 -13.2724 2.0157 0.4327 6.0856 9.3742 34.0114
#
#
#
# Elastic Compliance Matrix: (Units=1/GPa)
#
#
# Indices 1 2 3 4 5 6 
#
# 1 0.012124 -0.002376 -0.005758 -0.005686 0.001019 0.005682
# 2 -0.002376 0.020319 0.001322 0.008587 0.009056 -0.006181
# 3 -0.005758 0.001322 0.012117 0.010856 0.008188 -0.006679
# 4 -0.005686 0.008587 0.010856 0.057398 0.021693 -0.019115
# 5 0.001019 0.009056 0.008188 0.021693 0.049725 -0.017830
# 6 0.005682 -0.006181 -0.006679 -0.019115 -0.017830 0.040405
#
#
# Mechanical properties :
#
#
# Convention : Reuss Voigt Hill
#
# Bulk Modulus (GPa) = 32.32448 55.65331 43.98889
# Shear Modulus (GPa) = 23.14543 33.28537 28.21540
#
# Velocity S-wave (km/s) = 3.21426 3.85456 3.54888
# Velocity P-wave (km/s) = 5.31074 6.68223 6.03557
#
# Compressibility (1/GPa) = 0.03093631
#
# Stress axis : x y z
#
# Youngs Moduli (GPa) = 82.48129 49.21406 82.52563
#
# Poissons Ratio (x) = 0.11694 0.47518
# Poissons Ratio (y) = 0.19598 -0.10908
# Poissons Ratio (z) = 0.47493 -0.06505
#
# Static dielectric constant tensor:
#      x y z
#    x 2.003300 -0.039090 -0.059540 
#    y -0.039090 1.902050 0.016970 
#    z -0.059540 0.016970 1.841450 
# 
# From -- ./inp_files/222147.got.cif
#   From: 2010.05.17/outbox.cif.g08.bks.cpg/sg2_112_cif.got.tgz:222147.got - 2010.06.03 11:33:40.
