data_PCOD9017717
_publ_section_title
;
Structure prediction by ZEFSAII (Michael W. Deem and Ramdas Pophale) SiO2 
 PCOD9017717
Probable space group: P -1
;
_chemical_formula_sum "Si O2"
_cell_formula_units_Z 14
_cell_length_a 5.226899
_cell_length_b 7.329949
_cell_length_c 15.911833
_cell_angle_alpha 78.091775
_cell_angle_beta 98.311721
_cell_angle_gamma 88.092277
_cell_volume 588.987747
_symmetry_space_group_name_H-M "P -1"
_symmetry_group_IT_number 2
_symmetry_cell_setting 'triclinic'
loop_
_space_group_symop_operation_xyz
x,y,z
-x,-y,-z
loop_
_atom_site_type_symbol
_atom_site_label
_atom_site_fract_x
_atom_site_fract_y
_atom_site_fract_z
Si Si1 0.347161 0.973624 0.081208
Si Si2 0.537286 0.673631 0.876622
Si Si3 0.260580 0.870624 0.514391
Si Si4 0.281509 0.741857 0.344158
Si Si5 0.264647 0.203643 0.744400
Si Si6 0.176121 0.669869 0.006469
Si Si7 0.434790 0.593604 0.695005
O O1 0.556617 0.884428 0.165315
O O2 0.129256 0.833686 0.057486
O O3 0.262660 0.178477 0.093258
O O4 0.500000 0.000000 0.000000
O O5 0.591593 0.455978 0.922132
O O6 0.515193 0.691722 0.774705
O O7 0.285807 0.728630 0.916022
O O8 0.239385 0.747608 0.440520
O O9 0.309261 0.736830 0.608984
O O10 0.500000 0.000000 0.500000
O O11 0.000000 0.000000 0.500000
O O12 0.550227 0.833582 0.324787
O O13 0.336309 0.533927 0.328223
O O14 0.029687 0.844880 0.278099
O O15 0.253016 0.429303 0.730266
O O16 0.000000 0.500000 0.000000
#
# Coordination Sequence:
#
# PCOD9017717 Si02
#       7
#     2   2   2   2   2   2   2
#     4  10  22  44  66 105 145 188 243 302 361 424
#     4  10  22  42  67 100 143 187 243 295 367 428
#     4  12  28  46  72 108 146 182 241 306 368 434
#     4  10  24  46  73  99 142 188 241 292 365 433
#     4  10  23  45  74 102 140 190 244 287 364 430
#     4  10  21  43  66 101 143 188 241 301 360 435
#     4  10  25  43  73 100 143 192 242 296 366 442
#
# _framework density 23.769594000000001
#
# number of rings (size 3 to 8) (size 9 to 14) (size 15 to 20)
#    0.857    0.857    1.429    1.286    6.000    3.429 
#    5.143    0.000    0.000    0.000    0.000    0.000 
#    0.000    0.000    0.000    0.000    0.000    0.000 
#
# Total GULP energy -78113.885171 kJ/mol
# GULP energy per Si atom -5579.563227 kJ/mol
# Density = 2.371549 g / cm^3
# Si number density = 23.769594 Si / 1000 Ang^3
#
#
#
# Elastic Constant Matrix: (Units=GPa)
#
#
# Indices 1 2 3 4 5 6 
#
# 1 91.6920 28.8546 3.2605 9.0043 6.3538 -12.1211
# 2 28.8546 126.9750 51.3630 15.6737 -8.2987 -6.9818
# 3 3.2605 51.3630 153.9874 14.0972 -16.3845 -21.9916
# 4 9.0043 15.6737 14.0972 57.2169 -4.3083 2.4839
# 5 6.3538 -8.2987 -16.3845 -4.3083 17.5589 2.4313
# 6 -12.1211 -6.9818 -21.9916 2.4839 2.4313 33.6472
#
#
#
# Elastic Compliance Matrix: (Units=1/GPa)
#
#
# Indices 1 2 3 4 5 6 
#
# 1 0.013317 -0.003337 0.001104 -0.002193 -0.006661 0.005470
# 2 -0.003337 0.010151 -0.003056 -0.001222 0.003023 -0.001221
# 3 0.001104 -0.003056 0.008954 -0.001364 0.005439 0.005324
# 4 -0.002193 -0.001222 -0.001364 0.018959 0.004098 -0.003631
# 5 -0.006661 0.003023 0.005439 0.004098 0.067340 -0.003386
# 6 0.005470 -0.001221 0.005324 -0.003631 -0.003386 0.035429
#
#
# Mechanical properties :
#
#
# Convention : Reuss Voigt Hill
#
# Bulk Modulus (GPa) = 45.77827 59.95671 52.86749
# Shear Modulus (GPa) = 29.06812 40.96302 35.01557
#
# Velocity S-wave (km/s) = 3.50081 4.15581 3.84229
# Velocity P-wave (km/s) = 5.97008 6.95029 6.47875
#
# Compressibility (1/GPa) = 0.02184443
#
# Stress axis : x y z
#
# Youngs Moduli (GPa) = 75.09307 98.50867 111.68172
#
# Poissons Ratio (x) = 0.32870 -0.12332
# Poissons Ratio (y) = 0.25057 0.34134
# Poissons Ratio (z) = -0.08292 0.30107
#
# Static dielectric constant tensor:
#      x y z
#    x 2.104880 0.022760 0.094580 
#    y 0.022760 2.024980 -0.018910 
#    z 0.094580 -0.018910 1.907660 
# 
# From -- ./inp_files/479745.got.cif
#   From: 2010.05.17/outbox.cif.g08.bks.cpg/sg2_240_cif.got.tgz:479745.got - 2010.06.03 11:33:40.
