data_PCOD9017836
_publ_section_title
;
Structure prediction by ZEFSAII (Michael W. Deem and Ramdas Pophale) SiO2 
 PCOD9017836
Probable space group: P -1
;
_chemical_formula_sum "Si O2"
_cell_formula_units_Z 14
_cell_length_a 17.640877
_cell_length_b 10.988083
_cell_length_c 14.887054
_cell_angle_alpha 147.583565
_cell_angle_beta 26.930730
_cell_angle_gamma 129.485350
_cell_volume 614.311248
_symmetry_space_group_name_H-M "P -1"
_symmetry_group_IT_number 2
_symmetry_cell_setting 'triclinic'
loop_
_space_group_symop_operation_xyz
x,y,z
-x,-y,-z
loop_
_atom_site_type_symbol
_atom_site_label
_atom_site_fract_x
_atom_site_fract_y
_atom_site_fract_z
Si Si1 0.728079 0.364289 0.173659
Si Si2 0.685828 0.008079 0.132217
Si Si3 0.999931 0.680097 0.288161
Si Si4 0.224413 0.840105 0.677888
Si Si5 0.311098 0.108694 0.394962
Si Si6 0.737172 0.712646 0.730460
Si Si7 0.726470 0.907227 0.386522
O O1 0.500000 0.500000 0.500000
O O2 0.778197 0.143372 0.056827
O O3 0.766523 0.589844 0.311310
O O4 0.835370 0.281462 0.912591
O O5 0.730124 0.040768 0.207878
O O6 0.455389 0.144218 0.454062
O O7 0.743442 0.743782 0.851104
O O8 0.813123 0.867470 0.544468
O O9 0.919046 0.718853 0.498378
O O10 0.086024 0.368003 0.994848
O O11 0.276383 0.540960 0.442238
O O12 0.309407 0.897599 0.534436
O O13 0.000000 0.000000 0.000000
O O14 0.267344 0.990853 0.457099
O O15 0.540315 0.953611 0.051244
#
# Coordination Sequence:
#
# PCOD9017836 Si02
#       7
#     2   2   2   2   2   2   2
#     4  11  19  39  67  97 137 179 208 269 346 394
#     4  11  25  44  68  97 139 175 221 282 330 395
#     4  11  21  38  68 101 136 175 221 269 337 407
#     4  12  26  44  73  93 129 184 232 272 339 391
#     4  10  22  39  68  99 141 169 222 280 330 398
#     4  11  24  45  67 104 135 172 231 276 329 403
#     4  10  21  43  66  97 132 182 221 271 335 399
#
# _framework density 22.789752
#
# number of rings (size 3 to 8) (size 9 to 14) (size 15 to 20)
#    0.000    1.143    5.714    3.429    2.000    3.429 
#    0.000    1.429    0.000    0.000    0.000    0.000 
#    0.000    0.000    0.000    0.000    0.000    0.000 
#
# Total GULP energy -78016.004190 kJ/mol
# GULP energy per Si atom -5572.571728 kJ/mol
# Density = 2.273788 g / cm^3
# Si number density = 22.789752 Si / 1000 Ang^3
#
#
#
# Elastic Constant Matrix: (Units=GPa)
#
#
# Indices 1 2 3 4 5 6 
#
# 1 108.0853 16.9797 27.9014 -4.5724 18.5750 -5.7039
# 2 16.9797 97.5220 28.9265 -21.3000 14.0881 -18.8277
# 3 27.9014 28.9265 98.5260 -16.0939 10.8448 0.7227
# 4 -4.5724 -21.3000 -16.0939 29.9768 -4.6269 11.8653
# 5 18.5750 14.0881 10.8448 -4.6269 29.9602 -7.3580
# 6 -5.7039 -18.8277 0.7227 11.8653 -7.3580 30.4439
#
#
#
# Elastic Compliance Matrix: (Units=1/GPa)
#
#
# Indices 1 2 3 4 5 6 
#
# 1 0.010945 -0.000417 -0.002574 -0.001267 -0.005610 0.000992
# 2 -0.000417 0.013902 -0.002753 0.005630 -0.003023 0.005660
# 3 -0.002574 -0.002753 0.013032 0.006511 -0.002187 -0.005560
# 4 -0.001267 0.005630 0.006511 0.046579 -0.000770 -0.015250
# 5 -0.005610 -0.003023 -0.002187 -0.000770 0.040737 0.007278
# 6 0.000992 0.005660 -0.005560 -0.015250 0.007278 0.044368
#
#
# Mechanical properties :
#
#
# Convention : Reuss Voigt Hill
#
# Bulk Modulus (GPa) = 37.89071 50.19429 44.04250
# Shear Modulus (GPa) = 26.33694 33.43120 29.88407
#
# Velocity S-wave (km/s) = 3.40317 3.83422 3.62511
# Velocity P-wave (km/s) = 5.66607 6.45557 6.07366
#
# Compressibility (1/GPa) = 0.02639169
#
# Stress axis : x y z
#
# Youngs Moduli (GPa) = 91.36853 71.93089 76.73588
#
# Poissons Ratio (x) = 0.03000 0.19750
# Poissons Ratio (y) = 0.03811 0.21123
# Poissons Ratio (z) = 0.23516 0.19800
#
# Static dielectric constant tensor:
#      x y z
#    x 1.920260 -0.011300 0.028930 
#    y -0.011300 1.954130 0.002950 
#    z 0.028930 0.002950 1.868770 
# 
# From -- ./inp_files/538333.got.cif
#   From: 2010.05.17/outbox.cif.g08.bks.cpg/sg2_270_cif.got.tgz:538333.got - 2010.06.03 11:33:40.
