data_PCOD9017139
_publ_section_title
;
Structure prediction by ZEFSAII (Michael W. Deem and Ramdas Pophale) SiO2 
 PCOD9017139
Probable space group: P -1
;
_chemical_formula_sum "Si O2"
_cell_formula_units_Z 14
_cell_length_a 17.072398
_cell_length_b 8.356049
_cell_length_c 5.650424
_cell_angle_alpha 99.219577
_cell_angle_beta 92.053020
_cell_angle_gamma 41.286326
_cell_volume 520.552343
_symmetry_space_group_name_H-M "P -1"
_symmetry_group_IT_number 2
_symmetry_cell_setting 'triclinic'
loop_
_space_group_symop_operation_xyz
x,y,z
-x,-y,-z
loop_
_atom_site_type_symbol
_atom_site_label
_atom_site_fract_x
_atom_site_fract_y
_atom_site_fract_z
Si Si1 0.816507 0.789927 0.224047
Si Si2 0.033164 0.745292 0.880041
Si Si3 0.678803 0.177531 0.935772
Si Si4 0.101836 0.006849 0.571023
Si Si5 0.305777 0.331584 0.863638
Si Si6 0.678615 0.490122 0.697902
Si Si7 0.470691 0.351597 0.673385
O O1 0.787549 0.907416 0.990231
O O2 0.934069 0.496539 0.184185
O O3 0.833093 0.919229 0.418351
O O4 0.709036 0.828606 0.264474
O O5 0.167163 0.606693 0.898654
O O6 0.977265 0.881072 0.651196
O O7 0.964130 0.886343 0.154106
O O8 0.706430 0.303918 0.842640
O O9 0.595754 0.193953 0.770493
O O10 0.604953 0.369110 0.194452
O O11 0.206655 0.709306 0.502824
O O12 0.404461 0.291925 0.747282
O O13 0.331058 0.319508 0.141614
O O14 0.554573 0.632952 0.600622
#
# Coordination Sequence:
#
# PCOD9017139 Si02
#       7
#     2   2   2   2   2   2   2
#     4  10  22  45  65 102 131 176 224 286 327 414
#     4  10  26  42  69 101 138 181 226 282 332 406
#     4  10  21  42  71  93 130 176 231 273 342 399
#     4  12  23  44  73  94 138 185 235 266 339 398
#     4   9  25  41  64  97 146 162 227 279 348 388
#     4  11  23  41  67  99 132 178 227 282 326 418
#     4  10  21  43  66  97 131 176 222 284 335 407
#
# _framework density 26.894507999999998
#
# number of rings (size 3 to 8) (size 9 to 14) (size 15 to 20)
#    0.857    0.857    1.429    2.143    4.000    2.857 
#    5.143    0.714    0.000    0.000    0.000    0.000 
#    0.000    0.000    0.000    0.000    0.000    0.000 
#
# Total GULP energy -78204.688163 kJ/mol
# GULP energy per Si atom -5586.049155 kJ/mol
# Density = 2.683330 g / cm^3
# Si number density = 26.894508 Si / 1000 Ang^3
#
#
#
# Elastic Constant Matrix: (Units=GPa)
#
#
# Indices 1 2 3 4 5 6 
#
# 1 165.8939 0.3609 40.3162 1.3308 27.1273 4.5887
# 2 0.3609 69.9659 18.7189 -8.6034 8.4556 -12.9176
# 3 40.3162 18.7189 115.5680 -10.0883 30.7371 -7.0999
# 4 1.3308 -8.6034 -10.0883 40.1448 -1.1268 15.2041
# 5 27.1273 8.4556 30.7371 -1.1268 60.1505 -2.3844
# 6 4.5887 -12.9176 -7.0999 15.2041 -2.3844 42.2119
#
#
#
# Elastic Compliance Matrix: (Units=1/GPa)
#
#
# Indices 1 2 3 4 5 6 
#
# 1 0.006901 0.000555 -0.001993 -0.000323 -0.002215 -0.000925
# 2 0.000555 0.015881 -0.002079 0.001354 -0.001241 0.003892
# 3 -0.001993 -0.002079 0.011069 0.002115 -0.004408 0.000432
# 4 -0.000323 0.001354 0.002115 0.029448 -0.000965 -0.009856
# 5 -0.002215 -0.001241 -0.004408 -0.000965 0.020056 0.000600
# 6 -0.000925 0.003892 0.000432 -0.009856 0.000600 0.028638
#
#
# Mechanical properties :
#
#
# Convention : Reuss Voigt Hill
#
# Bulk Modulus (GPa) = 37.28991 52.24667 44.76829
# Shear Modulus (GPa) = 39.07275 47.97024 43.52149
#
# Velocity S-wave (km/s) = 3.81572 4.22790 4.02709
# Velocity P-wave (km/s) = 5.77133 6.58044 6.18912
#
# Compressibility (1/GPa) = 0.02681690
#
# Stress axis : x y z
#
# Youngs Moduli (GPa) = 144.89620 62.96848 90.34607
#
# Poissons Ratio (x) = -0.03495 0.18010
# Poissons Ratio (y) = -0.08042 0.18779
# Poissons Ratio (z) = 0.28885 0.13088
#
# Static dielectric constant tensor:
#      x y z
#    x 2.152210 -0.022710 -0.110310 
#    y -0.022710 2.054860 0.005910 
#    z -0.110310 0.005910 2.206860 
# 
# From -- ./inp_files/107218.got.cif
#   From: 2010.05.17/outbox.cif.g08.bks.cpg/sg2_54_cif.got.tgz:107218.got - 2010.06.03 11:33:40.
