data_PCOD9017354
_publ_section_title
;
Structure prediction by ZEFSAII (Michael W. Deem and Ramdas Pophale) SiO2 
 PCOD9017354
Probable space group: P -1
;
_chemical_formula_sum "Si O2"
_cell_formula_units_Z 16
_cell_length_a 19.562940
_cell_length_b 8.055613
_cell_length_c 8.525342
_cell_angle_alpha 128.422173
_cell_angle_beta 59.772800
_cell_angle_gamma 81.461608
_cell_volume 665.567443
_symmetry_space_group_name_H-M "P -1"
_symmetry_group_IT_number 2
_symmetry_cell_setting 'triclinic'
loop_
_space_group_symop_operation_xyz
x,y,z
-x,-y,-z
loop_
_atom_site_type_symbol
_atom_site_label
_atom_site_fract_x
_atom_site_fract_y
_atom_site_fract_z
Si Si1 0.968782 0.677749 0.484662
Si Si2 0.270300 0.759463 0.798617
Si Si3 0.239387 0.881309 0.329948
Si Si4 0.784583 0.355749 0.506481
Si Si5 0.666687 0.891812 0.188201
Si Si6 0.554887 0.566190 0.350379
Si Si7 0.158112 0.603988 0.095670
Si Si8 0.888020 0.485471 0.247306
O O1 0.972101 0.506053 0.232471
O O2 0.000000 0.500000 0.500000
O O3 0.850484 0.981241 0.846650
O O4 0.058630 0.689353 0.358274
O O5 0.278246 0.590563 0.544899
O O6 0.351489 0.518042 0.692354
O O7 0.302332 0.931554 0.801283
O O8 0.203434 0.883393 0.548874
O O9 0.207081 0.168599 0.468928
O O10 0.367805 0.642486 0.006750
O O11 0.177326 0.802908 0.263736
O O12 0.877824 0.332863 0.310092
O O13 0.717904 0.628803 0.856857
O O14 0.730585 0.724084 0.177342
O O15 0.538634 0.125978 0.440579
O O16 0.500000 0.500000 0.500000
O O17 0.118977 0.627469 0.976014
#
# Coordination Sequence:
#
# PCOD9017354 Si02
#       8
#     2   2   2   2   2   2   2   2
#     4  12  23  45  74 101 146 185 230 295 349 414
#     4  11  21  44  70 102 142 184 234 288 347 414
#     4  11  24  47  70 105 144 179 238 289 345 421
#     4  11  24  42  73 104 140 189 232 284 352 416
#     4  10  21  45  66  99 144 177 233 291 345 411
#     4  10  21  42  74  98 140 189 224 293 354 402
#     4  11  25  43  69 103 137 188 231 286 357 413
#     4  12  24  46  70 103 144 183 235 288 348 419
#
# _framework density 24.039636000000002
#
# number of rings (size 3 to 8) (size 9 to 14) (size 15 to 20)
#    0.000    1.000    3.750    3.375    0.000    3.000 
#    2.250   12.500    0.000    0.000    0.000    0.000 
#    0.000    0.000    0.000    0.000    0.000    0.000 
#
# Total GULP energy -89117.755918 kJ/mol
# GULP energy per Si atom -5569.859745 kJ/mol
# Density = 2.398492 g / cm^3
# Si number density = 24.039636 Si / 1000 Ang^3
#
#
#
# Elastic Constant Matrix: (Units=GPa)
#
#
# Indices 1 2 3 4 5 6 
#
# 1 80.1218 55.3378 77.1310 4.8999 -19.6919 -20.0609
# 2 55.3378 114.5993 -14.9464 -16.9978 2.8474 20.1076
# 3 77.1310 -14.9464 -16.8267 -13.1319 35.1975 18.4104
# 4 4.8999 -16.9978 -13.1319 24.3656 5.1327 2.5130
# 5 -19.6919 2.8474 35.1975 5.1327 12.4643 -10.5880
# 6 -20.0609 20.1076 18.4104 2.5130 -10.5880 45.5941
#
#
#
# Elastic Compliance Matrix: (Units=1/GPa)
#
#
# Indices 1 2 3 4 5 6 
#
# 1 0.005558 -0.001124 0.005343 0.002871 -0.008346 -0.001312
# 2 -0.001124 0.009256 -0.004479 0.003118 0.006200 -0.001500
# 3 0.005343 -0.004479 0.002320 -0.005801 0.010528 0.006154
# 4 0.002871 0.003118 -0.005801 0.038155 0.005731 0.001459
# 5 -0.008346 0.006200 0.010528 0.005731 0.030168 -0.003967
# 6 -0.001312 -0.001500 0.006154 0.001459 -0.003967 0.018530
#
#
# Mechanical properties :
#
#
# Convention : Reuss Voigt Hill
#
# Bulk Modulus (GPa) = 60.18678 45.88212 53.03445
# Shear Modulus (GPa) = 45.43518 20.50961 32.97239
#
# Velocity S-wave (km/s) = 4.35214 2.92406 3.70751
# Velocity P-wave (km/s) = 7.09547 5.52518 6.35898
#
# Compressibility (1/GPa) = 0.01661495
#
# Stress axis : x y z
#
# Youngs Moduli (GPa) = 179.90640 108.03623 430.97703
#
# Poissons Ratio (x) = 0.12140 -2.30257
# Poissons Ratio (y) = 0.20217 1.93032
# Poissons Ratio (z) = -0.96118 0.48389
#
# Static dielectric constant tensor:
#      x y z
#    x 1.984140 0.055140 -0.003930 
#    y 0.055140 2.107740 0.018070 
#    z -0.003930 0.018070 1.926650 
# 
# From -- ./inp_files/352423.got.cif
#   From: 2010.05.17/outbox.cif.g08.bks.cpg/sg2_177_cif.got.tgz:352423.got - 2010.06.03 11:33:40.
