data_PCOD9017460
_publ_section_title
;
Structure prediction by ZEFSAII (Michael W. Deem and Ramdas Pophale) SiO2 
 PCOD9017460
Probable space group: P -1
;
_chemical_formula_sum "Si O2"
_cell_formula_units_Z 14
_cell_length_a 15.481533
_cell_length_b 15.980139
_cell_length_c 5.006972
_cell_angle_alpha 126.703665
_cell_angle_beta 119.462496
_cell_angle_gamma 34.455586
_cell_volume 561.873598
_symmetry_space_group_name_H-M "P -1"
_symmetry_group_IT_number 2
_symmetry_cell_setting 'triclinic'
loop_
_space_group_symop_operation_xyz
x,y,z
-x,-y,-z
loop_
_atom_site_type_symbol
_atom_site_label
_atom_site_fract_x
_atom_site_fract_y
_atom_site_fract_z
Si Si1 0.564431 0.331931 0.786316
Si Si2 0.912388 0.459532 0.004315
Si Si3 0.471159 0.857840 0.489130
Si Si4 0.699991 0.060369 0.124394
Si Si5 0.063144 0.767845 0.059654
Si Si6 0.145694 0.818649 0.788574
Si Si7 0.209299 0.333716 0.280628
O O1 0.467245 0.312860 0.719341
O O2 0.623184 0.234320 0.411938
O O3 0.500000 0.500000 0.000000
O O4 0.711029 0.227714 0.998385
O O5 0.843316 0.600316 0.371275
O O6 0.092649 0.338384 0.012107
O O7 0.896338 0.367873 0.974043
O O8 0.830135 0.542668 0.756067
O O9 0.332838 0.970097 0.702592
O O10 0.609476 0.820218 0.713907
O O11 0.398488 0.921938 0.210728
O O12 0.878251 0.923120 0.064728
O O13 0.129071 0.802956 0.426083
O O14 0.134721 0.728150 0.801125
O O15 0.000000 0.000000 0.000000
#
# Coordination Sequence:
#
# PCOD9017460 Si02
#       7
#     2   2   2   2   2   2   2
#     4  10  25  38  57  89 121 161 207 250 299 368
#     4  10  23  39  66  92 121 150 212 254 305 379
#     4  10  22  39  61  81 124 158 193 251 313 359
#     4  10  22  40  56  86 122 156 202 251 296 368
#     4  12  24  39  65  90 122 162 215 250 306 358
#     4  12  24  41  63  88 128 172 206 252 305 364
#     4  10  21  43  63  92 120 160 193 262 321 360
#
# _framework density 24.916637999999999
#
# number of rings (size 3 to 8) (size 9 to 14) (size 15 to 20)
#    0.857    0.571    1.429    3.857    6.000    0.571 
#    0.000    1.429    0.000    0.000    0.000    0.000 
#    0.000    0.000    0.000    0.000    0.000    0.000 
#
# Total GULP energy -78206.728244 kJ/mol
# GULP energy per Si atom -5586.194875 kJ/mol
# Density = 2.485993 g / cm^3
# Si number density = 24.916638 Si / 1000 Ang^3
#
#
#
# Elastic Constant Matrix: (Units=GPa)
#
#
# Indices 1 2 3 4 5 6 
#
# 1 73.4006 18.7057 13.5252 -5.9693 -8.7555 -1.7050
# 2 18.7057 65.4517 39.8839 -18.3886 3.9786 -8.8840
# 3 13.5252 39.8839 77.7138 -40.7821 -18.8260 -6.5614
# 4 -5.9693 -18.3886 -40.7821 37.9354 1.8309 8.3586
# 5 -8.7555 3.9786 -18.8260 1.8309 40.7897 -12.0202
# 6 -1.7050 -8.8840 -6.5614 8.3586 -12.0202 40.4180
#
#
#
# Elastic Compliance Matrix: (Units=1/GPa)
#
#
# Indices 1 2 3 4 5 6 
#
# 1 0.015388 -0.005622 0.002666 0.002091 0.005278 0.000983
# 2 -0.005622 0.028575 -0.022716 -0.010894 -0.013844 0.000492
# 3 0.002666 -0.022716 0.055772 0.047527 0.027105 0.002405
# 4 0.002091 -0.010894 0.047527 0.072445 0.019043 -0.003909
# 5 0.005278 -0.013844 0.027105 0.019043 0.041606 0.010015
# 6 0.000983 0.000492 0.002405 -0.003909 0.010015 0.029068
#
#
# Mechanical properties :
#
#
# Convention : Reuss Voigt Hill
#
# Bulk Modulus (GPa) = 20.66489 40.08842 30.37666
# Shear Modulus (GPa) = 16.11197 33.45870 24.78534
#
# Velocity S-wave (km/s) = 2.54566 3.66843 3.15736
# Velocity P-wave (km/s) = 4.11730 5.83671 5.05071
#
# Compressibility (1/GPa) = 0.04839126
#
# Stress axis : x y z
#
# Youngs Moduli (GPa) = 64.98627 34.99547 17.93015
#
# Poissons Ratio (x) = 0.19676 -0.04781
# Poissons Ratio (y) = 0.36538 0.40730
# Poissons Ratio (z) = -0.17327 0.79495
#
# Static dielectric constant tensor:
#      x y z
#    x 2.034500 0.074490 0.061650 
#    y 0.074490 1.901330 0.142530 
#    z 0.061650 0.142530 1.913340 
# 
# From -- ./inp_files/111728.got.cif
#   From: 2010.05.17/outbox.cif.g08.bks.cpg/sg2_56_cif.got.tgz:111728.got - 2010.06.03 11:33:40.
