data_PCOD9017577
_publ_section_title
;
Structure prediction by ZEFSAII (Michael W. Deem and Ramdas Pophale) SiO2 
 PCOD9017577
Probable space group: P -1
;
_chemical_formula_sum "Si O2"
_cell_formula_units_Z 16
_cell_length_a 8.555123
_cell_length_b 14.181959
_cell_length_c 12.727348
_cell_angle_alpha 113.240276
_cell_angle_beta 110.715248
_cell_angle_gamma 127.263074
_cell_volume 661.591619
_symmetry_space_group_name_H-M "P -1"
_symmetry_group_IT_number 2
_symmetry_cell_setting 'triclinic'
loop_
_space_group_symop_operation_xyz
x,y,z
-x,-y,-z
loop_
_atom_site_type_symbol
_atom_site_label
_atom_site_fract_x
_atom_site_fract_y
_atom_site_fract_z
Si Si1 0.787608 0.077611 0.403269
Si Si2 0.249531 0.903201 0.812119
Si Si3 0.668526 0.448685 0.486201
Si Si4 0.042805 0.140242 0.095072
Si Si5 0.588737 0.919207 0.697558
Si Si6 0.761327 0.320527 0.777663
Si Si7 0.165899 0.339394 0.919270
Si Si8 0.549885 0.418542 0.686369
O O1 0.605801 0.967248 0.198743
O O2 0.163430 0.241089 0.541489
O O3 0.688881 0.144111 0.429448
O O4 0.597147 0.906371 0.363911
O O5 0.027491 0.683947 0.640558
O O6 0.041037 0.878294 0.813146
O O7 0.500000 0.000000 0.000000
O O8 0.443294 0.363292 0.294198
O O9 0.627345 0.477998 0.606293
O O10 0.578213 0.280940 0.410786
O O11 0.781600 0.049274 0.910887
O O12 0.000000 0.000000 0.000000
O O13 0.903848 0.105257 0.773391
O O14 0.667646 0.362324 0.696484
O O15 0.959652 0.320390 0.803723
O O16 0.000000 0.500000 0.000000
O O17 0.500000 0.500000 0.000000
O O18 0.268925 0.431985 0.102991
#
# Coordination Sequence:
#
# PCOD9017577 Si02
#       8
#     2   2   2   2   2   2   2   2
#     4  11  23  40  68  98 134 178 228 278 339 404
#     4  12  24  41  67  99 137 178 228 274 346 404
#     4  11  25  41  68  99 135 180 226 277 339 407
#     4  10  21  43  64  97 136 178 218 276 338 402
#     4  10  23  44  65  99 144 175 223 285 338 402
#     4   9  22  42  65  94 134 170 224 281 338 403
#     4  10  23  44  70  97 135 180 224 283 347 400
#     4  11  23  42  70  99 130 178 230 279 339 411
#
# _framework density 24.184104000000001
#
# number of rings (size 3 to 8) (size 9 to 14) (size 15 to 20)
#    0.000    1.500    2.500    1.500    5.250    4.500 
#    0.000    2.500    0.000    0.000    0.000    0.000 
#    0.000    0.000    0.000    0.000    0.000    0.000 
#
# Total GULP energy -89069.072704 kJ/mol
# GULP energy per Si atom -5566.817044 kJ/mol
# Density = 2.412906 g / cm^3
# Si number density = 24.184104 Si / 1000 Ang^3
#
#
#
# Elastic Constant Matrix: (Units=GPa)
#
#
# Indices 1 2 3 4 5 6 
#
# 1 63.9306 33.9292 6.4760 7.0989 7.6527 -5.4848
# 2 33.9292 73.7139 26.5960 3.0170 -16.7564 3.3893
# 3 6.4760 26.5960 107.3643 -25.1457 4.6965 -5.6852
# 4 7.0989 3.0170 -25.1457 36.5345 -2.6963 0.6359
# 5 7.6527 -16.7564 4.6965 -2.6963 40.6178 1.9312
# 6 -5.4848 3.3893 -5.6852 0.6359 1.9312 41.4114
#
#
#
# Elastic Compliance Matrix: (Units=1/GPa)
#
#
# Indices 1 2 3 4 5 6 
#
# 1 0.026057 -0.015784 0.002454 -0.003069 -0.012179 0.005695
# 2 -0.015784 0.027438 -0.007577 -0.003184 0.015245 -0.006038
# 3 0.002454 -0.007577 0.013523 0.009060 -0.004687 0.002881
# 4 -0.003069 -0.003184 0.009060 0.034492 0.000481 0.000546
# 5 -0.012179 0.015245 -0.004687 0.000481 0.034020 -0.005098
# 6 0.005695 -0.006038 0.002881 0.000546 -0.005098 0.026021
#
#
# Mechanical properties :
#
#
# Convention : Reuss Voigt Hill
#
# Bulk Modulus (GPa) = 39.67659 42.11235 40.89447
# Shear Modulus (GPa) = 23.61076 35.57992 29.59534
#
# Velocity S-wave (km/s) = 3.12796 3.83980 3.50201
# Velocity P-wave (km/s) = 5.43021 6.09178 5.77048
#
# Compressibility (1/GPa) = 0.02520378
#
# Stress axis : x y z
#
# Youngs Moduli (GPa) = 38.37680 36.44540 73.94990
#
# Poissons Ratio (x) = 0.57525 -0.18146
# Poissons Ratio (y) = 0.60573 0.56034
# Poissons Ratio (z) = -0.09417 0.27616
#
# Static dielectric constant tensor:
#      x y z
#    x 1.995250 -0.006700 0.002100 
#    y -0.006700 1.928210 -0.031900 
#    z 0.002100 -0.031900 1.989150 
# 
# From -- ./inp_files/327288.got.cif
#   From: 2010.05.17/outbox.cif.g08.bks.cpg/sg2_164_cif.got.tgz:327288.got - 2010.06.03 11:33:40.
