data_PCOD9017204
_publ_section_title
;
Structure prediction by ZEFSAII (Michael W. Deem and Ramdas Pophale) SiO2 
 PCOD9017204
Probable space group: P -1
;
_chemical_formula_sum "Si O2"
_cell_formula_units_Z 14
_cell_length_a 18.038373
_cell_length_b 18.784334
_cell_length_c 8.889010
_cell_angle_alpha 37.213236
_cell_angle_beta 37.538371
_cell_angle_gamma 18.144401
_cell_volume 556.709780
_symmetry_space_group_name_H-M "P -1"
_symmetry_group_IT_number 2
_symmetry_cell_setting 'triclinic'
loop_
_space_group_symop_operation_xyz
x,y,z
-x,-y,-z
loop_
_atom_site_type_symbol
_atom_site_label
_atom_site_fract_x
_atom_site_fract_y
_atom_site_fract_z
Si Si1 0.046925 0.137929 0.032915
Si Si2 0.090337 0.501547 0.633949
Si Si3 0.757768 0.849549 0.856154
Si Si4 0.197044 0.420337 0.187913
Si Si5 0.560177 0.451904 0.163395
Si Si6 0.582211 0.206798 0.717632
Si Si7 0.542394 0.196259 0.257342
O O1 0.838824 0.227059 0.152397
O O2 0.232173 0.930066 0.209883
O O3 0.931156 0.348898 0.945709
O O4 0.180695 0.063544 0.786835
O O5 0.356100 0.335289 0.462264
O O6 0.930838 0.693749 0.696251
O O7 0.928113 0.602337 0.583231
O O8 0.124646 0.334147 0.901406
O O9 0.721383 0.011355 0.699537
O O10 0.500000 0.000000 0.000000
O O11 0.402336 0.235270 0.296989
O O12 0.362873 0.311455 0.958012
O O13 0.472899 0.413199 0.464837
O O14 0.500000 0.500000 0.000000
O O15 0.461367 0.662258 0.012511
#
# Coordination Sequence:
#
# PCOD9017204 Si02
#       7
#     2   2   2   2   2   2   2
#     4  10  23  47  71 104 136 192 237 284 358 416
#     4  11  23  43  68 103 144 176 240 287 350 425
#     4  11  24  40  69 103 137 192 231 290 354 412
#     4  10  21  42  72 105 135 182 235 291 349 415
#     4  11  27  47  70 105 141 184 235 298 357 419
#     4  11  23  46  74 103 142 185 242 286 350 426
#     4  10  25  44  67 103 140 185 230 291 354 421
#
# _framework density 25.147753999999999
#
# number of rings (size 3 to 8) (size 9 to 14) (size 15 to 20)
#    0.000    1.429    2.857    0.857    2.000    9.714 
#    2.571    0.000    0.000    0.000    0.000    0.000 
#    0.000    0.000    0.000    0.000    0.000    0.000 
#
# Total GULP energy -78076.637382 kJ/mol
# GULP energy per Si atom -5576.902670 kJ/mol
# Density = 2.509052 g / cm^3
# Si number density = 25.147754 Si / 1000 Ang^3
#
#
#
# Elastic Constant Matrix: (Units=GPa)
#
#
# Indices 1 2 3 4 5 6 
#
# 1 99.6039 12.2485 21.8451 -2.9596 -10.5155 8.0624
# 2 12.2485 65.2864 10.5425 28.5256 -8.2650 25.8781
# 3 21.8451 10.5425 96.3276 -9.4401 7.6082 11.6955
# 4 -2.9596 28.5256 -9.4401 45.3514 -5.1833 7.9510
# 5 -10.5155 -8.2650 7.6082 -5.1833 16.0840 1.3109
# 6 8.0624 25.8781 11.6955 7.9510 1.3109 40.3746
#
#
#
# Elastic Compliance Matrix: (Units=1/GPa)
#
#
# Indices 1 2 3 4 5 6 
#
# 1 0.012015 -0.000727 -0.002995 0.002039 0.009701 -0.001782
# 2 -0.000727 0.031181 -0.003961 -0.016142 0.013519 -0.015953
# 3 -0.002995 -0.003961 0.012710 0.004151 -0.008580 -0.001084
# 4 0.002039 -0.016142 0.004151 0.032991 0.001528 0.002190
# 5 0.009701 0.013519 -0.008580 0.001528 0.080914 -0.011045
# 6 -0.001782 -0.015953 -0.001084 0.002190 -0.011045 0.035590
#
#
# Mechanical properties :
#
#
# Convention : Reuss Voigt Hill
#
# Bulk Modulus (GPa) = 24.66641 38.94334 31.80487
# Shear Modulus (GPa) = 21.34194 34.80078 28.07136
#
# Velocity S-wave (km/s) = 2.91634 3.72405 3.34467
# Velocity P-wave (km/s) = 4.60108 5.83188 5.25266
#
# Compressibility (1/GPa) = 0.04054096
#
# Stress axis : x y z
#
# Youngs Moduli (GPa) = 83.22881 32.07067 78.67837
#
# Poissons Ratio (x) = 0.02331 0.23566
# Poissons Ratio (y) = 0.06049 0.31161
# Poissons Ratio (z) = 0.24929 0.12702
#
# Static dielectric constant tensor:
#      x y z
#    x 2.290880 -0.151170 0.244900 
#    y -0.151170 2.133880 -0.064080 
#    z 0.244900 -0.064080 2.105280 
# 
# From -- ./inp_files/229721.got.cif
#   From: 2010.05.17/outbox.cif.g08.bks.cpg/sg2_115_cif.got.tgz:229721.got - 2010.06.03 11:33:40.
