data_PCOD9017381
_publ_section_title
;
Structure prediction by ZEFSAII (Michael W. Deem and Ramdas Pophale) SiO2 
 PCOD9017381
Probable space group: P -1
;
_chemical_formula_sum "Si O2"
_cell_formula_units_Z 12
_cell_length_a 8.777961
_cell_length_b 14.332279
_cell_length_c 9.673640
_cell_angle_alpha 120.723985
_cell_angle_beta 57.707684
_cell_angle_gamma 150.696356
_cell_volume 500.538391
_symmetry_space_group_name_H-M "P -1"
_symmetry_group_IT_number 2
_symmetry_cell_setting 'triclinic'
loop_
_space_group_symop_operation_xyz
x,y,z
-x,-y,-z
loop_
_atom_site_type_symbol
_atom_site_label
_atom_site_fract_x
_atom_site_fract_y
_atom_site_fract_z
Si Si1 0.345722 0.832518 0.852039
Si Si2 0.256326 0.806106 0.557084
Si Si3 0.406919 0.224300 0.750451
Si Si4 0.761936 0.465795 0.016561
Si Si5 0.806216 0.860962 0.623047
Si Si6 0.506078 0.461086 0.659964
O O1 0.352878 0.867394 0.715597
O O2 0.537067 0.814506 0.756080
O O3 0.986383 0.638111 0.927708
O O4 0.500000 0.000000 0.000000
O O5 0.323732 0.716980 0.406465
O O6 0.885383 0.646438 0.601658
O O7 0.500000 0.000000 0.500000
O O8 0.412205 0.338724 0.746566
O O9 0.488947 0.278394 0.912058
O O10 0.072389 0.997291 0.715394
O O11 0.623078 0.483881 0.203228
O O12 0.000000 0.500000 0.000000
O O13 0.658005 0.677263 0.497047
O O14 0.000000 0.000000 0.500000
#
# Coordination Sequence:
#
# PCOD9017381 Si02
#       6
#     2   2   2   2   2   2
#     4  12  25  46  74 110 160 196 249 311 379 445
#     4  12  27  45  77 115 152 201 255 310 373 453
#     4  11  23  47  77 108 152 198 249 305 384 450
#     4  12  29  47  75 115 151 194 256 321 379 443
#     4  10  21  42  79 106 143 199 246 300 378 451
#     4  11  23  49  77 107 152 199 253 310 384 451
#
# _framework density 23.974184999999999
#
# number of rings (size 3 to 8) (size 9 to 14) (size 15 to 20)
#    0.000    0.667    5.000    4.000    4.667    1.333 
#    0.000    4.167    0.000    0.000    0.000    0.000 
#    0.000    0.000    0.000    0.000    0.000    0.000 
#
# Total GULP energy -67295.173396 kJ/mol
# GULP energy per Si atom -5607.931116 kJ/mol
# Density = 2.391962 g / cm^3
# Si number density = 23.974185 Si / 1000 Ang^3
#
#
#
# Elastic Constant Matrix: (Units=GPa)
#
#
# Indices 1 2 3 4 5 6 
#
# 1 145.4631 56.2701 92.3415 26.7957 -10.0580 21.6756
# 2 56.2701 127.8076 75.3093 25.4972 0.8527 26.2359
# 3 92.3415 75.3093 213.4311 38.3787 -11.6366 21.6872
# 4 26.7957 25.4972 38.3787 58.2837 7.7312 8.5984
# 5 -10.0580 0.8527 -11.6366 7.7312 52.8114 -8.0893
# 6 21.6756 26.2359 21.6872 8.5984 -8.0893 44.7607
#
#
#
# Elastic Compliance Matrix: (Units=1/GPa)
#
#
# Indices 1 2 3 4 5 6 
#
# 1 0.010344 -0.001965 -0.003234 -0.001678 0.001268 -0.001739
# 2 -0.001965 0.011426 -0.002530 -0.001555 -0.001579 -0.004506
# 3 -0.003234 -0.002530 0.007502 -0.002569 0.001481 0.000175
# 4 -0.001678 -0.001555 -0.002569 0.021137 -0.004239 -0.001858
# 5 0.001268 -0.001579 0.001481 -0.004239 0.020787 0.004165
# 6 -0.001739 -0.004506 0.000175 -0.001858 0.004165 0.026849
#
#
# Mechanical properties :
#
#
# Convention : Reuss Voigt Hill
#
# Bulk Modulus (GPa) = 72.39558 103.83817 88.11687
# Shear Modulus (GPa) = 42.33394 48.68988 45.51191
#
# Velocity S-wave (km/s) = 4.20672 4.51147 4.36176
# Velocity P-wave (km/s) = 7.33881 8.39907 7.88678
#
# Compressibility (1/GPa) = 0.01381300
#
# Stress axis : x y z
#
# Youngs Moduli (GPa) = 96.67595 87.51947 133.29357
#
# Poissons Ratio (x) = 0.17199 0.43112
# Poissons Ratio (y) = 0.18998 0.33724
# Poissons Ratio (z) = 0.31269 0.22143
#
# Static dielectric constant tensor:
#      x y z
#    x 1.959570 -0.049410 0.027440 
#    y -0.049410 1.961400 0.014710 
#    z 0.027440 0.014710 1.893660 
# 
# From -- ./inp_files/155952.got.cif
#   From: 2010.05.17/outbox.cif.g08.bks.cpg/sg2_78_cif.got.tgz:155952.got - 2010.06.03 11:33:40.
