data_PCOD9017415
_publ_section_title
;
Structure prediction by ZEFSAII (Michael W. Deem and Ramdas Pophale) SiO2 
 PCOD9017415
Probable space group: P -1
;
_chemical_formula_sum "Si O2"
_cell_formula_units_Z 16
_cell_length_a 6.511471
_cell_length_b 14.470365
_cell_length_c 21.838001
_cell_angle_alpha 159.931012
_cell_angle_beta 96.914738
_cell_angle_gamma 84.405353
_cell_volume 700.214933
_symmetry_space_group_name_H-M "P -1"
_symmetry_group_IT_number 2
_symmetry_cell_setting 'triclinic'
loop_
_space_group_symop_operation_xyz
x,y,z
-x,-y,-z
loop_
_atom_site_type_symbol
_atom_site_label
_atom_site_fract_x
_atom_site_fract_y
_atom_site_fract_z
Si Si1 0.737111 0.789933 0.672737
Si Si2 0.554035 0.075984 0.737689
Si Si3 0.643127 0.648859 0.405315
Si Si4 0.323685 0.978695 0.533233
Si Si5 0.786893 0.604494 0.031632
Si Si6 0.083161 0.408567 0.740836
Si Si7 0.441788 0.733210 0.731142
Si Si8 0.121751 0.116767 0.916475
O O1 0.660594 0.772787 0.730081
O O2 0.671301 0.505296 0.462019
O O3 0.608823 0.021684 0.778532
O O4 0.977148 0.875396 0.733685
O O5 0.309109 0.141712 0.779589
O O6 0.734525 0.863020 0.590153
O O7 0.632814 0.345875 0.873933
O O8 0.449047 0.848198 0.512094
O O9 0.783001 0.610158 0.328123
O O10 0.563085 0.384881 0.273892
O O11 0.132354 0.769656 0.382070
O O12 0.500000 0.000000 0.500000
O O13 0.221287 0.267206 0.709576
O O14 0.809660 0.683781 0.011232
O O15 0.000000 0.500000 0.000000
O O16 0.024338 0.708637 0.938083
O O17 0.312087 0.997327 0.884519
#
# Coordination Sequence:
#
# PCOD9017415 Si02
#       8
#     2   2   2   2   2   2   2   2
#     4  10  21  43  62  90 121 166 206 251 313 358
#     4  10  22  39  61  91 127 157 207 254 309 371
#     4  10  23  42  65  87 123 169 210 252 299 370
#     4   9  21  42  61  90 121 166 208 247 306 361
#     4  11  23  36  59  96 127 161 196 259 319 367
#     4  10  24  40  63  94 126 161 206 256 309 367
#     4  10  23  42  64  88 125 165 209 255 299 373
#     4  12  24  39  64  94 130 159 203 257 313 369
#
# _framework density 22.850128000000002
#
# number of rings (size 3 to 8) (size 9 to 14) (size 15 to 20)
#    0.000    1.750    2.500    0.375    7.000    3.500 
#    0.000    1.250    0.000    0.000    0.000    0.000 
#    0.000    0.000    0.000    0.000    0.000    0.000 
#
# Total GULP energy -89086.995967 kJ/mol
# GULP energy per Si atom -5567.937248 kJ/mol
# Density = 2.279812 g / cm^3
# Si number density = 22.850128 Si / 1000 Ang^3
#
#
#
# Elastic Constant Matrix: (Units=GPa)
#
#
# Indices 1 2 3 4 5 6 
#
# 1 920.5698 1585.1696 -398.5114 -58.4642 293.8333 -587.9276
# 2 1585.1696 2956.4452 -727.3244 -95.3562 553.4036-1067.2646
# 3 -398.5114 -727.3244 258.9960 43.2065 -174.6449 300.3782
# 4 -58.4642 -95.3562 43.2065 40.2371 -19.6585 42.6033
# 5 293.8333 553.4036 -174.6449 -19.6585 156.7234 -218.6581
# 6 -587.9276-1067.2646 300.3782 42.6033 -218.6581 448.1064
#
#
#
# Elastic Compliance Matrix: (Units=1/GPa)
#
#
# Indices 1 2 3 4 5 6 
#
# 1 0.015452 -0.007123 0.000549 0.001991 0.002762 0.004099
# 2 -0.007123 0.005835 -0.000550 -0.001172 -0.003098 0.003520
# 3 0.000549 -0.000550 0.028277 -0.011827 0.016417 -0.010409
# 4 0.001991 -0.001172 -0.011827 0.032977 -0.006894 0.001251
# 5 0.002762 -0.003098 0.016417 -0.006894 0.030994 0.001020
# 6 0.004099 0.003520 -0.010409 0.001251 0.001020 0.023349
#
#
# Mechanical properties :
#
#
# Convention : Reuss Voigt Hill
#
# Bulk Modulus (GPa) = 28.31667 561.63095 294.97381
# Shear Modulus (GPa) = 30.69318 374.12519 202.40919
#
# Velocity S-wave (km/s) = 3.66900 12.80958 9.42197
# Velocity P-wave (km/s) = 5.51072 21.56625 15.73962
#
# Compressibility (1/GPa) = 0.03531488
#
# Stress axis : x y z
#
# Youngs Moduli (GPa) = 64.71675 171.38498 35.36498
#
# Poissons Ratio (x) = 1.22078 -0.01941
# Poissons Ratio (y) = 0.46098 0.01945
# Poissons Ratio (z) = -0.03552 0.09428
#
# Static dielectric constant tensor:
#      x y z
#    x 1.824060 0.028430 -0.062750 
#    y 0.028430 1.875530 0.099860 
#    z -0.062750 0.099860 1.697570 
# 
# From -- ./inp_files/71674.got.cif
#   From: 2010.05.17/outbox.cif.g08.bks.cpg/sg2_36_cif.got.tgz:71674.got - 2010.06.03 11:33:40.
