data_PCOD9017917
_publ_section_title
;
Structure prediction by ZEFSAII (Michael W. Deem and Ramdas Pophale) SiO2 
 PCOD9017917
Probable space group: P -1
;
_chemical_formula_sum "Si O2"
_cell_formula_units_Z 16
_cell_length_a 9.342389
_cell_length_b 32.432097
_cell_length_c 12.357757
_cell_angle_alpha 23.760770
_cell_angle_beta 42.098238
_cell_angle_gamma 28.746395
_cell_volume 689.363686
_symmetry_space_group_name_H-M "P -1"
_symmetry_group_IT_number 2
_symmetry_cell_setting 'triclinic'
loop_
_space_group_symop_operation_xyz
x,y,z
-x,-y,-z
loop_
_atom_site_type_symbol
_atom_site_label
_atom_site_fract_x
_atom_site_fract_y
_atom_site_fract_z
Si Si1 0.776717 0.949015 0.647365
Si Si2 0.925312 0.560931 0.608037
Si Si3 0.291904 0.608479 0.172481
Si Si4 0.254269 0.962387 0.322539
Si Si5 0.136102 0.096185 0.642061
Si Si6 0.543956 0.417922 0.280013
Si Si7 0.251463 0.378666 0.060478
Si Si8 0.666555 0.112893 0.772180
O O1 0.947356 0.997098 0.417075
O O2 0.768921 0.944899 0.794135
O O3 0.427949 0.062607 0.524102
O O4 0.992708 0.780724 0.890425
O O5 0.725179 0.574080 0.596993
O O6 0.666162 0.714066 0.454988
O O7 0.168538 0.554849 0.436067
O O8 0.087008 0.425211 0.925297
O O9 0.488086 0.503111 0.212535
O O10 0.506532 0.611943 0.109376
O O11 0.294572 0.971529 0.151616
O O12 0.546549 0.788481 0.612355
O O13 0.880324 0.247291 0.491964
O O14 0.936859 0.106016 0.639767
O O15 0.288820 0.959918 0.964669
O O16 0.500000 0.500000 0.000000
O O17 0.000000 0.500000 0.000000
#
# Coordination Sequence:
#
# PCOD9017917 Si02
#       8
#     2   2   2   2   2   2   2   2
#     4  10  23  43  64  95 132 165 218 270 319 384
#     4  11  22  43  66  97 137 171 216 274 323 388
#     4  11  24  45  65  97 134 172 217 275 327 384
#     4  10  23  42  64  96 132 171 219 266 320 385
#     4  10  23  42  67  96 125 170 218 261 332 391
#     4  11  26  44  69  98 129 170 222 268 330 397
#     4  11  22  39  68  96 131 178 217 264 324 383
#     4  10  21  43  67  93 130 172 217 267 320 390
#
# _framework density 23.209810000000001
#
# number of rings (size 3 to 8) (size 9 to 14) (size 15 to 20)
#    0.000    1.500    2.500    1.500    8.750    1.000 
#    9.000    0.000    0.000    0.000    0.000    0.000 
#    0.000    0.000    0.000    0.000    0.000    0.000 
#
# Total GULP energy -89537.516291 kJ/mol
# GULP energy per Si atom -5596.094768 kJ/mol
# Density = 2.315698 g / cm^3
# Si number density = 23.209810 Si / 1000 Ang^3
#
#
#
# Elastic Constant Matrix: (Units=GPa)
#
#
# Indices 1 2 3 4 5 6 
#
# 1 70.8172 27.6705 4.2420 -12.8208 -1.5060 -2.5562
# 2 27.6705 55.9818 8.1579 -14.1499 10.3028 -18.6075
# 3 4.2420 8.1579 52.2963 -8.3753 6.9319 -9.3445
# 4 -12.8208 -14.1499 -8.3753 37.6786 3.1854 -0.9121
# 5 -1.5060 10.3028 6.9319 3.1854 26.4758 -2.6185
# 6 -2.5562 -18.6075 -9.3445 -0.9121 -2.6185 43.9596
#
#
#
# Elastic Compliance Matrix: (Units=1/GPa)
#
#
# Indices 1 2 3 4 5 6 
#
# 1 0.018619 -0.010654 -0.000816 0.001660 0.004895 -0.003274
# 2 -0.010654 0.032232 0.001556 0.010278 -0.013531 0.012762
# 3 -0.000816 0.001556 0.021618 0.005783 -0.006519 0.004938
# 4 0.001660 0.010278 0.005783 0.033138 -0.008829 0.005838
# 5 0.004895 -0.013531 -0.006519 -0.008829 0.045659 -0.004292
# 6 -0.003274 0.012762 0.004938 0.005838 -0.004292 0.028875
#
#
# Mechanical properties :
#
#
# Convention : Reuss Voigt Hill
#
# Bulk Modulus (GPa) = 18.99670 28.80401 23.90035
# Shear Modulus (GPa) = 22.98690 30.89110 26.93900
#
# Velocity S-wave (km/s) = 3.15047 3.65218 3.41056
# Velocity P-wave (km/s) = 4.62996 5.49743 5.08224
#
# Compressibility (1/GPa) = 0.05264073
#
# Stress axis : x y z
#
# Youngs Moduli (GPa) = 53.70898 31.02514 46.25801
#
# Poissons Ratio (x) = 0.33053 0.03777
# Poissons Ratio (y) = 0.57219 -0.07198
# Poissons Ratio (z) = 0.04385 -0.04828
#
# Static dielectric constant tensor:
#      x y z
#    x 1.880410 -0.036350 -0.018880 
#    y -0.036350 1.895040 0.028430 
#    z -0.018880 0.028430 1.851000 
# 
# From -- ./inp_files/205186.got.cif
#   From: 2010.05.17/outbox.cif.g08.bks.cpg/sg2_103_cif.got.tgz:205186.got - 2010.06.03 11:33:40.
