data_PCOD9017992
_publ_section_title
;
Structure prediction by ZEFSAII (Michael W. Deem and Ramdas Pophale) SiO2 
 PCOD9017992
Probable space group: P -1
;
_chemical_formula_sum "Si O2"
_cell_formula_units_Z 16
_cell_length_a 9.275495
_cell_length_b 15.852336
_cell_length_c 9.459233
_cell_angle_alpha 130.113833
_cell_angle_beta 83.275397
_cell_angle_gamma 64.786939
_cell_volume 793.421076
_symmetry_space_group_name_H-M "P -1"
_symmetry_group_IT_number 2
_symmetry_cell_setting 'triclinic'
loop_
_space_group_symop_operation_xyz
x,y,z
-x,-y,-z
loop_
_atom_site_type_symbol
_atom_site_label
_atom_site_fract_x
_atom_site_fract_y
_atom_site_fract_z
Si Si1 0.740522 0.188478 0.605910
Si Si2 0.274368 0.586668 0.308190
Si Si3 0.069372 0.371841 0.744959
Si Si4 0.142081 0.885173 0.170091
Si Si5 0.582035 0.838220 0.329717
Si Si6 0.822239 0.566974 0.489051
Si Si7 0.266441 0.629057 0.673080
Si Si8 0.552385 0.729423 0.950033
O O1 0.654678 0.339612 0.701621
O O2 0.827090 0.173721 0.735888
O O3 0.577522 0.174656 0.621693
O O4 0.931837 0.044283 0.350889
O O5 0.201434 0.661529 0.552061
O O6 0.413526 0.412448 0.143274
O O7 0.104525 0.621331 0.269803
O O8 0.249232 0.231747 0.653584
O O9 0.147098 0.382820 0.602081
O O10 0.000000 0.500000 0.000000
O O11 0.189454 0.769470 0.923227
O O12 0.327100 0.873246 0.124916
O O13 0.500000 0.000000 0.500000
O O14 0.655052 0.756731 0.080922
O O15 0.808548 0.444770 0.326771
O O16 0.639955 0.687602 0.739044
O O17 0.000000 0.500000 0.500000
O O18 0.500000 0.500000 0.500000
#
# Coordination Sequence:
#
# PCOD9017992 Si02
#       8
#     2   2   2   2   2   2   2   2
#     4  10  26  42  67  97 132 177 220 274 330 394
#     4  11  23  43  62 105 128 165 227 267 334 387
#     4  12  25  42  67  99 133 175 219 282 327 402
#     4  10  22  42  65  95 127 179 216 268 335 386
#     4  11  26  45  66  97 136 176 231 268 337 397
#     4  11  21  40  62 100 133 168 217 271 347 378
#     4  11  22  39  68  95 132 174 216 275 326 400
#     4  10  21  43  67  97 135 167 218 287 317 405
#
# _framework density 20.165838000000001
#
# number of rings (size 3 to 8) (size 9 to 14) (size 15 to 20)
#    0.000    1.250    6.250    0.000    8.750    3.500 
#    0.000    0.625    0.000    0.000    0.000    0.000 
#    0.000    0.000    0.000    0.000    0.000    0.000 
#
# Total GULP energy -89277.857226 kJ/mol
# GULP energy per Si atom -5579.866077 kJ/mol
# Density = 2.011994 g / cm^3
# Si number density = 20.165838 Si / 1000 Ang^3
#
#
#
# Elastic Constant Matrix: (Units=GPa)
#
#
# Indices 1 2 3 4 5 6 
#
# 1 86.1321 15.5067 18.1359 6.2185 8.7002 -5.9511
# 2 15.5067 77.2269 33.5382 5.9554 5.6171 3.5424
# 3 18.1359 33.5382 111.0413 -5.1266 9.6676 -6.7639
# 4 6.2185 5.9554 -5.1266 23.4688 -5.1004 0.5599
# 5 8.7002 5.6171 9.6676 -5.1004 39.4965 -1.0103
# 6 -5.9511 3.5424 -6.7639 0.5599 -1.0103 40.0695
#
#
#
# Elastic Compliance Matrix: (Units=1/GPa)
#
#
# Indices 1 2 3 4 5 6 
#
# 1 0.012883 -0.001518 -0.001483 -0.003988 -0.002728 0.001784
# 2 -0.001518 0.015944 -0.004817 -0.004955 -0.001456 -0.002416
# 3 -0.001483 -0.004817 0.011099 0.003738 -0.001171 0.001997
# 4 -0.003988 -0.004955 0.003738 0.047211 0.006764 -0.000012
# 5 -0.002728 -0.001456 -0.001171 0.006764 0.027290 0.000119
# 6 0.001784 -0.002416 0.001997 -0.000012 0.000119 0.025775
#
#
# Mechanical properties :
#
#
# Convention : Reuss Voigt Hill
#
# Bulk Modulus (GPa) = 41.17173 45.41798 43.29485
# Shear Modulus (GPa) = 30.49984 34.42159 32.46071
#
# Velocity S-wave (km/s) = 3.89324 4.13598 4.01644
# Velocity P-wave (km/s) = 6.37736 6.73643 6.55935
#
# Compressibility (1/GPa) = 0.02428851
#
# Stress axis : x y z
#
# Youngs Moduli (GPa) = 77.62468 62.71797 90.09838
#
# Poissons Ratio (x) = 0.09523 0.13365
# Poissons Ratio (y) = 0.11787 0.43399
# Poissons Ratio (z) = 0.11514 0.30211
#
# Static dielectric constant tensor:
#      x y z
#    x 1.793000 -0.029620 -0.039950 
#    y -0.029620 1.722780 -0.002080 
#    z -0.039950 -0.002080 1.745270 
# 
# From -- ./inp_files/208962.got.cif
#   From: 2010.05.17/outbox.cif.g08.bks.cpg/sg2_105_cif.got.tgz:208962.got - 2010.06.03 11:33:40.
