data_PCOD9017435
_publ_section_title
;
Structure prediction by ZEFSAII (Michael W. Deem and Ramdas Pophale) SiO2 
 PCOD9017435
Probable space group: P -1
;
_chemical_formula_sum "Si O2"
_cell_formula_units_Z 16
_cell_length_a 9.590736
_cell_length_b 5.193642
_cell_length_c 14.000224
_cell_angle_alpha 102.788720
_cell_angle_beta 82.978472
_cell_angle_gamma 80.100145
_cell_volume 660.544914
_symmetry_space_group_name_H-M "P -1"
_symmetry_group_IT_number 2
_symmetry_cell_setting 'triclinic'
loop_
_space_group_symop_operation_xyz
x,y,z
-x,-y,-z
loop_
_atom_site_type_symbol
_atom_site_label
_atom_site_fract_x
_atom_site_fract_y
_atom_site_fract_z
Si Si1 0.201473 0.304909 0.982786
Si Si2 0.229160 0.236115 0.190107
Si Si3 0.733857 0.878393 0.333281
Si Si4 0.433369 0.940668 0.828484
Si Si5 0.334540 0.524041 0.538108
Si Si6 0.983050 0.025958 0.743450
Si Si7 0.120016 0.351597 0.404989
Si Si8 0.164553 0.754441 0.871942
O O1 0.142194 0.542182 0.934633
O O2 0.367645 0.175608 0.929189
O O3 0.190936 0.357265 0.099561
O O4 0.128879 0.054812 0.943012
O O5 0.398963 0.164428 0.185256
O O6 0.153374 0.425736 0.298507
O O7 0.165437 0.961052 0.184670
O O8 0.621555 0.948149 0.261868
O O9 0.728649 0.157229 0.415201
O O10 0.895686 0.803085 0.271293
O O11 0.693955 0.646091 0.381493
O O12 0.336284 0.716927 0.836458
O O13 0.500000 0.500000 0.500000
O O14 0.263917 0.377444 0.448511
O O15 0.081355 0.789049 0.781837
O O16 0.931931 0.925215 0.637791
O O17 0.000000 0.500000 0.500000
#
# Coordination Sequence:
#
# PCOD9017435 Si02
#       8
#     2   2   2   2   2   2   2   2
#     4  10  22  41  71  97 140 182 224 283 343 408
#     4  10  21  43  63 106 136 181 234 283 341 415
#     4  11  24  44  71  95 135 179 224 279 345 405
#     4   9  22  40  70  99 142 178 225 284 349 404
#     4  12  25  45  71  99 130 176 233 282 339 404
#     4   9  22  42  70 100 137 184 230 277 349 408
#     4  10  22  45  68  98 140 181 227 292 341 402
#     4   9  22  42  69  96 138 182 227 274 350 409
#
# _framework density 24.222422000000002
#
# number of rings (size 3 to 8) (size 9 to 14) (size 15 to 20)
#    1.500    0.500    1.250    1.500    3.500    2.000 
#    0.000    3.750    0.000    0.000    0.000    0.000 
#    0.000    0.000    0.000    0.000    0.000    0.000 
#
# Total GULP energy -89202.898931 kJ/mol
# GULP energy per Si atom -5575.181183 kJ/mol
# Density = 2.416729 g / cm^3
# Si number density = 24.222422 Si / 1000 Ang^3
#
#
#
# Elastic Constant Matrix: (Units=GPa)
#
#
# Indices 1 2 3 4 5 6 
#
# 1 184.8303 27.8295 49.0642 -14.7447 -17.0728 16.1604
# 2 27.8295 120.5859 45.4082 -10.7292 -2.2748 13.6595
# 3 49.0642 45.4082 153.8944 -12.4870 8.9644 5.8398
# 4 -14.7447 -10.7292 -12.4870 24.1360 4.8713 -11.0139
# 5 -17.0728 -2.2748 8.9644 4.8713 38.8286 0.8313
# 6 16.1604 13.6595 5.8398 -11.0139 0.8313 21.5669
#
#
#
# Elastic Compliance Matrix: (Units=1/GPa)
#
#
# Indices 1 2 3 4 5 6 
#
# 1 0.006720 -0.000175 -0.002110 0.000238 0.003495 -0.004367
# 2 -0.000175 0.010025 -0.002752 0.000205 0.001236 -0.005416
# 3 -0.002110 -0.002752 0.008397 0.004045 -0.003605 0.003255
# 4 0.000238 0.000205 0.004045 0.058742 -0.008806 0.028935
# 5 0.003495 0.001236 -0.003605 -0.008806 0.029473 -0.008059
# 6 -0.004367 -0.005416 0.003255 0.028935 -0.008059 0.067276
#
#
# Mechanical properties :
#
#
# Convention : Reuss Voigt Hill
#
# Bulk Modulus (GPa) = 66.35958 78.21271 72.28615
# Shear Modulus (GPa) = 25.54553 39.37354 32.45954
#
# Velocity S-wave (km/s) = 3.25102 4.03612 3.66466
# Velocity P-wave (km/s) = 6.44574 7.35390 6.91475
#
# Compressibility (1/GPa) = 0.01506941
#
# Stress axis : x y z
#
# Youngs Moduli (GPa) = 148.80178 99.75549 119.08724
#
# Poissons Ratio (x) = 0.01744 0.25122
# Poissons Ratio (y) = 0.02601 0.32773
# Poissons Ratio (z) = 0.31391 0.27453
#
# Static dielectric constant tensor:
#      x y z
#    x 1.938020 0.027850 -0.045580 
#    y 0.027850 2.038420 0.046030 
#    z -0.045580 0.046030 1.995740 
# 
# From -- ./inp_files/488390.got.cif
#   From: 2010.05.17/outbox.cif.g08.bks.cpg/sg2_245_cif.got.tgz:488390.got - 2010.06.03 11:33:40.
