data_PCOD9017485
_publ_section_title
;
Structure prediction by ZEFSAII (Michael W. Deem and Ramdas Pophale) SiO2 
 PCOD9017485
Probable space group: P -1
;
_chemical_formula_sum "Si O2"
_cell_formula_units_Z 16
_cell_length_a 16.605446
_cell_length_b 10.537902
_cell_length_c 5.011827
_cell_angle_alpha 95.694812
_cell_angle_beta 132.740242
_cell_angle_gamma 92.960037
_cell_volume 632.373383
_symmetry_space_group_name_H-M "P -1"
_symmetry_group_IT_number 2
_symmetry_cell_setting 'triclinic'
loop_
_space_group_symop_operation_xyz
x,y,z
-x,-y,-z
loop_
_atom_site_type_symbol
_atom_site_label
_atom_site_fract_x
_atom_site_fract_y
_atom_site_fract_z
Si Si1 0.129689 0.016756 0.862728
Si Si2 0.831804 0.136601 0.577189
Si Si3 0.178725 0.315508 0.949398
Si Si4 0.418284 0.663588 0.225487
Si Si5 0.416870 0.161320 0.760382
Si Si6 0.363601 0.873816 0.483683
Si Si7 0.625816 0.612221 0.975294
Si Si8 0.961101 0.632737 0.859898
O O1 0.175686 0.162290 0.916881
O O2 0.176159 0.916076 0.750751
O O3 0.000000 0.000000 0.500000
O O4 0.139652 0.976309 0.183839
O O5 0.716849 0.164520 0.452473
O O6 0.933004 0.254225 0.847985
O O7 0.090221 0.355852 0.545684
O O8 0.298338 0.375787 0.115590
O O9 0.136118 0.351340 0.147463
O O10 0.504908 0.753351 0.254615
O O11 0.339794 0.754321 0.200301
O O12 0.496379 0.616805 0.621984
O O13 0.366450 0.531346 0.932952
O O14 0.359639 0.027116 0.471609
O O15 0.504328 0.121891 0.164174
O O16 0.343393 0.257176 0.753693
O O17 0.000000 0.500000 0.000000
#
# Coordination Sequence:
#
# PCOD9017485 Si02
#       8
#     2   2   2   2   2   2   2   2
#     4  12  23  44  69  97 136 170 233 283 336 388
#     4  12  25  43  70 101 135 182 222 281 341 404
#     4  12  26  45  72 100 132 183 224 284 338 402
#     4  10  22  42  65  92 136 167 223 276 334 407
#     4  10  21  43  63  95 134 165 225 277 334 401
#     4  10  24  38  65  98 129 175 220 273 341 402
#     4  10  24  40  65  99 126 175 224 272 339 403
#     4  12  27  46  67  99 142 176 231 275 335 408
#
# _framework density 25.301507999999998
#
# number of rings (size 3 to 8) (size 9 to 14) (size 15 to 20)
#    0.000    1.000    2.500    3.000    7.000    1.000 
#    0.000    0.000    0.000    0.000    0.000    0.000 
#    0.000    0.000    0.000    0.000    0.000    0.000 
#
# Total GULP energy -89547.032936 kJ/mol
# GULP energy per Si atom -5596.689559 kJ/mol
# Density = 2.524392 g / cm^3
# Si number density = 25.301508 Si / 1000 Ang^3
#
#
#
# Elastic Constant Matrix: (Units=GPa)
#
#
# Indices 1 2 3 4 5 6 
#
# 1 145.5386 52.0642 -2.8902 16.3955 8.3983 -9.6247
# 2 52.0642 192.7768 25.9271 13.6349 5.2241 -16.5744
# 3 -2.8902 25.9271 68.4033 -0.3578 9.2568 -2.0924
# 4 16.3955 13.6349 -0.3578 36.6913 2.7225 5.1475
# 5 8.3983 5.2241 9.2568 2.7225 38.5174 -0.6993
# 6 -9.6247 -16.5744 -2.0924 5.1475 -0.6993 49.3512
#
#
#
# Elastic Compliance Matrix: (Units=1/GPa)
#
#
# Indices 1 2 3 4 5 6 
#
# 1 0.008123 -0.002018 0.001346 -0.002924 -0.001592 0.001246
# 2 -0.002018 0.006338 -0.002487 -0.001758 0.000335 0.001818
# 3 0.001346 -0.002487 0.016149 0.000772 -0.003892 -0.000024
# 4 -0.002924 -0.001758 0.000772 0.029932 -0.001503 -0.004271
# 5 -0.001592 0.000335 -0.003892 -0.001503 0.027309 0.000181
# 6 0.001246 0.001818 -0.000024 -0.004271 0.000181 0.021563
#
#
# Mechanical properties :
#
#
# Convention : Reuss Voigt Hill
#
# Bulk Modulus (GPa) = 41.16292 61.88009 51.52151
# Shear Modulus (GPa) = 40.37821 47.01981 43.69901
#
# Velocity S-wave (km/s) = 3.99918 4.31557 4.16038
# Velocity P-wave (km/s) = 6.13424 7.02441 6.59436
#
# Compressibility (1/GPa) = 0.02429371
#
# Stress axis : x y z
#
# Youngs Moduli (GPa) = 123.10346 157.77088 61.92475
#
# Poissons Ratio (x) = 0.31837 -0.08337
# Poissons Ratio (y) = 0.24841 0.15398
# Poissons Ratio (z) = -0.16574 0.39232
#
# Static dielectric constant tensor:
#      x y z
#    x 1.923220 -0.036560 0.006810 
#    y -0.036560 2.052980 -0.032560 
#    z 0.006810 -0.032560 2.097080 
# 
# From -- ./inp_files/90358.got.cif
#   From: 2010.05.17/outbox.cif.g08.bks.cpg/sg2_46_cif.got.tgz:90358.got - 2010.06.03 11:33:40.
