data_PCOD9017734
_publ_section_title
;
Structure prediction by ZEFSAII (Michael W. Deem and Ramdas Pophale) SiO2 
 PCOD9017734
Probable space group: P -1
;
_chemical_formula_sum "Si O2"
_cell_formula_units_Z 16
_cell_length_a 10.230785
_cell_length_b 5.279134
_cell_length_c 12.918296
_cell_angle_alpha 58.434791
_cell_angle_beta 89.999793
_cell_angle_gamma 89.999510
_cell_volume 594.482921
_symmetry_space_group_name_H-M "P -1"
_symmetry_group_IT_number 2
_symmetry_cell_setting 'triclinic'
loop_
_space_group_symop_operation_xyz
x,y,z
-x,-y,-z
loop_
_atom_site_type_symbol
_atom_site_label
_atom_site_fract_x
_atom_site_fract_y
_atom_site_fract_z
Si Si1 0.931023 0.804437 0.691469
Si Si2 0.338135 0.337411 0.318405
Si Si3 0.401020 0.119451 0.059907
Si Si4 0.357005 0.635951 0.467957
Si Si5 0.838136 0.162597 0.181592
Si Si6 0.901019 0.380549 0.440094
Si Si7 0.568977 0.304439 0.191467
Si Si8 0.857005 0.864056 0.032041
O O1 0.792465 0.667926 0.752370
O O2 0.026011 0.949118 0.744744
O O3 0.031878 0.593336 0.676016
O O4 0.889945 0.037589 0.552187
O O5 0.304129 0.530420 0.377997
O O6 0.473988 0.449123 0.244741
O O7 0.370510 0.988432 0.412572
O O8 0.389944 0.462413 0.947815
O O9 0.252906 0.009987 0.073362
O O10 0.468123 0.093337 0.176016
O O11 0.500000 0.000000 0.000000
O O12 0.500000 0.500000 0.500000
O O13 0.247096 0.509989 0.573360
O O14 0.707536 0.167931 0.252368
O O15 0.870511 0.511575 0.087426
O O16 0.804130 0.969590 0.122001
O O17 0.000000 0.500000 0.500000
O O18 0.000000 0.000000 0.000000
#
# Coordination Sequence:
#
# PCOD9017734 Si02
#       8
#     2   2   2   2   2   2   2   2
#     4  10  24  41  64  97 128 171 215 268 325 385
#     4  11  25  42  65  98 129 165 222 266 320 388
#     4  10  21  43  66  88 132 172 209 259 330 388
#     4  11  25  43  65  96 130 168 217 266 328 383
#     4  11  25  42  65  98 129 165 222 266 320 388
#     4  10  21  43  66  88 132 172 209 259 330 388
#     4  10  24  41  64  97 128 171 215 268 325 385
#     4  11  25  43  65  96 130 168 217 266 328 383
#
# _framework density 26.914142999999999
#
# number of rings (size 3 to 8) (size 9 to 14) (size 15 to 20)
#    0.000    1.500    2.500    0.750    7.000    2.000 
#    0.000    0.000    0.000    0.000    0.000    0.000 
#    0.000    0.000    0.000    0.000    0.000    0.000 
#
# Total GULP energy -89436.848171 kJ/mol
# GULP energy per Si atom -5589.803011 kJ/mol
# Density = 2.685289 g / cm^3
# Si number density = 26.914143 Si / 1000 Ang^3
#
#
#
# Elastic Constant Matrix: (Units=GPa)
#
#
# Indices 1 2 3 4 5 6 
#
# 1 217.1294 -11.8556 12.9980 -11.0232 -0.0005 0.0021
# 2 -11.8556 109.3768 13.5773 -13.5291 -0.0001 0.0017
# 3 12.9980 13.5773 21.5964 -4.1065 0.0001 0.0016
# 4 -11.0232 -13.5291 -4.1065 42.6026 0.0010 0.0003
# 5 -0.0005 -0.0001 0.0001 0.0010 42.2781 13.3256
# 6 0.0021 0.0017 0.0016 0.0003 13.3256 28.4892
#
#
#
# Elastic Compliance Matrix: (Units=1/GPa)
#
#
# Indices 1 2 3 4 5 6 
#
# 1 0.004938 0.001122 -0.003430 0.001304 0.000000 0.000000
# 2 0.001122 0.010462 -0.006688 0.002968 0.000000 0.000000
# 3 -0.003430 -0.006688 0.052971 0.002095 0.000001 -0.000003
# 4 0.001304 0.002968 0.002095 0.024954 0.000000 0.000000
# 5 0.000000 0.000000 0.000001 0.000000 0.027743 -0.012977
# 6 0.000000 0.000000 -0.000003 0.000000 -0.012977 0.041171
#
#
# Mechanical properties :
#
#
# Convention : Reuss Voigt Hill
#
# Bulk Modulus (GPa) = 19.84921 41.94910 30.89916
# Shear Modulus (GPa) = 25.37756 44.89949 35.13853
#
# Velocity S-wave (km/s) = 3.07401 4.08885 3.61720
# Velocity P-wave (km/s) = 4.47106 6.15725 5.38062
#
# Compressibility (1/GPa) = 0.05037984
#
# Stress axis : x y z
#
# Youngs Moduli (GPa) = 202.49770 95.58680 18.87812
#
# Poissons Ratio (x) = -0.10728 0.06475
# Poissons Ratio (y) = -0.22726 0.12626
# Poissons Ratio (z) = 0.69454 0.63930
#
# Static dielectric constant tensor:
#      x y z
#    x 2.191990 -0.000020 0.000000 
#    y -0.000020 2.196690 -0.085190 
#    z 0.000000 -0.085190 2.230970 
# 
# From -- ./inp_files/135329.got.cif
#   From: 2010.05.17/outbox.cif.g08.bks.cpg/sg2_68_cif.got.tgz:135329.got - 2010.06.03 11:33:40.
