data_PCOD9017330
_publ_section_title
;
Structure prediction by ZEFSAII (Michael W. Deem and Ramdas Pophale) SiO2 
 PCOD9017330
Probable space group: P -1
;
_chemical_formula_sum "Si O2"
_cell_formula_units_Z 16
_cell_length_a 16.426169
_cell_length_b 8.954997
_cell_length_c 7.237562
_cell_angle_alpha 78.045301
_cell_angle_beta 71.082992
_cell_angle_gamma 37.245147
_cell_volume 607.116901
_symmetry_space_group_name_H-M "P -1"
_symmetry_group_IT_number 2
_symmetry_cell_setting 'triclinic'
loop_
_space_group_symop_operation_xyz
x,y,z
-x,-y,-z
loop_
_atom_site_type_symbol
_atom_site_label
_atom_site_fract_x
_atom_site_fract_y
_atom_site_fract_z
Si Si1 0.351278 0.629568 0.621785
Si Si2 0.748550 0.002288 0.648493
Si Si3 0.101686 0.401910 0.116481
Si Si4 0.992584 0.835919 0.987634
Si Si5 0.393203 0.996073 0.796682
Si Si6 0.325370 0.759695 0.979790
Si Si7 0.138074 0.708623 0.547377
Si Si8 0.339089 0.196100 0.372716
O O1 0.500000 0.500000 0.500000
O O2 0.361834 0.578801 0.846785
O O3 0.275817 0.605595 0.559629
O O4 0.247272 0.913978 0.567094
O O5 0.891243 0.736623 0.696839
O O6 0.670975 0.951127 0.685130
O O7 0.678988 0.210994 0.802139
O O8 0.255888 0.205353 0.967709
O O9 0.000000 0.500000 0.000000
O O10 0.050996 0.639626 0.146571
O O11 0.082147 0.701783 0.770443
O O12 0.837768 0.004631 0.004740
O O13 0.000000 0.000000 0.000000
O O14 0.364044 0.104320 0.588196
O O15 0.410999 0.787939 0.841039
O O16 0.532539 0.887204 0.780861
O O17 0.207278 0.494606 0.407857
O O18 0.000000 0.000000 0.500000
#
# Coordination Sequence:
#
# PCOD9017330 Si02
#       8
#     2   2   2   2   2   2   2   2
#     4  12  27  50  79 111 158 208 252 325 397 464
#     4  11  26  45  78 109 146 203 261 305 391 464
#     4  11  23  44  72 104 147 198 251 315 372 450
#     4  12  24  44  69 103 150 199 245 311 386 443
#     4  10  21  42  74 102 149 190 250 316 378 443
#     4  11  23  47  72 109 152 196 256 312 383 461
#     4  12  28  47  74 113 155 203 262 320 390 469
#     4  11  24  44  74 112 145 197 257 318 378 465
#
# _framework density 26.354068000000002
#
# number of rings (size 3 to 8) (size 9 to 14) (size 15 to 20)
#    0.000    0.750    6.250    1.500    3.500    2.500 
#    0.000    6.250    0.000    0.000    0.000    0.000 
#    0.000    0.000    0.000    0.000    0.000    0.000 
#
# Total GULP energy -89283.388674 kJ/mol
# GULP energy per Si atom -5580.211792 kJ/mol
# Density = 2.629409 g / cm^3
# Si number density = 26.354068 Si / 1000 Ang^3
#
#
#
# Elastic Constant Matrix: (Units=GPa)
#
#
# Indices 1 2 3 4 5 6 
#
# 1 142.1108 12.1956 39.5740 8.7679 14.0865 -3.4443
# 2 12.1956 91.7058 21.0474 4.1060 18.6532 -0.1380
# 3 39.5740 21.0474 97.4790 12.8266 7.5168 -15.1852
# 4 8.7679 4.1060 12.8266 40.7380 -4.8536 -7.8701
# 5 14.0865 18.6532 7.5168 -4.8536 38.5096 -0.3764
# 6 -3.4443 -0.1380 -15.1852 -7.8701 -0.3764 36.8248
#
#
#
# Elastic Compliance Matrix: (Units=1/GPa)
#
#
# Indices 1 2 3 4 5 6 
#
# 1 0.008215 0.000227 -0.003138 -0.001281 -0.002672 -0.000826
# 2 0.000227 0.012703 -0.002373 -0.001546 -0.005980 -0.001301
# 3 -0.003138 -0.002373 0.013114 -0.002390 -0.000519 0.004589
# 4 -0.001281 -0.001546 -0.002390 0.027268 0.005167 0.004769
# 5 -0.002672 -0.005980 -0.000519 0.005167 0.030603 0.000931
# 6 -0.000826 -0.001301 0.004589 0.004769 0.000931 0.029995
#
#
# Mechanical properties :
#
#
# Convention : Reuss Voigt Hill
#
# Bulk Modulus (GPa) = 42.61850 52.99219 47.80535
# Shear Modulus (GPa) = 35.64105 40.44638 38.04372
#
# Velocity S-wave (km/s) = 3.68148 3.92181 3.80354
# Velocity P-wave (km/s) = 5.85471 6.37644 6.12114
#
# Compressibility (1/GPa) = 0.02346399
#
# Stress axis : x y z
#
# Youngs Moduli (GPa) = 121.72791 78.72445 76.25161
#
# Poissons Ratio (x) = -0.01790 0.23930
# Poissons Ratio (y) = -0.02768 0.18096
# Poissons Ratio (z) = 0.38202 0.18682
#
# Static dielectric constant tensor:
#      x y z
#    x 2.149200 0.029710 0.085190 
#    y 0.029710 2.189110 0.012920 
#    z 0.085190 0.012920 2.078270 
# 
# From -- ./inp_files/298193.got.cif
#   From: 2010.05.17/outbox.cif.g08.bks.cpg/sg2_150_cif.got.tgz:298193.got - 2010.06.03 11:33:40.
