data_PCOD9017989
_publ_section_title
;
Structure prediction by ZEFSAII (Michael W. Deem and Ramdas Pophale) SiO2 
 PCOD9017989
Probable space group: P -1
;
_chemical_formula_sum "Si O2"
_cell_formula_units_Z 13
_cell_length_a 9.351932
_cell_length_b 8.112645
_cell_length_c 12.785122
_cell_angle_alpha 128.427094
_cell_angle_beta 120.485671
_cell_angle_gamma 93.140582
_cell_volume 547.670710
_symmetry_space_group_name_H-M "P -1"
_symmetry_group_IT_number 2
_symmetry_cell_setting 'triclinic'
loop_
_space_group_symop_operation_xyz
x,y,z
-x,-y,-z
loop_
_atom_site_type_symbol
_atom_site_label
_atom_site_fract_x
_atom_site_fract_y
_atom_site_fract_z
Si Si1 0.384245 0.516511 0.061818
Si Si2 0.994677 0.051392 0.810931
Si Si3 0.826368 0.232647 0.184182
Si Si4 0.500000 0.500000 0.500000
Si Si5 0.668443 0.129894 0.699480
Si Si6 0.877016 0.590381 0.812567
Si Si7 0.458965 0.670856 0.773994
O O1 0.391411 0.773821 0.183900
O O2 0.483663 0.485598 0.191200
O O3 0.500000 0.500000 0.000000
O O4 0.156189 0.277317 0.885758
O O5 0.766395 0.969803 0.689899
O O6 0.035036 0.834642 0.728204
O O7 0.053421 0.164454 0.994446
O O8 0.740629 0.364665 0.269239
O O9 0.952167 0.375567 0.185632
O O10 0.635994 0.961555 0.972626
O O11 0.686464 0.521177 0.647303
O O12 0.447738 0.609181 0.625128
O O13 0.831304 0.384712 0.802077
O O14 0.500000 0.000000 0.500000
#
# Coordination Sequence:
#
# PCOD9017989 Si02
#       7
#     2   2   2   1   2   2   2
#     4  10  21  43  67  97 132 179 221 272 328 401
#     4  10  22  43  66 101 129 176 222 266 337 401
#     4  10  22  42  67  99 128 173 227 264 332 400
#     4  12  22  42  64  96 144 164 222 276 332 380
#     4  11  25  44  67  99 130 175 228 277 332 389
#     4  11  23  40  68  99 129 182 215 274 333 394
#     4  10  23  41  68 102 134 171 222 276 332 392
#
# _framework density 23.736892999999998
#
# number of rings (size 3 to 8) (size 9 to 14) (size 15 to 20)
#    0.000    1.538    4.615    2.308    6.462    0.615 
#    5.538    0.769    0.000    0.000    0.000    0.000 
#    0.000    0.000    0.000    0.000    0.000    0.000 
#
# Total GULP energy -72512.675687 kJ/mol
# GULP energy per Si atom -5577.898130 kJ/mol
# Density = 2.368287 g / cm^3
# Si number density = 23.736893 Si / 1000 Ang^3
#
#
#
# Elastic Constant Matrix: (Units=GPa)
#
#
# Indices 1 2 3 4 5 6 
#
# 1 205.1443 8.0152 42.6075 -9.7904 -20.3098 -12.2123
# 2 8.0152 38.0470 11.2374 -9.6726 -1.2407 -15.7664
# 3 42.6075 11.2374 101.2744 -31.6744 3.2790 -9.0309
# 4 -9.7904 -9.6726 -31.6744 34.8091 -2.3935 5.9526
# 5 -20.3098 -1.2407 3.2790 -2.3935 28.2454 -10.9081
# 6 -12.2123 -15.7664 -9.0309 5.9526 -10.9081 49.0936
#
#
#
# Elastic Compliance Matrix: (Units=1/GPa)
#
#
# Indices 1 2 3 4 5 6 
#
# 1 0.006116 0.000599 -0.002824 -0.000728 0.005672 0.002543
# 2 0.000599 0.033146 -0.000935 0.007073 0.006963 0.011311
# 3 -0.002824 -0.000935 0.015172 0.012618 -0.002914 -0.000389
# 4 -0.000728 0.007073 0.012618 0.042144 0.001777 -0.000304
# 5 0.005672 0.006963 -0.002914 0.001777 0.045281 0.012957
# 6 0.002543 0.011311 -0.000389 -0.000304 0.012957 0.027479
#
#
# Mechanical properties :
#
#
# Convention : Reuss Voigt Hill
#
# Bulk Modulus (GPa) = 20.78361 52.02065 36.40213
# Shear Modulus (GPa) = 26.08311 41.27001 33.67656
#
# Velocity S-wave (km/s) = 3.31848 4.17423 3.77071
# Velocity P-wave (km/s) = 4.84333 6.72275 5.85889
#
# Compressibility (1/GPa) = 0.04811484
#
# Stress axis : x y z
#
# Youngs Moduli (GPa) = 163.50656 30.16984 65.91091
#
# Poissons Ratio (x) = -0.01808 0.18614
# Poissons Ratio (y) = -0.09801 0.06161
# Poissons Ratio (z) = 0.46176 0.02820
#
# Static dielectric constant tensor:
#      x y z
#    x 1.943410 0.050770 0.109410 
#    y 0.050770 1.920040 0.328020 
#    z 0.109410 0.328020 1.869560 
# 
# From -- ./inp_files/150855.got.cif
#   From: 2010.05.17/outbox.cif.g08.bks.cpg/sg2_76_cif.got.tgz:150855.got - 2010.06.03 11:33:40.
