data_PCOD9017169
_publ_section_title
;
Structure prediction by ZEFSAII (Michael W. Deem and Ramdas Pophale) SiO2 
 PCOD9017169
Probable space group: P -1
;
_chemical_formula_sum "Si O2"
_cell_formula_units_Z 16
_cell_length_a 9.605176
_cell_length_b 27.326662
_cell_length_c 5.006802
_cell_angle_alpha 90.955545
_cell_angle_beta 75.361854
_cell_angle_gamma 143.049901
_cell_volume 724.510796
_symmetry_space_group_name_H-M "P -1"
_symmetry_group_IT_number 2
_symmetry_cell_setting 'triclinic'
loop_
_space_group_symop_operation_xyz
x,y,z
-x,-y,-z
loop_
_atom_site_type_symbol
_atom_site_label
_atom_site_fract_x
_atom_site_fract_y
_atom_site_fract_z
Si Si1 0.909587 0.926982 0.200404
Si Si2 0.614381 0.072835 0.753193
Si Si3 0.438497 0.372642 0.514545
Si Si4 0.133839 0.759471 0.220138
Si Si5 0.294954 0.640868 0.491443
Si Si6 0.753127 0.453892 0.862219
Si Si7 0.337623 0.765220 0.620942
Si Si8 0.128409 0.939440 0.621685
O O1 0.631061 0.857910 0.437598
O O2 0.930886 0.045162 0.613219
O O3 0.928055 0.891539 0.952487
O O4 0.000000 0.000000 0.000000
O O5 0.836951 0.106814 0.492354
O O6 0.716228 0.147632 0.868662
O O7 0.395617 0.026356 0.645014
O O8 0.500000 0.000000 0.000000
O O9 0.161175 0.314457 0.688531
O O10 0.457618 0.318554 0.520666
O O11 0.634517 0.444410 0.652008
O O12 0.570539 0.420602 0.177376
O O13 0.176716 0.754077 0.500715
O O14 0.253020 0.753719 0.959701
O O15 0.268716 0.610356 0.204025
O O16 0.301040 0.699270 0.542455
O O17 0.044608 0.549377 0.749266
#
# Coordination Sequence:
#
# PCOD9017169 Si02
#       8
#     2   2   2   2   2   2   2   2
#     4  12  26  44  69  97 138 182 233 282 348 416
#     4  11  26  45  72  95 135 176 236 291 344 402
#     4  10  21  42  71  99 130 181 226 269 331 410
#     4  12  29  46  65  98 145 179 217 291 350 401
#     4   9  23  41  75 100 137 174 230 273 335 399
#     4   9  20  40  76 101 132 172 232 278 320 398
#     4  12  29  45  66 102 145 176 220 289 351 397
#     4  11  25  43  71  99 120 179 242 284 335 415
#
# _framework density 22.083867000000001
#
# number of rings (size 3 to 8) (size 9 to 14) (size 15 to 20)
#    0.750    0.500    1.250    3.000    8.750    1.000 
#    0.000    3.750    0.000    0.000    0.000    0.000 
#    0.000    0.000    0.000    0.000    0.000    0.000 
#
# Total GULP energy -89357.235267 kJ/mol
# GULP energy per Si atom -5584.827204 kJ/mol
# Density = 2.203360 g / cm^3
# Si number density = 22.083867 Si / 1000 Ang^3
#
#
#
# Elastic Constant Matrix: (Units=GPa)
#
#
# Indices 1 2 3 4 5 6 
#
# 1 86.9908 26.0546 18.2714 -3.9196 -5.0997 20.7634
# 2 26.0546 55.3264 21.0533 0.8949 -6.6220 9.0916
# 3 18.2714 21.0533 121.4252 13.5427 -4.5090 11.7570
# 4 -3.9196 0.8949 13.5427 25.1676 10.7924 -1.1126
# 5 -5.0997 -6.6220 -4.5090 10.7924 42.2006 1.3520
# 6 20.7634 9.0916 11.7570 -1.1126 1.3520 30.7317
#
#
#
# Elastic Compliance Matrix: (Units=1/GPa)
#
#
# Indices 1 2 3 4 5 6 
#
# 1 0.015492 -0.005576 -0.000796 0.002424 0.000563 -0.008450
# 2 -0.005576 0.022405 -0.002539 -0.001710 0.003075 -0.002087
# 3 -0.000796 -0.002539 0.009875 -0.006460 0.002303 -0.002824
# 4 0.002424 -0.001710 -0.006460 0.049587 -0.013467 0.003727
# 5 0.000563 0.003075 0.002303 -0.013467 0.028062 -0.003893
# 6 -0.008450 -0.002087 -0.002824 0.003727 -0.003893 0.040253
#
#
# Mechanical properties :
#
#
# Convention : Reuss Voigt Hill
#
# Bulk Modulus (GPa) = 33.38794 43.83346 38.61070
# Shear Modulus (GPa) = 25.84276 32.84420 29.34348
#
# Velocity S-wave (km/s) = 3.42454 3.86067 3.64913
# Velocity P-wave (km/s) = 5.54871 6.30593 5.93940
#
# Compressibility (1/GPa) = 0.02995094
#
# Stress axis : x y z
#
# Youngs Moduli (GPa) = 64.55069 44.63272 101.26705
#
# Poissons Ratio (x) = 0.24887 0.08057
# Poissons Ratio (y) = 0.35994 0.25709
# Poissons Ratio (z) = 0.05136 0.11331
#
# Static dielectric constant tensor:
#      x y z
#    x 1.858500 -0.003420 0.001240 
#    y -0.003420 1.802570 0.021150 
#    z 0.001240 0.021150 1.824210 
# 
# From -- ./inp_files/56460.got.cif
#   From: 2010.05.17/outbox.cif.g08.bks.cpg/sg2_29_cif.got.tgz:56460.got - 2010.06.03 11:33:40.
