data_PCOD9017745
_publ_section_title
;
Structure prediction by ZEFSAII (Michael W. Deem and Ramdas Pophale) SiO2 
 PCOD9017745
Probable space group: P -1
;
_chemical_formula_sum "Si O2"
_cell_formula_units_Z 16
_cell_length_a 11.783587
_cell_length_b 8.254820
_cell_length_c 8.906942
_cell_angle_alpha 88.974127
_cell_angle_beta 124.355288
_cell_angle_gamma 86.546483
_cell_volume 712.536165
_symmetry_space_group_name_H-M "P -1"
_symmetry_group_IT_number 2
_symmetry_cell_setting 'triclinic'
loop_
_space_group_symop_operation_xyz
x,y,z
-x,-y,-z
loop_
_atom_site_type_symbol
_atom_site_label
_atom_site_fract_x
_atom_site_fract_y
_atom_site_fract_z
Si Si1 0.455443 0.819587 0.453074
Si Si2 0.125916 0.546051 0.192129
Si Si3 0.403299 0.278400 0.708970
Si Si4 0.889316 0.142489 0.282445
Si Si5 0.945171 0.075377 0.800109
Si Si6 0.303485 0.934265 0.589191
Si Si7 0.306934 0.674668 0.097338
Si Si8 0.893111 0.623343 0.504083
O O1 0.571828 0.704402 0.455089
O O2 0.398364 0.790920 0.576887
O O3 0.337315 0.816965 0.236997
O O4 0.500000 0.000000 0.500000
O O5 0.089110 0.732207 0.214672
O O6 0.256833 0.541707 0.176998
O O7 0.130017 0.435903 0.343258
O O8 0.000000 0.500000 0.000000
O O9 0.544583 0.343139 0.873267
O O10 0.262875 0.357749 0.672637
O O11 0.386292 0.083757 0.706807
O O12 0.785444 0.125787 0.340802
O O13 0.029617 0.213084 0.440269
O O14 0.814351 0.268817 0.106292
O O15 0.934468 0.978807 0.228150
O O16 0.806881 0.008873 0.625854
O O17 0.000000 0.000000 0.000000
O O18 0.000000 0.500000 0.500000
#
# Coordination Sequence:
#
# PCOD9017745 Si02
#       8
#     2   2   2   2   2   2   2   2
#     4   8  17  38  65  90 125 165 216 274 325 384
#     4  12  24  42  64  98 132 172 222 274 325 393
#     4   9  22  41  66  93 133 168 222 266 331 392
#     4  12  24  40  67 100 134 172 222 279 330 392
#     4  12  21  39  68  97 128 170 223 274 327 387
#     4  11  20  37  68 102 130 165 224 283 331 379
#     4  10  21  43  66  90 133 173 218 276 323 400
#     4  12  26  42  67  97 136 177 217 273 335 392
#
# _framework density 22.454999000000001
#
# number of rings (size 3 to 8) (size 9 to 14) (size 15 to 20)
#    0.750    0.500    5.000    1.125    1.750    1.000 
#    0.000    0.625    2.750    0.000    0.000    0.000 
#    0.000    0.000    0.000    0.000    0.000    0.000 
#
# Total GULP energy -89113.648211 kJ/mol
# GULP energy per Si atom -5569.603013 kJ/mol
# Density = 2.240389 g / cm^3
# Si number density = 22.454999 Si / 1000 Ang^3
#
#
#
# Elastic Constant Matrix: (Units=GPa)
#
#
# Indices 1 2 3 4 5 6 
#
# 1 165.7868 18.9665 9.4891 -0.5376 -3.0168 1.0093
# 2 18.9665 21.1035 -5.3976 5.0676 -3.2390 4.5296
# 3 9.4891 -5.3976 45.6375 -4.7553 -2.6691 15.5731
# 4 -0.5376 5.0676 -4.7553 26.4401 10.2094 -4.1930
# 5 -3.0168 -3.2390 -2.6691 10.2094 37.5215 2.9426
# 6 1.0093 4.5296 15.5731 -4.1930 2.9426 45.5242
#
#
#
# Elastic Compliance Matrix: (Units=1/GPa)
#
#
# Indices 1 2 3 4 5 6 
#
# 1 0.007110 -0.008155 -0.002956 0.001863 -0.000999 0.001901
# 2 -0.008155 0.066859 0.013022 -0.017297 0.011790 -0.013282
# 3 -0.002956 0.013022 0.028017 -0.000820 0.003977 -0.011147
# 4 0.001863 -0.017297 -0.000820 0.048000 -0.015039 0.007353
# 5 -0.000999 0.011790 0.003977 -0.015039 0.032434 -0.005993
# 6 0.001901 -0.013282 -0.011147 0.007353 -0.005993 0.028124
#
#
# Mechanical properties :
#
#
# Convention : Reuss Voigt Hill
#
# Bulk Modulus (GPa) = 9.45088 30.96045 20.20567
# Shear Modulus (GPa) = 20.66190 35.86181 28.26186
#
# Velocity S-wave (km/s) = 3.03668 4.00065 3.55152
# Velocity P-wave (km/s) = 4.06364 5.92942 5.08287
#
# Compressibility (1/GPa) = 0.10581023
#
# Stress axis : x y z
#
# Youngs Moduli (GPa) = 140.64146 14.95680 35.69204
#
# Poissons Ratio (x) = 0.12197 0.10550
# Poissons Ratio (y) = 1.14693 -0.46480
# Poissons Ratio (z) = 0.41572 -0.19477
#
# Static dielectric constant tensor:
#      x y z
#    x 1.973680 -0.029460 0.011530 
#    y -0.029460 1.864190 -0.001790 
#    z 0.011530 -0.001790 1.826640 
# 
# From -- ./inp_files/239332.got.cif
#   From: 2010.05.17/outbox.cif.g08.bks.cpg/sg2_120_cif.got.tgz:239332.got - 2010.06.03 11:33:40.
