data_PCOD9017321
_publ_section_title
;
Structure prediction by ZEFSAII (Michael W. Deem and Ramdas Pophale) SiO2 
 PCOD9017321
Probable space group: P -1
;
_chemical_formula_sum "Si O2"
_cell_formula_units_Z 12
_cell_length_a 18.004064
_cell_length_b 7.120112
_cell_length_c 5.403760
_cell_angle_alpha 76.056418
_cell_angle_beta 76.116999
_cell_angle_gamma 51.443571
_cell_volume 522.047125
_symmetry_space_group_name_H-M "P -1"
_symmetry_group_IT_number 2
_symmetry_cell_setting 'triclinic'
loop_
_space_group_symop_operation_xyz
x,y,z
-x,-y,-z
loop_
_atom_site_type_symbol
_atom_site_label
_atom_site_fract_x
_atom_site_fract_y
_atom_site_fract_z
Si Si1 0.274429 0.275922 0.671545
Si Si2 0.415265 0.592454 0.342937
Si Si3 0.782286 0.014348 0.448732
Si Si4 0.014077 0.099616 0.708550
Si Si5 0.816710 0.582834 0.796291
Si Si6 0.464179 0.884727 0.890234
O O1 0.243725 0.411857 0.389066
O O2 0.386602 0.090189 0.697890
O O3 0.239916 0.105637 0.711949
O O4 0.219187 0.439003 0.904285
O O5 0.500000 0.500000 0.500000
O O6 0.797660 0.841028 0.717698
O O7 0.313266 0.719302 0.512308
O O8 0.449264 0.359665 0.229861
O O9 0.880021 0.976228 0.346873
O O10 0.927236 0.383664 0.706493
O O11 0.000000 0.000000 0.500000
O O12 0.000000 0.000000 0.000000
O O13 0.586950 0.207834 0.881172
O O14 0.500000 0.000000 0.000000
#
# Coordination Sequence:
#
# PCOD9017321 Si02
#       6
#     2   2   2   2   2   2
#     4  10  21  42  73  99 131 191 243 276 361 430
#     4  11  22  47  69 100 145 195 240 294 365 437
#     4  10  24  44  74  92 142 193 242 279 366 436
#     4  12  28  45  67 109 143 176 238 307 363 421
#     4  10  22  44  71  91 136 183 238 278 349 437
#     4  11  24  42  70 108 147 187 248 306 356 428
#
# _framework density 22.986432000000001
#
# number of rings (size 3 to 8) (size 9 to 14) (size 15 to 20)
#    1.000    0.333    3.333    1.500    2.333    2.667 
#    6.000    0.000    0.000    0.000    0.000    0.000 
#    0.000    0.000    0.000    0.000    0.000    0.000 
#
# Total GULP energy -67087.076551 kJ/mol
# GULP energy per Si atom -5590.589713 kJ/mol
# Density = 2.293411 g / cm^3
# Si number density = 22.986432 Si / 1000 Ang^3
#
#
#
# Elastic Constant Matrix: (Units=GPa)
#
#
# Indices 1 2 3 4 5 6 
#
# 1 134.2316 65.3677 50.7250 13.8899 19.4139 -24.8555
# 2 65.3677 136.2141 40.6821 41.8111 0.6439 -31.1981
# 3 50.7250 40.6821 133.3655 19.3769 17.5052 -4.0739
# 4 13.8899 41.8111 19.3769 41.6894 3.3113 -2.9761
# 5 19.4139 0.6439 17.5052 3.3113 34.6354 4.0168
# 6 -24.8555 -31.1981 -4.0739 -2.9761 4.0168 36.5276
#
#
#
# Elastic Compliance Matrix: (Units=1/GPa)
#
#
# Indices 1 2 3 4 5 6 
#
# 1 0.012339 -0.004854 -0.002645 0.002838 -0.006326 0.004882
# 2 -0.004854 0.016341 -0.001299 -0.013790 0.003346 0.009017
# 3 -0.002645 -0.001299 0.009542 -0.002141 -0.002914 -0.001699
# 4 0.002838 -0.013790 -0.002141 0.037634 -0.003075 -0.006681
# 5 -0.006326 0.003346 -0.002914 -0.003075 0.034801 -0.005850
# 6 0.004882 0.009017 -0.001699 -0.006681 -0.005850 0.038310
#
#
# Mechanical properties :
#
#
# Convention : Reuss Voigt Hill
#
# Bulk Modulus (GPa) = 48.48248 79.70676 64.09462
# Shear Modulus (GPa) = 28.82880 39.03958 33.93419
#
# Velocity S-wave (km/s) = 3.54526 4.12561 3.84639
# Velocity P-wave (km/s) = 6.15598 7.57925 6.90439
#
# Compressibility (1/GPa) = 0.02062601
#
# Stress axis : x y z
#
# Youngs Moduli (GPa) = 81.04706 61.19551 104.79928
#
# Poissons Ratio (x) = 0.29706 0.27719
# Poissons Ratio (y) = 0.39342 0.13609
# Poissons Ratio (z) = 0.21437 0.07947
#
# Static dielectric constant tensor:
#      x y z
#    x 1.833590 0.025890 -0.029270 
#    y 0.025890 1.932610 -0.024490 
#    z -0.029270 -0.024490 1.885970 
# 
# From -- ./inp_files/103286.got.cif
#   From: 2010.05.17/outbox.cif.g08.bks.cpg/sg2_52_cif.got.tgz:103286.got - 2010.06.03 11:33:40.
