data_PCOD9017375
_publ_section_title
;
Structure prediction by ZEFSAII (Michael W. Deem and Ramdas Pophale) SiO2 
 PCOD9017375
Probable space group: P -1
;
_chemical_formula_sum "Si O2"
_cell_formula_units_Z 12
_cell_length_a 8.437866
_cell_length_b 9.056434
_cell_length_c 11.402725
_cell_angle_alpha 86.714323
_cell_angle_beta 137.252896
_cell_angle_gamma 72.538945
_cell_volume 509.684992
_symmetry_space_group_name_H-M "P -1"
_symmetry_group_IT_number 2
_symmetry_cell_setting 'triclinic'
loop_
_space_group_symop_operation_xyz
x,y,z
-x,-y,-z
loop_
_atom_site_type_symbol
_atom_site_label
_atom_site_fract_x
_atom_site_fract_y
_atom_site_fract_z
Si Si1 0.285394 0.479219 0.623461
Si Si2 0.518064 0.221637 0.963019
Si Si3 0.286393 0.145787 0.212477
Si Si4 0.257738 0.817346 0.668942
Si Si5 0.482097 0.775147 0.447902
Si Si6 0.912215 0.828102 0.134042
O O1 0.479194 0.353601 0.835931
O O2 0.261782 0.660801 0.614546
O O3 0.381369 0.385847 0.556075
O O4 0.000000 0.500000 0.500000
O O5 0.233388 0.252073 0.862609
O O6 0.692993 0.226619 0.165373
O O7 0.690337 0.030395 0.013280
O O8 0.506069 0.154527 0.250271
O O9 0.305414 0.237999 0.336882
O O10 0.384797 0.952623 0.315705
O O11 0.047709 0.216144 0.982586
O O12 0.000000 0.000000 0.500000
O O13 0.199202 0.795734 0.337719
#
# Coordination Sequence:
#
# PCOD9017375 Si02
#       6
#     2   2   2   2   2   2
#     4  12  27  44  67 106 139 178 234 289 340 408
#     4  10  23  44  71 104 138 178 233 281 343 409
#     4  10  22  40  66 103 130 182 224 276 340 415
#     4  11  24  45  71  97 137 184 232 284 352 407
#     4  11  23  43  70  99 142 180 230 281 344 408
#     4  10  21  42  76  99 137 181 230 279 346 412
#
# _framework density 23.543955
#
# number of rings (size 3 to 8) (size 9 to 14) (size 15 to 20)
#    0.000    1.333    1.667    3.000    7.000    2.000 
#    3.000    1.667    0.000    0.000    0.000    0.000 
#    0.000    0.000    0.000    0.000    0.000    0.000 
#
# Total GULP energy -67123.445542 kJ/mol
# GULP energy per Si atom -5593.620462 kJ/mol
# Density = 2.349037 g / cm^3
# Si number density = 23.543955 Si / 1000 Ang^3
#
#
#
# Elastic Constant Matrix: (Units=GPa)
#
#
# Indices 1 2 3 4 5 6 
#
# 1 78.2957 46.0979 36.3769 1.8041 -10.7428 -6.9601
# 2 46.0979 163.3362 61.7413 17.1651 -12.0521 -12.7972
# 3 36.3769 61.7413 75.9794 16.7001 -26.8720 -3.2309
# 4 1.8041 17.1651 16.7001 33.7901 -5.1107 -5.0461
# 5 -10.7428 -12.0521 -26.8720 -5.1107 46.6829 8.5701
# 6 -6.9601 -12.7972 -3.2309 -5.0461 8.5701 29.5306
#
#
#
# Elastic Compliance Matrix: (Units=1/GPa)
#
#
# Indices 1 2 3 4 5 6 
#
# 1 0.017865 -0.002341 -0.007909 0.004478 -0.001187 0.003441
# 2 -0.002341 0.009808 -0.007577 -0.001050 -0.003145 0.003603
# 3 -0.007909 -0.007577 0.029695 -0.009456 0.013655 -0.007477
# 4 0.004478 -0.001050 -0.009456 0.035184 -0.001960 0.006147
# 5 -0.001187 -0.003145 0.013655 -0.001960 0.029650 -0.009088
# 6 0.003441 0.003603 -0.007477 0.006147 -0.009088 0.039105
#
#
# Mechanical properties :
#
#
# Convention : Reuss Voigt Hill
#
# Bulk Modulus (GPa) = 46.05425 67.33818 56.69622
# Shear Modulus (GPa) = 24.48604 33.56040 29.02322
#
# Velocity S-wave (km/s) = 3.22842 3.77959 3.51483
# Velocity P-wave (km/s) = 5.78795 6.90726 6.37223
#
# Compressibility (1/GPa) = 0.02171352
#
# Stress axis : x y z
#
# Youngs Moduli (GPa) = 55.97653 101.95909 33.67569
#
# Poissons Ratio (x) = 0.23869 0.26633
# Poissons Ratio (y) = 0.13105 0.25517
# Poissons Ratio (z) = 0.44270 0.77257
#
# Static dielectric constant tensor:
#      x y z
#    x 1.877290 -0.042260 -0.049780 
#    y -0.042260 1.880910 0.141590 
#    z -0.049780 0.141590 2.096780 
# 
# From -- ./inp_files/149013.got.cif
#   From: 2010.05.17/outbox.cif.g08.bks.cpg/sg2_75_cif.got.tgz:149013.got - 2010.06.03 11:33:40.
