data_PCOD9017235
_publ_section_title
;
Structure prediction by ZEFSAII (Michael W. Deem and Ramdas Pophale) SiO2 
 PCOD9017235
Probable space group: P -1
;
_chemical_formula_sum "Si O2"
_cell_formula_units_Z 14
_cell_length_a 15.203253
_cell_length_b 4.998229
_cell_length_c 9.024499
_cell_angle_alpha 97.758537
_cell_angle_beta 126.939716
_cell_angle_gamma 73.713667
_cell_volume 525.613384
_symmetry_space_group_name_H-M "P -1"
_symmetry_group_IT_number 2
_symmetry_cell_setting 'triclinic'
loop_
_space_group_symop_operation_xyz
x,y,z
-x,-y,-z
loop_
_atom_site_type_symbol
_atom_site_label
_atom_site_fract_x
_atom_site_fract_y
_atom_site_fract_z
Si Si1 0.592306 0.407165 0.405262
Si Si2 0.233566 0.933276 0.647110
Si Si3 0.563593 0.883416 0.205146
Si Si4 0.749260 0.196613 0.018795
Si Si5 0.981327 0.069213 0.700384
Si Si6 0.307874 0.303633 0.228518
Si Si7 0.087204 0.357243 0.203450
O O1 0.536513 0.621366 0.235910
O O2 0.603408 0.573394 0.576863
O O3 0.718759 0.270087 0.457366
O O4 0.541940 0.137962 0.321570
O O5 0.301886 0.168146 0.703424
O O6 0.097668 0.023997 0.512192
O O7 0.280262 0.786045 0.836615
O O8 0.500000 0.000000 0.000000
O O9 0.680886 0.999908 0.852660
O O10 0.732053 0.479162 0.930255
O O11 0.883934 0.041894 0.151249
O O12 0.933522 0.931070 0.783166
O O13 0.944472 0.404374 0.685317
O O14 0.209906 0.311106 0.252361
O O15 0.000000 0.500000 0.000000
#
# Coordination Sequence:
#
# PCOD9017235 Si02
#       7
#     2   2   2   2   2   2   2
#     4  10  22  40  66  93 117 154 201 254 291 360
#     4  10  26  38  63  89 127 154 206 253 300 354
#     4  10  21  42  72  94 112 149 203 256 304 360
#     4  12  25  37  57  89 130 171 195 241 305 349
#     4  12  22  37  57  84 122 168 210 244 284 347
#     4  12  23  39  60  87 125 163 208 247 290 354
#     4  12  20  35  55  80 112 161 218 246 277 336
#
# _framework density 26.635546000000001
#
# number of rings (size 3 to 8) (size 9 to 14) (size 15 to 20)
#    0.857    0.000    4.286    3.857    2.000    0.000 
#    0.000    2.857    0.000    5.143    0.000    0.000 
#    0.000    0.000    0.000    0.000    0.000    0.000 
#
# Total GULP energy -78302.678847 kJ/mol
# GULP energy per Si atom -5593.048489 kJ/mol
# Density = 2.657492 g / cm^3
# Si number density = 26.635546 Si / 1000 Ang^3
#
#
#
# Elastic Constant Matrix: (Units=GPa)
#
#
# Indices 1 2 3 4 5 6 
#
# 1 98.6547 15.4423 7.0202 10.9056 18.3214 3.3350
# 2 15.4423 109.9174 -8.4019 -3.3624 -4.3564 15.4309
# 3 7.0202 -8.4019 84.1067 -4.5464 3.7760 4.6852
# 4 10.9056 -3.3624 -4.5464 44.0469 3.0342 0.2456
# 5 18.3214 -4.3564 3.7760 3.0342 47.2332 2.6459
# 6 3.3350 15.4309 4.6852 0.2456 2.6459 29.9373
#
#
#
# Elastic Compliance Matrix: (Units=1/GPa)
#
#
# Indices 1 2 3 4 5 6 
#
# 1 0.011670 -0.002041 -0.001152 -0.002859 -0.004459 0.000350
# 2 -0.002041 0.010392 0.001507 0.001357 0.001853 -0.005540
# 3 -0.001152 0.001507 0.012389 0.001719 -0.000371 -0.002569
# 4 -0.002859 0.001357 0.001719 0.023723 -0.000382 -0.000811
# 5 -0.004459 0.001853 -0.000371 -0.000382 0.023264 -0.002453
# 6 0.000350 -0.005540 -0.002569 -0.000811 -0.002453 0.036845
#
#
# Mechanical properties :
#
#
# Convention : Reuss Voigt Hill
#
# Bulk Modulus (GPa) = 32.17411 35.64443 33.90927
# Shear Modulus (GPa) = 37.87481 42.81805 40.34643
#
# Velocity S-wave (km/s) = 3.77499 4.01378 3.89621
# Velocity P-wave (km/s) = 5.57730 5.90694 5.74448
#
# Compressibility (1/GPa) = 0.03108089
#
# Stress axis : x y z
#
# Youngs Moduli (GPa) = 85.68957 96.22445 80.71648
#
# Poissons Ratio (x) = 0.19638 0.09297
# Poissons Ratio (y) = 0.17488 -0.12166
# Poissons Ratio (z) = 0.09869 -0.14504
#
# Static dielectric constant tensor:
#      x y z
#    x 2.256250 -0.033530 -0.027160 
#    y -0.033530 2.010890 0.040840 
#    z -0.027160 0.040840 2.143890 
# 
# From -- ./inp_files/79622.got.cif
#   From: 2010.05.17/outbox.cif.g08.bks.cpg/sg2_40_cif.got.tgz:79622.got - 2010.06.03 11:33:40.
