data_PCOD9017858
_publ_section_title
;
Structure prediction by ZEFSAII (Michael W. Deem and Ramdas Pophale) SiO2 
 PCOD9017858
Probable space group: P -1
;
_chemical_formula_sum "Si O2"
_cell_formula_units_Z 16
_cell_length_a 14.485529
_cell_length_b 17.035192
_cell_length_c 7.426229
_cell_angle_alpha 113.835876
_cell_angle_beta 83.343452
_cell_angle_gamma 150.527300
_cell_volume 702.334674
_symmetry_space_group_name_H-M "P -1"
_symmetry_group_IT_number 2
_symmetry_cell_setting 'triclinic'
loop_
_space_group_symop_operation_xyz
x,y,z
-x,-y,-z
loop_
_atom_site_type_symbol
_atom_site_label
_atom_site_fract_x
_atom_site_fract_y
_atom_site_fract_z
Si Si1 0.478622 0.379256 0.383938
Si Si2 0.392402 0.690475 0.232722
Si Si3 0.040602 0.268164 0.306505
Si Si4 0.207228 0.091544 0.523141
Si Si5 0.608019 0.999935 0.192039
Si Si6 0.496827 0.105357 0.295264
Si Si7 0.007799 0.758134 0.132263
Si Si8 0.852010 0.925858 0.109904
O O1 0.500000 0.500000 0.500000
O O2 0.307401 0.208994 0.422043
O O3 0.707687 0.522652 0.496495
O O4 0.385794 0.278534 0.116420
O O5 0.580269 0.778378 0.314924
O O6 0.484187 0.840431 0.220379
O O7 0.350070 0.702060 0.446214
O O8 0.183966 0.468394 0.988150
O O9 0.869163 0.198935 0.331768
O O10 0.935243 0.092547 0.242256
O O11 0.034132 0.256727 0.081712
O O12 0.138636 0.097202 0.707227
O O13 0.028975 0.867094 0.325299
O O14 0.562273 0.062312 0.276168
O O15 0.521189 0.897680 0.918919
O O16 0.247631 0.915624 0.242444
O O17 0.000000 0.000000 0.000000
#
# Coordination Sequence:
#
# PCOD9017858 Si02
#       8
#     2   2   2   2   2   2   2   2
#     4  12  26  47  71 102 134 179 232 286 344 417
#     4  11  21  41  69 101 134 183 231 276 336 412
#     4  11  22  45  67  99 139 179 223 283 342 406
#     4  11  25  45  71 100 138 182 226 287 345 412
#     4  10  21  43  67 100 144 179 226 282 344 400
#     4   9  22  42  66  99 145 178 225 287 332 403
#     4  10  22  43  70  99 139 182 229 280 339 404
#     4  12  26  48  68 100 138 173 228 289 348 414
#
# _framework density 22.781161000000001
#
# number of rings (size 3 to 8) (size 9 to 14) (size 15 to 20)
#    0.000    1.250    5.000    0.375    0.000    2.500 
#    2.250    6.875    0.000    0.000    0.000    0.000 
#    0.000    0.000    0.000    0.000    0.000    0.000 
#
# Total GULP energy -89514.250105 kJ/mol
# GULP energy per Si atom -5594.640632 kJ/mol
# Density = 2.272931 g / cm^3
# Si number density = 22.781161 Si / 1000 Ang^3
#
#
#
# Elastic Constant Matrix: (Units=GPa)
#
#
# Indices 1 2 3 4 5 6 
#
# 1 94.5732 26.1366 41.5326 -2.4156 5.9630 7.5191
# 2 26.1366 66.3028 63.3676 -12.7764 -2.2772 -7.9398
# 3 41.5326 63.3676 148.1976 1.3853 3.1371 8.4308
# 4 -2.4156 -12.7764 1.3853 34.3048 2.6711 3.7616
# 5 5.9630 -2.2772 3.1371 2.6711 31.4928 -3.6034
# 6 7.5191 -7.9398 8.4308 3.7616 -3.6034 30.1599
#
#
#
# Elastic Compliance Matrix: (Units=1/GPa)
#
#
# Indices 1 2 3 4 5 6 
#
# 1 0.012956 -0.004302 -0.001480 0.000088 -0.003120 -0.004333
# 2 -0.004302 0.034777 -0.014655 0.011336 0.005379 0.013553
# 3 -0.001480 -0.014655 0.013932 -0.005155 -0.002536 -0.007044
# 4 0.000088 0.011336 -0.005155 0.033705 -0.001540 0.000016
# 5 -0.003120 0.005379 -0.002536 -0.001540 0.033934 0.007149
# 6 -0.004333 0.013553 -0.007044 0.000016 0.007149 0.040626
#
#
# Mechanical properties :
#
#
# Convention : Reuss Voigt Hill
#
# Bulk Modulus (GPa) = 48.09999 63.46080 55.78040
# Shear Modulus (GPa) = 22.96371 31.06063 27.01217
#
# Velocity S-wave (km/s) = 3.17837 3.69648 3.44717
# Velocity P-wave (km/s) = 5.88465 6.79233 6.35472
#
# Compressibility (1/GPa) = 0.02079002
#
# Stress axis : x y z
#
# Youngs Moduli (GPa) = 77.18404 28.75449 71.77969
#
# Poissons Ratio (x) = 0.12371 0.10621
# Poissons Ratio (y) = 0.33206 1.05197
# Poissons Ratio (z) = 0.11421 0.42141
#
# Static dielectric constant tensor:
#      x y z
#    x 1.847250 0.039050 0.011420 
#    y 0.039050 1.906680 -0.036200 
#    z 0.011420 -0.036200 1.869500 
# 
# From -- ./inp_files/318072.got.cif
#   From: 2010.05.17/outbox.cif.g08.bks.cpg/sg2_160_cif.got.tgz:318072.got - 2010.06.03 11:33:40.
