data_PCOD9017153
_publ_section_title
;
Structure prediction by ZEFSAII (Michael W. Deem and Ramdas Pophale) SiO2 
 PCOD9017153
Probable space group: P -1
;
_chemical_formula_sum "Si O2"
_cell_formula_units_Z 12
_cell_length_a 8.359021
_cell_length_b 12.191570
_cell_length_c 5.536188
_cell_angle_alpha 79.835716
_cell_angle_beta 124.284058
_cell_angle_gamma 98.348674
_cell_volume 458.121404
_symmetry_space_group_name_H-M "P -1"
_symmetry_group_IT_number 2
_symmetry_cell_setting 'triclinic'
loop_
_space_group_symop_operation_xyz
x,y,z
-x,-y,-z
loop_
_atom_site_type_symbol
_atom_site_label
_atom_site_fract_x
_atom_site_fract_y
_atom_site_fract_z
Si Si1 0.709980 0.239862 0.377100
Si Si2 0.892130 0.616111 0.362466
Si Si3 0.002739 0.099793 0.160660
Si Si4 0.309337 0.995095 0.683587
Si Si5 0.285349 0.448183 0.266127
Si Si6 0.743291 0.305719 0.865296
O O1 0.676014 0.108428 0.444492
O O2 0.625444 0.295197 0.519258
O O3 0.935711 0.286580 0.529473
O O4 0.635981 0.271225 0.036175
O O5 0.781941 0.617494 0.523767
O O6 0.000000 0.500000 0.500000
O O7 0.759385 0.610794 0.008949
O O8 0.855827 0.050574 0.256495
O O9 0.223802 0.101774 0.444612
O O10 0.911554 0.218434 0.997839
O O11 0.000000 0.000000 0.000000
O O12 0.500000 0.000000 0.000000
O O13 0.500000 0.500000 0.500000
O O14 0.180661 0.566881 0.105237
#
# Coordination Sequence:
#
# PCOD9017153 Si02
#       6
#     2   2   2   2   2   2
#     4  11  22  40  70  99 133 186 231 278 351 423
#     4  12  22  42  75  94 140 190 229 283 356 423
#     4  10  21  42  71  96 138 182 228 290 360 420
#     4  10  23  44  70 102 141 180 237 300 349 419
#     4  12  25  43  68 106 143 182 234 298 346 414
#     4  11  21  41  68  97 137 181 230 280 344 426
#
# _framework density 26.193929000000001
#
# number of rings (size 3 to 8) (size 9 to 14) (size 15 to 20)
#    0.000    1.000    5.000    2.000    0.000    0.667 
#    0.000   18.333    0.000    0.000    0.000    0.000 
#    0.000    0.000    0.000    0.000    0.000    0.000 
#
# Total GULP energy -67005.364728 kJ/mol
# GULP energy per Si atom -5583.780394 kJ/mol
# Density = 2.613431 g / cm^3
# Si number density = 26.193929 Si / 1000 Ang^3
#
#
#
# Elastic Constant Matrix: (Units=GPa)
#
#
# Indices 1 2 3 4 5 6 
#
# 1 46.2394 -4.9650 58.5823 1.7503 -12.6885 6.2910
# 2 -4.9650 109.7871 37.8308 0.7816 18.5739 -14.9784
# 3 58.5823 37.8308 194.9998 11.3294 0.5132 -8.5919
# 4 1.7503 0.7816 11.3294 50.7081 -5.1248 -7.1589
# 5 -12.6885 18.5739 0.5132 -5.1248 67.7984 7.4641
# 6 6.2910 -14.9784 -8.5919 -7.1589 7.4641 34.6146
#
#
#
# Elastic Compliance Matrix: (Units=1/GPa)
#
#
# Indices 1 2 3 4 5 6 
#
# 1 0.044863 0.004052 -0.014860 0.000931 0.008767 -0.011787
# 2 0.004052 0.011453 -0.003291 0.000726 -0.002756 0.004147
# 3 -0.014860 -0.003291 0.010504 -0.001456 -0.002523 0.004127
# 4 0.000931 0.000726 -0.001456 0.020655 0.001128 0.003812
# 5 0.008767 -0.002756 -0.002523 0.001128 0.018028 -0.007066
# 6 -0.011787 0.004147 0.004127 0.003812 -0.007066 0.036163
#
#
# Mechanical properties :
#
#
# Convention : Reuss Voigt Hill
#
# Bulk Modulus (GPa) = 25.89355 59.32474 42.60914
# Shear Modulus (GPa) = 27.36161 47.92944 37.64552
#
# Velocity S-wave (km/s) = 3.23550 4.28225 3.79514
# Velocity P-wave (km/s) = 4.88515 6.86641 5.95871
#
# Compressibility (1/GPa) = 0.03861966
#
# Stress axis : x y z
#
# Youngs Moduli (GPa) = 22.29027 87.31507 95.20047
#
# Poissons Ratio (x) = -0.35377 1.41471
# Poissons Ratio (y) = -0.09031 0.31333
# Poissons Ratio (z) = 0.33124 0.28738
#
# Static dielectric constant tensor:
#      x y z
#    x 2.038210 -0.068290 0.016500 
#    y -0.068290 2.174120 -0.056790 
#    z 0.016500 -0.056790 2.247990 
# 
# From -- ./inp_files/39113.got.cif
#   From: 2010.05.17/outbox.cif.g08.bks.cpg/sg2_20_cif.got.tgz:39113.got - 2010.06.03 11:33:40.
