data_PCOD9017283
_publ_section_title
;
Structure prediction by ZEFSAII (Michael W. Deem and Ramdas Pophale) SiO2 
 PCOD9017283
Probable space group: P -1
;
_chemical_formula_sum "Si O2"
_cell_formula_units_Z 14
_cell_length_a 18.987030
_cell_length_b 12.959227
_cell_length_c 9.287879
_cell_angle_alpha 144.052593
_cell_angle_beta 43.869709
_cell_angle_gamma 151.452816
_cell_volume 640.735546
_symmetry_space_group_name_H-M "P -1"
_symmetry_group_IT_number 2
_symmetry_cell_setting 'triclinic'
loop_
_space_group_symop_operation_xyz
x,y,z
-x,-y,-z
loop_
_atom_site_type_symbol
_atom_site_label
_atom_site_fract_x
_atom_site_fract_y
_atom_site_fract_z
Si Si1 0.439216 0.929767 0.349069
Si Si2 0.650738 0.178085 0.068940
Si Si3 0.724271 0.787954 0.918105
Si Si4 0.169003 0.259495 0.569597
Si Si5 0.439177 0.544707 0.930437
Si Si6 0.732557 0.902670 0.525231
Si Si7 0.144111 0.797208 0.601952
O O1 0.300609 0.885787 0.480453
O O2 0.500000 0.000000 0.500000
O O3 0.584423 0.144850 0.283716
O O4 0.388022 0.668260 0.088693
O O5 0.776056 0.474836 0.175883
O O6 0.500000 0.000000 0.000000
O O7 0.703913 0.045501 0.816249
O O8 0.766086 0.702843 0.640481
O O9 0.608041 0.764427 0.978027
O O10 0.645402 0.605604 0.967165
O O11 0.851931 0.061771 0.111625
O O12 0.222079 0.192464 0.539417
O O13 0.000000 0.000000 0.500000
O O14 0.407332 0.351141 0.644170
O O15 0.846747 0.093326 0.442734
O O16 0.000000 0.500000 0.500000
#
# Coordination Sequence:
#
# PCOD9017283 Si02
#       7
#     2   2   2   2   2   2   2
#     4  12  23  41  70 108 134 185 245 291 343 427
#     4  12  25  45  74 106 140 180 244 296 346 424
#     4  10  22  43  67 102 137 181 233 294 349 417
#     4  12  29  47  70 103 149 190 233 291 370 433
#     4  10  21  42  73 102 138 177 241 299 349 408
#     4  11  26  46  71 104 141 188 233 301 356 416
#     4  11  26  45  69 101 146 185 233 293 360 428
#
# _framework density 21.849886999999999
#
# number of rings (size 3 to 8) (size 9 to 14) (size 15 to 20)
#    0.000    0.857    2.857    3.429    4.000    4.571 
#    0.000    2.857    0.000    0.000    0.000    0.000 
#    0.000    0.000    0.000    0.000    0.000    0.000 
#
# Total GULP energy -78196.940372 kJ/mol
# GULP energy per Si atom -5585.495741 kJ/mol
# Density = 2.180016 g / cm^3
# Si number density = 21.849887 Si / 1000 Ang^3
#
#
#
# Elastic Constant Matrix: (Units=GPa)
#
#
# Indices 1 2 3 4 5 6 
#
# 1 85.1173 44.9051 41.7947 4.8673 7.6189 -19.0355
# 2 44.9051 81.5006 48.2627 23.7437 18.3229 -13.3370
# 3 41.7947 48.2627 119.4619 19.8525 2.8490 -12.7553
# 4 4.8673 23.7437 19.8525 39.0594 -8.0255 2.1984
# 5 7.6189 18.3229 2.8490 -8.0255 38.9718 2.0387
# 6 -19.0355 -13.3370 -12.7553 2.1984 2.0387 22.1488
#
#
#
# Elastic Compliance Matrix: (Units=1/GPa)
#
#
# Indices 1 2 3 4 5 6 
#
# 1 0.019729 -0.009044 -0.002987 0.004241 0.001002 0.009277
# 2 -0.009044 0.031901 -0.004607 -0.020263 -0.017716 0.012425
# 3 -0.002987 -0.004607 0.011872 -0.002700 0.001240 0.001650
# 4 0.004241 -0.020263 -0.002700 0.043515 0.018701 -0.016151
# 5 0.001002 -0.017716 0.001240 0.018701 0.038311 -0.014475
# 6 0.009277 0.012425 0.001650 -0.016151 -0.014475 0.064489
#
#
# Mechanical properties :
#
#
# Convention : Reuss Voigt Hill
#
# Bulk Modulus (GPa) = 33.08457 61.77830 47.43143
# Shear Modulus (GPa) = 19.74972 30.11049 24.93010
#
# Velocity S-wave (km/s) = 3.00972 3.71625 3.38149
# Velocity P-wave (km/s) = 5.22040 6.83735 6.08284
#
# Compressibility (1/GPa) = 0.03022557
#
# Stress axis : x y z
#
# Youngs Moduli (GPa) = 50.68708 31.34723 84.22976
#
# Poissons Ratio (x) = 0.28352 0.25156
# Poissons Ratio (y) = 0.45843 0.38806
# Poissons Ratio (z) = 0.15138 0.14442
#
# Static dielectric constant tensor:
#      x y z
#    x 3.068660 -1.342680 1.221200 
#    y -1.342680 2.696550 -0.921000 
#    z 1.221200 -0.921000 2.795760 
# 
# From -- ./inp_files/280232.got.cif
#   From: 2010.05.17/outbox.cif.g08.bks.cpg/sg2_141_cif.got.tgz:280232.got - 2010.06.03 11:33:40.
