data_PCOD9017920
_publ_section_title
;
Structure prediction by ZEFSAII (Michael W. Deem and Ramdas Pophale) SiO2 
 PCOD9017920
Probable space group: P -1
;
_chemical_formula_sum "Si O2"
_cell_formula_units_Z 16
_cell_length_a 13.705652
_cell_length_b 19.696438
_cell_length_c 9.896094
_cell_angle_alpha 147.682860
_cell_angle_beta 36.329735
_cell_angle_gamma 149.732265
_cell_volume 690.855631
_symmetry_space_group_name_H-M "P -1"
_symmetry_group_IT_number 2
_symmetry_cell_setting 'triclinic'
loop_
_space_group_symop_operation_xyz
x,y,z
-x,-y,-z
loop_
_atom_site_type_symbol
_atom_site_label
_atom_site_fract_x
_atom_site_fract_y
_atom_site_fract_z
Si Si1 0.818622 0.887165 0.615481
Si Si2 0.423849 0.387289 0.027030
Si Si3 0.123826 0.457342 0.599563
Si Si4 0.532925 0.004142 0.129706
Si Si5 0.186342 0.386335 0.912985
Si Si6 0.100761 0.729127 0.700194
Si Si7 0.127714 0.716453 0.150437
Si Si8 0.964564 0.933180 0.076554
O O1 0.725072 0.715965 0.378721
O O2 0.662803 0.932538 0.878005
O O3 0.000000 0.000000 0.500000
O O4 0.930994 0.924637 0.696609
O O5 0.286342 0.423288 0.326696
O O6 0.622074 0.440411 0.980073
O O7 0.500000 0.500000 0.000000
O O8 0.269550 0.203861 0.860870
O O9 0.221984 0.628008 0.836212
O O10 0.993264 0.418532 0.542196
O O11 0.971277 0.347234 0.701626
O O12 0.675128 0.173255 0.324997
O O13 0.310304 0.895534 0.255994
O O14 0.500000 0.000000 0.000000
O O15 0.044481 0.321754 0.094158
O O16 0.048993 0.342618 0.861315
O O17 0.074155 0.846391 0.838626
O O18 0.000000 0.000000 0.000000
#
# Coordination Sequence:
#
# PCOD9017920 Si02
#       8
#     2   2   2   2   2   2   2   2
#     4  11  20  39  67  97 133 168 222 280 325 394
#     4  11  21  44  71  96 129 175 223 278 335 395
#     4  10  24  46  65  91 137 172 220 286 334 398
#     4  11  21  42  67  96 132 178 221 264 338 402
#     4  12  22  41  67 101 128 172 230 278 332 400
#     4  10  21  43  67  93 133 166 227 277 320 405
#     4  11  25  43  65  95 135 179 221 273 343 400
#     4  10  22  39  61  99 136 163 210 277 343 385
#
# _framework density 23.159686000000001
#
# number of rings (size 3 to 8) (size 9 to 14) (size 15 to 20)
#    0.000    1.250    6.250    0.750    3.500    1.500 
#    9.000    1.250    0.000    0.000    0.000    0.000 
#    0.000    0.000    0.000    0.000    0.000    0.000 
#
# Total GULP energy -89434.137493 kJ/mol
# GULP energy per Si atom -5589.633593 kJ/mol
# Density = 2.310697 g / cm^3
# Si number density = 23.159686 Si / 1000 Ang^3
#
#
#
# Elastic Constant Matrix: (Units=GPa)
#
#
# Indices 1 2 3 4 5 6 
#
# 1 110.1684 39.2211 26.2743 -8.1645 25.9081 23.5724
# 2 39.2211 108.5627 15.5615 10.1440 19.2220 34.9778
# 3 26.2743 15.5615 94.2453 5.9363 22.5906 5.5430
# 4 -8.1645 10.1440 5.9363 17.9133 2.8195 1.9636
# 5 25.9081 19.2220 22.5906 2.8195 46.0670 0.0020
# 6 23.5724 34.9778 5.5430 1.9636 0.0020 47.2790
#
#
#
# Elastic Compliance Matrix: (Units=1/GPa)
#
#
# Indices 1 2 3 4 5 6 
#
# 1 0.013938 -0.003024 -0.002291 0.010316 -0.006084 -0.004871
# 2 -0.003024 0.014648 0.000464 -0.008185 -0.004138 -0.009044
# 3 -0.002291 0.000464 0.012653 -0.004687 -0.004823 -0.000489
# 4 0.010316 -0.008185 -0.004687 0.067526 -0.004221 -0.001343
# 5 -0.006084 -0.004138 -0.004823 -0.004221 0.029479 0.006834
# 6 -0.004871 -0.009044 -0.000489 -0.001343 0.006834 0.030383
#
#
# Mechanical properties :
#
#
# Convention : Reuss Voigt Hill
#
# Bulk Modulus (GPa) = 31.71014 52.78782 42.24898
# Shear Modulus (GPa) = 26.47709 37.71315 32.09512
#
# Velocity S-wave (km/s) = 3.38485 4.03972 3.72670
# Velocity P-wave (km/s) = 5.38498 6.67844 6.06628
#
# Compressibility (1/GPa) = 0.03153565
#
# Stress axis : x y z
#
# Youngs Moduli (GPa) = 71.74771 68.26658 79.03376
#
# Poissons Ratio (x) = 0.20644 0.18108
# Poissons Ratio (y) = 0.21697 -0.03664
# Poissons Ratio (z) = 0.16439 -0.03164
#
# Static dielectric constant tensor:
#      x y z
#    x 1.914710 0.029330 -0.038600 
#    y 0.029330 2.076000 0.212660 
#    z -0.038600 0.212660 1.995760 
# 
# From -- ./inp_files/319091.got.cif
#   From: 2010.05.17/outbox.cif.g08.bks.cpg/sg2_160_cif.got.tgz:319091.got - 2010.06.03 11:33:40.
