data_PCOD9017328
_publ_section_title
;
Structure prediction by ZEFSAII (Michael W. Deem and Ramdas Pophale) SiO2 
 PCOD9017328
Probable space group: P -1
;
_chemical_formula_sum "Si O2"
_cell_formula_units_Z 14
_cell_length_a 5.022368
_cell_length_b 26.823657
_cell_length_c 6.381776
_cell_angle_alpha 131.855980
_cell_angle_beta 78.651133
_cell_angle_gamma 98.716311
_cell_volume 627.594832
_symmetry_space_group_name_H-M "P -1"
_symmetry_group_IT_number 2
_symmetry_cell_setting 'triclinic'
loop_
_space_group_symop_operation_xyz
x,y,z
-x,-y,-z
loop_
_atom_site_type_symbol
_atom_site_label
_atom_site_fract_x
_atom_site_fract_y
_atom_site_fract_z
Si Si1 0.258807 0.257897 0.900323
Si Si2 0.561670 0.919881 0.891758
Si Si3 0.789558 0.963195 0.584392
Si Si4 0.218932 0.414162 0.355128
Si Si5 0.209732 0.807476 0.493972
Si Si6 0.692436 0.482398 0.727402
Si Si7 0.218536 0.172698 0.050580
O O1 0.189904 0.335051 0.115647
O O2 0.309962 0.234372 0.065438
O O3 0.540586 0.242090 0.698182
O O4 0.012151 0.214587 0.709044
O O5 0.807035 0.946053 0.781363
O O6 0.340617 0.882902 0.669803
O O7 0.627908 0.860654 0.873008
O O8 0.450240 0.982881 0.211211
O O9 0.777668 0.889856 0.281924
O O10 0.000000 0.000000 0.500000
O O11 0.504177 0.434769 0.475541
O O12 0.223801 0.451672 0.235286
O O13 0.972304 0.444317 0.613169
O O14 0.060032 0.807079 0.739880
O O15 0.500000 0.500000 0.000000
#
# Coordination Sequence:
#
# PCOD9017328 Si02
#       7
#     2   2   2   2   2   2   2
#     4  12  28  45  70  98 148 179 225 272 345 400
#     4  11  25  45  66 100 127 170 239 283 348 410
#     4  11  23  43  70  94 128 174 226 296 353 404
#     4  10  23  43  67 106 136 184 219 273 324 398
#     4  12  25  45  66  99 134 181 226 283 328 421
#     4  10  21  42  74 102 141 171 231 272 322 378
#     4  12  25  44  67  96 136 177 226 287 350 410
#
# _framework density 22.307388
#
# number of rings (size 3 to 8) (size 9 to 14) (size 15 to 20)
#    0.000    0.857    4.286    1.714    2.000    4.000 
#    5.143    0.000    0.000    0.000    0.000    0.000 
#    0.000    0.000    0.000    0.000    0.000    0.000 
#
# Total GULP energy -78109.599080 kJ/mol
# GULP energy per Si atom -5579.257077 kJ/mol
# Density = 2.225662 g / cm^3
# Si number density = 22.307388 Si / 1000 Ang^3
#
#
#
# Elastic Constant Matrix: (Units=GPa)
#
#
# Indices 1 2 3 4 5 6 
#
# 1 95.5598 39.4541 39.8868 5.2466 -14.7137 -4.0537
# 2 39.4541 131.1838 82.7924 8.1081 -12.6107 5.1426
# 3 39.8868 82.7924 119.4161 -9.2095 -32.0158 6.7841
# 4 5.2466 8.1081 -9.2095 42.1019 9.2465 -11.0421
# 5 -14.7137 -12.6107 -32.0158 9.2465 42.8376 -1.7741
# 6 -4.0537 5.1426 6.7841 -11.0421 -1.7741 22.1972
#
#
#
# Elastic Compliance Matrix: (Units=1/GPa)
#
#
# Indices 1 2 3 4 5 6 
#
# 1 0.012967 -0.002114 -0.002511 -0.001477 0.002402 0.003082
# 2 -0.002114 0.015404 -0.011125 -0.005272 -0.003511 -0.003458
# 3 -0.002511 -0.011125 0.019943 0.004408 0.009775 -0.001002
# 4 -0.001477 -0.005272 0.004408 0.030783 -0.004807 0.014533
# 5 0.002402 -0.003511 0.009775 -0.004807 0.031411 -0.001616
# 6 0.003082 -0.003458 -0.001002 0.014533 -0.001616 0.053822
#
#
# Mechanical properties :
#
#
# Convention : Reuss Voigt Hill
#
# Bulk Modulus (GPa) = 59.47163 74.49180 66.98172
# Shear Modulus (GPa) = 24.82194 33.69576 29.25885
#
# Velocity S-wave (km/s) = 3.33937 3.89076 3.62556
# Velocity P-wave (km/s) = 6.44876 7.32460 6.90059
#
# Compressibility (1/GPa) = 0.01681474
#
# Stress axis : x y z
#
# Youngs Moduli (GPa) = 77.11834 64.91901 50.14216
#
# Poissons Ratio (x) = 0.13724 0.12589
# Poissons Ratio (y) = 0.16303 0.55783
# Poissons Ratio (z) = 0.19362 0.72223
#
# Static dielectric constant tensor:
#      x y z
#    x 1.953060 -0.076860 0.030440 
#    y -0.076860 1.931930 -0.026190 
#    z 0.030440 -0.026190 1.819750 
# 
# From -- ./inp_files/13776.got.cif
#   From: 2010.05.17/outbox.cif.g08.bks.cpg/sg2_7_cif.got.tgz:13776.got - 2010.06.03 11:33:40.
