data_PCOD9017984
_publ_section_title
;
Structure prediction by ZEFSAII (Michael W. Deem and Ramdas Pophale) SiO2 
 PCOD9017984
Probable space group: P -1
;
_chemical_formula_sum "Si O2"
_cell_formula_units_Z 14
_cell_length_a 8.979783
_cell_length_b 8.324965
_cell_length_c 21.792960
_cell_angle_alpha 42.452503
_cell_angle_beta 149.239849
_cell_angle_gamma 135.077021
_cell_volume 549.330001
_symmetry_space_group_name_H-M "P -1"
_symmetry_group_IT_number 2
_symmetry_cell_setting 'triclinic'
loop_
_space_group_symop_operation_xyz
x,y,z
-x,-y,-z
loop_
_atom_site_type_symbol
_atom_site_label
_atom_site_fract_x
_atom_site_fract_y
_atom_site_fract_z
Si Si1 0.287514 0.207080 0.558766
Si Si2 0.787813 0.338521 0.798300
Si Si3 0.627562 0.658090 0.821335
Si Si4 0.706731 0.139759 0.959604
Si Si5 0.655199 0.852876 0.645821
Si Si6 0.176522 0.694865 0.367651
Si Si7 0.688798 0.608897 0.115136
O O1 0.536913 0.196690 0.701752
O O2 0.159028 0.442021 0.466512
O O3 0.483045 0.248938 0.553452
O O4 0.000000 0.000000 0.500000
O O5 0.753533 0.184840 0.891351
O O6 0.724979 0.608551 0.711961
O O7 0.134897 0.393747 0.885059
O O8 0.576946 0.370579 0.869396
O O9 0.520747 0.770631 0.689709
O O10 0.501869 0.634485 0.852879
O O11 0.969143 0.795697 0.910962
O O12 0.561912 0.856802 0.999984
O O13 0.500000 0.000000 0.500000
O O14 0.913577 0.084955 0.690077
O O15 0.971604 0.647663 0.249749
#
# Coordination Sequence:
#
# PCOD9017984 Si02
#       7
#     2   2   2   2   2   2   2
#     4  10  22  42  66  95 132 176 226 272 340 405
#     4  10  23  41  69 103 138 178 224 288 329 393
#     4  10  23  40  70  99 128 190 217 274 346 399
#     4  10  21  43  67  96 141 172 227 280 334 395
#     4  11  21  44  69  96 143 174 223 280 340 397
#     4  10  22  40  66  94 133 180 213 281 339 395
#     4  11  22  41  68  98 136 176 232 270 336 400
#
# _framework density 25.485592
#
# number of rings (size 3 to 8) (size 9 to 14) (size 15 to 20)
#    0.000    1.714    2.857    0.857    2.000    0.571 
#    0.000    9.286    3.143    0.000    0.000    0.000 
#    0.000    0.000    0.000    0.000    0.000    0.000 
#
# Total GULP energy -78035.393319 kJ/mol
# GULP energy per Si atom -5573.956666 kJ/mol
# Density = 2.542759 g / cm^3
# Si number density = 25.485592 Si / 1000 Ang^3
#
#
#
# Elastic Constant Matrix: (Units=GPa)
#
#
# Indices 1 2 3 4 5 6 
#
# 1 54.3727 33.3485 44.0511 -5.6945 -19.7141 10.4998
# 2 33.3485 120.0851 30.6851 -24.8501 11.0104 -2.2818
# 3 44.0511 30.6851 130.2381 -38.8901 -26.1060 5.2715
# 4 -5.6945 -24.8501 -38.8901 53.3275 -3.3848 3.7351
# 5 -19.7141 11.0104 -26.1060 -3.3848 44.4674 -6.9806
# 6 10.4998 -2.2818 5.2715 3.7351 -6.9806 31.7659
#
#
#
# Elastic Compliance Matrix: (Units=1/GPa)
#
#
# Indices 1 2 3 4 5 6 
#
# 1 0.038002 -0.010746 -0.009503 -0.006527 0.012125 -0.008324
# 2 -0.010746 0.012811 0.000503 0.004587 -0.006926 0.002327
# 3 -0.009503 0.000503 0.014914 0.010388 0.005310 0.000648
# 4 -0.006527 0.004587 0.010388 0.028136 0.003947 -0.001678
# 5 0.012125 -0.006926 0.005310 0.003947 0.033225 0.001450
# 6 -0.008324 0.002327 0.000648 -0.001678 0.001450 0.034807
#
#
# Mechanical properties :
#
#
# Convention : Reuss Voigt Hill
#
# Bulk Modulus (GPa) = 38.11599 57.87392 47.99495
# Shear Modulus (GPa) = 23.79447 39.01956 31.40702
#
# Velocity S-wave (km/s) = 3.05887 3.91710 3.51428
# Velocity P-wave (km/s) = 5.24061 6.57389 5.94475
#
# Compressibility (1/GPa) = 0.02623571
#
# Stress axis : x y z
#
# Youngs Moduli (GPa) = 26.31455 78.05517 67.04995
#
# Poissons Ratio (x) = 0.83875 0.63721
# Poissons Ratio (y) = 0.28277 -0.03374
# Poissons Ratio (z) = 0.25008 -0.03928
#
# Static dielectric constant tensor:
#      x y z
#    x 2.173490 -0.038380 -0.012110 
#    y -0.038380 2.062530 -0.013190 
#    z -0.012110 -0.013190 2.032510 
# 
# From -- ./inp_files/521501.got.cif
#   From: 2010.05.17/outbox.cif.g08.bks.cpg/sg2_261_cif.got.tgz:521501.got - 2010.06.03 11:33:40.
