data_PCOD9017712
_publ_section_title
;
Structure prediction by ZEFSAII (Michael W. Deem and Ramdas Pophale) SiO2 
 PCOD9017712
Probable space group: P -1
;
_chemical_formula_sum "Si O2"
_cell_formula_units_Z 14
_cell_length_a 7.376638
_cell_length_b 20.580297
_cell_length_c 10.700681
_cell_angle_alpha 154.744757
_cell_angle_beta 53.256026
_cell_angle_gamma 129.780257
_cell_volume 531.700742
_symmetry_space_group_name_H-M "P -1"
_symmetry_group_IT_number 2
_symmetry_cell_setting 'triclinic'
loop_
_space_group_symop_operation_xyz
x,y,z
-x,-y,-z
loop_
_atom_site_type_symbol
_atom_site_label
_atom_site_fract_x
_atom_site_fract_y
_atom_site_fract_z
Si Si1 0.915360 0.368897 0.601697
Si Si2 0.699942 0.932885 0.164720
Si Si3 0.143353 0.209272 0.402663
Si Si4 0.803558 0.090685 0.764790
Si Si5 0.684601 0.607757 0.708480
Si Si6 0.218562 0.377682 0.036399
Si Si7 0.559421 0.842199 0.592208
O O1 0.793494 0.507210 0.872923
O O2 0.718041 0.199419 0.383602
O O3 0.071453 0.361318 0.644786
O O4 0.066686 0.385607 0.443258
O O5 0.437405 0.950469 0.288168
O O6 0.779352 0.862535 0.881177
O O7 0.679811 0.791244 0.025738
O O8 0.913217 0.095033 0.371879
O O9 0.357196 0.222942 0.431086
O O10 0.697937 0.025958 0.831279
O O11 0.000000 0.000000 0.500000
O O12 0.951840 0.272188 0.998455
O O13 0.500000 0.500000 0.500000
O O14 0.666479 0.545806 0.748683
O O15 0.359099 0.257533 0.723354
#
# Coordination Sequence:
#
# PCOD9017712 Si02
#       7
#     2   2   2   2   2   2   2
#     4  11  24  44  70  99 137 178 229 281 329 411
#     4  10  21  43  66 101 133 176 230 279 331 402
#     4  10  23  41  70 103 134 174 230 280 336 394
#     4  10  22  43  66  99 137 179 222 278 340 400
#     4  11  25  44  69 100 134 181 229 281 342 403
#     4  11  25  44  65 100 139 179 223 278 348 395
#     4  11  24  45  68 101 138 178 229 279 336 410
#
# _framework density 26.330603
#
# number of rings (size 3 to 8) (size 9 to 14) (size 15 to 20)
#    0.000    1.429    1.429    2.571    6.000    1.143 
#    7.714    4.286    0.000    0.000    0.000    0.000 
#    0.000    0.000    0.000    0.000    0.000    0.000 
#
# Total GULP energy -78355.324344 kJ/mol
# GULP energy per Si atom -5596.808882 kJ/mol
# Density = 2.627067 g / cm^3
# Si number density = 26.330603 Si / 1000 Ang^3
#
#
#
# Elastic Constant Matrix: (Units=GPa)
#
#
# Indices 1 2 3 4 5 6 
#
# 1 110.3985 27.9221 11.6055 2.8658 -18.9082 -5.5039
# 2 27.9221 115.2926 13.9156 29.5424 0.2512 7.3579
# 3 11.6055 13.9156 66.1106 4.2478 -21.0670 0.4349
# 4 2.8658 29.5424 4.2478 40.0129 -8.5691 -12.1635
# 5 -18.9082 0.2512 -21.0670 -8.5691 42.0229 1.1324
# 6 -5.5039 7.3579 0.4349 -12.1635 1.1324 54.7394
#
#
#
# Elastic Compliance Matrix: (Units=1/GPa)
#
#
# Indices 1 2 3 4 5 6 
#
# 1 0.011052 -0.003962 0.000538 0.004108 0.006039 0.002428
# 2 -0.003962 0.013382 -0.003156 -0.011922 -0.005750 -0.004702
# 3 0.000538 -0.003156 0.018769 0.002703 0.010202 0.000719
# 4 0.004108 -0.011922 0.002703 0.038696 0.010886 0.010367
# 5 0.006039 -0.005750 0.010202 0.010886 0.033801 0.003019
# 6 0.002428 -0.004702 0.000719 0.010367 0.003019 0.021380
#
#
# Mechanical properties :
#
#
# Convention : Reuss Voigt Hill
#
# Bulk Modulus (GPa) = 33.28708 44.29869 38.79288
# Shear Modulus (GPa) = 31.20042 43.24560 37.22301
#
# Velocity S-wave (km/s) = 3.44604 4.05706 3.76397
# Velocity P-wave (km/s) = 5.33882 6.22952 5.80129
#
# Compressibility (1/GPa) = 0.03004169
#
# Stress axis : x y z
#
# Youngs Moduli (GPa) = 90.47854 74.72932 53.28043
#
# Poissons Ratio (x) = 0.29611 -0.02868
# Poissons Ratio (y) = 0.35851 0.16817
# Poissons Ratio (z) = -0.04870 0.23587
#
# Static dielectric constant tensor:
#      x y z
#    x 2.031700 -0.007180 -0.015870 
#    y -0.007180 2.102670 0.059960 
#    z -0.015870 0.059960 2.108020 
# 
# From -- ./inp_files/370499.got.cif
#   From: 2010.05.17/outbox.cif.g08.bks.cpg/sg2_186_cif.got.tgz:370499.got - 2010.06.03 11:33:40.
