data_PCOD9017450
_publ_section_title
;
Structure prediction by ZEFSAII (Michael W. Deem and Ramdas Pophale) SiO2 
 PCOD9017450
Probable space group: P -1
;
_chemical_formula_sum "Si O2"
_cell_formula_units_Z 14
_cell_length_a 19.572854
_cell_length_b 10.511987
_cell_length_c 13.116184
_cell_angle_alpha 146.080374
_cell_angle_beta 155.990910
_cell_angle_gamma 44.418034
_cell_volume 601.238525
_symmetry_space_group_name_H-M "P -1"
_symmetry_group_IT_number 2
_symmetry_cell_setting 'triclinic'
loop_
_space_group_symop_operation_xyz
x,y,z
-x,-y,-z
loop_
_atom_site_type_symbol
_atom_site_label
_atom_site_fract_x
_atom_site_fract_y
_atom_site_fract_z
Si Si1 0.899118 0.794798 0.158359
Si Si2 0.375088 0.004854 0.188911
Si Si3 0.929639 0.241084 0.267873
Si Si4 0.388844 0.474593 0.635193
Si Si5 0.819080 0.310959 0.680010
Si Si6 0.735401 0.856705 0.590084
Si Si7 0.733796 0.848983 0.355337
O O1 0.011581 0.761506 0.187354
O O2 0.719098 0.875605 0.947839
O O3 0.864289 0.524620 0.963735
O O4 0.000000 0.000000 0.500000
O O5 0.418331 0.223348 0.470100
O O6 0.547536 0.913683 0.348352
O O7 0.225460 0.802645 0.892585
O O8 0.000000 0.500000 0.500000
O O9 0.107247 0.192932 0.523492
O O10 0.844164 0.055765 0.941665
O O11 0.278699 0.592577 0.483207
O O12 0.292248 0.390878 0.553471
O O13 0.568901 0.648160 0.999908
O O14 0.704064 0.094378 0.436007
O O15 0.808511 0.860633 0.579294
#
# Coordination Sequence:
#
# PCOD9017450 Si02
#       7
#     2   2   2   2   2   2   2
#     4  10  22  42  69  95 130 180 219 266 334 394
#     4  10  21  43  63  90 128 175 223 260 325 405
#     4  11  22  40  63  91 132 172 216 272 325 385
#     4  10  22  42  65  88 134 178 208 265 339 391
#     4  10  23  44  66  98 134 170 222 277 322 396
#     4  11  24  40  64  97 129 169 218 267 328 399
#     4  12  23  41  64 102 129 165 218 280 329 372
#
# _framework density 23.285267000000001
#
# number of rings (size 3 to 8) (size 9 to 14) (size 15 to 20)
#    0.000    1.429    1.429    4.714    4.000    1.143 
#    2.571    1.429    0.000    0.000    0.000    0.000 
#    0.000    0.000    0.000    0.000    0.000    0.000 
#
# Total GULP energy -78071.061364 kJ/mol
# GULP energy per Si atom -5576.504383 kJ/mol
# Density = 2.323227 g / cm^3
# Si number density = 23.285267 Si / 1000 Ang^3
#
#
#
# Elastic Constant Matrix: (Units=GPa)
#
#
# Indices 1 2 3 4 5 6 
#
# 1 39.8841 30.4064 34.9607 10.6153 9.3622 2.6756
# 2 30.4064 104.7060 63.9131 24.8158 17.4540 22.2145
# 3 34.9607 63.9131 156.7010 28.0510 15.8582 -2.9383
# 4 10.6153 24.8158 28.0510 51.7848 5.2791 10.0525
# 5 9.3622 17.4540 15.8582 5.2791 38.7072 8.5377
# 6 2.6756 22.2145 -2.9383 10.0525 8.5377 25.3189
#
#
#
# Elastic Compliance Matrix: (Units=1/GPa)
#
#
# Indices 1 2 3 4 5 6 
#
# 1 0.035656 -0.007843 -0.003877 -0.001962 -0.004312 0.004896
# 2 -0.007843 0.019459 -0.006237 -0.001110 -0.000568 -0.016336
# 3 -0.003877 -0.006237 0.010854 -0.003684 -0.002260 0.009366
# 4 -0.001962 -0.001110 -0.003684 0.023890 0.001244 -0.009151
# 5 -0.004312 -0.000568 -0.002260 0.001244 0.030084 -0.009947
# 6 0.004896 -0.016336 0.009366 -0.009151 -0.009947 0.061386
#
#
# Mechanical properties :
#
#
# Convention : Reuss Voigt Hill
#
# Bulk Modulus (GPa) = 33.27235 62.20574 47.73904
# Shear Modulus (GPa) = 22.00111 34.62957 28.31534
#
# Velocity S-wave (km/s) = 3.07718 3.86059 3.49093
# Velocity P-wave (km/s) = 5.19090 6.82970 6.06590
#
# Compressibility (1/GPa) = 0.03005499
#
# Stress axis : x y z
#
# Youngs Moduli (GPa) = 28.04576 51.39083 92.13073
#
# Poissons Ratio (x) = 0.40307 0.35716
# Poissons Ratio (y) = 0.21997 0.57461
# Poissons Ratio (z) = 0.10873 0.32052
#
# Static dielectric constant tensor:
#      x y z
#    x 1.957570 0.026320 -0.024710 
#    y 0.026320 1.958820 0.027930 
#    z -0.024710 0.027930 1.869790 
# 
# From -- ./inp_files/278672.got.cif
#   From: 2010.05.17/outbox.cif.g08.bks.cpg/sg2_140_cif.got.tgz:278672.got - 2010.06.03 11:33:40.
