data_PCOD9017729
_publ_section_title
;
Structure prediction by ZEFSAII (Michael W. Deem and Ramdas Pophale) SiO2 
 PCOD9017729
Probable space group: P -1
;
_chemical_formula_sum "Si O2"
_cell_formula_units_Z 16
_cell_length_a 15.124494
_cell_length_b 20.348320
_cell_length_c 7.613395
_cell_angle_alpha 113.542301
_cell_angle_beta 79.555677
_cell_angle_gamma 156.915360
_cell_volume 720.479630
_symmetry_space_group_name_H-M "P -1"
_symmetry_group_IT_number 2
_symmetry_cell_setting 'triclinic'
loop_
_space_group_symop_operation_xyz
x,y,z
-x,-y,-z
loop_
_atom_site_type_symbol
_atom_site_label
_atom_site_fract_x
_atom_site_fract_y
_atom_site_fract_z
Si Si1 0.420426 0.407052 0.698288
Si Si2 0.163801 0.872304 0.621977
Si Si3 0.100013 0.921309 0.369514
Si Si4 0.701954 0.753240 0.803819
Si Si5 0.676555 0.359991 0.546798
Si Si6 0.293727 0.577214 0.777634
Si Si7 0.726415 0.320322 0.827608
Si Si8 0.076818 0.308390 0.110564
O O1 0.568640 0.594011 0.809620
O O2 0.322444 0.301669 0.436214
O O3 0.638715 0.516480 0.807286
O O4 0.157675 0.223159 0.709318
O O5 0.109862 0.897817 0.537417
O O6 0.979914 0.670213 0.406914
O O7 0.073698 0.826383 0.800416
O O8 0.470875 0.083621 0.722684
O O9 0.379335 0.164761 0.483418
O O10 0.072338 0.832556 0.155116
O O11 0.519057 0.686333 0.798723
O O12 0.000000 0.000000 0.000000
O O13 0.693788 0.362438 0.334293
O O14 0.723923 0.329781 0.629313
O O15 0.876617 0.572382 0.759065
O O16 0.321166 0.639409 0.014950
O O17 0.000000 0.500000 0.000000
#
# Coordination Sequence:
#
# PCOD9017729 Si02
#       8
#     2   2   2   2   2   2   2   2
#     4  11  22  38  56  95 133 168 227 252 294 371
#     4  10  21  43  66  86 129 165 202 263 318 382
#     4  11  22  36  60  90 129 172 208 261 301 355
#     4  11  24  36  64  94 132 180 217 251 308 368
#     4  10  24  41  64  94 126 161 217 257 316 387
#     4  11  22  45  66  91 130 173 207 260 321 366
#     4  11  26  44  70  98 120 158 212 268 336 392
#     4  11  22  40  61  92 129 172 213 253 307 370
#
# _framework density 22.207429999999999
#
# number of rings (size 3 to 8) (size 9 to 14) (size 15 to 20)
#    0.000    1.250    3.750    2.625    7.000    1.500 
#    0.000    2.500    0.000    0.000    0.000    0.000 
#    0.000    0.000    0.000    0.000    0.000    0.000 
#
# Total GULP energy -89493.088340 kJ/mol
# GULP energy per Si atom -5593.318021 kJ/mol
# Density = 2.215688 g / cm^3
# Si number density = 22.207430 Si / 1000 Ang^3
#
#
#
# Elastic Constant Matrix: (Units=GPa)
#
#
# Indices 1 2 3 4 5 6 
#
# 1 6.6220 18.7120 14.9147 11.5603 12.3306 -15.3243
# 2 18.7120 63.4723 26.8020 24.1156 14.7101 7.1799
# 3 14.9147 26.8020 91.9413 21.7289 6.6948 11.8134
# 4 11.5603 24.1156 21.7289 44.3876 5.8865 8.3239
# 5 12.3306 14.7101 6.6948 5.8865 25.8518 2.3846
# 6 -15.3243 7.1799 11.8134 8.3239 2.3846 -4.1871
#
#
#
# Elastic Compliance Matrix: (Units=1/GPa)
#
#
# Indices 1 2 3 4 5 6 
#
# 1 0.019281 -0.001717 0.003668 0.005253 -0.005228 -0.055694
# 2 -0.001717 0.023400 -0.004418 -0.010298 -0.009738 0.007926
# 3 0.003668 -0.004418 0.012466 -0.005047 -0.001611 0.003219
# 4 0.005253 -0.010298 -0.005047 0.028673 -0.002289 0.004571
# 5 -0.005228 -0.009738 -0.001611 -0.002289 0.045861 0.019456
# 6 -0.055694 0.007926 0.003219 0.004571 0.019456 0.007848
#
#
# Mechanical properties :
#
#
# Convention : Reuss Voigt Hill
#
# Bulk Modulus (GPa) = 19.91574 31.43255 25.67415
# Shear Modulus (GPa) = 31.40711 19.98424 25.69567
#
# Velocity S-wave (km/s) = 3.76475 3.00307 3.40527
# Velocity P-wave (km/s) = 5.28065 5.11951 5.20070
#
# Compressibility (1/GPa) = 0.05021154
#
# Stress axis : x y z
#
# Youngs Moduli (GPa) = 51.86508 42.73588 80.21776
#
# Poissons Ratio (x) = 0.07339 -0.29425
# Poissons Ratio (y) = 0.08906 0.35443
# Poissons Ratio (z) = -0.19025 0.18882
#
# Static dielectric constant tensor:
#      x y z
#    x 1.811950 -0.015250 0.006020 
#    y -0.015250 1.832100 0.001550 
#    z 0.006020 0.001550 1.792770 
# 
# From -- ./inp_files/299635.got.cif
#   From: 2010.05.17/outbox.cif.g08.bks.cpg/sg2_150_cif.got.tgz:299635.got - 2010.06.03 11:33:40.
