data_PCOD9017643
_publ_section_title
;
Structure prediction by ZEFSAII (Michael W. Deem and Ramdas Pophale) SiO2 
 PCOD9017643
Probable space group: P -1
;
_chemical_formula_sum "Si O2"
_cell_formula_units_Z 16
_cell_length_a 17.144435
_cell_length_b 8.406699
_cell_length_c 17.340669
_cell_angle_alpha 44.265525
_cell_angle_beta 31.179062
_cell_angle_gamma 34.176372
_cell_volume 726.548797
_symmetry_space_group_name_H-M "P -1"
_symmetry_group_IT_number 2
_symmetry_cell_setting 'triclinic'
loop_
_space_group_symop_operation_xyz
x,y,z
-x,-y,-z
loop_
_atom_site_type_symbol
_atom_site_label
_atom_site_fract_x
_atom_site_fract_y
_atom_site_fract_z
Si Si1 0.655834 0.235083 0.410168
Si Si2 0.610912 0.752486 0.663494
Si Si3 0.940451 0.452986 0.985328
Si Si4 0.770242 0.187876 0.031666
Si Si5 0.594137 0.561021 0.198376
Si Si6 0.789567 0.238307 0.568953
Si Si7 0.053365 0.805440 0.711942
Si Si8 0.711014 0.398927 0.843615
O O1 0.500000 0.500000 0.500000
O O2 0.617373 0.333509 0.319446
O O3 0.843246 0.182258 0.304810
O O4 0.638498 0.985037 0.531748
O O5 0.396632 0.853617 0.817886
O O6 0.707079 0.507315 0.601622
O O7 0.701165 0.623429 0.716522
O O8 0.023671 0.562629 0.819375
O O9 0.716018 0.649105 0.103075
O O10 0.040390 0.121222 0.006348
O O11 0.000000 0.500000 0.000000
O O12 0.705872 0.400613 0.082508
O O13 0.784075 0.328295 0.894141
O O14 0.378924 0.794935 0.277778
O O15 0.819975 0.257187 0.446623
O O16 0.000000 0.000000 0.500000
O O17 0.847418 0.103140 0.784943
O O18 0.500000 0.500000 0.000000
#
# Coordination Sequence:
#
# PCOD9017643 Si02
#       8
#     2   2   2   2   2   2   2   2
#     4  12  24  42  67 106 137 174 231 290 343 413
#     4  10  24  41  72  98 135 187 230 282 353 401
#     4  12  23  41  68 100 134 185 228 281 351 397
#     4  10  22  41  67  98 140 178 229 288 339 413
#     4  11  25  42  70 103 138 176 233 286 343 411
#     4  11  24  47  69 101 144 181 227 288 342 414
#     4  12  24  42  68  98 141 181 230 289 338 410
#     4  10  21  43  65  93 135 184 231 275 336 410
#
# _framework density 22.021919
#
# number of rings (size 3 to 8) (size 9 to 14) (size 15 to 20)
#    0.000    1.000    5.000    1.125    1.750    1.500 
#    0.000    0.625    0.000    0.000    0.000    0.000 
#    0.000    0.000    0.000    0.000    0.000    0.000 
#
# Total GULP energy -89272.567901 kJ/mol
# GULP energy per Si atom -5579.535494 kJ/mol
# Density = 2.197180 g / cm^3
# Si number density = 22.021919 Si / 1000 Ang^3
#
#
#
# Elastic Constant Matrix: (Units=GPa)
#
#
# Indices 1 2 3 4 5 6 
#
# 1 88.6851 21.4116 35.2690 7.7388 -0.3583 -9.5065
# 2 21.4116 51.4336 16.5613 30.5402 -6.4898 -5.7782
# 3 35.2690 16.5613 72.4992 26.1257 2.6354 2.2497
# 4 7.7388 30.5402 26.1257 37.9010 -2.9570 -1.8193
# 5 -0.3583 -6.4898 2.6354 -2.9570 56.6289 12.8125
# 6 -9.5065 -5.7782 2.2497 -1.8193 12.8125 26.4742
#
#
#
# Elastic Compliance Matrix: (Units=1/GPa)
#
#
# Indices 1 2 3 4 5 6 
#
# 1 0.017914 -0.011155 -0.011057 0.013154 -0.001443 0.006540
# 2 -0.011155 0.045752 0.009622 -0.040982 0.002307 0.001230
# 3 -0.011057 0.009622 0.025589 -0.023412 -0.000114 -0.005599
# 4 0.013154 -0.040982 -0.023412 0.072972 -0.000385 0.002969
# 5 -0.001443 0.002307 -0.000114 -0.000385 0.020108 -0.009763
# 6 0.006540 0.001230 -0.005599 0.002969 -0.009763 0.045794
#
#
# Mechanical properties :
#
#
# Convention : Reuss Voigt Hill
#
# Bulk Modulus (GPa) = 15.60721 39.90020 27.75370
# Shear Modulus (GPa) = 18.20386 33.49256 25.84821
#
# Velocity S-wave (km/s) = 2.87823 3.90407 3.42972
# Velocity P-wave (km/s) = 4.26006 6.20323 5.32110
#
# Compressibility (1/GPa) = 0.06407295
#
# Stress axis : x y z
#
# Youngs Moduli (GPa) = 55.82326 21.85718 39.07964
#
# Poissons Ratio (x) = 0.24382 0.43210
# Poissons Ratio (y) = 0.62272 -0.37601
# Poissons Ratio (z) = 0.61724 -0.21030
#
# Static dielectric constant tensor:
#      x y z
#    x 1.900820 -0.069760 -0.047020 
#    y -0.069760 1.819050 -0.012330 
#    z -0.047020 -0.012330 1.852930 
# 
# From -- ./inp_files/575502.got.cif
#   From: 2010.05.17/outbox.cif.g08.bks.cpg/sg2_288_cif.got.tgz:575502.got - 2010.06.03 11:33:40.
