data_PCOD9017615
_publ_section_title
;
Structure prediction by ZEFSAII (Michael W. Deem and Ramdas Pophale) SiO2 
 PCOD9017615
Probable space group: P -1
;
_chemical_formula_sum "Si O2"
_cell_formula_units_Z 14
_cell_length_a 13.456855
_cell_length_b 25.569722
_cell_length_c 14.419938
_cell_angle_alpha 16.275612
_cell_angle_beta 150.117533
_cell_angle_gamma 154.781370
_cell_volume 592.442976
_symmetry_space_group_name_H-M "P -1"
_symmetry_group_IT_number 2
_symmetry_cell_setting 'triclinic'
loop_
_space_group_symop_operation_xyz
x,y,z
-x,-y,-z
loop_
_atom_site_type_symbol
_atom_site_label
_atom_site_fract_x
_atom_site_fract_y
_atom_site_fract_z
Si Si1 0.832351 0.707327 0.762938
Si Si2 0.320061 0.475798 0.495551
Si Si3 0.059736 0.755493 0.266227
Si Si4 0.485513 0.235108 0.314339
Si Si5 0.836444 0.777841 0.370873
Si Si6 0.971848 0.816540 0.889001
Si Si7 0.805654 0.215035 0.237778
O O1 0.949620 0.711965 0.949352
O O2 0.999282 0.732087 0.772454
O O3 0.594090 0.479824 0.949389
O O4 0.826452 0.928628 0.382373
O O5 0.594127 0.595319 0.533837
O O6 0.224056 0.258761 0.724707
O O7 0.151506 0.416735 0.546792
O O8 0.299999 0.643159 0.124198
O O9 0.302122 0.770087 0.457449
O O10 0.000472 0.715966 0.177104
O O11 0.097190 0.990545 0.926588
O O12 0.272467 0.189279 0.286036
O O13 0.381638 0.042469 0.482901
O O14 0.051159 0.741552 0.626025
#
# Coordination Sequence:
#
# PCOD9017615 Si02
#       7
#     2   2   2   2   2   2   2
#     4  10  21  43  65  89 129 166 208 255 303 372
#     4  11  25  42  66  92 125 163 210 266 305 367
#     4  12  23  40  65  95 127 161 206 260 314 367
#     4  11  22  40  64  92 132 159 208 256 307 372
#     4  11  24  44  64  91 124 166 215 253 313 369
#     4  10  24  42  64  93 126 167 211 250 309 371
#     4  11  22  43  64  92 127 166 207 256 310 372
#
# _framework density 23.630966000000001
#
# number of rings (size 3 to 8) (size 9 to 14) (size 15 to 20)
#    0.000    1.143    5.714    1.286    2.000    0.571 
#    0.000    7.143    0.000    0.000    0.000    0.000 
#    0.000    0.000    0.000    0.000    0.000    0.000 
#
# Total GULP energy -78258.016188 kJ/mol
# GULP energy per Si atom -5589.858299 kJ/mol
# Density = 2.357718 g / cm^3
# Si number density = 23.630966 Si / 1000 Ang^3
#
#
#
# Elastic Constant Matrix: (Units=GPa)
#
#
# Indices 1 2 3 4 5 6 
#
# 1 50.3908 19.5284 9.1683 4.5801 -15.9051 -6.6798
# 2 19.5284 108.6161 44.3610 9.4785 -15.0397 10.9850
# 3 9.1683 44.3610 83.7477 -19.0677 -4.5827 2.2980
# 4 4.5801 9.4785 -19.0677 49.6871 -1.3425 1.4870
# 5 -15.9051 -15.0397 -4.5827 -1.3425 32.3029 -0.0114
# 6 -6.6798 10.9850 2.2980 1.4870 -0.0114 28.5709
#
#
#
# Elastic Compliance Matrix: (Units=1/GPa)
#
#
# Indices 1 2 3 4 5 6 
#
# 1 0.025997 -0.003205 -0.001250 -0.002192 0.011042 0.007529
# 2 -0.003205 0.014758 -0.008346 -0.005454 0.003880 -0.005467
# 3 -0.001250 -0.008346 0.018364 0.008684 -0.001534 0.000987
# 4 -0.002192 -0.005454 0.008684 0.024676 -0.001361 -0.000399
# 5 0.011042 0.003880 -0.001534 -0.001361 0.037927 0.001299
# 6 0.007529 -0.005467 0.000987 -0.000399 0.001299 0.038805
#
#
# Mechanical properties :
#
#
# Convention : Reuss Voigt Hill
#
# Bulk Modulus (GPa) = 29.83462 43.20779 36.52120
# Shear Modulus (GPa) = 25.34220 33.42530 29.38375
#
# Velocity S-wave (km/s) = 3.27833 3.76502 3.53007
# Velocity P-wave (km/s) = 5.19447 6.10120 5.66600
#
# Compressibility (1/GPa) = 0.03351811
#
# Stress axis : x y z
#
# Youngs Moduli (GPa) = 38.46613 67.76157 54.45386
#
# Poissons Ratio (x) = 0.21717 0.06805
# Poissons Ratio (y) = 0.12328 0.45445
# Poissons Ratio (z) = 0.04807 0.56552
#
# Static dielectric constant tensor:
#      x y z
#    x 1.865570 -0.025990 0.018220 
#    y -0.025990 1.876980 0.005300 
#    z 0.018220 0.005300 1.992750 
# 
# From -- ./inp_files/314894.got.cif
#   From: 2010.05.17/outbox.cif.g08.bks.cpg/sg2_158_cif.got.tgz:314894.got - 2010.06.03 11:33:40.
