data_PCOD9017033
_publ_section_title
;
Structure prediction by ZEFSAII (Michael W. Deem and Ramdas Pophale) SiO2 
 PCOD9017033
Probable space group: P -1
;
_chemical_formula_sum "Si O2"
_cell_formula_units_Z 15
_cell_length_a 10.917367
_cell_length_b 9.678138
_cell_length_c 11.604544
_cell_angle_alpha 128.041028
_cell_angle_beta 128.462243
_cell_angle_gamma 88.905017
_cell_volume 610.200371
_symmetry_space_group_name_H-M "P -1"
_symmetry_group_IT_number 2
_symmetry_cell_setting 'triclinic'
loop_
_space_group_symop_operation_xyz
x,y,z
-x,-y,-z
loop_
_atom_site_type_symbol
_atom_site_label
_atom_site_fract_x
_atom_site_fract_y
_atom_site_fract_z
Si Si1 0.145467 0.518242 0.995839
Si Si2 0.107224 0.893387 0.483695
Si Si3 0.500000 0.000000 0.500000
Si Si4 0.191968 0.072270 0.373061
Si Si5 0.182046 0.486881 0.590912
Si Si6 0.484766 0.085776 0.912627
Si Si7 0.423530 0.694291 0.606959
Si Si8 0.773203 0.685298 0.881063
O O1 0.317498 0.769460 0.218887
O O2 0.227641 0.388418 0.027758
O O3 0.000000 0.500000 0.000000
O O4 0.020654 0.368126 0.736296
O O5 0.196202 0.976959 0.451043
O O6 0.267563 0.004589 0.732940
O O7 0.000000 0.000000 0.500000
O O8 0.613290 0.881654 0.540796
O O9 0.167016 0.265385 0.477137
O O10 0.996120 0.886781 0.095615
O O11 0.276893 0.580526 0.569473
O O12 0.000000 0.500000 0.500000
O O13 0.346368 0.662905 0.866803
O O14 0.481164 0.931165 0.735569
O O15 0.500000 0.000000 0.000000
O O16 0.621213 0.734232 0.785186
O O17 0.307775 0.526457 0.351698
#
# Coordination Sequence:
#
# PCOD9017033 Si02
#       8
#     2   2   1   2   2   2   2   2
#     4  11  22  45  69 101 145 185 241 292 366 420
#     4  11  26  44  73 103 139 192 245 296 370 440
#     4  12  24  44  72 104 144 188 230 308 356 436
#     4  11  26  44  69 103 144 182 240 305 368 417
#     4  11  25  45  65 102 147 184 235 301 359 436
#     4  10  24  43  68  94 134 190 230 281 356 422
#     4  10  22  40  71  96 129 187 243 282 364 421
#     4  10  21  42  70  97 132 185 237 299 351 428
#
# _framework density 24.582090000000001
#
# number of rings (size 3 to 8) (size 9 to 14) (size 15 to 20)
#    0.000    1.333    2.667    2.400   13.067    1.067 
#    2.400    0.000    0.000    0.000    0.000    0.000 
#    0.000    0.000    0.000    0.000    0.000    0.000 
#
# Total GULP energy -83541.483663 kJ/mol
# GULP energy per Si atom -5569.432244 kJ/mol
# Density = 2.452614 g / cm^3
# Si number density = 24.582090 Si / 1000 Ang^3
#
#
#
# Elastic Constant Matrix: (Units=GPa)
#
#
# Indices 1 2 3 4 5 6 
#
# 1 62.7613 19.6511 45.6861 -0.8824 6.3318 -16.8601
# 2 19.6511 116.5753 85.6170 -0.7856 9.1546 -40.2902
# 3 45.6861 85.6170 227.7901 9.8706 24.5312 -37.6571
# 4 -0.8824 -0.7856 9.8706 63.6922 -12.7774 1.6673
# 5 6.3318 9.1546 24.5312 -12.7774 23.2836 -0.4868
# 6 -16.8601 -40.2902 -37.6571 1.6673 -0.4868 50.6193
#
#
#
# Elastic Compliance Matrix: (Units=1/GPa)
#
#
# Indices 1 2 3 4 5 6 
#
# 1 0.019509 0.000916 -0.003268 0.000267 -0.001977 0.004769
# 2 0.000916 0.014582 -0.004071 0.000325 -0.001330 0.008860
# 3 -0.003268 -0.004071 0.007693 -0.002748 -0.007094 0.001417
# 4 0.000267 0.000325 -0.002748 0.018792 0.012961 -0.002191
# 5 -0.001977 -0.001330 -0.007094 0.012961 0.058453 -0.006860
# 6 0.004769 0.008860 0.001417 -0.002191 -0.006860 0.029456
#
#
# Mechanical properties :
#
#
# Convention : Reuss Voigt Hill
#
# Bulk Modulus (GPa) = 34.55387 78.78168 56.66777
# Shear Modulus (GPa) = 29.24401 44.59718 36.92060
#
# Velocity S-wave (km/s) = 3.45287 4.26398 3.87968
# Velocity P-wave (km/s) = 5.47571 7.50733 6.57052
#
# Compressibility (1/GPa) = 0.02894032
#
# Stress axis : x y z
#
# Youngs Moduli (GPa) = 51.25749 68.57687 129.99518
#
# Poissons Ratio (x) = -0.06284 0.42476
# Poissons Ratio (y) = -0.04697 0.52918
# Poissons Ratio (z) = 0.16748 0.27916
#
# Static dielectric constant tensor:
#      x y z
#    x 2.027060 -0.064510 -0.010450 
#    y -0.064510 1.993100 -0.017610 
#    z -0.010450 -0.017610 2.024700 
# 
# From -- ./inp_files/519267.got.cif
#   From: 2010.05.17/outbox.cif.g08.bks.cpg/sg2_260_cif.got.tgz:519267.got - 2010.06.03 11:33:40.
