data_PCOD9017507
_publ_section_title
;
Structure prediction by ZEFSAII (Michael W. Deem and Ramdas Pophale) SiO2 
 PCOD9017507
Probable space group: P -1
;
_chemical_formula_sum "Si O2"
_cell_formula_units_Z 16
_cell_length_a 7.138992
_cell_length_b 13.861392
_cell_length_c 16.688166
_cell_angle_alpha 28.316112
_cell_angle_beta 116.670058
_cell_angle_gamma 103.352383
_cell_volume 645.319355
_symmetry_space_group_name_H-M "P -1"
_symmetry_group_IT_number 2
_symmetry_cell_setting 'triclinic'
loop_
_space_group_symop_operation_xyz
x,y,z
-x,-y,-z
loop_
_atom_site_type_symbol
_atom_site_label
_atom_site_fract_x
_atom_site_fract_y
_atom_site_fract_z
Si Si1 0.617576 0.666287 0.803507
Si Si2 0.198014 0.061255 0.029450
Si Si3 0.998941 0.823065 0.753840
Si Si4 0.645417 0.032371 0.324391
Si Si5 0.507889 0.630601 0.637564
Si Si6 0.323638 0.105438 0.738311
Si Si7 0.100061 0.513531 0.596770
Si Si8 0.077534 0.836143 0.944021
O O1 0.492042 0.779084 0.777367
O O2 0.463564 0.656715 0.706085
O O3 0.766297 0.802614 0.699420
O O4 0.801149 0.421336 0.036981
O O5 0.204452 0.274770 0.830846
O O6 0.119785 0.117859 0.064282
O O7 0.447711 0.871779 0.207660
O O8 0.000000 0.000000 0.000000
O O9 0.092745 0.989013 0.607892
O O10 0.977347 0.869853 0.810578
O O11 0.578617 0.826390 0.479008
O O12 0.602552 0.068328 0.194055
O O13 0.729296 0.406248 0.833839
O O14 0.292921 0.614242 0.563124
O O15 0.121395 0.330363 0.510323
O O16 0.207623 0.002274 0.856457
O O17 0.000000 0.500000 0.500000
#
# Coordination Sequence:
#
# PCOD9017507 Si02
#       8
#     2   2   2   2   2   2   2   2
#     4  10  21  43  64 100 147 184 236 292 349 425
#     4  12  27  46  78 106 135 189 241 301 368 422
#     4   9  21  40  68 101 139 191 231 287 359 420
#     4  11  23  40  70 102 142 186 234 289 351 427
#     4  11  25  45  70 104 146 191 239 298 355 424
#     4  11  26  47  74 106 141 189 234 294 362 426
#     4  12  29  50  75 104 147 189 241 303 356 428
#     4  10  22  47  70 102 146 181 236 294 355 431
#
# _framework density 24.793925999999999
#
# number of rings (size 3 to 8) (size 9 to 14) (size 15 to 20)
#    0.000    1.250    1.250    3.000    8.750    2.000 
#    9.000    0.000    0.000    0.000    0.000    0.000 
#    0.000    0.000    0.000    0.000    0.000    0.000 
#
# Total GULP energy -89612.466938 kJ/mol
# GULP energy per Si atom -5600.779184 kJ/mol
# Density = 2.473749 g / cm^3
# Si number density = 24.793926 Si / 1000 Ang^3
#
#
#
# Elastic Constant Matrix: (Units=GPa)
#
#
# Indices 1 2 3 4 5 6 
#
# 1 129.4367 53.4376 26.7650 10.5963 -0.3684 17.6012
# 2 53.4376 114.0652 18.7874 9.8202 0.4595 9.5408
# 3 26.7650 18.7874 61.7656 -2.9201 2.1167 5.4553
# 4 10.5963 9.8202 -2.9201 35.1905 4.7165 4.6963
# 5 -0.3684 0.4595 2.1167 4.7165 35.0410 1.6390
# 6 17.6012 9.5408 5.4553 4.6963 1.6390 50.0081
#
#
#
# Elastic Compliance Matrix: (Units=1/GPa)
#
#
# Indices 1 2 3 4 5 6 
#
# 1 0.010570 -0.004033 -0.003265 -0.002107 0.000758 -0.002422
# 2 -0.004033 0.011140 -0.001713 -0.002019 0.000202 -0.000336
# 3 -0.003265 -0.001713 0.018405 0.003299 -0.001531 -0.000791
# 4 -0.002107 -0.002019 0.003299 0.030720 -0.004237 -0.001979
# 5 0.000758 0.000202 -0.001531 -0.004237 0.029239 -0.000699
# 6 -0.002422 -0.000336 -0.000791 -0.001979 -0.000699 0.021208
#
#
# Mechanical properties :
#
#
# Convention : Reuss Voigt Hill
#
# Bulk Modulus (GPa) = 45.26784 55.91640 50.59212
# Shear Modulus (GPa) = 34.09041 37.79975 35.94508
#
# Velocity S-wave (km/s) = 3.71205 3.90879 3.81169
# Velocity P-wave (km/s) = 6.05555 6.55538 6.31042
#
# Compressibility (1/GPa) = 0.02209074
#
# Stress axis : x y z
#
# Youngs Moduli (GPa) = 94.60754 89.76922 54.33405
#
# Poissons Ratio (x) = 0.36206 0.17741
# Poissons Ratio (y) = 0.38157 0.09310
# Poissons Ratio (z) = 0.30891 0.15381
#
# Static dielectric constant tensor:
#      x y z
#    x 1.942310 0.014340 0.004410 
#    y 0.014340 2.028320 0.006980 
#    z 0.004410 0.006980 1.978570 
# 
# From -- ./inp_files/550046.got.cif
#   From: 2010.05.17/outbox.cif.g08.bks.cpg/sg2_276_cif.got.tgz:550046.got - 2010.06.03 11:33:40.
