data_PCOD9017084
_publ_section_title
;
Structure prediction by ZEFSAII (Michael W. Deem and Ramdas Pophale) SiO2 
 PCOD9017084
Probable space group: P -1
;
_chemical_formula_sum "Si O2"
_cell_formula_units_Z 16
_cell_length_a 26.731897
_cell_length_b 5.150917
_cell_length_c 25.220489
_cell_angle_alpha 66.174187
_cell_angle_beta 169.188024
_cell_angle_gamma 112.260897
_cell_volume 592.642851
_symmetry_space_group_name_H-M "P -1"
_symmetry_group_IT_number 2
_symmetry_cell_setting 'triclinic'
loop_
_space_group_symop_operation_xyz
x,y,z
-x,-y,-z
loop_
_atom_site_type_symbol
_atom_site_label
_atom_site_fract_x
_atom_site_fract_y
_atom_site_fract_z
Si Si1 0.744853 0.546628 0.306959
Si Si2 0.047973 0.557172 0.353272
Si Si3 0.683917 0.247710 0.683861
Si Si4 0.432965 0.770048 0.127612
Si Si5 0.754833 0.797620 0.193089
Si Si6 0.175732 0.013877 0.045555
Si Si7 0.556668 0.504800 0.426370
Si Si8 0.769613 0.949583 0.543589
O O1 0.740473 0.813615 0.240495
O O2 0.879900 0.559216 0.503392
O O3 0.946726 0.310389 0.505930
O O4 0.454432 0.434845 0.018994
O O5 0.291134 0.418754 0.582104
O O6 0.783294 0.440288 0.066320
O O7 0.051858 0.897501 0.326047
O O8 0.500000 0.500000 0.500000
O O9 0.884341 0.116856 0.948426
O O10 0.752415 0.372393 0.688135
O O11 0.500000 0.000000 0.500000
O O12 0.494287 0.989080 0.219616
O O13 0.345980 0.935012 0.969593
O O14 0.360451 0.770587 0.224572
O O15 0.359205 0.272659 0.222333
O O16 0.900456 0.075554 0.721807
O O17 0.732814 0.635677 0.554014
#
# Coordination Sequence:
#
# PCOD9017084 Si02
#       8
#     2   2   2   2   2   2   2   2
#     4  10  21  42  71 101 137 181 233 297 367 434
#     4  12  28  45  71 102 139 187 243 298 363 437
#     4   8  16  37  64  97 132 178 231 296 363 427
#     4  12  28  45  71 102 139 187 243 298 363 437
#     4  10  21  42  71 101 137 181 233 297 367 434
#     4  10  23  42  69  99 140 184 239 300 364 434
#     4  10  23  42  69  99 140 184 239 300 364 434
#     4  12  28  41  67  94 142 188 240 290 368 430
#
# _framework density 26.997713000000001
#
# number of rings (size 3 to 8) (size 9 to 14) (size 15 to 20)
#    0.000    1.500    1.250    2.250    7.000    1.500 
#    0.000    0.000    0.000    9.000    0.000    0.000 
#    0.000    0.000    0.000    0.000    0.000    0.000 
#
# Total GULP energy -89476.063056 kJ/mol
# GULP energy per Si atom -5592.253941 kJ/mol
# Density = 2.693627 g / cm^3
# Si number density = 26.997713 Si / 1000 Ang^3
#
#
#
# Elastic Constant Matrix: (Units=GPa)
#
#
# Indices 1 2 3 4 5 6 
#
# 1 117.0011 66.9459 78.3513 -17.6759 -33.6134 25.7439
# 2 66.9459 166.4729 63.3336 30.3184 -5.5013 9.6637
# 3 78.3513 63.3336 146.1639 35.1570 -14.8566 11.9716
# 4 -17.6759 30.3184 35.1570 59.0249 2.3793 -5.1151
# 5 -33.6134 -5.5013 -14.8566 2.3793 66.0985 -21.3453
# 6 25.7439 9.6637 11.9716 -5.1151 -21.3453 68.9027
#
#
#
# Elastic Compliance Matrix: (Units=1/GPa)
#
#
# Indices 1 2 3 4 5 6 
#
# 1 0.037121 -0.011884 -0.020211 0.028537 0.011329 -0.003063
# 2 -0.011884 0.011278 0.003847 -0.011476 -0.003772 0.000169
# 3 -0.020211 0.003847 0.020283 -0.019875 -0.004482 0.000624
# 4 0.028537 -0.011476 -0.019875 0.042910 0.007518 -0.000085
# 5 0.011329 -0.003772 -0.004482 0.007518 0.020594 0.004013
# 6 -0.003063 0.000169 0.000624 -0.000085 0.004013 0.016762
#
#
# Mechanical properties :
#
#
# Convention : Reuss Voigt Hill
#
# Bulk Modulus (GPa) = 82.06525 94.09995 88.08260
# Shear Modulus (GPa) = 23.86540 53.53902 38.70221
#
# Velocity S-wave (km/s) = 2.97640 4.45803 3.79031
# Velocity P-wave (km/s) = 6.50193 7.83767 7.20084
#
# Compressibility (1/GPa) = 0.01218543
#
# Stress axis : x y z
#
# Youngs Moduli (GPa) = 26.93865 88.66662 49.30241
#
# Poissons Ratio (x) = 1.05371 0.99646
# Poissons Ratio (y) = 0.32014 -0.18965
# Poissons Ratio (z) = 0.54446 -0.34106
#
# Static dielectric constant tensor:
#      x y z
#    x 2.177270 -0.070810 -0.000680 
#    y -0.070810 2.095570 -0.128980 
#    z -0.000680 -0.128980 2.025290 
# 
# From -- ./inp_files/621439.got.cif
#   From: 2010.05.17/outbox.cif.g08.bks.cpg/sg2_311_cif.got.tgz:621439.got - 2010.06.03 11:33:40.
