data_PCOD9017597
_publ_section_title
;
Structure prediction by ZEFSAII (Michael W. Deem and Ramdas Pophale) SiO2 
 PCOD9017597
Probable space group: P -1
;
_chemical_formula_sum "Si O2"
_cell_formula_units_Z 16
_cell_length_a 9.356599
_cell_length_b 9.336044
_cell_length_c 12.559226
_cell_angle_alpha 80.170469
_cell_angle_beta 80.604732
_cell_angle_gamma 45.599845
_cell_volume 770.838475
_symmetry_space_group_name_H-M "P -1"
_symmetry_group_IT_number 2
_symmetry_cell_setting 'triclinic'
loop_
_space_group_symop_operation_xyz
x,y,z
-x,-y,-z
loop_
_atom_site_type_symbol
_atom_site_label
_atom_site_fract_x
_atom_site_fract_y
_atom_site_fract_z
Si Si1 0.461850 0.072221 0.117777
Si Si2 0.495658 0.624636 0.898140
Si Si3 0.791511 0.949095 0.697353
Si Si4 0.748534 0.890504 0.310185
Si Si5 0.207086 0.551745 0.302099
Si Si6 0.559936 0.395136 0.619162
Si Si7 0.209568 0.801201 0.731975
Si Si8 0.794796 0.718640 0.539246
O O1 0.445103 0.257074 0.085531
O O2 0.282895 0.104984 0.190919
O O3 0.626745 0.946109 0.209916
O O4 0.500000 0.000000 0.000000
O O5 0.664840 0.481192 0.807303
O O6 0.277518 0.767726 0.850996
O O7 0.500000 0.500000 0.000000
O O8 0.832975 0.824538 0.602224
O O9 0.991187 0.893572 0.719157
O O10 0.621254 0.186341 0.657556
O O11 0.685017 0.844033 0.428638
O O12 0.978290 0.687864 0.284542
O O13 0.757323 0.053798 0.324130
O O14 0.238698 0.654419 0.371435
O O15 0.300849 0.340274 0.367652
O O16 0.500000 0.500000 0.500000
O O17 0.371978 0.578500 0.689772
O O18 0.000000 0.500000 0.500000
#
# Coordination Sequence:
#
# PCOD9017597 Si02
#       8
#     2   2   2   2   2   2   2   2
#     4  11  27  45  67 101 137 181 241 293 348 409
#     4  10  23  47  69  94 137 181 235 289 345 419
#     4  12  25  46  70 104 145 178 235 294 342 416
#     4  10  22  44  70  97 141 186 227 282 353 417
#     4  10  21  43  65 104 136 181 228 278 357 417
#     4  11  25  38  68 103 142 180 228 276 342 415
#     4  10  24  43  68 102 135 183 234 280 350 416
#     4  10  23  40  70 100 141 179 224 279 348 420
#
# _framework density 20.756616999999999
#
# number of rings (size 3 to 8) (size 9 to 14) (size 15 to 20)
#    0.000    1.500    2.500    0.750    8.750    3.500 
#    0.000    3.750    0.000    0.000    0.000    0.000 
#    0.000    0.000    0.000    0.000    0.000    0.000 
#
# Total GULP energy -89203.330318 kJ/mol
# GULP energy per Si atom -5575.208145 kJ/mol
# Density = 2.070937 g / cm^3
# Si number density = 20.756617 Si / 1000 Ang^3
#
#
#
# Elastic Constant Matrix: (Units=GPa)
#
#
# Indices 1 2 3 4 5 6 
#
# 1 114.9814 41.9940 43.3792 -2.7165 -4.3334 -5.6435
# 2 41.9940 108.8303 48.4590 -10.8366 -4.3821 12.9264
# 3 43.3792 48.4590 116.2787 -6.4952 -22.1672 3.1579
# 4 -2.7165 -10.8366 -6.4952 33.7785 17.6646 -5.5626
# 5 -4.3334 -4.3821 -22.1672 17.6646 25.5275 0.1582
# 6 -5.6435 12.9264 3.1579 -5.5626 0.1582 33.9368
#
#
#
# Elastic Compliance Matrix: (Units=1/GPa)
#
#
# Indices 1 2 3 4 5 6 
#
# 1 0.011260 -0.003303 -0.003287 0.000953 -0.002192 0.003603
# 2 -0.003303 0.013670 -0.005353 0.006076 -0.007041 -0.004229
# 3 -0.003287 -0.005353 0.014920 -0.008372 0.017281 -0.001349
# 4 0.000953 0.006076 -0.008372 0.054037 -0.043505 0.007683
# 5 -0.002192 -0.007041 0.017281 -0.043505 0.082746 -0.006807
# 6 0.003603 -0.004229 -0.001349 0.007683 -0.006807 0.033093
#
#
# Mechanical properties :
#
#
# Convention : Reuss Voigt Hill
#
# Bulk Modulus (GPa) = 62.63230 67.52831 65.08031
# Shear Modulus (GPa) = 20.92627 32.39912 26.66269
#
# Velocity S-wave (km/s) = 3.17862 3.95512 3.58794
# Velocity P-wave (km/s) = 6.61148 7.31172 6.97040
#
# Compressibility (1/GPa) = 0.01596620
#
# Stress axis : x y z
#
# Youngs Moduli (GPa) = 88.81005 73.15097 67.02207
#
# Poissons Ratio (x) = 0.24159 0.22028
# Poissons Ratio (y) = 0.29330 0.35877
# Poissons Ratio (z) = 0.29189 0.39158
#
# Static dielectric constant tensor:
#      x y z
#    x 1.839700 -0.023320 0.036210 
#    y -0.023320 1.798250 -0.052490 
#    z 0.036210 -0.052490 1.663790 
# 
# From -- ./inp_files/381948.got.cif
#   From: 2010.05.17/outbox.cif.g08.bks.cpg/sg2_191_cif.got.tgz:381948.got - 2010.06.03 11:33:40.
