data_PCOD9017051
_publ_section_title
;
Structure prediction by ZEFSAII (Michael W. Deem and Ramdas Pophale) SiO2 
 PCOD9017051
Probable space group: P -1
;
_chemical_formula_sum "Si O2"
_cell_formula_units_Z 14
_cell_length_a 8.844516
_cell_length_b 14.307953
_cell_length_c 9.486311
_cell_angle_alpha 131.751789
_cell_angle_beta 76.538927
_cell_angle_gamma 128.155139
_cell_volume 670.805622
_symmetry_space_group_name_H-M "P -1"
_symmetry_group_IT_number 2
_symmetry_cell_setting 'triclinic'
loop_
_space_group_symop_operation_xyz
x,y,z
-x,-y,-z
loop_
_atom_site_type_symbol
_atom_site_label
_atom_site_fract_x
_atom_site_fract_y
_atom_site_fract_z
Si Si1 0.475875 0.433713 0.091121
Si Si2 0.792722 0.132868 0.654143
Si Si3 0.419946 0.116977 0.775274
Si Si4 0.071359 0.896475 0.848949
Si Si5 0.987293 0.537317 0.206740
Si Si6 0.972000 0.717239 0.962332
Si Si7 0.704855 0.579669 0.445577
O O1 0.631643 0.583150 0.309916
O O2 0.244472 0.336864 0.083597
O O3 0.500000 0.500000 0.000000
O O4 0.507151 0.301068 0.947515
O O5 0.601791 0.112149 0.732341
O O6 0.883266 0.269403 0.648588
O O7 0.707859 0.968450 0.426915
O O8 0.943208 0.193499 0.814268
O O9 0.271871 0.012826 0.830795
O O10 0.887939 0.741703 0.644894
O O11 0.106587 0.833851 0.920297
O O12 0.000000 0.000000 0.000000
O O13 0.054158 0.445988 0.180438
O O14 0.794917 0.488283 0.291124
O O15 0.000000 0.500000 0.000000
O O16 0.500000 0.500000 0.500000
#
# Coordination Sequence:
#
# PCOD9017051 Si02
#       7
#     2   2   2   2   2   2   2
#     4  12  24  41  68 100 131 182 234 279 336 412
#     4  10  22  42  69  98 131 179 223 286 338 397
#     4  11  23  44  67  94 139 176 222 280 348 398
#     4  12  25  45  66  98 140 181 219 281 344 405
#     4  10  21  42  70  98 136 173 225 286 335 397
#     4  11  23  40  67 100 133 175 232 276 336 404
#     4  12  24  46  68 100 141 185 222 280 347 404
#
# _framework density 20.870426999999999
#
# number of rings (size 3 to 8) (size 9 to 14) (size 15 to 20)
#    0.000    0.857    4.286    4.286    0.000    2.857 
#    0.000    0.000    0.000    0.000    0.000    0.000 
#    0.000    0.000    0.000    0.000    0.000    0.000 
#
# Total GULP energy -78018.944070 kJ/mol
# GULP energy per Si atom -5572.781719 kJ/mol
# Density = 2.082292 g / cm^3
# Si number density = 20.870427 Si / 1000 Ang^3
#
#
#
# Elastic Constant Matrix: (Units=GPa)
#
#
# Indices 1 2 3 4 5 6 
#
# 1 39.5060 2.9422 25.4990 -9.2243 -6.6127 -5.0289
# 2 2.9422 105.4223 26.2748 -21.4220 -6.0391 -11.9869
# 3 25.4990 26.2748 107.5717 3.5722 0.3363 -17.3159
# 4 -9.2243 -21.4220 3.5722 34.5758 8.1139 -4.0109
# 5 -6.6127 -6.0391 0.3363 8.1139 40.8788 -15.2198
# 6 -5.0289 -11.9869 -17.3159 -4.0109 -15.2198 35.4088
#
#
#
# Elastic Compliance Matrix: (Units=1/GPa)
#
#
# Indices 1 2 3 4 5 6 
#
# 1 0.035701 0.004979 -0.009068 0.012784 0.006490 0.006559
# 2 0.004979 0.013097 -0.003805 0.009804 0.002929 0.005650
# 3 -0.009068 -0.003805 0.013093 -0.005804 0.000233 0.003270
# 4 0.012784 0.009804 -0.005804 0.040212 -0.002222 0.005896
# 5 0.006490 0.002929 0.000233 -0.002222 0.032198 0.015615
# 6 0.006559 0.005650 0.003270 0.005896 0.015615 0.040065
#
#
# Mechanical properties :
#
#
# Convention : Reuss Voigt Hill
#
# Bulk Modulus (GPa) = 21.68981 40.21467 30.95224
# Shear Modulus (GPa) = 24.32847 35.35829 29.84338
#
# Velocity S-wave (km/s) = 3.41793 4.12051 3.78555
# Velocity P-wave (km/s) = 5.09818 6.47678 5.82838
#
# Compressibility (1/GPa) = 0.04610461
#
# Stress axis : x y z
#
# Youngs Moduli (GPa) = 28.01068 76.35138 76.37568
#
# Poissons Ratio (x) = -0.38014 0.69255
# Poissons Ratio (y) = -0.13946 0.29057
# Poissons Ratio (z) = 0.25399 0.29048
#
# Static dielectric constant tensor:
#      x y z
#    x 1.837340 0.169280 -0.024470 
#    y 0.169280 1.959090 -0.033940 
#    z -0.024470 -0.033940 1.798840 
# 
# From -- ./inp_files/203001.got.cif
#   From: 2010.05.17/outbox.cif.g08.bks.cpg/sg2_102_cif.got.tgz:203001.got - 2010.06.03 11:33:40.
