data_PCOD9017699
_publ_section_title
;
Structure prediction by ZEFSAII (Michael W. Deem and Ramdas Pophale) SiO2 
 PCOD9017699
Probable space group: P -1
;
_chemical_formula_sum "Si O2"
_cell_formula_units_Z 12
_cell_length_a 5.373885
_cell_length_b 13.531748
_cell_length_c 11.698668
_cell_angle_alpha 45.279774
_cell_angle_beta 79.268788
_cell_angle_gamma 64.255821
_cell_volume 534.907584
_symmetry_space_group_name_H-M "P -1"
_symmetry_group_IT_number 2
_symmetry_cell_setting 'triclinic'
loop_
_space_group_symop_operation_xyz
x,y,z
-x,-y,-z
loop_
_atom_site_type_symbol
_atom_site_label
_atom_site_fract_x
_atom_site_fract_y
_atom_site_fract_z
Si Si1 0.382090 0.375302 0.097665
Si Si2 0.879614 0.549518 0.169430
Si Si3 0.136926 0.055954 0.799766
Si Si4 0.889128 0.067048 0.333183
Si Si5 0.167178 0.582377 0.483741
Si Si6 0.208750 0.123943 0.064415
O O1 0.596639 0.212590 0.257308
O O2 0.110080 0.440096 0.148655
O O3 0.500000 0.500000 0.000000
O O4 0.367881 0.361085 0.973142
O O5 0.854158 0.445555 0.356397
O O6 0.908398 0.695944 0.103490
O O7 0.972419 0.238142 0.686262
O O8 0.154762 0.040486 0.671262
O O9 0.454114 0.973002 0.888734
O O10 0.950447 0.962516 0.918101
O O11 0.102299 0.122077 0.205491
O O12 0.000000 0.000000 0.500000
O O13 0.500000 0.500000 0.500000
O O14 0.000000 0.500000 0.500000
#
# Coordination Sequence:
#
# PCOD9017699 Si02
#       6
#     2   2   2   2   2   2
#     4  11  22  40  69 109 145 191 225 290 372 423
#     4  11  25  43  72 104 151 181 245 293 351 439
#     4  10  23  44  67  95 144 171 245 282 353 421
#     4  10  23  35  67 101 149 180 233 273 364 423
#     4  12  30  50  74 103 138 195 247 302 360 412
#     4  10  21  43  65  99 138 186 219 294 341 427
#
# _framework density 22.433779999999999
#
# number of rings (size 3 to 8) (size 9 to 14) (size 15 to 20)
#    1.000    0.333    3.333    1.000    7.000    0.667 
#    0.000    5.000    0.000    0.000    0.000    0.000 
#    0.000    0.000    0.000    0.000    0.000    0.000 
#
# Total GULP energy -66993.010832 kJ/mol
# GULP energy per Si atom -5582.750903 kJ/mol
# Density = 2.238272 g / cm^3
# Si number density = 22.433780 Si / 1000 Ang^3
#
#
#
# Elastic Constant Matrix: (Units=GPa)
#
#
# Indices 1 2 3 4 5 6 
#
# 1 115.2209 44.1158 18.2038 -7.3389 3.7570 -2.9807
# 2 44.1158 109.1531 34.2111 -23.2764 4.2803 -0.9378
# 3 18.2038 34.2111 83.0861 1.5355 7.2550 -1.0281
# 4 -7.3389 -23.2764 1.5355 57.5236 1.4051 0.2838
# 5 3.7570 4.2803 7.2550 1.4051 35.5831 -0.8375
# 6 -2.9807 -0.9378 -1.0281 0.2838 -0.8375 44.5717
#
#
#
# Elastic Compliance Matrix: (Units=1/GPa)
#
#
# Indices 1 2 3 4 5 6 
#
# 1 0.010324 -0.004042 -0.000544 -0.000295 -0.000467 0.000586
# 2 -0.004042 0.013343 -0.004666 0.005019 -0.000428 -0.000137
# 3 -0.000544 -0.004666 0.014313 -0.002286 -0.002205 0.000169
# 4 -0.000295 0.005019 -0.002286 0.019461 -0.000877 -0.000107
# 5 -0.000467 -0.000428 -0.002205 -0.000877 0.028699 0.000454
# 6 0.000586 -0.000137 0.000169 -0.000107 0.000454 0.022485
#
#
# Mechanical properties :
#
#
# Convention : Reuss Voigt Hill
#
# Bulk Modulus (GPa) = 51.34233 55.61349 53.47791
# Shear Modulus (GPa) = 37.41943 41.59764 39.50853
#
# Velocity S-wave (km/s) = 4.08854 4.31076 4.20112
# Velocity P-wave (km/s) = 6.72488 7.04420 6.88639
#
# Compressibility (1/GPa) = 0.01947711
#
# Stress axis : x y z
#
# Youngs Moduli (GPa) = 96.86155 74.94457 69.86667
#
# Poissons Ratio (x) = 0.30290 0.03803
# Poissons Ratio (y) = 0.39147 0.32597
# Poissons Ratio (z) = 0.05272 0.34967
#
# Static dielectric constant tensor:
#      x y z
#    x 1.881730 -0.039250 0.047410 
#    y -0.039250 2.230450 -0.156700 
#    z 0.047410 -0.156700 1.908250 
# 
# From -- ./inp_files/366603.got.cif
#   From: 2010.05.17/outbox.cif.g08.bks.cpg/sg2_184_cif.got.tgz:366603.got - 2010.06.03 11:33:40.
