data_PCOD9017850
_publ_section_title
;
Structure prediction by ZEFSAII (Michael W. Deem and Ramdas Pophale) SiO2 
 PCOD9017850
Probable space group: P -1
;
_chemical_formula_sum "Si O2"
_cell_formula_units_Z 16
_cell_length_a 8.825939
_cell_length_b 17.872089
_cell_length_c 5.969058
_cell_angle_alpha 121.465593
_cell_angle_beta 71.465080
_cell_angle_gamma 119.727855
_cell_volume 695.182136
_symmetry_space_group_name_H-M "P -1"
_symmetry_group_IT_number 2
_symmetry_cell_setting 'triclinic'
loop_
_space_group_symop_operation_xyz
x,y,z
-x,-y,-z
loop_
_atom_site_type_symbol
_atom_site_label
_atom_site_fract_x
_atom_site_fract_y
_atom_site_fract_z
Si Si1 0.291005 0.699101 0.185027
Si Si2 0.147065 0.970274 0.783264
Si Si3 0.278819 0.841510 0.799972
Si Si4 0.424742 0.156646 0.046242
Si Si5 0.773171 0.613022 0.584041
Si Si6 0.576320 0.454568 0.085020
Si Si7 0.007310 0.321548 0.029162
Si Si8 0.142166 0.214834 0.496604
O O1 0.289946 0.777115 0.485298
O O2 0.441334 0.754769 0.019508
O O3 0.344280 0.619444 0.148205
O O4 0.104460 0.655436 0.074944
O O5 0.222631 0.922389 0.860048
O O6 0.034915 0.881425 0.537434
O O7 0.303658 0.070841 0.803705
O O8 0.000000 0.000000 0.000000
O O9 0.459100 0.879819 0.909965
O O10 0.136824 0.769452 0.921370
O O11 0.301697 0.187164 0.315406
O O12 0.725563 0.537027 0.287498
O O13 0.586099 0.596974 0.751222
O O14 0.893367 0.601307 0.706820
O O15 0.865544 0.720782 0.611475
O O16 0.500000 0.500000 0.000000
O O17 0.149684 0.284687 0.805540
#
# Coordination Sequence:
#
# PCOD9017850 Si02
#       8
#     2   2   2   2   2   2   2   2
#     4  11  24  45  68 101 139 180 221 286 341 396
#     4  10  21  43  66  99 138 177 233 274 327 404
#     4  11  23  42  66 101 140 182 221 278 338 396
#     4  10  24  40  70  98 138 178 231 278 334 396
#     4  11  23  43  69  99 134 175 226 280 333 409
#     4  11  26  43  71 104 133 173 230 280 342 408
#     4  11  23  42  71  96 140 181 222 273 342 401
#     4  11  21  44  67 100 134 181 220 279 337 400
#
# _framework density 23.015552
#
# number of rings (size 3 to 8) (size 9 to 14) (size 15 to 20)
#    0.000    1.250    3.750    1.125    3.500    2.000 
#    2.250    5.625    0.000    0.000    0.000    0.000 
#    0.000    0.000    0.000    0.000    0.000    0.000 
#
# Total GULP energy -89394.369517 kJ/mol
# GULP energy per Si atom -5587.148095 kJ/mol
# Density = 2.296317 g / cm^3
# Si number density = 23.015552 Si / 1000 Ang^3
#
#
#
# Elastic Constant Matrix: (Units=GPa)
#
#
# Indices 1 2 3 4 5 6 
#
# 1 97.5275 52.7759 47.6497 17.2762 -10.2040 -2.6255
# 2 52.7759 52.6312 24.0933 15.4423 -7.0256 1.7218
# 3 47.6497 24.0933 75.0838 4.8652 6.7289 -0.2188
# 4 17.2762 15.4423 4.8652 25.5795 11.3259 -2.7907
# 5 -10.2040 -7.0256 6.7289 11.3259 35.8960 9.6321
# 6 -2.6255 1.7218 -0.2188 -2.7907 9.6321 44.6413
#
#
#
# Elastic Compliance Matrix: (Units=1/GPa)
#
#
# Indices 1 2 3 4 5 6 
#
# 1 0.030586 -0.019868 -0.013301 -0.011031 0.010927 -0.000547
# 2 -0.019868 0.048765 -0.002822 -0.022222 0.013408 -0.007345
# 3 -0.013301 -0.002822 0.023065 0.012610 -0.013477 0.003136
# 4 -0.011031 -0.022222 0.012610 0.075421 -0.037133 0.012997
# 5 0.010927 0.013408 -0.013477 -0.037133 0.051415 -0.013355
# 6 -0.000547 -0.007345 0.003136 0.012997 -0.013355 0.026361
#
#
# Mechanical properties :
#
#
# Convention : Reuss Voigt Hill
#
# Bulk Modulus (GPa) = 32.85919 52.69780 42.77849
# Shear Modulus (GPa) = 14.80422 27.93827 21.37124
#
# Velocity S-wave (km/s) = 2.53894 3.48787 3.05053
# Velocity P-wave (km/s) = 4.78570 6.25832 5.57089
#
# Compressibility (1/GPa) = 0.03043289
#
# Stress axis : x y z
#
# Youngs Moduli (GPa) = 32.69438 20.50648 43.35526
#
# Poissons Ratio (x) = 0.40743 0.57668
# Poissons Ratio (y) = 0.64958 0.12236
# Poissons Ratio (z) = 0.43488 0.05788
#
# Static dielectric constant tensor:
#      x y z
#    x 1.858760 0.030520 0.022150 
#    y 0.030520 1.878290 0.006870 
#    z 0.022150 0.006870 1.852740 
# 
# From -- ./inp_files/46596.got.cif
#   From: 2010.05.17/outbox.cif.g08.bks.cpg/sg2_24_cif.got.tgz:46596.got - 2010.06.03 11:33:40.
