data_PCOD9017788
_publ_section_title
;
Structure prediction by ZEFSAII (Michael W. Deem and Ramdas Pophale) SiO2 
 PCOD9017788
Probable space group: P -1
;
_chemical_formula_sum "Si O2"
_cell_formula_units_Z 16
_cell_length_a 12.163681
_cell_length_b 12.323336
_cell_length_c 11.074985
_cell_angle_alpha 66.756466
_cell_angle_beta 64.568883
_cell_angle_gamma 31.490549
_cell_volume 781.717607
_symmetry_space_group_name_H-M "P -1"
_symmetry_group_IT_number 2
_symmetry_cell_setting 'triclinic'
loop_
_space_group_symop_operation_xyz
x,y,z
-x,-y,-z
loop_
_atom_site_type_symbol
_atom_site_label
_atom_site_fract_x
_atom_site_fract_y
_atom_site_fract_z
Si Si1 0.163007 0.026125 0.430998
Si Si2 0.765449 0.660253 0.988148
Si Si3 0.765826 0.298843 0.837200
Si Si4 0.711090 0.801543 0.410404
Si Si5 0.518194 0.038476 0.784800
Si Si6 0.302981 0.556547 0.934919
Si Si7 0.081594 0.897665 0.703755
Si Si8 0.120865 0.590958 0.434837
O O1 0.085246 0.028909 0.342461
O O2 0.969195 0.256992 0.479975
O O3 0.357202 0.957736 0.344223
O O4 0.215696 0.881046 0.565111
O O5 0.600528 0.816086 0.106473
O O6 0.743450 0.544046 0.007813
O O7 0.000000 0.500000 0.000000
O O8 0.692515 0.804521 0.850899
O O9 0.554225 0.387159 0.897531
O O10 0.738888 0.437687 0.706122
O O11 0.803373 0.307388 0.953046
O O12 0.957615 0.073866 0.784267
O O13 0.653714 0.874814 0.266641
O O14 0.768521 0.617331 0.481146
O O15 0.911239 0.716376 0.403054
O O16 0.500000 0.000000 0.500000
O O17 0.213133 0.693459 0.799620
#
# Coordination Sequence:
#
# PCOD9017788 Si02
#       8
#     2   2   2   2   2   2   2   2
#     4  10  21  43  66  94 132 161 216 269 323 391
#     4  11  27  45  67  96 133 174 217 267 324 390
#     4  10  24  43  63  96 128 168 219 265 315 391
#     4  11  24  40  67  97 135 168 216 271 321 393
#     4  11  25  43  65  98 129 172 217 267 324 385
#     4  11  24  42  67  91 129 174 215 263 320 385
#     4  10  22  42  65  96 127 166 211 268 325 379
#     4  10  24  41  64 100 129 174 215 267 332 378
#
# _framework density 20.467749999999999
#
# number of rings (size 3 to 8) (size 9 to 14) (size 15 to 20)
#    0.000    1.500    1.250    1.875    8.750    1.000 
#    4.500    2.500    0.000    0.000    0.000    0.000 
#    0.000    0.000    0.000    0.000    0.000    0.000 
#
# Total GULP energy -89472.246078 kJ/mol
# GULP energy per Si atom -5592.015380 kJ/mol
# Density = 2.042116 g / cm^3
# Si number density = 20.467750 Si / 1000 Ang^3
#
#
#
# Elastic Constant Matrix: (Units=GPa)
#
#
# Indices 1 2 3 4 5 6 
#
# 1 119.5144 37.0262 50.6578 -13.7881 -5.7644 5.7253
# 2 37.0262 47.4687 21.1469 -16.3506 -2.2569 -3.0595
# 3 50.6578 21.1469 76.8386 -3.6943 4.0023 -7.3937
# 4 -13.7881 -16.3506 -3.6943 27.8098 -1.9886 3.9066
# 5 -5.7644 -2.2569 4.0023 -1.9886 35.0317 -0.3974
# 6 5.7253 -3.0595 -7.3937 3.9066 -0.3974 24.4673
#
#
#
# Elastic Compliance Matrix: (Units=1/GPa)
#
#
# Indices 1 2 3 4 5 6 
#
# 1 0.015218 -0.007074 -0.008816 0.003512 0.003168 -0.007619
# 2 -0.007074 0.034008 -0.003842 0.015831 0.002390 0.002258
# 3 -0.008816 -0.003842 0.020676 -0.005399 -0.004269 0.008623
# 4 0.003512 0.015831 -0.005399 0.047763 0.004835 -0.008022
# 5 0.003168 0.002390 -0.004269 0.004835 0.029960 -0.002018
# 6 -0.007619 0.002258 0.008623 -0.008022 -0.002018 0.046790
#
#
# Mechanical properties :
#
#
# Convention : Reuss Voigt Hill
#
# Bulk Modulus (GPa) = 32.85194 51.27594 42.06394
# Shear Modulus (GPa) = 20.48981 26.46116 23.47549
#
# Velocity S-wave (km/s) = 3.16741 3.59948 3.39034
# Velocity P-wave (km/s) = 5.42790 6.51011 5.99348
#
# Compressibility (1/GPa) = 0.03043960
#
# Stress axis : x y z
#
# Youngs Moduli (GPa) = 65.71050 29.40499 48.36530
#
# Poissons Ratio (x) = 0.20801 0.42636
# Poissons Ratio (y) = 0.46483 0.18581
# Poissons Ratio (z) = 0.57927 0.11297
#
# Static dielectric constant tensor:
#      x y z
#    x 1.720170 -0.004470 0.007670 
#    y -0.004470 1.712560 -0.002170 
#    z 0.007670 -0.002170 1.722230 
# 
# From -- ./inp_files/83290.got.cif
#   From: 2010.05.17/outbox.cif.g08.bks.cpg/sg2_42_cif.got.tgz:83290.got - 2010.06.03 11:33:40.
