data_PCOD9017679
_publ_section_title
;
Structure prediction by ZEFSAII (Michael W. Deem and Ramdas Pophale) SiO2 
 PCOD9017679
Probable space group: P -1
;
_chemical_formula_sum "Si O2"
_cell_formula_units_Z 15
_cell_length_a 11.941144
_cell_length_b 19.694505
_cell_length_c 7.072312
_cell_angle_alpha 57.885363
_cell_angle_beta 56.520833
_cell_angle_gamma 23.848989
_cell_volume 559.102939
_symmetry_space_group_name_H-M "P -1"
_symmetry_group_IT_number 2
_symmetry_cell_setting 'triclinic'
loop_
_space_group_symop_operation_xyz
x,y,z
-x,-y,-z
loop_
_atom_site_type_symbol
_atom_site_label
_atom_site_fract_x
_atom_site_fract_y
_atom_site_fract_z
Si Si1 0.995894 0.363590 0.649729
Si Si2 0.660029 0.478305 0.137983
Si Si3 0.947504 0.165835 0.796372
Si Si4 0.066407 0.959958 0.716768
Si Si5 0.500000 0.000000 0.500000
Si Si6 0.201279 0.117956 0.319114
Si Si7 0.753131 0.574146 0.194186
Si Si8 0.468805 0.201772 0.651074
O O1 0.255316 0.176716 0.600536
O O2 0.156096 0.341542 0.672847
O O3 0.839668 0.483124 0.440225
O O4 0.778181 0.431977 0.887753
O O5 0.328292 0.634171 0.229021
O O6 0.680383 0.548117 0.141497
O O7 0.883456 0.299181 0.285323
O O8 0.211879 0.076126 0.593195
O O9 0.972987 0.105049 0.056111
O O10 0.925414 0.104967 0.754961
O O11 0.398357 0.811420 0.618244
O O12 0.000000 0.000000 0.500000
O O13 0.360032 0.112366 0.249637
O O14 0.346593 0.976483 0.264469
O O15 0.521792 0.757525 0.219246
O O16 0.000000 0.500000 0.000000
#
# Coordination Sequence:
#
# PCOD9017679 Si02
#       8
#     2   2   2   2   1   2   2   2
#     4  11  24  42  64 100 132 171 221 273 332 389
#     4  12  24  43  70  97 139 173 218 272 335 390
#     4  10  23  42  67  96 136 168 222 273 320 398
#     4  10  21  43  65  98 128 178 215 269 332 385
#     4  10  22  46  68  92 136 168 230 268 322 402
#     4  10  23  46  66  98 129 184 217 270 334 385
#     4  12  24  39  64 101 131 174 215 274 336 385
#     4  10  22  41  67  94 134 166 223 270 322 395
#
# _framework density 26.828688
#
# number of rings (size 3 to 8) (size 9 to 14) (size 15 to 20)
#    0.000    1.333    2.667    2.400    1.867    3.200 
#   12.000    0.667    0.000    0.000    0.000    0.000 
#    0.000    0.000    0.000    0.000    0.000    0.000 
#
# Total GULP energy -83784.631235 kJ/mol
# GULP energy per Si atom -5585.642082 kJ/mol
# Density = 2.676762 g / cm^3
# Si number density = 26.828688 Si / 1000 Ang^3
#
#
#
# Elastic Constant Matrix: (Units=GPa)
#
#
# Indices 1 2 3 4 5 6 
#
# 1 101.6244 12.9379 25.8914 10.8255 31.0031 24.4422
# 2 12.9379 168.1183 52.0431 28.8089 12.0194 11.7935
# 3 25.8914 52.0431 169.1926 30.3712 5.1494 -1.9862
# 4 10.8255 28.8089 30.3712 45.6183 -5.4807 2.0485
# 5 31.0031 12.0194 5.1494 -5.4807 39.7153 14.0733
# 6 24.4422 11.7935 -1.9862 2.0485 14.0733 43.1830
#
#
#
# Elastic Compliance Matrix: (Units=1/GPa)
#
#
# Indices 1 2 3 4 5 6 
#
# 1 0.015079 0.001217 -0.001649 -0.004292 -0.010651 -0.005268
# 2 0.001217 0.007402 -0.001646 -0.004152 -0.002976 -0.001619
# 3 -0.001649 -0.001646 0.007350 -0.003599 -0.000378 0.002015
# 4 -0.004292 -0.004152 -0.003599 0.029144 0.009476 -0.001073
# 5 -0.010651 -0.002976 -0.000378 0.009476 0.037865 -0.005966
# 6 -0.005268 -0.001619 0.002015 -0.001073 -0.005966 0.028669
#
#
# Mechanical properties :
#
#
# Convention : Reuss Voigt Hill
#
# Bulk Modulus (GPa) = 38.94980 68.96446 53.95713
# Shear Modulus (GPa) = 36.17301 48.90751 42.54026
#
# Velocity S-wave (km/s) = 3.67590 4.27424 3.98631
# Velocity P-wave (km/s) = 5.70664 7.07956 6.42985
#
# Compressibility (1/GPa) = 0.02567407
#
# Stress axis : x y z
#
# Youngs Moduli (GPa) = 66.31720 135.09943 136.04975
#
# Poissons Ratio (x) = -0.16435 0.22435
# Poissons Ratio (y) = -0.08068 0.22395
# Poissons Ratio (z) = 0.10936 0.22239
#
# Static dielectric constant tensor:
#      x y z
#    x 2.280620 -0.156470 -0.027000 
#    y -0.156470 2.248690 -0.045360 
#    z -0.027000 -0.045360 2.105840 
# 
# From -- ./inp_files/100337.got.cif
#   From: 2010.05.17/outbox.cif.g08.bks.cpg/sg2_51_cif.got.tgz:100337.got - 2010.06.03 11:33:40.
