data_PCOD9017949
_publ_section_title
;
Structure prediction by ZEFSAII (Michael W. Deem and Ramdas Pophale) SiO2 
 PCOD9017949
Probable space group: P -1
;
_chemical_formula_sum "Si O2"
_cell_formula_units_Z 13
_cell_length_a 6.656638
_cell_length_b 12.592124
_cell_length_c 7.854374
_cell_angle_alpha 80.850846
_cell_angle_beta 122.075541
_cell_angle_gamma 122.557385
_cell_volume 462.730164
_symmetry_space_group_name_H-M "P -1"
_symmetry_group_IT_number 2
_symmetry_cell_setting 'triclinic'
loop_
_space_group_symop_operation_xyz
x,y,z
-x,-y,-z
loop_
_atom_site_type_symbol
_atom_site_label
_atom_site_fract_x
_atom_site_fract_y
_atom_site_fract_z
Si Si1 0.224919 0.576407 0.434443
Si Si2 0.738572 0.000694 0.720606
Si Si3 0.742982 0.755340 0.436763
Si Si4 0.915562 0.600653 0.879423
Si Si5 0.661351 0.127802 0.149880
Si Si6 0.114196 0.295839 0.844250
Si Si7 0.000000 0.000000 0.500000
O O1 0.106326 0.661865 0.294912
O O2 0.000000 0.500000 0.500000
O O3 0.441419 0.322052 0.465679
O O4 0.198898 0.462241 0.339235
O O5 0.573146 0.892523 0.815331
O O6 0.913666 0.976982 0.672676
O O7 0.500000 0.000000 0.500000
O O8 0.944197 0.145166 0.845090
O O9 0.079827 0.855000 0.612774
O O10 0.726075 0.685569 0.269746
O O11 0.691422 0.866607 0.345771
O O12 0.179673 0.741169 0.915829
O O13 0.737177 0.618070 0.942009
O O14 0.000000 0.500000 0.000000
O O15 0.500000 0.000000 0.000000
#
# Coordination Sequence:
#
# PCOD9017949 Si02
#       7
#     2   2   2   2   2   2   1
#     4  11  25  43  71  98 141 184 236 282 343 420
#     4  11  20  40  70  97 137 178 226 285 349 410
#     4  11  25  41  71 104 135 188 235 282 354 415
#     4  10  24  43  69 102 135 188 230 283 345 408
#     4  12  24  42  74 102 142 183 232 292 354 412
#     4  10  21  43  67  95 135 184 226 289 341 408
#     4  10  22  38  72 104 132 176 238 278 350 422
#
# _framework density 28.094125999999999
#
# number of rings (size 3 to 8) (size 9 to 14) (size 15 to 20)
#    0.000    1.231    4.615    1.846    2.154    3.077 
#    0.000    3.846    3.385    0.000    0.000    0.000 
#    0.000    0.000    0.000    0.000    0.000    0.000 
#
# Total GULP energy -72421.973012 kJ/mol
# GULP energy per Si atom -5570.921001 kJ/mol
# Density = 2.803018 g / cm^3
# Si number density = 28.094126 Si / 1000 Ang^3
#
#
#
# Elastic Constant Matrix: (Units=GPa)
#
#
# Indices 1 2 3 4 5 6 
#
# 1 131.4087 64.9737 74.7116 -4.1106 -39.7042 26.8913
# 2 64.9737 160.7501 62.0639 14.0159 -24.0772 33.8625
# 3 74.7116 62.0639 137.0798 19.4853 -49.0717 16.2034
# 4 -4.1106 14.0159 19.4853 63.3160 -1.7214 -14.1839
# 5 -39.7042 -24.0772 -49.0717 -1.7214 68.3477 -6.1148
# 6 26.8913 33.8625 16.2034 -14.1839 -6.1148 58.4976
#
#
#
# Elastic Compliance Matrix: (Units=1/GPa)
#
#
# Indices 1 2 3 4 5 6 
#
# 1 0.013251 -0.002738 -0.005024 0.002608 0.002998 -0.002170
# 2 -0.002738 0.009109 -0.001822 -0.002565 -0.000125 -0.004145
# 3 -0.005024 -0.001822 0.013739 -0.004166 0.006127 -0.000811
# 4 0.002608 -0.002565 -0.004166 0.019104 -0.001368 0.005929
# 5 0.002998 -0.000125 0.006127 -0.001368 0.020587 -0.001183
# 6 -0.002170 -0.004145 -0.000811 0.005929 -0.001183 0.022030
#
#
# Mechanical properties :
#
#
# Convention : Reuss Voigt Hill
#
# Bulk Modulus (GPa) = 59.05936 92.52632 75.79284
# Shear Modulus (GPa) = 40.77244 53.19822 46.98533
#
# Velocity S-wave (km/s) = 3.81370 4.35624 4.09397
# Velocity P-wave (km/s) = 6.36082 7.63599 7.02739
#
# Compressibility (1/GPa) = 0.01693212
#
# Stress axis : x y z
#
# Youngs Moduli (GPa) = 75.46627 109.78206 72.78334
#
# Poissons Ratio (x) = 0.30055 0.36563
# Poissons Ratio (y) = 0.20660 0.13264
# Poissons Ratio (z) = 0.37911 0.20006
#
# Static dielectric constant tensor:
#      x y z
#    x 2.038830 0.350770 0.163610 
#    y 0.350770 1.747670 -0.069840 
#    z 0.163610 -0.069840 2.554200 
# 
# From -- ./inp_files/164205.got.cif
#   From: 2010.05.17/outbox.cif.g08.bks.cpg/sg2_83_cif.got.tgz:164205.got - 2010.06.03 11:33:40.
