data_PCOD9017694
_publ_section_title
;
Structure prediction by ZEFSAII (Michael W. Deem and Ramdas Pophale) SiO2 
 PCOD9017694
Probable space group: P -1
;
_chemical_formula_sum "Si O2"
_cell_formula_units_Z 14
_cell_length_a 11.013114
_cell_length_b 16.986862
_cell_length_c 8.545676
_cell_angle_alpha 55.365891
_cell_angle_beta 45.499484
_cell_angle_gamma 30.293754
_cell_volume 572.162071
_symmetry_space_group_name_H-M "P -1"
_symmetry_group_IT_number 2
_symmetry_cell_setting 'triclinic'
loop_
_space_group_symop_operation_xyz
x,y,z
-x,-y,-z
loop_
_atom_site_type_symbol
_atom_site_label
_atom_site_fract_x
_atom_site_fract_y
_atom_site_fract_z
Si Si1 0.727348 0.146790 0.400341
Si Si2 0.901294 0.886559 0.383804
Si Si3 0.311668 0.690169 0.505572
Si Si4 0.561689 0.859331 0.085227
Si Si5 0.439392 0.930613 0.781191
Si Si6 0.785478 0.470094 0.123495
Si Si7 0.295744 0.368372 0.293303
O O1 0.843384 0.164716 0.408646
O O2 0.543076 0.152842 0.658627
O O3 0.526700 0.293478 0.298057
O O4 0.906245 0.995690 0.304918
O O5 0.634999 0.937724 0.607997
O O6 0.145581 0.740325 0.439191
O O7 0.855828 0.910506 0.210991
O O8 0.614475 0.591595 0.286518
O O9 0.329630 0.586691 0.707141
O O10 0.413636 0.899057 0.011489
O O11 0.887495 0.689556 0.963458
O O12 0.500000 0.000000 0.000000
O O13 0.602880 0.780931 0.693943
O O14 0.724629 0.554267 0.925797
O O15 0.000000 0.500000 0.500000
#
# Coordination Sequence:
#
# PCOD9017694 Si02
#       7
#     2   2   2   2   2   2   2
#     4  11  23  40  69  99 135 178 229 279 331 403
#     4  10  21  43  65  99 132 176 224 277 343 392
#     4  11  24  44  67  97 145 180 217 278 346 418
#     4  12  22  42  70 103 127 176 238 280 329 397
#     4  10  22  39  70  96 131 175 230 285 326 393
#     4  11  25  43  65 101 137 181 225 275 347 399
#     4  11  24  41  66 102 135 177 231 280 332 393
#
# _framework density 24.468591
#
# number of rings (size 3 to 8) (size 9 to 14) (size 15 to 20)
#    0.000    1.143    4.286    1.286    2.000    1.714 
#    0.000    9.286    0.000    0.000    0.000    0.000 
#    0.000    0.000    0.000    0.000    0.000    0.000 
#
# Total GULP energy -78239.067979 kJ/mol
# GULP energy per Si atom -5588.504856 kJ/mol
# Density = 2.441290 g / cm^3
# Si number density = 24.468591 Si / 1000 Ang^3
#
#
#
# Elastic Constant Matrix: (Units=GPa)
#
#
# Indices 1 2 3 4 5 6 
#
# 1 116.5309 52.4414 26.9580 -5.9806 9.6829 -12.2959
# 2 52.4414 96.6306 32.5086 -26.7946 -2.5087 -10.4671
# 3 26.9580 32.5086 106.9357 -24.3513 7.5154 -7.9466
# 4 -5.9806 -26.7946 -24.3513 40.5737 -7.2298 8.5077
# 5 9.6829 -2.5087 7.5154 -7.2298 31.1965 -5.6930
# 6 -12.2959 -10.4671 -7.9466 8.5077 -5.6930 38.3911
#
#
#
# Elastic Compliance Matrix: (Units=1/GPa)
#
#
# Indices 1 2 3 4 5 6 
#
# 1 0.012884 -0.007928 -0.001607 -0.005668 -0.005176 0.002121
# 2 -0.007928 0.018552 -0.001514 0.011276 0.007068 0.000755
# 3 -0.001607 -0.001514 0.011549 0.005477 -0.001121 0.000083
# 4 -0.005668 0.011276 0.005477 0.037110 0.009130 -0.004477
# 5 -0.005176 0.007068 -0.001121 0.009130 0.037261 0.003540
# 6 0.002121 0.000755 0.000083 -0.004477 0.003540 0.028467
#
#
# Mechanical properties :
#
#
# Convention : Reuss Voigt Hill
#
# Bulk Modulus (GPa) = 47.87706 60.43481 54.15593
# Shear Modulus (GPa) = 28.59021 35.91155 32.25088
#
# Velocity S-wave (km/s) = 3.42196 3.83516 3.63444
# Velocity P-wave (km/s) = 5.93484 6.66062 6.30817
#
# Compressibility (1/GPa) = 0.02088683
#
# Stress axis : x y z
#
# Youngs Moduli (GPa) = 77.61699 53.90159 86.58589
#
# Poissons Ratio (x) = 0.42731 0.13917
# Poissons Ratio (y) = 0.61531 0.13113
# Poissons Ratio (z) = 0.12475 0.08163
#
# Static dielectric constant tensor:
#      x y z
#    x 1.973360 -0.004500 0.007460 
#    y -0.004500 2.021320 0.031880 
#    z 0.007460 0.031880 1.973330 
# 
# From -- ./inp_files/278930.got.cif
#   From: 2010.05.17/outbox.cif.g08.bks.cpg/sg2_140_cif.got.tgz:278930.got - 2010.06.03 11:33:40.
