data_PCOD9017560
_publ_section_title
;
Structure prediction by ZEFSAII (Michael W. Deem and Ramdas Pophale) SiO2 
 PCOD9017560
Probable space group: P -1
;
_chemical_formula_sum "Si O2"
_cell_formula_units_Z 14
_cell_length_a 6.585469
_cell_length_b 11.668812
_cell_length_c 15.109177
_cell_angle_alpha 51.957937
_cell_angle_beta 90.897489
_cell_angle_gamma 124.103548
_cell_volume 653.144418
_symmetry_space_group_name_H-M "P -1"
_symmetry_group_IT_number 2
_symmetry_cell_setting 'triclinic'
loop_
_space_group_symop_operation_xyz
x,y,z
-x,-y,-z
loop_
_atom_site_type_symbol
_atom_site_label
_atom_site_fract_x
_atom_site_fract_y
_atom_site_fract_z
Si Si1 0.656264 0.718016 0.434855
Si Si2 0.838960 0.485094 0.769577
Si Si3 0.245331 0.028584 0.385335
Si Si4 0.444208 0.445597 0.129284
Si Si5 0.026765 0.777711 0.083925
Si Si6 0.429843 0.821867 0.511791
Si Si7 0.720155 0.812859 0.197608
O O1 0.500000 0.500000 0.500000
O O2 0.435877 0.699487 0.498967
O O3 0.749570 0.847841 0.285101
O O4 0.932623 0.833857 0.441817
O O5 0.768211 0.548056 0.825028
O O6 0.593413 0.390013 0.740555
O O7 0.831803 0.308986 0.873154
O O8 0.146422 0.670256 0.641360
O O9 0.340630 0.228774 0.249119
O O10 0.304174 0.067120 0.472957
O O11 0.434353 0.980298 0.388869
O O12 0.740419 0.616875 0.101239
O O13 0.500000 0.500000 0.000000
O O14 0.929483 0.792181 0.171751
O O15 0.206045 0.998157 0.938420
#
# Coordination Sequence:
#
# PCOD9017560 Si02
#       7
#     2   2   2   2   2   2   2
#     4  12  26  42  68  99 136 172 222 278 327 394
#     4  11  23  41  69  95 131 177 220 271 332 394
#     4  11  26  45  68  95 136 176 222 272 333 394
#     4  11  25  42  68  97 129 173 222 277 328 392
#     4  10  21  43  64  95 135 173 223 268 334 393
#     4  11  26  44  69  99 131 181 221 270 332 396
#     4  10  23  40  66  97 133 178 215 276 332 386
#
# _framework density 21.43477
#
# number of rings (size 3 to 8) (size 9 to 14) (size 15 to 20)
#    0.000    1.143    1.429    3.429    8.000    5.143 
#    0.000    0.000    0.000    0.000    0.000    0.000 
#    0.000    0.000    0.000    0.000    0.000    0.000 
#
# Total GULP energy -78250.680064 kJ/mol
# GULP energy per Si atom -5589.334290 kJ/mol
# Density = 2.138598 g / cm^3
# Si number density = 21.434770 Si / 1000 Ang^3
#
#
#
# Elastic Constant Matrix: (Units=GPa)
#
#
# Indices 1 2 3 4 5 6 
#
# 1 132.8397 71.5334 72.6815 12.0664 5.5897 -25.6407
# 2 71.5334 125.1834 53.6220 -7.7000 -9.8995 -22.5140
# 3 72.6815 53.6220 100.6227 -3.3534 4.9374 -20.4274
# 4 12.0664 -7.7000 -3.3534 40.2229 -6.9713 -3.2914
# 5 5.5897 -9.8995 4.9374 -6.9713 31.6175 -9.1038
# 6 -25.6407 -22.5140 -20.4274 -3.2914 -9.1038 42.3197
#
#
#
# Elastic Compliance Matrix: (Units=1/GPa)
#
#
# Indices 1 2 3 4 5 6 
#
# 1 0.016905 -0.006824 -0.008418 -0.007940 -0.005336 0.000784
# 2 -0.006824 0.014908 -0.002177 0.006746 0.009214 0.005253
# 3 -0.008418 -0.002177 0.017842 0.003732 -0.000421 0.002553
# 4 -0.007940 0.006746 0.003732 0.031269 0.011401 0.005464
# 5 -0.005336 0.009214 -0.000421 0.011401 0.041269 0.011230
# 6 0.000784 0.005253 0.002553 0.005464 0.011230 0.030972
#
#
# Mechanical properties :
#
#
# Convention : Reuss Voigt Hill
#
# Bulk Modulus (GPa) = 67.48368 83.81329 75.64849
# Shear Modulus (GPa) = 25.91424 33.55261 29.73342
#
# Velocity S-wave (km/s) = 3.48081 3.96072 3.72850
# Velocity P-wave (km/s) = 6.90698 7.75261 7.34198
#
# Compressibility (1/GPa) = 0.01481840
#
# Stress axis : x y z
#
# Youngs Moduli (GPa) = 59.15256 67.07707 56.04653
#
# Poissons Ratio (x) = 0.45771 0.47183
# Poissons Ratio (y) = 0.40364 0.12199
# Poissons Ratio (z) = 0.49798 0.14600
#
# Static dielectric constant tensor:
#      x y z
#    x 1.804900 -0.003670 0.009690 
#    y -0.003670 1.751820 -0.017540 
#    z 0.009690 -0.017540 1.810930 
# 
# From -- ./inp_files/109614.got.cif
#   From: 2010.05.17/outbox.cif.g08.bks.cpg/sg2_55_cif.got.tgz:109614.got - 2010.06.03 11:33:40.
