data_PCOD9017542
_publ_section_title
;
Structure prediction by ZEFSAII (Michael W. Deem and Ramdas Pophale) SiO2 
 PCOD9017542
Probable space group: P -1
;
_chemical_formula_sum "Si O2"
_cell_formula_units_Z 14
_cell_length_a 9.169204
_cell_length_b 18.918704
_cell_length_c 25.965687
_cell_angle_alpha 17.586255
_cell_angle_beta 151.795055
_cell_angle_gamma 150.284781
_cell_volume 630.336342
_symmetry_space_group_name_H-M "P -1"
_symmetry_group_IT_number 2
_symmetry_cell_setting 'triclinic'
loop_
_space_group_symop_operation_xyz
x,y,z
-x,-y,-z
loop_
_atom_site_type_symbol
_atom_site_label
_atom_site_fract_x
_atom_site_fract_y
_atom_site_fract_z
Si Si1 0.986033 0.632983 0.010039
Si Si2 0.199867 0.123824 0.315930
Si Si3 0.550434 0.468310 0.264491
Si Si4 0.355909 0.875252 0.786948
Si Si5 0.931352 0.771014 0.102084
Si Si6 0.271526 0.752457 0.116268
Si Si7 0.350797 0.654777 0.509618
O O1 0.823088 0.353526 0.143628
O O2 0.362353 0.660749 0.095801
O O3 0.980573 0.708187 0.015599
O O4 0.859502 0.799566 0.813662
O O5 0.316540 0.357203 0.224266
O O6 0.883554 0.019957 0.321966
O O7 0.500000 0.000000 0.500000
O O8 0.875752 0.558716 0.273767
O O9 0.592669 0.306716 0.438292
O O10 0.549577 0.094436 0.662146
O O11 0.603431 0.776784 0.967682
O O12 0.170113 0.763709 0.135745
O O13 0.000000 0.000000 0.000000
O O14 0.428896 0.523082 0.317657
O O15 0.500000 0.000000 0.000000
O O16 0.000000 0.500000 0.500000
#
# Coordination Sequence:
#
# PCOD9017542 Si02
#       7
#     2   2   2   2   2   2   2
#     4  10  21  46  69  98 138 181 236 285 354 421
#     4  11  23  39  68 105 138 173 232 296 348 414
#     4  10  21  43  64  92 139 179 225 279 347 410
#     4  11  23  43  74  97 141 189 230 291 356 407
#     4  12  23  43  70  97 133 192 234 278 353 421
#     4  11  26  43  71 101 140 188 237 289 351 423
#     4  11  25  46  66 105 145 184 237 294 348 413
#
# _framework density 22.210366
#
# number of rings (size 3 to 8) (size 9 to 14) (size 15 to 20)
#    0.000    1.143    2.857    4.286    2.000    8.000 
#    0.000    1.429    0.000    0.000    0.000    0.000 
#    0.000    0.000    0.000    0.000    0.000    0.000 
#
# Total GULP energy -78103.882947 kJ/mol
# GULP energy per Si atom -5578.848782 kJ/mol
# Density = 2.215981 g / cm^3
# Si number density = 22.210366 Si / 1000 Ang^3
#
#
#
# Elastic Constant Matrix: (Units=GPa)
#
#
# Indices 1 2 3 4 5 6 
#
# 1 146.9409 33.0023 48.1068 -14.6169 -20.7283 1.4972
# 2 33.0023 89.9917 17.4409 -11.2456 -16.6653 -8.6383
# 3 48.1068 17.4409 98.7655 -2.2701 -24.2578 10.2402
# 4 -14.6169 -11.2456 -2.2701 30.9538 5.8591 -5.7028
# 5 -20.7283 -16.6653 -24.2578 5.8591 37.6103 -3.0505
# 6 1.4972 -8.6383 10.2402 -5.7028 -3.0505 42.5236
#
#
#
# Elastic Compliance Matrix: (Units=1/GPa)
#
#
# Indices 1 2 3 4 5 6 
#
# 1 0.008922 -0.001855 -0.003708 0.003159 0.001270 0.000717
# 2 -0.001855 0.013576 -0.000771 0.003912 0.004198 0.003834
# 3 -0.003708 -0.000771 0.014024 -0.002906 0.006845 -0.003302
# 4 0.003159 0.003912 -0.002906 0.036812 -0.003644 0.006059
# 5 0.001270 0.004198 0.006845 -0.003644 0.034222 0.001126
# 6 0.000717 0.003834 -0.003302 0.006059 0.001126 0.025959
#
#
# Mechanical properties :
#
#
# Convention : Reuss Voigt Hill
#
# Bulk Modulus (GPa) = 41.91923 59.19979 50.55951
# Shear Modulus (GPa) = 32.43953 38.02742 35.23348
#
# Velocity S-wave (km/s) = 3.82587 4.14230 3.98723
# Velocity P-wave (km/s) = 6.19928 7.04203 6.63405
#
# Compressibility (1/GPa) = 0.02385540
#
# Stress axis : x y z
#
# Youngs Moduli (GPa) = 112.08182 73.65985 71.30647
#
# Poissons Ratio (x) = 0.13661 0.26441
# Poissons Ratio (y) = 0.20786 0.05495
# Poissons Ratio (z) = 0.41561 0.05676
#
# Static dielectric constant tensor:
#      x y z
#    x 1.919650 0.066720 -0.010170 
#    y 0.066720 1.890300 -0.003050 
#    z -0.010170 -0.003050 1.798020 
# 
# From -- ./inp_files/225897.got.cif
#   From: 2010.05.17/outbox.cif.g08.bks.cpg/sg2_113_cif.got.tgz:225897.got - 2010.06.03 11:33:40.
