data_PCOD9017693
_publ_section_title
;
Structure prediction by ZEFSAII (Michael W. Deem and Ramdas Pophale) SiO2 
 PCOD9017693
Probable space group: P -1
;
_chemical_formula_sum "Si O2"
_cell_formula_units_Z 12
_cell_length_a 7.775892
_cell_length_b 20.137158
_cell_length_c 9.059709
_cell_angle_alpha 135.771892
_cell_angle_beta 131.346115
_cell_angle_gamma 30.878062
_cell_volume 503.688138
_symmetry_space_group_name_H-M "P -1"
_symmetry_group_IT_number 2
_symmetry_cell_setting 'triclinic'
loop_
_space_group_symop_operation_xyz
x,y,z
-x,-y,-z
loop_
_atom_site_type_symbol
_atom_site_label
_atom_site_fract_x
_atom_site_fract_y
_atom_site_fract_z
Si Si1 0.036818 0.560950 0.481773
Si Si2 0.228554 0.132766 0.452899
Si Si3 0.550536 0.271998 0.177229
Si Si4 0.756761 0.998281 0.285495
Si Si5 0.247763 0.342546 0.828333
Si Si6 0.230527 0.212061 0.097925
O O1 0.369085 0.426669 0.368416
O O2 0.000000 0.500000 0.500000
O O3 0.745412 0.644348 0.323695
O O4 0.009606 0.668338 0.723257
O O5 0.431251 0.086850 0.345058
O O6 0.124078 0.271076 0.663991
O O7 0.908940 0.165222 0.289346
O O8 0.500000 0.000000 0.500000
O O9 0.312027 0.262036 0.094168
O O10 0.560722 0.255046 0.979805
O O11 0.595926 0.079921 0.170024
O O12 0.000000 0.000000 0.500000
O O13 0.909430 0.846090 0.124924
O O14 0.000000 0.500000 0.000000
#
# Coordination Sequence:
#
# PCOD9017693 Si02
#       6
#     2   2   2   2   2   2
#     4   9  19  42  71 102 138 177 230 283 351 419
#     4  12  25  43  68 104 140 184 238 285 350 413
#     4  10  23  42  73  99 143 176 229 294 342 413
#     4  11  24  41  64  94 138 181 232 281 338 412
#     4  10  22  42  66 104 140 180 229 281 352 416
#     4  10  21  43  65  99 131 181 226 277 348 409
#
# _framework density 23.824266000000001
#
# number of rings (size 3 to 8) (size 9 to 14) (size 15 to 20)
#    0.000    1.667    1.667    2.000    0.000    8.000 
#    3.000    0.000    0.000   10.000    0.000    0.000 
#    0.000    0.000    0.000    0.000    0.000    0.000 
#
# Total GULP energy -67027.184935 kJ/mol
# GULP energy per Si atom -5585.598745 kJ/mol
# Density = 2.377004 g / cm^3
# Si number density = 23.824266 Si / 1000 Ang^3
#
#
#
# Elastic Constant Matrix: (Units=GPa)
#
#
# Indices 1 2 3 4 5 6 
#
# 1 72.8590 21.4219 48.1098 -3.5217 -1.9434 14.0010
# 2 21.4219 90.5917 48.6399 -12.8946 5.9251 26.3206
# 3 48.1098 48.6399 179.4446 6.6960 10.9715 12.7792
# 4 -3.5217 -12.8946 6.6960 56.3896 7.5736 1.4415
# 5 -1.9434 5.9251 10.9715 7.5736 31.9206 -2.9279
# 6 14.0010 26.3206 12.7792 1.4415 -2.9279 36.9356
#
#
#
# Elastic Compliance Matrix: (Units=1/GPa)
#
#
# Indices 1 2 3 4 5 6 
#
# 1 0.017867 -0.000280 -0.004536 0.001461 0.001902 -0.004911
# 2 -0.000280 0.017564 -0.003792 0.005325 -0.004306 -0.011648
# 3 -0.004536 -0.003792 0.007873 -0.001902 -0.001677 0.001639
# 4 0.001461 0.005325 -0.001902 0.020129 -0.005472 -0.004910
# 5 0.001902 -0.004306 -0.001677 -0.005472 0.034658 0.005889
# 6 -0.004911 -0.011648 0.001639 -0.004910 0.005889 0.037327
#
#
# Mechanical properties :
#
#
# Convention : Reuss Voigt Hill
#
# Bulk Modulus (GPa) = 38.32755 64.35983 51.34369
# Shear Modulus (GPa) = 30.99237 40.03074 35.51155
#
# Velocity S-wave (km/s) = 3.61068 4.10353 3.86497
# Velocity P-wave (km/s) = 5.78837 7.03740 6.44322
#
# Compressibility (1/GPa) = 0.02609089
#
# Stress axis : x y z
#
# Youngs Moduli (GPa) = 55.96843 56.93342 127.00990
#
# Poissons Ratio (x) = 0.01591 0.57606
# Poissons Ratio (y) = 0.01564 0.48162
# Poissons Ratio (z) = 0.25385 0.21589
#
# Static dielectric constant tensor:
#      x y z
#    x 1.711850 -0.162170 0.162530 
#    y -0.162170 1.835590 0.180880 
#    z 0.162530 0.180880 1.781810 
# 
# From -- ./inp_files/39146.got.cif
#   From: 2010.05.17/outbox.cif.g08.bks.cpg/sg2_20_cif.got.tgz:39146.got - 2010.06.03 11:33:40.
