data_PCOD9017359
_publ_section_title
;
Structure prediction by ZEFSAII (Michael W. Deem and Ramdas Pophale) SiO2 
 PCOD9017359
Probable space group: P -1
;
_chemical_formula_sum "Si O2"
_cell_formula_units_Z 13
_cell_length_a 14.288730
_cell_length_b 8.512606
_cell_length_c 8.775177
_cell_angle_alpha 67.570210
_cell_angle_beta 102.130814
_cell_angle_gamma 149.215275
_cell_volume 489.101034
_symmetry_space_group_name_H-M "P -1"
_symmetry_group_IT_number 2
_symmetry_cell_setting 'triclinic'
loop_
_space_group_symop_operation_xyz
x,y,z
-x,-y,-z
loop_
_atom_site_type_symbol
_atom_site_label
_atom_site_fract_x
_atom_site_fract_y
_atom_site_fract_z
Si Si1 0.713681 0.985933 0.661652
Si Si2 0.500000 0.500000 0.500000
Si Si3 0.703577 0.970783 0.009569
Si Si4 0.080267 0.387268 0.007672
Si Si5 0.105449 0.421710 0.654056
Si Si6 0.618042 0.339592 0.849475
Si Si7 0.209340 0.301162 0.528449
O O1 0.566912 0.730173 0.573366
O O2 0.636247 0.872979 0.848764
O O3 0.811709 0.313228 0.531693
O O4 0.879802 0.098811 0.680356
O O5 0.277684 0.212944 0.569656
O O6 0.854269 0.051791 0.055643
O O7 0.834669 0.337086 0.954345
O O8 0.519053 0.709690 0.148576
O O9 0.144162 0.522553 0.806690
O O10 0.183414 0.373997 0.101783
O O11 0.197672 0.386132 0.649126
O O12 0.656843 0.400936 0.661607
O O13 0.500000 0.000000 0.000000
O O14 0.000000 0.000000 0.500000
#
# Coordination Sequence:
#
# PCOD9017359 Si02
#       7
#     2   1   2   2   2   2   2
#     4  10  22  42  72 106 141 188 243 295 355 431
#     4  12  28  44  72 104 148 196 236 294 374 416
#     4   9  19  38  61  98 139 168 226 291 342 416
#     4   9  19  36  68 101 132 175 230 294 352 397
#     4  10  21  42  75 104 137 191 248 290 351 436
#     4  10  22  40  68 103 133 179 238 290 343 424
#     4  12  27  49  70 103 152 189 239 301 357 427
#
# _framework density 26.579374000000001
#
# number of rings (size 3 to 8) (size 9 to 14) (size 15 to 20)
#    0.000    1.846    1.538    1.846    6.462    3.077 
#    0.000    1.538    0.000    0.000    0.000    0.000 
#    0.000    0.000    0.000    0.000    0.000    0.000 
#
# Total GULP energy -72557.813830 kJ/mol
# GULP energy per Si atom -5581.370295 kJ/mol
# Density = 2.651888 g / cm^3
# Si number density = 26.579374 Si / 1000 Ang^3
#
#
#
# Elastic Constant Matrix: (Units=GPa)
#
#
# Indices 1 2 3 4 5 6 
#
# 1 163.1179 16.7421 35.4890 -4.2749 -16.2917 31.9594
# 2 16.7421 81.8918 21.7542 21.6456 -11.2997 16.4761
# 3 35.4890 21.7542 105.9799 -8.5620 -14.1827 -9.7785
# 4 -4.2749 21.6456 -8.5620 49.1554 -4.2716 -2.0316
# 5 -16.2917 -11.2997 -14.1827 -4.2716 52.9560 4.0720
# 6 31.9594 16.4761 -9.7785 -2.0316 4.0720 46.8389
#
#
#
# Elastic Compliance Matrix: (Units=1/GPa)
#
#
# Indices 1 2 3 4 5 6 
#
# 1 0.008356 0.001026 -0.003365 -0.000392 0.002394 -0.006990
# 2 0.001026 0.017796 -0.005142 -0.008766 0.002694 -0.008648
# 3 -0.003365 -0.005142 0.012773 0.004579 0.001129 0.006872
# 4 -0.000392 -0.008766 0.004579 0.025263 0.000863 0.005328
# 5 0.002394 0.002694 0.001129 0.000863 0.020884 -0.004123
# 6 -0.006990 -0.008648 0.006872 0.005328 -0.004123 0.031185
#
#
# Mechanical properties :
#
#
# Convention : Reuss Voigt Hill
#
# Bulk Modulus (GPa) = 41.73143 55.44003 48.58573
# Shear Modulus (GPa) = 35.91781 48.25702 42.08742
#
# Velocity S-wave (km/s) = 3.68005 4.26559 3.98359
# Velocity P-wave (km/s) = 5.81307 6.72041 6.28314
#
# Compressibility (1/GPa) = 0.02396276
#
# Stress axis : x y z
#
# Youngs Moduli (GPa) = 119.67953 56.19173 78.28939
#
# Poissons Ratio (x) = -0.05764 0.26343
# Poissons Ratio (y) = -0.12277 0.40258
# Poissons Ratio (z) = 0.40270 0.28895
#
# Static dielectric constant tensor:
#      x y z
#    x 2.033750 0.008740 0.088540 
#    y 0.008740 2.097480 0.003100 
#    z 0.088540 0.003100 2.116840 
# 
# From -- ./inp_files/155173.got.cif
#   From: 2010.05.17/outbox.cif.g08.bks.cpg/sg2_78_cif.got.tgz:155173.got - 2010.06.03 11:33:40.
