data_PCOD9017413
_publ_section_title
;
Structure prediction by ZEFSAII (Michael W. Deem and Ramdas Pophale) SiO2 
 PCOD9017413
Probable space group: P -1
;
_chemical_formula_sum "Si O2"
_cell_formula_units_Z 14
_cell_length_a 7.656708
_cell_length_b 11.850049
_cell_length_c 14.245940
_cell_angle_alpha 114.427063
_cell_angle_beta 141.315659
_cell_angle_gamma 59.028290
_cell_volume 692.536004
_symmetry_space_group_name_H-M "P -1"
_symmetry_group_IT_number 2
_symmetry_cell_setting 'triclinic'
loop_
_space_group_symop_operation_xyz
x,y,z
-x,-y,-z
loop_
_atom_site_type_symbol
_atom_site_label
_atom_site_fract_x
_atom_site_fract_y
_atom_site_fract_z
Si Si1 0.141622 0.666693 0.094985
Si Si2 0.253228 0.296569 0.237134
Si Si3 0.220106 0.096654 0.861915
Si Si4 0.602247 0.120651 0.671493
Si Si5 0.573021 0.462240 0.331489
Si Si6 0.319903 0.996744 0.668596
Si Si7 0.162157 0.312112 0.420482
O O1 0.364648 0.751562 0.216847
O O2 0.318469 0.530154 0.171480
O O3 0.882566 0.757311 0.086557
O O4 0.003277 0.666113 0.935589
O O5 0.440415 0.393280 0.331192
O O6 0.477388 0.148646 0.264485
O O7 0.133854 0.302587 0.294343
O O8 0.933301 0.052275 0.747039
O O9 0.276644 0.090350 0.773097
O O10 0.500000 0.000000 0.000000
O O11 0.378715 0.178702 0.512241
O O12 0.484687 0.040890 0.668486
O O13 0.684118 0.576972 0.458121
O O14 0.851551 0.358736 0.360610
O O15 0.000000 0.000000 0.500000
#
# Coordination Sequence:
#
# PCOD9017413 Si02
#       7
#     2   2   2   2   2   2   2
#     4   9  22  44  62  88 129 162 209 250 307 372
#     4  12  23  38  63  96 119 162 211 253 298 379
#     4  10  21  43  62  89 126 170 199 254 313 358
#     4   9  22  43  59  91 129 161 203 256 301 375
#     4  10  22  43  62  87 127 161 204 260 309 361
#     4  12  24  38  66  96 126 163 209 250 316 369
#     4  10  22  42  64  89 123 163 205 257 314 353
#
# _framework density 20.215554999999998
#
# number of rings (size 3 to 8) (size 9 to 14) (size 15 to 20)
#    0.857    0.857    1.429    2.571    0.000    6.286 
#   10.286    0.000    0.000    0.000    0.000    0.000 
#    0.000    0.000    0.000    0.000    0.000    0.000 
#
# Total GULP energy -78185.263888 kJ/mol
# GULP energy per Si atom -5584.661706 kJ/mol
# Density = 2.016954 g / cm^3
# Si number density = 20.215555 Si / 1000 Ang^3
#
#
#
# Elastic Constant Matrix: (Units=GPa)
#
#
# Indices 1 2 3 4 5 6 
#
# 1 81.6887 24.1370 31.5888 -10.9308 -12.8734 0.9523
# 2 24.1370 46.5257 22.9664 -22.4819 5.4840 6.2742
# 3 31.5888 22.9664 95.7035 -19.7322 -23.6683 -18.3453
# 4 -10.9308 -22.4819 -19.7322 32.4350 -6.3672 1.6227
# 5 -12.8734 5.4840 -23.6683 -6.3672 32.0276 1.6435
# 6 0.9523 6.2742 -18.3453 1.6227 1.6435 33.5388
#
#
#
# Elastic Compliance Matrix: (Units=1/GPa)
#
#
# Indices 1 2 3 4 5 6 
#
# 1 0.016497 -0.008480 -0.001791 -0.000072 0.006755 -0.000189
# 2 -0.008480 0.043303 -0.009374 0.019531 -0.013186 -0.013286
# 3 -0.001791 -0.009374 0.022239 0.009440 0.018550 0.012603
# 4 -0.000072 0.019531 0.009440 0.052966 0.014222 -0.001748
# 5 0.006755 -0.013186 0.018550 0.014222 0.052261 0.009172
# 6 -0.000189 -0.013286 0.012603 -0.001748 0.009172 0.038836
#
#
# Mechanical properties :
#
#
# Convention : Reuss Voigt Hill
#
# Bulk Modulus (GPa) = 23.39129 42.36693 32.87911
# Shear Modulus (GPa) = 17.88006 29.28200 23.58103
#
# Velocity S-wave (km/s) = 2.97723 3.81003 3.41908
# Velocity P-wave (km/s) = 4.83886 6.35281 5.64680
#
# Compressibility (1/GPa) = 0.04275096
#
# Stress axis : x y z
#
# Youngs Moduli (GPa) = 60.61816 23.09284 44.96586
#
# Poissons Ratio (x) = 0.19583 0.08052
# Poissons Ratio (y) = 0.51404 0.42149
# Poissons Ratio (z) = 0.10855 0.21646
#
# Static dielectric constant tensor:
#      x y z
#    x 1.665680 -0.007640 0.017510 
#    y -0.007640 1.738860 0.036800 
#    z 0.017510 0.036800 1.714260 
# 
# From -- ./inp_files/364904.got.cif
#   From: 2010.05.17/outbox.cif.g08.bks.cpg/sg2_183_cif.got.tgz:364904.got - 2010.06.03 11:33:40.
