data_PCOD9017710
_publ_section_title
;
Structure prediction by ZEFSAII (Michael W. Deem and Ramdas Pophale) SiO2 
 PCOD9017710
Probable space group: P -1
;
_chemical_formula_sum "Si O2"
_cell_formula_units_Z 14
_cell_length_a 9.601636
_cell_length_b 8.570427
_cell_length_c 8.779076
_cell_angle_alpha 113.926277
_cell_angle_beta 70.926781
_cell_angle_gamma 113.241977
_cell_volume 594.684831
_symmetry_space_group_name_H-M "P -1"
_symmetry_group_IT_number 2
_symmetry_cell_setting 'triclinic'
loop_
_space_group_symop_operation_xyz
x,y,z
-x,-y,-z
loop_
_atom_site_type_symbol
_atom_site_label
_atom_site_fract_x
_atom_site_fract_y
_atom_site_fract_z
Si Si1 0.558808 0.785587 0.243227
Si Si2 0.121233 0.659288 0.925595
Si Si3 0.961246 0.309125 0.358629
Si Si4 0.707355 0.089665 0.547001
Si Si5 0.187504 0.158066 0.396682
Si Si6 0.365579 0.467164 0.664593
Si Si7 0.341620 0.043777 0.042904
O O1 0.389120 0.804787 0.284035
O O2 0.574385 0.600357 0.227209
O O3 0.608795 0.908644 0.426477
O O4 0.654010 0.868387 0.091378
O O5 0.274243 0.606419 0.797399
O O6 0.196663 0.862382 0.038552
O O7 0.022934 0.673969 0.818201
O O8 0.000000 0.500000 0.000000
O O9 0.056725 0.189141 0.349485
O O10 0.000000 0.500000 0.500000
O O11 0.785406 0.212872 0.428591
O O12 0.825506 0.028194 0.587666
O O13 0.228612 0.308572 0.570947
O O14 0.327280 0.176332 0.235228
O O15 0.500000 0.500000 0.500000
O O16 0.500000 0.000000 0.000000
#
# Coordination Sequence:
#
# PCOD9017710 Si02
#       7
#     2   2   2   2   2   2   2
#     4  10  22  40  73  96 133 181 235 286 347 414
#     4  12  29  48  69 106 153 185 232 303 362 412
#     4  12  25  44  69  98 142 183 231 284 358 422
#     4  10  21  43  66 101 131 180 233 287 340 423
#     4  11  25  41  73  99 137 184 240 278 356 424
#     4  11  24  48  72 102 140 190 239 292 358 425
#     4  12  25  48  71 106 142 188 239 299 349 425
#
# _framework density 23.541881
#
# number of rings (size 3 to 8) (size 9 to 14) (size 15 to 20)
#    0.000    0.857    4.286    2.143    6.000    2.857 
#    0.000    1.429    0.000    0.000    0.000    0.000 
#    0.000    0.000    0.000    0.000    0.000    0.000 
#
# Total GULP energy -78148.672163 kJ/mol
# GULP energy per Si atom -5582.048012 kJ/mol
# Density = 2.348830 g / cm^3
# Si number density = 23.541881 Si / 1000 Ang^3
#
#
#
# Elastic Constant Matrix: (Units=GPa)
#
#
# Indices 1 2 3 4 5 6 
#
# 1 75.2345 35.3469 11.4423 -14.0681 7.3593 -25.9695
# 2 35.3469 86.8024 22.6918 -32.4246 11.6352 -17.7592
# 3 11.4423 22.6918 76.5265 -17.1276 7.9616 -20.4283
# 4 -14.0681 -32.4246 -17.1276 52.6732 -5.1747 4.6246
# 5 7.3593 11.6352 7.9616 -5.1747 40.1297 -5.8545
# 6 -25.9695 -17.7592 -20.4283 4.6246 -5.8545 38.7534
#
#
#
# Elastic Compliance Matrix: (Units=1/GPa)
#
#
# Indices 1 2 3 4 5 6 
#
# 1 0.020003 -0.005708 0.002209 0.001465 -0.000556 0.011694
# 2 -0.005708 0.018374 -0.001778 0.008769 -0.002471 0.002238
# 3 0.002209 -0.001778 0.016641 0.004001 -0.001399 0.008749
# 4 0.001465 0.008769 0.004001 0.025747 0.000311 0.004084
# 5 -0.000556 -0.002471 -0.001399 0.000311 0.026302 0.001694
# 6 0.011694 0.002238 0.008749 0.004084 0.001694 0.039047
#
#
# Mechanical properties :
#
#
# Convention : Reuss Voigt Hill
#
# Bulk Modulus (GPa) = 22.49002 41.94727 32.21865
# Shear Modulus (GPa) = 29.15637 37.58342 33.36990
#
# Velocity S-wave (km/s) = 3.52304 3.99989 3.76901
# Velocity P-wave (km/s) = 5.11106 6.26011 5.71454
#
# Compressibility (1/GPa) = 0.04446417
#
# Stress axis : x y z
#
# Youngs Moduli (GPa) = 49.99332 54.42368 60.09371
#
# Poissons Ratio (x) = 0.31067 -0.13277
# Poissons Ratio (y) = 0.28538 0.10683
# Poissons Ratio (z) = -0.11045 0.09675
#
# Static dielectric constant tensor:
#      x y z
#    x 1.948910 -0.001250 -0.024700 
#    y -0.001250 1.908110 -0.000890 
#    z -0.024700 -0.000890 1.900230 
# 
# From -- ./inp_files/157514.got.cif
#   From: 2010.05.17/outbox.cif.g08.bks.cpg/sg2_79_cif.got.tgz:157514.got - 2010.06.03 11:33:40.
