data_PCOD9017616
_publ_section_title
;
Structure prediction by ZEFSAII (Michael W. Deem and Ramdas Pophale) SiO2 
 PCOD9017616
Probable space group: P -1
;
_chemical_formula_sum "Si O2"
_cell_formula_units_Z 14
_cell_length_a 18.864539
_cell_length_b 8.897387
_cell_length_c 12.641879
_cell_angle_alpha 134.099443
_cell_angle_beta 27.338791
_cell_angle_gamma 124.216675
_cell_volume 689.693891
_symmetry_space_group_name_H-M "P -1"
_symmetry_group_IT_number 2
_symmetry_cell_setting 'triclinic'
loop_
_space_group_symop_operation_xyz
x,y,z
-x,-y,-z
loop_
_atom_site_type_symbol
_atom_site_label
_atom_site_fract_x
_atom_site_fract_y
_atom_site_fract_z
Si Si1 0.159147 0.944633 0.695984
Si Si2 0.735386 0.605043 0.240877
Si Si3 0.144574 0.806453 0.216225
Si Si4 0.528828 0.342468 0.786577
Si Si5 0.954497 0.268364 0.463320
Si Si6 0.537212 0.411559 0.574925
Si Si7 0.706658 0.988957 0.056476
O O1 0.299175 0.798428 0.500756
O O2 0.124983 0.816291 0.574198
O O3 0.210638 0.170379 0.713670
O O4 0.000000 0.000000 0.000000
O O5 0.641075 0.557477 0.446788
O O6 0.616493 0.597855 0.296345
O O7 0.870316 0.402672 0.936178
O O8 0.152791 0.738372 0.293955
O O9 0.000000 0.000000 0.500000
O O10 0.282783 0.899276 0.017784
O O11 0.508213 0.461497 0.759950
O O12 0.402467 0.186423 0.885219
O O13 0.500000 0.500000 0.000000
O O14 0.000000 0.500000 0.500000
O O15 0.119140 0.113494 0.190686
O O16 0.634872 0.173791 0.321600
#
# Coordination Sequence:
#
# PCOD9017616 Si02
#       7
#     2   2   2   2   2   2   2
#     4  12  26  42  63 102 133 171 222 272 326 392
#     4  10  22  42  68  95 124 173 224 267 319 395
#     4   9  21  40  64  93 127 170 215 265 332 392
#     4  12  26  41  64 100 133 168 221 276 327 382
#     4  11  23  40  65  94 134 176 214 269 334 390
#     4  10  22  42  68  91 126 173 219 264 328 386
#     4  10  21  43  65  90 125 177 218 259 328 396
#
# _framework density 20.298860000000001
#
# number of rings (size 3 to 8) (size 9 to 14) (size 15 to 20)
#    0.000    1.429    1.429    3.000    6.000    2.286 
#    0.000   12.857    0.000    0.000    0.000    0.000 
#    0.000    0.000    0.000    0.000    0.000    0.000 
#
# Total GULP energy -78220.158584 kJ/mol
# GULP energy per Si atom -5587.154185 kJ/mol
# Density = 2.025266 g / cm^3
# Si number density = 20.298860 Si / 1000 Ang^3
#
#
#
# Elastic Constant Matrix: (Units=GPa)
#
#
# Indices 1 2 3 4 5 6 
#
# 1 114.8793 66.0946 33.8312 -14.2466 29.6930 -8.4933
# 2 66.0946 127.7806 26.9573 3.0150 21.2164 0.8118
# 3 33.8312 26.9573 81.1019 4.3524 11.1937 -3.3353
# 4 -14.2466 3.0150 4.3524 31.7073 -8.3944 -1.7855
# 5 29.6930 21.2164 11.1937 -8.3944 48.8863 -5.1914
# 6 -8.4933 0.8118 -3.3353 -1.7855 -5.1914 24.8915
#
#
#
# Elastic Compliance Matrix: (Units=1/GPa)
#
#
# Indices 1 2 3 4 5 6 
#
# 1 0.016439 -0.007177 -0.004129 0.007847 -0.004045 0.005009
# 2 -0.007177 0.012154 -0.000649 -0.005037 -0.002026 -0.003716
# 3 -0.004129 -0.000649 0.014668 -0.004145 -0.001280 0.000014
# 4 0.007847 -0.005037 -0.004145 0.037924 0.005536 0.006161
# 5 -0.004045 -0.002026 -0.001280 0.005536 0.025485 0.004227
# 6 0.005009 -0.003716 0.000014 0.006161 0.004227 0.043330
#
#
# Mechanical properties :
#
#
# Convention : Reuss Voigt Hill
#
# Bulk Modulus (GPa) = 51.67538 64.16977 57.92258
# Shear Modulus (GPa) = 27.72234 34.22227 30.97230
#
# Velocity S-wave (km/s) = 3.69956 4.11045 3.91041
# Velocity P-wave (km/s) = 6.61525 7.36267 6.99894
#
# Compressibility (1/GPa) = 0.01935157
#
# Stress axis : x y z
#
# Youngs Moduli (GPa) = 60.83044 82.27575 68.17754
#
# Poissons Ratio (x) = 0.59053 0.28147
# Poissons Ratio (y) = 0.43661 0.04423
# Poissons Ratio (z) = 0.25114 0.05337
#
# Static dielectric constant tensor:
#      x y z
#    x 1.731360 -0.049020 -0.025610 
#    y -0.049020 1.695320 0.005980 
#    z -0.025610 0.005980 1.776080 
# 
# From -- ./inp_files/157250.got.cif
#   From: 2010.05.17/outbox.cif.g08.bks.cpg/sg2_79_cif.got.tgz:157250.got - 2010.06.03 11:33:40.
