data_PCOD9017465
_publ_section_title
;
Structure prediction by ZEFSAII (Michael W. Deem and Ramdas Pophale) SiO2 
 PCOD9017465
Probable space group: P -1
;
_chemical_formula_sum "Si O2"
_cell_formula_units_Z 16
_cell_length_a 20.116857
_cell_length_b 8.363444
_cell_length_c 6.516214
_cell_angle_alpha 90.797711
_cell_angle_beta 59.365484
_cell_angle_gamma 130.669173
_cell_volume 624.715720
_symmetry_space_group_name_H-M "P -1"
_symmetry_group_IT_number 2
_symmetry_cell_setting 'triclinic'
loop_
_space_group_symop_operation_xyz
x,y,z
-x,-y,-z
loop_
_atom_site_type_symbol
_atom_site_label
_atom_site_fract_x
_atom_site_fract_y
_atom_site_fract_z
Si Si1 0.421609 0.016700 0.516792
Si Si2 0.296423 0.604715 0.386130
Si Si3 0.787962 0.314857 0.847902
Si Si4 0.854274 0.921899 0.798194
Si Si5 0.073605 0.765264 0.965814
Si Si6 0.606028 0.515886 0.045128
Si Si7 0.236251 0.025818 0.384532
Si Si8 0.091805 0.283993 0.025194
O O1 0.493680 0.284131 0.339759
O O2 0.500000 0.000000 0.500000
O O3 0.370517 0.857292 0.387127
O O4 0.322636 0.895072 0.838031
O O5 0.237151 0.582760 0.273416
O O6 0.201952 0.415362 0.705668
O O7 0.372498 0.578626 0.174710
O O8 0.808048 0.198111 0.666370
O O9 0.880993 0.520743 0.869029
O O10 0.843089 0.949894 0.577966
O O11 0.907146 0.159669 0.829328
O O12 0.714284 0.676719 0.042014
O O13 0.918143 0.872389 0.797329
O O14 0.202885 0.954099 0.669338
O O15 0.000000 0.500000 0.000000
O O16 0.006349 0.813207 0.978496
O O17 0.634350 0.727600 0.889784
#
# Coordination Sequence:
#
# PCOD9017465 Si02
#       8
#     2   2   2   2   2   2   2   2
#     4  11  22  39  69 100 124 165 218 259 313 377
#     4  11  21  40  67  97 125 166 215 258 317 374
#     4  11  22  41  62  98 129 169 210 261 317 385
#     4  10  23  44  62  94 128 165 214 271 314 368
#     4  12  25  43  66  94 128 173 215 263 324 383
#     4  10  21  43  63  92 132 166 204 268 314 371
#     4  10  25  42  63  90 132 171 207 257 331 376
#     4  11  23  39  69  94 129 166 219 268 311 370
#
# _framework density 25.611650000000001
#
# number of rings (size 3 to 8) (size 9 to 14) (size 15 to 20)
#    0.750    0.500    2.500    3.750    0.000    5.000 
#    0.000    0.625    0.000    0.000    0.000    0.000 
#    0.000    0.000    0.000    0.000    0.000    0.000 
#
# Total GULP energy -89375.562602 kJ/mol
# GULP energy per Si atom -5585.972663 kJ/mol
# Density = 2.555336 g / cm^3
# Si number density = 25.611650 Si / 1000 Ang^3
#
#
#
# Elastic Constant Matrix: (Units=GPa)
#
#
# Indices 1 2 3 4 5 6 
#
# 1 35.5474 -7.7772 -2.4377 2.6212 8.6690 5.3604
# 2 -7.7772 89.8063 15.4145 -9.8837 -0.7550 6.9745
# 3 -2.4377 15.4145 116.1383 -17.0359 10.5125 5.4249
# 4 2.6212 -9.8837 -17.0359 26.7605 -0.4465 7.7554
# 5 8.6690 -0.7550 10.5125 -0.4465 22.5933 2.9860
# 6 5.3604 6.9745 5.4249 7.7554 2.9860 39.9216
#
#
#
# Elastic Compliance Matrix: (Units=1/GPa)
#
#
# Indices 1 2 3 4 5 6 
#
# 1 0.032548 0.002732 0.001629 -0.000166 -0.012618 -0.004093
# 2 0.002732 0.012287 -0.000738 0.004779 0.000244 -0.003360
# 3 0.001629 -0.000738 0.010296 0.006742 -0.004987 -0.002426
# 4 -0.000166 0.004779 0.006742 0.046541 -0.000576 -0.010727
# 5 -0.012618 0.000244 -0.004987 -0.000576 0.051607 -0.001419
# 6 -0.004093 -0.003360 -0.002426 -0.010727 -0.001419 0.028705
#
#
# Mechanical properties :
#
#
# Convention : Reuss Voigt Hill
#
# Bulk Modulus (GPa) = 16.03087 27.98791 22.00939
# Shear Modulus (GPa) = 25.57163 33.60790 29.58977
#
# Velocity S-wave (km/s) = 3.16323 3.62638 3.40269
# Velocity P-wave (km/s) = 4.42879 5.33720 4.90407
#
# Compressibility (1/GPa) = 0.06237965
#
# Stress axis : x y z
#
# Youngs Moduli (GPa) = 30.72425 81.38535 97.12272
#
# Poissons Ratio (x) = -0.22238 -0.15826
# Poissons Ratio (y) = -0.08395 0.07164
# Poissons Ratio (z) = -0.05006 0.06003
#
# Static dielectric constant tensor:
#      x y z
#    x 2.043750 -0.041500 -0.028330 
#    y -0.041500 2.038610 -0.067570 
#    z -0.028330 -0.067570 2.037790 
# 
# From -- ./inp_files/122911.got.cif
#   From: 2010.05.17/outbox.cif.g08.bks.cpg/sg2_62_cif.got.tgz:122911.got - 2010.06.03 11:33:40.
