data_PCOD9017656
_publ_section_title
;
Structure prediction by ZEFSAII (Michael W. Deem and Ramdas Pophale) SiO2 
 PCOD9017656
Probable space group: P -1
;
_chemical_formula_sum "Si O2"
_cell_formula_units_Z 16
_cell_length_a 26.912083
_cell_length_b 15.402133
_cell_length_c 8.183932
_cell_angle_alpha 133.466179
_cell_angle_beta 145.242417
_cell_angle_gamma 20.343617
_cell_volume 611.478031
_symmetry_space_group_name_H-M "P -1"
_symmetry_group_IT_number 2
_symmetry_cell_setting 'triclinic'
loop_
_space_group_symop_operation_xyz
x,y,z
-x,-y,-z
loop_
_atom_site_type_symbol
_atom_site_label
_atom_site_fract_x
_atom_site_fract_y
_atom_site_fract_z
Si Si1 0.073227 0.099039 0.931277
Si Si2 0.057439 0.293486 0.842589
Si Si3 0.605695 0.688391 0.178350
Si Si4 0.504353 0.692400 0.215987
Si Si5 0.864014 0.170470 0.017786
Si Si6 0.831306 0.800606 0.492374
Si Si7 0.458923 0.507294 0.657597
Si Si8 0.699241 0.783326 0.359286
O O1 0.059962 0.210254 0.186957
O O2 0.021844 0.033077 0.784964
O O3 0.309039 0.792088 0.136654
O O4 0.010744 0.247091 0.788549
O O5 0.918845 0.447568 0.506516
O O6 0.000000 0.500000 0.000000
O O7 0.291415 0.014417 0.086049
O O8 0.635945 0.609061 0.343412
O O9 0.635221 0.794285 0.368092
O O10 0.746778 0.432558 0.109881
O O11 0.371838 0.946381 0.836263
O O12 0.597038 0.536349 0.434949
O O13 0.441636 0.648889 0.896830
O O14 0.678271 0.321020 0.647275
O O15 0.000000 0.000000 0.000000
O O16 0.748181 0.853595 0.511898
O O17 0.000000 0.500000 0.500000
O O18 0.500000 0.000000 0.000000
#
# Coordination Sequence:
#
# PCOD9017656 Si02
#       8
#     2   2   2   2   2   2   2   2
#     4  11  22  42  68  94 132 174 233 280 323 403
#     4  11  23  43  70  99 129 175 235 278 329 406
#     4  11  23  42  64  98 138 171 221 279 347 397
#     4  10  22  39  70  95 126 177 224 277 326 403
#     4  12  26  40  64  99 140 180 215 278 343 405
#     4  11  22  39  69  94 126 179 237 274 329 401
#     4  10  21  43  65  95 130 174 227 272 329 392
#     4  10  24  42  63  95 135 172 212 281 338 396
#
# _framework density 26.166107
#
# number of rings (size 3 to 8) (size 9 to 14) (size 15 to 20)
#    0.000    1.250    3.750    1.875    3.500    1.000 
#    0.000    1.875    0.000    0.000    0.000    0.000 
#    0.000    0.000    0.000    0.000    0.000    0.000 
#
# Total GULP energy -89237.219448 kJ/mol
# GULP energy per Si atom -5577.326215 kJ/mol
# Density = 2.610655 g / cm^3
# Si number density = 26.166107 Si / 1000 Ang^3
#
#
#
# Elastic Constant Matrix: (Units=GPa)
#
#
# Indices 1 2 3 4 5 6 
#
# 1 192.8163 28.4591 5.2672 -16.8049 -8.1857 21.6585
# 2 28.4591 164.3353 24.5019 -5.3055 -9.0142 -8.8700
# 3 5.2672 24.5019 50.0388 -17.1989 -15.7699 6.8246
# 4 -16.8049 -5.3055 -17.1989 40.8483 8.3487 -9.6894
# 5 -8.1857 -9.0142 -15.7699 8.3487 42.3783 -13.2162
# 6 21.6585 -8.8700 6.8246 -9.6894 -13.2162 49.6714
#
#
#
# Elastic Compliance Matrix: (Units=1/GPa)
#
#
# Indices 1 2 3 4 5 6 
#
# 1 0.005799 -0.001225 0.001063 0.002073 0.000077 -0.002469
# 2 -0.001225 0.006982 -0.003612 -0.000721 0.000777 0.002343
# 3 0.001063 -0.003612 0.027480 0.009784 0.007423 -0.001000
# 4 0.002073 -0.000721 0.009784 0.030352 -0.001076 0.003258
# 5 0.000077 0.000777 0.007423 -0.001076 0.028790 0.006536
# 6 -0.002469 0.002343 -0.001000 0.003258 0.006536 0.024139
#
#
# Mechanical properties :
#
#
# Convention : Reuss Voigt Hill
#
# Bulk Modulus (GPa) = 30.56951 58.18295 44.37623
# Shear Modulus (GPa) = 35.21265 49.84375 42.52820
#
# Velocity S-wave (km/s) = 3.67241 4.36925 4.03589
# Velocity P-wave (km/s) = 5.44888 6.90927 6.22207
#
# Compressibility (1/GPa) = 0.03271233
#
# Stress axis : x y z
#
# Youngs Moduli (GPa) = 172.43598 143.23317 36.38999
#
# Poissons Ratio (x) = 0.17544 -0.03867
# Poissons Ratio (y) = 0.21121 0.13145
# Poissons Ratio (z) = -0.18325 0.51738
#
# Static dielectric constant tensor:
#      x y z
#    x 2.136030 -0.000180 -0.008490 
#    y -0.000180 1.913940 -0.044170 
#    z -0.008490 -0.044170 2.175190 
# 
# From -- ./inp_files/320755.got.cif
#   From: 2010.05.17/outbox.cif.g08.bks.cpg/sg2_161_cif.got.tgz:320755.got - 2010.06.03 11:33:40.
