data_PCOD9017244
_publ_section_title
;
Structure prediction by ZEFSAII (Michael W. Deem and Ramdas Pophale) SiO2 
 PCOD9017244
Probable space group: P -1
;
_chemical_formula_sum "Si O2"
_cell_formula_units_Z 16
_cell_length_a 14.288324
_cell_length_b 8.477121
_cell_length_c 9.560551
_cell_angle_alpha 65.770297
_cell_angle_beta 66.699586
_cell_angle_gamma 112.012819
_cell_volume 744.141422
_symmetry_space_group_name_H-M "P -1"
_symmetry_group_IT_number 2
_symmetry_cell_setting 'triclinic'
loop_
_space_group_symop_operation_xyz
x,y,z
-x,-y,-z
loop_
_atom_site_type_symbol
_atom_site_label
_atom_site_fract_x
_atom_site_fract_y
_atom_site_fract_z
Si Si1 0.436368 0.304413 0.493228
Si Si2 0.385675 0.785135 0.232542
Si Si3 0.121508 0.308542 0.941499
Si Si4 0.138430 0.748352 0.304074
Si Si5 0.133970 0.121153 0.293181
Si Si6 0.611289 0.570018 0.794850
Si Si7 0.622101 0.229861 0.422189
Si Si8 0.836637 0.024062 0.086712
O O1 0.500000 0.500000 0.500000
O O2 0.376640 0.271250 0.386987
O O3 0.575169 0.366370 0.351600
O O4 0.307041 0.083862 0.726135
O O5 0.251111 0.731848 0.281678
O O6 0.405881 0.611067 0.232974
O O7 0.396053 0.811223 0.384933
O O8 0.500000 0.000000 0.000000
O O9 0.220744 0.581331 0.768551
O O10 0.161707 0.184973 0.864637
O O11 0.126602 0.226589 0.119692
O O12 0.970476 0.196323 0.034555
O O13 0.000000 0.500000 0.500000
O O14 0.153124 0.937724 0.319404
O O15 0.147745 0.842561 0.109866
O O16 0.256333 0.318162 0.239641
O O17 0.000000 0.000000 0.500000
O O18 0.500000 0.500000 0.000000
O O19 0.500000 0.000000 0.500000
#
# Coordination Sequence:
#
# PCOD9017244 Si02
#       8
#     2   2   2   2   2   2   2   2
#     4  12  23  45  71  99 133 179 238 281 337 412
#     4  12  26  44  68 101 141 181 226 285 354 406
#     4  10  21  43  70  96 133 177 238 278 335 408
#     4  11  24  43  69  99 142 179 226 287 355 411
#     4  11  24  42  69 101 135 183 231 285 341 414
#     4  12  26  43  72 100 136 181 232 287 339 414
#     4  12  27  44  69 102 141 182 226 288 347 408
#     4  10  21  42  72  97 126 184 231 283 336 407
#
# _framework density 21.501289
#
# number of rings (size 3 to 8) (size 9 to 14) (size 15 to 20)
#    0.000    0.750    2.500    4.500    7.000    2.000 
#    2.250    0.625    0.000    0.000    0.000    0.000 
#    0.000    0.000    0.000    0.000    0.000    0.000 
#
# Total GULP energy -89110.836863 kJ/mol
# GULP energy per Si atom -5569.427304 kJ/mol
# Density = 2.145235 g / cm^3
# Si number density = 21.501289 Si / 1000 Ang^3
#
#
#
# Elastic Constant Matrix: (Units=GPa)
#
#
# Indices 1 2 3 4 5 6 
#
# 1 61.5157 1.4446 15.5832 9.1808 -19.1419 29.7134
# 2 1.4446 92.1481 40.4240 -1.8364 -5.2290 32.4884
# 3 15.5832 40.4240 138.8658 -4.9771 -18.4668 20.3512
# 4 9.1808 -1.8364 -4.9771 31.4120 13.6656 -4.6701
# 5 -19.1419 -5.2290 -18.4668 13.6656 35.1019 -6.5047
# 6 29.7134 32.4884 20.3512 -4.6701 -6.5047 34.1865
#
#
#
# Elastic Compliance Matrix: (Units=1/GPa)
#
#
# Indices 1 2 3 4 5 6 
#
# 1 0.220660 0.100828 0.001038 -0.164682 0.147636 -0.282632
# 2 0.100828 0.063522 -0.002609 -0.076364 0.066061 -0.144312
# 3 0.001038 -0.002609 0.008880 -0.001640 0.004933 -0.002995
# 4 -0.164682 -0.076364 -0.001640 0.161642 -0.125140 0.214952
# 5 0.147636 0.066061 0.004933 -0.125140 0.135817 -0.185289
# 6 -0.282632 -0.144312 -0.002995 0.214952 -0.185289 0.407938
#
#
# Mechanical properties :
#
#
# Convention : Reuss Voigt Hill
#
# Bulk Modulus (GPa) = 2.03426 45.27036 23.65231
# Shear Modulus (GPa) = 5.18777 35.81193 20.49985
#
# Velocity S-wave (km/s) = 1.55500 4.08557 3.09111
# Velocity P-wave (km/s) = 2.04259 6.58455 4.87486
#
# Compressibility (1/GPa) = 0.49157806
#
# Stress axis : x y z
#
# Youngs Moduli (GPa) = 4.53185 15.74250 112.60957
#
# Poissons Ratio (x) = -1.58728 -0.11691
# Poissons Ratio (y) = -0.45694 0.29376
# Poissons Ratio (z) = -0.00471 0.04107
#
# Static dielectric constant tensor:
#      x y z
#    x 1.166740 -1.542630 -0.284780 
#    y -1.542630 -0.998140 -0.974710 
#    z -0.284780 -0.974710 1.600740 
# 
# From -- ./inp_files/297883.got.cif
#   From: 2010.05.17/outbox.cif.g08.bks.cpg/sg2_149_cif.got.tgz:297883.got - 2010.06.03 11:33:40.
