data_PCOD9017038
_publ_section_title
;
Structure prediction by ZEFSAII (Michael W. Deem and Ramdas Pophale) SiO2 
 PCOD9017038
Probable space group: P -1
;
_chemical_formula_sum "Si O2"
_cell_formula_units_Z 16
_cell_length_a 23.774634
_cell_length_b 9.804338
_cell_length_c 12.833250
_cell_angle_alpha 120.451626
_cell_angle_beta 147.740424
_cell_angle_gamma 35.071794
_cell_volume 731.091315
_symmetry_space_group_name_H-M "P -1"
_symmetry_group_IT_number 2
_symmetry_cell_setting 'triclinic'
loop_
_space_group_symop_operation_xyz
x,y,z
-x,-y,-z
loop_
_atom_site_type_symbol
_atom_site_label
_atom_site_fract_x
_atom_site_fract_y
_atom_site_fract_z
Si Si1 0.310948 0.627355 0.245736
Si Si2 0.554861 0.904557 0.735084
Si Si3 0.398573 0.230444 0.839496
Si Si4 0.305931 0.594815 0.444944
Si Si5 0.545353 0.467759 0.938206
Si Si6 0.989378 0.809315 0.138123
Si Si7 0.991077 0.836272 0.378800
Si Si8 0.295583 0.106836 0.233634
O O1 0.500000 0.500000 0.500000
O O2 0.358195 0.380879 0.213982
O O3 0.218908 0.779141 0.274640
O O4 0.184047 0.850521 0.037279
O O5 0.695278 0.816449 0.835130
O O6 0.496160 0.064539 0.814139
O O7 0.358005 0.127221 0.441970
O O8 0.427602 0.378348 0.971228
O O9 0.157106 0.515325 0.568350
O O10 0.500000 0.000000 0.000000
O O11 0.516686 0.249865 0.615050
O O12 0.366824 0.632951 0.649032
O O13 0.158733 0.640155 0.258240
O O14 0.754102 0.107619 0.106265
O O15 0.500000 0.500000 0.000000
O O16 0.070951 0.750277 0.354509
O O17 0.892714 0.761074 0.983340
O O18 0.000000 0.000000 0.500000
#
# Coordination Sequence:
#
# PCOD9017038 Si02
#       8
#     2   2   2   2   2   2   2   2
#     4  11  22  41  69  97 139 183 223 295 340 415
#     4  10  22  42  66  98 145 175 225 285 360 402
#     4  11  26  42  69 106 142 182 226 293 358 411
#     4  11  22  40  69 102 134 176 248 274 346 407
#     4  11  22  43  73  95 139 187 236 284 329 422
#     4  12  22  40  73  99 131 179 239 280 343 418
#     4  10  22  41  67  99 130 181 234 272 339 415
#     4  10  21  42  70  97 136 181 222 293 342 418
#
# _framework density 21.885090999999999
#
# number of rings (size 3 to 8) (size 9 to 14) (size 15 to 20)
#    0.000    1.250    3.750    3.375    5.250    0.000 
#    0.000   11.875    0.000    0.000    0.000    0.000 
#    0.000    0.000    0.000    0.000    0.000    0.000 
#
# Total GULP energy -89178.903006 kJ/mol
# GULP energy per Si atom -5573.681438 kJ/mol
# Density = 2.183528 g / cm^3
# Si number density = 21.885091 Si / 1000 Ang^3
#
#
#
# Elastic Constant Matrix: (Units=GPa)
#
#
# Indices 1 2 3 4 5 6 
#
# 1 139.5284 41.7516 47.7372 -0.3418 3.2841 9.9809
# 2 41.7516 100.3579 37.3751 -1.0967 -11.0937 10.3514
# 3 47.7372 37.3751 100.3598 -4.1539 -0.0288 11.0133
# 4 -0.3418 -1.0967 -4.1539 33.5347 9.3089 -8.1945
# 5 3.2841 -11.0937 -0.0288 9.3089 44.4243 0.4985
# 6 9.9809 10.3514 11.0133 -8.1945 0.4985 38.6564
#
#
#
# Elastic Compliance Matrix: (Units=1/GPa)
#
#
# Indices 1 2 3 4 5 6 
#
# 1 0.009175 -0.002654 -0.003303 -0.000228 -0.001287 -0.000749
# 2 -0.002654 0.012960 -0.003387 -0.001616 0.003794 -0.002212
# 3 -0.003303 -0.003387 0.013033 0.001297 -0.000846 -0.001667
# 4 -0.000228 -0.001616 0.001297 0.033829 -0.007558 0.007391
# 5 -0.001287 0.003794 -0.000846 -0.007558 0.025162 -0.002369
# 6 -0.000749 -0.002212 -0.001667 0.007391 -0.002369 0.028727
#
#
# Mechanical properties :
#
#
# Convention : Reuss Voigt Hill
#
# Bulk Modulus (GPa) = 60.68418 65.99711 63.34064
# Shear Modulus (GPa) = 33.99788 37.54855 35.77321
#
# Velocity S-wave (km/s) = 3.94569 4.14661 4.04740
# Velocity P-wave (km/s) = 6.96754 7.29023 7.13071
#
# Compressibility (1/GPa) = 0.01647876
#
# Stress axis : x y z
#
# Youngs Moduli (GPa) = 108.99568 77.16176 76.72763
#
# Poissons Ratio (x) = 0.20481 0.25345
# Poissons Ratio (y) = 0.28930 0.25987
# Poissons Ratio (z) = 0.36003 0.26134
#
# Static dielectric constant tensor:
#      x y z
#    x 1.837130 -0.021570 0.025860 
#    y -0.021570 1.891230 -0.004830 
#    z 0.025860 -0.004830 1.853310 
# 
# From -- ./inp_files/470064.got.cif
#   From: 2010.05.17/outbox.cif.g08.bks.cpg/sg2_236_cif.got.tgz:470064.got - 2010.06.03 11:33:40.
