data_PCOD9017270
_publ_section_title
;
Structure prediction by ZEFSAII (Michael W. Deem and Ramdas Pophale) SiO2 
 PCOD9017270
Probable space group: P -1
;
_chemical_formula_sum "Si O2"
_cell_formula_units_Z 11
_cell_length_a 14.301959
_cell_length_b 14.057120
_cell_length_c 5.255279
_cell_angle_alpha 87.417645
_cell_angle_beta 91.071170
_cell_angle_gamma 159.285941
_cell_volume 372.501852
_symmetry_space_group_name_H-M "P -1"
_symmetry_group_IT_number 2
_symmetry_cell_setting 'triclinic'
loop_
_space_group_symop_operation_xyz
x,y,z
-x,-y,-z
loop_
_atom_site_type_symbol
_atom_site_label
_atom_site_fract_x
_atom_site_fract_y
_atom_site_fract_z
Si Si1 0.405531 0.677794 0.683897
Si Si2 0.898773 0.213656 0.416082
Si Si3 0.500000 0.000000 0.500000
Si Si4 0.824055 0.774911 0.719904
Si Si5 0.771934 0.354975 0.955413
Si Si6 0.663684 0.789206 0.100882
O O1 0.116936 0.378996 0.602294
O O2 0.634058 0.898097 0.455892
O O3 0.372853 0.757735 0.771093
O O4 0.525213 0.733225 0.916206
O O5 0.792519 0.216563 0.497804
O O6 0.071314 0.401717 0.155471
O O7 0.578912 0.135548 0.754119
O O8 0.554561 0.461457 0.682439
O O9 0.735183 0.767914 0.922068
O O10 0.000000 0.000000 0.500000
O O11 0.041811 0.908600 0.821856
O O12 0.000000 0.500000 0.000000
#
# Coordination Sequence:
#
# PCOD9017270 Si02
#       6
#     2   2   1   2   2   2
#     4  12  27  45  70 102 146 182 233 300 352 412
#     4  12  26  46  67 102 134 184 241 293 348 423
#     4  12  24  50  68 102 134 186 258 286 352 434
#     4  10  21  42  73 100 138 182 220 278 347 418
#     4  12  27  47  73  98 140 192 241 298 361 411
#     4  10  23  42  67 106 137 177 231 277 344 427
#
# _framework density 29.530052999999999
#
# number of rings (size 3 to 8) (size 9 to 14) (size 15 to 20)
#    0.000    0.727    3.636    3.273    2.545    4.364 
#    0.000    0.000    0.000    0.000    0.000    0.000 
#    0.000    0.000    0.000    0.000    0.000    0.000 
#
# Total GULP energy -61536.803127 kJ/mol
# GULP energy per Si atom -5594.254830 kJ/mol
# Density = 2.946284 g / cm^3
# Si number density = 29.530053 Si / 1000 Ang^3
#
#
#
# Elastic Constant Matrix: (Units=GPa)
#
#
# Indices 1 2 3 4 5 6 
#
# 1 138.5501 43.6316 -2.2302 10.4373 4.7626 41.7598
# 2 43.6316 227.9608 47.6460 5.1354 10.1376 6.7845
# 3 -2.2302 47.6460 106.0695 -4.3469 7.8350 20.3276
# 4 10.4373 5.1354 -4.3469 63.5228 11.9561 1.3224
# 5 4.7626 10.1376 7.8350 11.9561 62.8926 1.8737
# 6 41.7598 6.7845 20.3276 1.3224 1.8737 69.5032
#
#
#
# Elastic Compliance Matrix: (Units=1/GPa)
#
#
# Indices 1 2 3 4 5 6 
#
# 1 0.009985 -0.002183 0.002406 -0.001108 -0.000301 -0.006461
# 2 -0.002183 0.005351 -0.002740 -0.000227 -0.000361 0.001605
# 3 0.002406 -0.002740 0.011720 0.000958 -0.001246 -0.004590
# 4 -0.001108 -0.000227 0.000958 0.016599 -0.003160 0.000177
# 5 -0.000301 -0.000361 -0.001246 -0.003160 0.016731 0.000189
# 6 -0.006461 0.001605 -0.004590 0.000177 0.000189 0.019447
#
#
# Mechanical properties :
#
#
# Convention : Reuss Voigt Hill
#
# Bulk Modulus (GPa) = 45.41127 72.29723 58.85425
# Shear Modulus (GPa) = 54.22518 64.75259 59.48889
#
# Velocity S-wave (km/s) = 4.28982 4.68778 4.49321
# Velocity P-wave (km/s) = 6.32045 7.33731 6.84778
#
# Compressibility (1/GPa) = 0.02202097
#
# Stress axis : x y z
#
# Youngs Moduli (GPa) = 100.15068 186.89560 85.32423
#
# Poissons Ratio (x) = 0.40805 -0.20525
# Poissons Ratio (y) = 0.21866 0.23375
# Poissons Ratio (z) = -0.24092 0.51202
#
# Static dielectric constant tensor:
#      x y z
#    x 2.121270 -0.003160 -0.132870 
#    y -0.003160 2.152690 0.061770 
#    z -0.132870 0.061770 2.221210 
# 
# From -- ./inp_files/97107.got.cif
#   From: 2010.05.17/outbox.cif.g08.bks.cpg/sg2_49_cif.got.tgz:97107.got - 2010.06.03 11:33:40.
