data_PCOD9017135
_publ_section_title
;
Structure prediction by ZEFSAII (Michael W. Deem and Ramdas Pophale) SiO2 
 PCOD9017135
Probable space group: P -1
;
_chemical_formula_sum "Si O2"
_cell_formula_units_Z 16
_cell_length_a 21.764566
_cell_length_b 18.267381
_cell_length_c 6.745897
_cell_angle_alpha 116.226154
_cell_angle_beta 114.341642
_cell_angle_gamma 17.970373
_cell_volume 741.970659
_symmetry_space_group_name_H-M "P -1"
_symmetry_group_IT_number 2
_symmetry_cell_setting 'triclinic'
loop_
_space_group_symop_operation_xyz
x,y,z
-x,-y,-z
loop_
_atom_site_type_symbol
_atom_site_label
_atom_site_fract_x
_atom_site_fract_y
_atom_site_fract_z
Si Si1 0.805789 0.833360 0.992319
Si Si2 0.116404 0.450071 0.640574
Si Si3 0.793034 0.999386 0.935940
Si Si4 0.525682 0.906415 0.096264
Si Si5 0.494116 0.529302 0.801055
Si Si6 0.940730 0.774337 0.473337
Si Si7 0.227539 0.715918 0.413004
Si Si8 0.187518 0.569756 0.204496
O O1 0.714924 0.001838 0.918189
O O2 0.027369 0.571480 0.887473
O O3 0.691402 0.879346 0.881142
O O4 0.815976 0.861110 0.256468
O O5 0.348407 0.193679 0.684087
O O6 0.055101 0.584219 0.550165
O O7 0.000000 0.500000 0.500000
O O8 0.809584 0.977708 0.694129
O O9 0.012660 0.761473 0.036423
O O10 0.656900 0.223069 0.116029
O O11 0.641017 0.691427 0.927763
O O12 0.500000 0.000000 0.000000
O O13 0.390898 0.572710 0.599932
O O14 0.704833 0.320919 0.749253
O O15 0.500000 0.500000 0.000000
O O16 0.085332 0.662166 0.389717
O O17 0.251111 0.591688 0.308440
O O18 0.000000 0.000000 0.500000
#
# Coordination Sequence:
#
# PCOD9017135 Si02
#       8
#     2   2   2   2   2   2   2   2
#     4  10  23  44  67  92 135 175 228 281 341 410
#     4  11  24  44  65  97 134 175 225 291 342 406
#     4  10  21  44  68  97 139 181 224 285 341 412
#     4  12  25  43  68 100 134 179 228 281 343 409
#     4  11  26  43  70 109 141 179 238 283 347 421
#     4  10  21  42  71  92 130 187 225 279 353 399
#     4  11  25  46  73 102 145 186 225 291 353 412
#     4  11  23  45  69  98 139 181 231 284 348 411
#
# _framework density 21.564194000000001
#
# number of rings (size 3 to 8) (size 9 to 14) (size 15 to 20)
#    0.000    1.250    5.000    1.500    3.500    5.000 
#    6.750    0.000    0.000    0.000    0.000    0.000 
#    0.000    0.000    0.000    0.000    0.000    0.000 
#
# Total GULP energy -89339.244223 kJ/mol
# GULP energy per Si atom -5583.702764 kJ/mol
# Density = 2.151511 g / cm^3
# Si number density = 21.564194 Si / 1000 Ang^3
#
#
#
# Elastic Constant Matrix: (Units=GPa)
#
#
# Indices 1 2 3 4 5 6 
#
# 1 161.2712 34.9810 47.6567 -5.9631 2.7466 -23.3212
# 2 34.9810 77.3978 19.2608 11.2053 -4.3443 -10.9194
# 3 47.6567 19.2608 111.6884 5.2033 -8.8653 -18.5773
# 4 -5.9631 11.2053 5.2033 25.4582 -0.5164 2.3693
# 5 2.7466 -4.3443 -8.8653 -0.5164 37.0322 4.7056
# 6 -23.3212 -10.9194 -18.5773 2.3693 4.7056 33.3108
#
#
#
# Elastic Compliance Matrix: (Units=1/GPa)
#
#
# Indices 1 2 3 4 5 6 
#
# 1 0.008378 -0.003269 -0.002799 0.003628 -0.002039 0.003262
# 2 -0.003269 0.016194 -0.000372 -0.008081 0.001538 0.003170
# 3 -0.002799 -0.000372 0.011216 -0.003117 0.002288 0.004072
# 4 0.003628 -0.008081 -0.003117 0.044768 -0.000712 -0.004931
# 5 -0.002039 0.001538 0.002288 -0.000712 0.028330 -0.003599
# 6 0.003262 0.003170 0.004072 -0.004931 -0.003599 0.036473
#
#
# Mechanical properties :
#
#
# Convention : Reuss Voigt Hill
#
# Bulk Modulus (GPa) = 43.65472 61.57270 52.61371
# Shear Modulus (GPa) = 30.14297 35.72418 32.93358
#
# Velocity S-wave (km/s) = 3.74281 4.07460 3.91222
# Velocity P-wave (km/s) = 6.24229 7.12403 6.69768
#
# Compressibility (1/GPa) = 0.02290703
#
# Stress axis : x y z
#
# Youngs Moduli (GPa) = 119.36438 61.75167 89.15727
#
# Poissons Ratio (x) = 0.20189 0.24956
# Poissons Ratio (y) = 0.39024 0.03316
# Poissons Ratio (z) = 0.33412 0.02297
#
# Static dielectric constant tensor:
#      x y z
#    x 1.767920 -0.046810 -0.009380 
#    y -0.046810 1.713750 0.008620 
#    z -0.009380 0.008620 1.798850 
# 
# From -- ./inp_files/120123.got.cif
#   From: 2010.05.17/outbox.cif.g08.bks.cpg/sg2_61_cif.got.tgz:120123.got - 2010.06.03 11:33:40.
